#------------------------------------------------------------------------------
#$Date: 2018-05-01 18:57:57 +0300 (Tue, 01 May 2018) $
#$Revision: 207604 $
#$URL: file:///home/coder/svn-repositories/cod/cif/1/54/93/1549359.cif $
#------------------------------------------------------------------------------
#
# This file is available in the Crystallography Open Database (COD),
# http://www.crystallography.net/. The original data for this entry
# were provided by IUCr Journals, http://journals.iucr.org/.
#
# The file may be used within the scientific community so long as
# proper attribution is given to the journal article from which the
# data were obtained.
#
data_1549359
loop_
_publ_author_name
'Ivlev, Sergei I.'
'Kraus, Florian'
_publ_section_title
;
 Redetermination of the crystal structure of K[BrF4] from single-crystal
 X-ray diffraction data
;
_journal_coeditor_code           WM4077
_journal_issue                   5
_journal_name_full               IUCrData
_journal_paper_doi               10.1107/S2414314618006466
_journal_volume                  3
_journal_year                    2018
_chemical_formula_iupac          'K +, Br F4 -'
_chemical_formula_moiety         'K +, Br F4 -'
_chemical_formula_sum            'Br F4 K'
_chemical_formula_weight         195.01
_chemical_melting_point          533
_chemical_name_common            'Potassium Tetrafluorobromate'
_chemical_name_systematic        'Potassium tetrafluoridobromate(III)'
_space_group_crystal_system      tetragonal
_space_group_IT_number           140
_space_group_name_Hall           '-I 4 2c'
_space_group_name_H-M_alt        'I 4/m c m'
_symmetry_space_group_name_Hall  '-I 4 2c'
_symmetry_space_group_name_H-M   'I 4/m c m'
_atom_sites_solution_primary     direct
_audit_creation_method           SHELXL-2016/6
_cell_angle_alpha                90
_cell_angle_beta                 90
_cell_angle_gamma                90
_cell_formula_units_Z            4
_cell_length_a                   6.0999(6)
_cell_length_b                   6.0999(6)
_cell_length_c                   11.0509(14)
_cell_measurement_reflns_used    3833
_cell_measurement_temperature    100(2)
_cell_measurement_theta_max      32.13
_cell_measurement_theta_min      3.69
_cell_volume                     411.19(8)
_computing_cell_refinement
;
Recipe in X-AREA (Stoe & Cie, 2015)
;
_computing_data_collection
;
WinXpose in X-AREA (Stoe & Cie, 2016)
;
_computing_data_reduction
;
Integrate in X-AREA (Stoe & Cie, 2018)
;
_computing_molecular_graphics
;
DIAMOND (Brandenburg, 2018)
;
_computing_publication_material
;
publCIF (Westrip, 2010)
;
_computing_structure_refinement
;
SHELXL2016 (Sheldrick, 2015b)
;
_computing_structure_solution
;
SHELXT2014 (Sheldrick, 2015a)
;
_diffrn_ambient_temperature      100
_diffrn_detector_area_resol_mean 6.67
_diffrn_measured_fraction_theta_full 1.000
_diffrn_measured_fraction_theta_max 1.000
_diffrn_measurement_device       '2-circle diffractometer'
_diffrn_measurement_device_type  'STOE IPDS 2T'
_diffrn_measurement_method       'rotation method, \w scans'
_diffrn_radiation_monochromator  'plane graphite'
_diffrn_radiation_type           'Mo K\a'
_diffrn_radiation_wavelength     0.71073
_diffrn_reflns_av_R_equivalents  0.0499
_diffrn_reflns_limit_h_max       9
_diffrn_reflns_limit_h_min       -9
_diffrn_reflns_limit_k_max       9
_diffrn_reflns_limit_k_min       -8
_diffrn_reflns_limit_l_max       16
_diffrn_reflns_limit_l_min       -16
_diffrn_reflns_number            2822
_diffrn_reflns_theta_full        25.242
_diffrn_reflns_theta_max         31.840
_diffrn_reflns_theta_min         3.687
_exptl_absorpt_coefficient_mu    10.950
_exptl_absorpt_correction_T_max  0.2721
_exptl_absorpt_correction_T_min  0.1566
_exptl_absorpt_correction_type   numerical
_exptl_absorpt_process_details
;
(X-RED32 and X-SHAPE; Stoe & Cie, 2017)
;
_exptl_crystal_colour            colorless
_exptl_crystal_density_diffrn    3.150
_exptl_crystal_description       block
_exptl_crystal_F_000             360
_exptl_crystal_size_max          0.231
_exptl_crystal_size_mid          0.146
_exptl_crystal_size_min          0.127
_refine_diff_density_max         0.598
_refine_diff_density_min         -0.733
_refine_ls_extinction_coef       0.0087(11)
_refine_ls_extinction_expression Fc^*^=kFc[1+0.001xFc^2^\l^3^/sin(2\q)]^-1/4^
_refine_ls_extinction_method
;
SHELXL2016 (Sheldrick, 2015b)
;
_refine_ls_goodness_of_fit_ref   1.244
_refine_ls_matrix_type           full
_refine_ls_number_parameters     13
_refine_ls_number_reflns         214
_refine_ls_number_restraints     0
_refine_ls_restrained_S_all      1.244
_refine_ls_R_factor_all          0.0171
_refine_ls_R_factor_gt           0.0153
_refine_ls_shift/su_max          0.000
_refine_ls_shift/su_mean         0.000
_refine_ls_structure_factor_coef Fsqd
_refine_ls_weighting_details
'w=1/[\s^2^(Fo^2^)+(0.0152P)^2^+0.2331P] where P=(Fo^2^+2Fc^2^)/3'
_refine_ls_weighting_scheme      calc
_refine_ls_wR_factor_gt          0.0314
_refine_ls_wR_factor_ref         0.0322
_reflns_number_gt                198
_reflns_number_total             214
_reflns_threshold_expression     'I > 2\s(I)'
_cod_data_source_file            wm4077sup1.cif
_cod_data_source_block           I
_cod_original_cell_volume        411.19(10)
_cod_database_code               1549359
_shelx_space_group_comment
;
The symmetry employed for this shelxl refinement is uniquely defined
by the following loop, which should always be used as a source of
symmetry information in preference to the above space-group names.
They are only intended as comments.
;
_shelx_estimated_absorpt_t_min   0.186
_shelx_estimated_absorpt_t_max   0.337
_shelx_hkl_file
;
   1  -1   0 1740.93    2.30
  -1   1   0 1760.82    2.30
  -1  -1   0 1756.32    2.20
   1   1   0 1818.92    2.20
   2   0   0 2845.22    2.60
   0  -2   0 2857.31    3.60
   0   2   0 2864.21    3.60
   2   2   0 4716.43    5.00
  -3  -1   0   17.10    1.50
   1  -3   0   14.90    2.50
   3   1   0   16.20    1.40
  -1   3   0   11.60    2.50
  -3   1   0   12.10    1.70
   3  -1   0   17.70    1.90
   1   3   0   20.40    2.40
   3  -3   0 1912.81    4.60
   3   3   0 1899.31    3.30
   3   3   0 1948.31    4.20
   3   3   0 2010.70    4.00
  -3   3   0 1947.81    4.40
   4   2   0 3057.59    4.70
  -4  -2   0 2981.60    4.60
  -2   4   0 3067.29    5.80
   2  -4   0 2984.80    5.80
   0  -4   0 1079.89    4.00
  -4   0   0 1050.39    2.90
   4   0   0 1061.09    3.10
   0   4   0 1054.99    4.00
  -4   2   0 2976.90    4.70
   2   4   0 2959.20    5.30
   2   4   0 3010.70    6.00
   4  -2   0 3012.40    5.10
   4  -4   0 2353.66    6.10
   4   4   0 2525.85    5.20
   4   4   0 2400.56    5.50
   4   4   0 2382.96    4.00
  -4   4   0 2521.75    5.90
  -5  -3   0  195.68    3.20
   3  -5   0  194.98    4.20
  -3   5   0  192.48    4.10
   5   3   0  192.88    2.90
   5   1   0  397.46    3.00
  -5  -1   0  386.46    2.60
   1  -5   0  394.66    4.10
  -1   5   0  403.86    4.20
  -5   1   0  391.16    2.80
   5  -1   0  388.46    3.10
   1   5   0  394.46    4.10
  -5   3   0  195.68    3.30
   3   5   0  193.58    3.50
   5  -3   0  192.18    3.70
   3   5   0  174.88    3.20
   3   5   0  197.28    4.60
   5   5   0  187.88    5.00
   5   5   0  185.38    2.60
   5  -5   0  163.58    4.90
  -5   5   0  198.48    4.70
   5   5   0  168.88    3.70
   4  -6   0  552.74    5.90
  -4   6   0  660.23    5.80
   6   4   0  566.14    4.60
   6   4   0  630.44    5.10
  -2   6   0 1066.79    5.60
  -6  -2   0 1034.20    4.00
   6   2   0 1029.10    3.80
   2  -6   0 1012.10    5.80
   0   6   0 2729.23    7.20
   0  -6   0 2673.43    6.90
  -6   0   0 2798.12    5.30
   6   0   0 2746.63    5.20
   2   6   0 1016.10    5.70
  -6   2   0 1059.59    4.20
   2   6   0 1011.10    5.30
   6  -2   0 1007.20    4.50
  -6   4   0  632.54    4.80
   4   6   0  601.14    4.40
   6  -4   0  546.65    5.10
   4   6   0  608.94    5.40
   4   6   0  560.24    4.70
   6  -6   0  827.12    7.90
   6   6   0 1006.90    7.10
  -6   6   0 1151.98    7.10
   6   6   0  861.31    6.30
   6   6   0 1027.80    3.90
   5  -7   0   96.49    6.70
   7   5   0  104.29    5.10
   7   5   0  124.29    5.00
  -5   7   0  135.69    6.50
   7   3   0   19.80    3.30
   3  -7   0   32.10    5.30
  -3   7   0   20.80    5.70
   1  -7   0  352.16    5.50
  -7  -1   0  361.86    4.00
   7   1   0  322.57    3.50
  -1   7   0  375.96    5.70
  -7   1   0  370.36    4.20
  -7   1   0  309.47    1.50
   7  -1   0  327.87    4.60
   1   7   0  331.67    5.20
  -7   1   0  356.56    1.50
   1   7   0  371.46    5.80
   7  -3   0   13.80    5.10
   3   7   0   24.30    5.20
  -7   3   0   28.30    4.00
   3   7   0   18.40    5.10
   3   7   0   21.80    4.80
  -7   5   0  120.89    6.20
   5   7   0  128.89    6.00
   5   7   0  121.09    4.30
   7  -5   0   93.39    6.10
   5   7   0  100.99    5.20
   8   4   0  554.84    5.40
   8   4   0  415.26    5.30
   4  -8   0  440.76    7.40
  -4   8   0  584.74    7.90
   2  -8   0  662.13    7.30
  -2   8   0  744.43    7.20
   8   2   0  593.84    5.00
  -8  -2   0  707.53    5.30
  -8   0   0  827.02    5.10
   0   8   0  853.21    7.40
   8   0   0  462.65    4.90
   0   8   0  765.52    6.90
   2   8   0  670.83    6.80
   8  -2   0  559.94    5.20
   2   8   0  625.34    6.70
   2   8   0  722.53    7.00
  -8   2   0  726.13    5.00
  -8   2   0  729.33    2.50
  -8   2   0  728.83    2.40
   4   8   0  411.26    6.40
   4   8   0  527.75    7.40
  -8   4   0  575.34    6.90
   4   8   0  521.05    6.60
   8  -4   0  398.26    6.30
  -1   9   0   43.60    8.10
  -9  -1   0   43.30    4.40
   1   9   0  -48.20    7.90
  -1   0   1    2.00    0.90
   0   1   1    7.80    1.10
   1   0   1    8.30    0.50
   0  -1   1    1.70    0.80
  -1   0   1    0.70    0.40
   1   0  -1    3.00    0.90
   1   0  -1    2.20    0.40
  -1   0  -1    1.80    0.40
   0   1  -1    6.00    1.10
  -2  -1   1  668.03    2.00
   2   1   1  699.73    1.60
   2   1   1  670.13    1.40
  -1   2   1  691.33    2.60
   1  -2   1  678.23    2.50
   1  -2  -1  670.23    2.50
  -1   2  -1  680.53    2.40
  -2  -1  -1  666.63    1.50
   2   1  -1  680.03    2.00
  -2  -1  -1  676.73    1.70
   2  -1   1  662.93    1.90
  -2   1   1  682.93    2.20
   1   2   1  673.83    2.20
  -1  -2  -1  707.23    2.00
   1   2  -1  679.93    2.40
   1   2  -1  686.23    2.50
  -2   1  -1  694.43    1.80
   2  -1  -1  676.53    2.30
   3   2   1   16.00    1.50
  -3  -2   1   25.90    2.10
  -2   3   1  -12.00    2.80
   3   2   1   20.60    1.40
   2  -3   1   15.20    2.60
   3   2  -1   20.40    1.20
   3   2  -1   18.70    2.10
  -2   3  -1   18.20    2.50
  -3  -2  -1   19.90    2.10
   2  -3  -1   17.40    2.60
  -3   0   1   -0.90    1.60
   0  -3   1    1.30    2.50
   0   3   1    3.10    2.40
   3   0   1    0.80    1.60
   0   3  -1   -4.70    2.40
  -3   0  -1   -0.20    1.10
   0  -3  -1   -0.80    2.20
   3   0  -1    1.00    1.70
   2   3   1   20.80    2.40
  -3   2   1   13.10    2.30
   2   3   1   22.70    2.40
   3  -2   1   23.00    2.30
   2   3   1   20.60    2.30
   3  -2  -1   19.10    2.50
   2   3  -1   15.10    2.30
  -3   2  -1   13.30    2.10
   2   3  -1   15.80    2.50
   4   3   1    5.70    2.90
  -3   4   1   13.90    3.40
   4   3   1    3.50    2.20
  -4  -3   1    7.20    2.80
   3  -4   1    8.60    3.40
   4   3   1    5.60    1.80
  -3   4  -1   -0.80    3.20
   4   3  -1    7.30    1.40
   3  -4  -1   -0.30    3.40
   4   3  -1    2.80    3.10
  -4  -1   1  129.79    2.20
   1  -4   1  133.29    3.20
  -1   4   1  130.19    3.20
   4   1   1  128.39    1.90
  -1   4  -1  129.89    3.10
   1  -4  -1  137.89    3.10
   4   1  -1  130.29    2.20
  -4  -1  -1  130.59    1.40
  -4  -1  -1  129.39    1.70
  -4   1   1  126.19    2.70
   4  -1   1  127.49    2.20
   1   4   1  132.39    3.10
  -1  -4  -1  131.69    2.80
   1   4  -1  119.09    3.10
   4  -1  -1  132.09    2.50
  -4   1  -1  129.69    2.20
   1   4  -1  132.39    2.90
   3   4   1    2.30    3.10
   3   4   1    7.50    2.30
   4  -3   1   12.00    3.10
  -4   3   1    9.40    3.00
   3   4   1    3.70    3.00
   3   4  -1   15.40    3.10
   3   4  -1    8.10    2.90
  -4   3  -1   10.00    2.80
   4  -3  -1    5.70    3.80
   5   4   1   50.09    2.80
   4  -5   1   51.09    4.40
   5   4   1   50.59    2.40
  -4   5   1   61.59    4.40
   5   4   1   50.59    3.80
   5   4  -1   58.09    3.60
   5   4  -1   54.09    1.80
  -4   5  -1   53.79    4.10
   4  -5  -1   51.69    4.60
   5   4  -1   56.99    3.30
   5   2   1  149.19    2.60
  -2   5   1  165.48    4.20
   2  -5   1  145.49    4.10
  -5  -2   1  148.99    2.90
   5   2  -1  161.68    2.80
   2  -5  -1  145.19    4.10
  -2   5  -1  149.88    4.00
  -5  -2  -1  151.38    2.90
  -5   0   1   -3.20    2.40
   0  -5   1    3.30    3.60
   0   5   1    3.30    3.60
   5   0   1    0.90    2.10
  -5   0  -1    0.00    1.30
   0   5  -1   -3.40    3.60
   5   0  -1    2.30    2.60
  -5   0  -1   -0.20    1.80
   0  -5  -1    0.80    3.40
   2   5   1  143.39    3.40
   2   5   1  147.69    4.00
   5  -2   1  154.38    3.50
  -5   2   1  149.59    3.00
   2   5  -1  154.18    3.70
  -5   2  -1  142.89    3.00
   5  -2  -1  145.79    3.40
   2   5  -1  150.58    3.90
   4   5   1   50.69    3.20
  -5   4   1   52.99    3.90
   5  -4   1   51.49    4.00
   4   5   1   50.29    4.50
   4   5   1   44.20    3.80
  -5   4  -1   50.79    3.70
   4   5  -1   55.09    3.70
   4   5  -1   53.09    2.90
   4   5  -1   49.80    4.10
   5  -4  -1   52.99    4.00
   6   5   1   17.70    3.40
   5  -6   1    8.80    5.40
  -5   6   1    0.30    5.50
   6   5   1    6.00    4.10
   5  -6  -1    8.30    5.60
  -5   6  -1   18.10    5.10
   6   5  -1   18.60    5.30
   6   5  -1   11.20    4.00
  -3   6   1   -3.20    4.80
   3  -6   1   -8.30    4.60
   6   3   1   -1.10    3.30
  -6  -3   1   -5.80    4.10
   6   3   1    4.70    3.00
   6   3  -1    3.00    3.80
  -3   6  -1    0.30    4.60
   3  -6  -1   -4.90    4.60
  -6  -1   1   14.10    3.40
   1  -6   1   12.70    4.40
  -1   6   1   23.90    4.60
   6   1   1   17.00    2.90
  -1   6  -1   22.40    4.30
   1  -6  -1    5.80    4.40
   6   1  -1    9.70    2.90
  -6  -1  -1   14.70    2.40
  -6   1   1    9.90    3.60
   6  -1   1    9.00    2.80
   1   6   1   20.70    4.40
  -6   1   1   11.40    1.40
   1   6  -1   16.10    4.40
  -6   1  -1   11.50    2.90
   1   6  -1   14.80    4.20
   6  -1  -1   13.40    3.80
   3   6   1   -4.80    3.80
   6  -3   1   -3.50    3.80
   3   6   1    1.80    4.40
  -6   3   1    0.60    3.70
   3   6   1    0.10    3.70
   3   6  -1   -1.10    4.10
   6  -3  -1    4.00    4.00
   3   6  -1   -1.10    4.60
  -6   3  -1   -1.00    3.30
   5   6   1   13.00    3.50
  -6   5   1    2.90    4.90
   6  -5   1    5.40    5.10
   5   6   1    8.00    3.80
   5   6   1    8.40    5.50
   5   6  -1    6.70    5.10
   6  -5  -1    3.40    5.20
   5   6  -1   12.90    3.20
   5   6  -1   -1.10    5.80
  -6   5  -1   20.80    5.30
   7   4   1    6.80    3.90
   7   4   1    4.80    4.50
  -4   7   1    1.70    5.70
   4  -7   1    2.50    6.00
   7   4  -1    3.60    3.90
  -4   7  -1    2.80    6.70
   4  -7  -1   -0.40    6.10
   7   4  -1    3.20    4.40
   7   2   1   13.50    3.40
  -7  -2   1    8.90    3.60
  -2   7   1    9.90    5.50
   2  -7   1   19.90    5.20
  -2   7  -1   20.50    5.40
   2  -7  -1   13.00    5.30
  -7  -2  -1   20.50    3.60
   7   2  -1   16.80    3.50
   7   0   1    3.40    3.50
   0   7   1   -1.40    5.20
  -7   0   1    1.40    3.90
   0  -7  -1   17.20    4.90
  -7   0  -1   -2.00    3.20
   7   0  -1    0.60    3.50
   0   7  -1   -0.30    5.20
   2   7   1   20.40    4.90
   2   7   1   17.60    4.60
   2   7   1   21.60    5.40
   7  -2   1   13.80    4.40
  -7   2   1   23.80    4.50
  -7   2   1   15.10    2.30
   2   7  -1   11.30    5.40
  -7   2  -1   14.20    3.90
   7  -2  -1   17.50    4.90
   2   7  -1    9.10    4.90
  -7   4   1    4.40    4.80
   7  -4   1   -4.70    4.90
   4   7   1    9.40    4.50
   4   7   1    9.60    4.10
   4   7   1   -1.10    5.50
  -7   4  -1    1.20    4.40
   4   7  -1    0.00    4.00
   7  -4  -1    8.80    5.00
   4   7  -1    3.20    6.40
   4   7  -1   -0.50    5.00
   3  -8   1    0.60    6.70
  -3   8   1    4.80    6.90
   8   3   1    2.30    4.50
   8   3   1   -1.70    4.00
  -8  -3   1    8.60    4.60
   3  -8  -1   -5.30    6.70
   8   3  -1    2.90    4.20
  -3   8  -1    1.00    6.80
   8   1   1   26.30    3.90
  -1   8   1   30.30    6.60
  -8  -1   1   27.90    4.00
   8   1  -1   20.00    3.80
  -1   8  -1   32.90    6.40
   1  -8  -1   31.10    6.10
  -8  -1  -1   34.00    4.00
   1   8   1   28.60    6.10
   8  -1   1   22.70    4.50
   1   8   1   24.00    6.20
   1   8   1   29.00    5.70
  -8   1   1   33.00    4.80
   1   8  -1   28.60    6.40
   8  -1  -1   27.10    4.30
   1   8  -1   24.60    5.80
  -8   1  -1   22.20    3.50
   3   8   1   -6.80    6.50
   3   8   1    3.00    6.40
  -8   3   1    4.90    4.90
   3   8   1    0.60    5.60
   8  -3   1   -2.20    5.70
  -8   3   1    3.00    2.90
   3   8  -1    3.60    6.00
   3   8  -1   -5.10    6.60
  -8   3  -1    4.80    5.00
   3   8  -1    2.00    5.50
   8  -3  -1    3.30    6.20
   0   9   1   -7.60    7.20
   0   9   1    5.50    7.40
  -9   0   1    1.60    4.80
   0   9   1   -7.00    8.20
   9   0   1    4.30    4.90
   9   0  -1    5.80    5.80
   0   9  -1   -7.50    7.80
   0   9  -1   -5.00    7.10
  -9   0  -1   -2.40    4.50
   0   0   2  823.82    1.10
  -1  -1   2 5051.79    4.30
  -1   1   2 9999.00    5.60
   1   1   2 5172.68    3.80
  -1  -1  -2 5160.58    3.80
   1   1  -2 4986.50    4.00
  -2   0   2  499.75    1.00
  -2   0   2  493.35    2.00
   0   2   2  484.35    2.20
   2   0   2  509.25    1.10
   0   2   2  501.35    2.60
   2   0  -2  494.45    2.00
   0   2  -2  517.95    2.30
   0   2  -2  508.95    2.30
   0  -2  -2  482.95    2.10
  -2   0  -2  493.45    0.90
   2  -2   2  489.45    2.50
   2   2   2  510.15    2.20
   2   2   2  520.85    2.20
  -2   2   2  504.65    2.90
   2   2   2  510.65    2.00
  -2  -2   2  505.25    2.60
  -2   2  -2  494.25    2.30
   2  -2  -2  491.15    2.90
   2   2  -2  505.55    2.50
  -3  -1   2 3113.39    4.20
  -1   3   2 3285.07    5.10
   1  -3   2 3147.89    5.00
  -3  -1  -2 3195.58    3.60
  -1   3  -2 3144.09    4.80
  -3  -1  -2 3975.20    3.70
   3   1  -2 3206.88    4.30
   1  -3  -2 3091.79    4.90
   3  -1   2 3171.68    3.80
   1   3   2 3053.39    4.90
  -3   1   2 3168.28    4.30
   1   3   2 3192.68    4.70
  -1  -3  -2 3169.88    4.30
   1   3  -2 3162.38    4.90
   1   3  -2 3204.48    5.00
   3  -1  -2 3184.08    4.40
  -3  -3   2 2552.34    5.10
  -3   3   2 2658.63    5.20
   3   3   2 2566.34    3.90
   3  -3   2 2526.35    5.10
   3   3   2 2522.05    4.40
   3   3   2 2668.53    4.20
   3  -3  -2 2541.75    5.20
  -3   3  -2 2612.94    4.70
   3   3  -2 2629.54    4.90
  -4  -2   2  370.66    3.00
   4   2   2  383.36    2.20
  -2   4   2  397.26    3.70
   2  -4   2  376.36    3.70
  -2   4  -2  381.96    3.40
   4   2  -2  386.36    3.00
   2  -4  -2  360.96    3.50
   0   4   2  387.56    3.50
   4   0   2  372.26    2.00
  -4   0   2  373.06    2.70
   0   4  -2  370.26    3.40
  -4   0  -2  364.26    1.90
   4   0  -2  366.86    3.10
   0  -4  -2  379.66    3.20
   2   4   2  371.76    3.40
   2   4   2  382.26    2.90
   4  -2   2  409.66    3.30
   2   4   2  377.56    3.20
  -4   2   2  379.26    3.10
   4  -2  -2  384.36    3.40
  -4   2  -2  402.86    2.90
   2   4  -2  381.86    3.50
   2   4  -2  383.26    3.60
   4   4   2  281.57    3.20
   4  -4   2  270.57    4.00
   4   4   2  298.37    2.90
  -4   4   2  285.17    4.10
   4   4   2  275.07    3.30
  -4   4  -2  283.57    3.60
   4   4  -2  285.57    3.70
   4   4  -2  243.48    2.30
   4  -4  -2  272.77    4.20
   4   4  -2  287.47    3.90
   3  -5   2 1473.45    5.80
   5   3   2 1528.65    3.80
  -3   5   2 1596.54    5.80
  -5  -3   2 1457.45    4.90
   5   3   2 1532.25    4.40
   5   3  -2 1505.35    4.80
  -3   5  -2 1567.94    5.50
   3  -5  -2 1435.06    5.70
   1  -5   2 1928.01    5.90
  -1   5   2 1928.61    5.90
  -5  -1   2 1890.91    4.50
   5   1   2 1945.01    3.50
  -1   5  -2 1922.41    5.60
   5   1  -2 1935.41    4.60
  -5  -1  -2 1919.81    3.60
   1  -5  -2 1904.41    5.60
  -5  -1  -2 1934.61    2.90
   5  -1   2 1973.70    4.30
  -5   1   2 2043.40    2.80
  -5   1   2 1904.31    4.60
   1   5   2 1961.00    5.70
  -1  -5  -2 1898.01    5.10
   1   5  -2 1950.30    5.60
   1   5  -2 1906.61    5.80
   5  -1  -2 1914.61    4.80
  -5   1  -2 1921.81    3.70
   3   5   2 1491.55    5.30
   3   5   2 1465.65    4.70
   3   5   2 1525.75    5.10
  -5   3   2 1529.45    5.10
   5  -3   2 1426.06    4.80
   3   5  -2 1473.85    5.50
   3   5  -2 1490.45    5.30
  -5   3  -2 1541.65    4.30
   5  -3  -2 1475.85    5.40
  -5   5   2 1099.99    6.10
   5  -5   2  921.41    5.80
   5   5   2 1063.09    4.00
   5   5   2 1055.99    5.10
   5   5   2  949.51    4.20
   5   5  -2  982.00    5.20
   5   5  -2 1064.49    5.70
   5   5  -2 1057.69    3.20
  -5   5  -2 1107.69    5.40
   5  -5  -2  966.60    6.10
   6   4   2  139.39    3.30
   6   4   2  154.98    4.10
   4  -6   2  143.09    5.10
  -4   6   2  180.88    6.20
   4  -6  -2  155.38    5.20
   6   4  -2  141.99    4.10
  -4   6  -2  166.48    5.00
  -2   6   2  232.98    5.20
   2  -6   2  212.88    4.90
  -6  -2   2  214.58    3.60
   6   2   2  208.98    2.80
   6   2  -2  213.78    4.10
   2  -6  -2  211.88    4.80
  -6  -2  -2  214.48    3.00
  -2   6  -2  213.28    4.70
  -6   0   2  280.27    3.40
   6   0   2  284.27    3.10
   0   6   2  267.97    4.80
   0   6  -2  282.47    4.80
  -6   0  -2  268.97    2.00
   6   0  -2  260.67    3.60
  -6   0  -2  273.27    2.70
   0  -6  -2  286.87    4.40
   0   6  -2  282.47    4.70
  -6   2   2  227.48    4.40
   2   6   2  216.68    4.50
   6  -2   2  207.48    3.90
   2   6   2  205.98    4.10
   2   6   2  223.48    4.80
  -6   2   2  215.98    2.50
   6  -2  -2  198.08    4.70
   2   6  -2  204.18    4.50
  -6   2  -2  219.08    2.90
   2   6  -2  217.88    4.70
   4   6   2  152.58    5.60
   4   6   2  161.28    4.30
   4   6   2  145.99    3.90
  -6   4   2  161.68    4.70
   6  -4   2  144.99    5.20
  -6   4  -2  167.98    4.00
   4   6  -2  160.28    3.80
   6  -4  -2  147.49    4.90
   4   6  -2  135.69    4.60
   4   6  -2  151.38    5.00
   6  -6   2   93.59    6.10
   6   6   2  112.39    5.00
   6   6   2   93.09    4.70
  -6   6   2  115.49    6.00
  -6   6  -2  121.19    6.30
   6   6  -2   99.79    6.80
   6  -6  -2   99.19    6.20
   6   6  -2  102.49    2.20
   6   6  -2   94.89    5.40
   7   5   2  515.95    4.60
   7   5   2  630.44    5.80
   5  -7   2  502.75    7.20
  -5   7   2  675.43    7.30
   5  -7  -2  537.65    7.50
   7   5  -2  512.15    5.60
  -5   7  -2  701.43    7.00
   7   5  -2  639.44    6.30
   7   3   2  781.72    4.20
  -3   7   2  922.11    6.80
   7   3   2  859.71    4.90
   3  -7   2  769.82    6.70
  -7  -3   2  838.52    5.30
   7   3  -2  759.32    4.80
   3  -7  -2  786.02    6.70
  -3   7  -2  939.51    6.60
  -7  -1   2 1048.50    4.90
  -1   7   2 1088.09    6.80
   7   1   2  984.30    3.90
  -1   7  -2 1091.59    6.70
  -7  -1  -2 1075.39    4.00
   1  -7  -2 1024.60    6.30
   7   1  -2  966.90    4.80
   1   7   2 1069.39    6.60
  -7   1   2 1074.79    5.10
   1   7   2 1006.30    6.60
   7  -1   2  939.61    4.50
   7  -1  -2  955.60    5.10
  -7   1  -2 1085.99    4.00
  -7   1  -2 1079.29    3.10
   1   7  -2 1053.89    6.50
   1   7  -2  990.30    6.30
   7  -3   2  712.33    5.50
  -7   3   2  882.41    4.10
  -7   3   2  898.41    5.60
   3   7   2  825.12    6.40
   3   7   2  742.83    5.40
   3   7   2  852.21    5.70
   3   7  -2  761.82    5.80
   3   7  -2  865.31    6.60
  -7   3  -2  901.41    4.50
   7  -3  -2  748.43    6.40
   5   7   2  484.85    5.30
  -7   5   2  689.53    7.40
   5   7   2  618.84    4.70
   7  -5   2  480.25    6.30
  -7   5   2 -573.24    7.90
   5   7   2  617.74    6.50
   5   7  -2  497.25    6.90
   5   7  -2  618.64    4.50
   5   7  -2  624.84    7.10
  -7   5  -2  647.84    6.60
   7  -5  -2  491.35    6.50
   8   4   2   67.89    4.10
   8   4   2   84.39    4.80
  -4   8   2  100.19    8.50
   4  -8   2   71.49    8.50
   8   4  -2   61.29    6.00
   8   4  -2   86.29    5.70
   4  -8  -2   84.49    7.10
  -4   8  -2   91.39    7.30
   8   2   2   96.79    3.50
  -8  -2   2  104.79    4.70
  -2   8   2  118.59    7.00
   8   2  -2  101.09    4.50
  -2   8  -2  120.89    6.30
   2  -8  -2  102.79    6.60
  -8   0   2  125.49    4.50
   8   0   2  106.29    3.90
   0   8   2  109.69    6.90
   0   8   2  125.79    6.60
   0   8  -2  112.39    6.50
   0   8  -2  116.69    6.40
   0  -8  -2  121.39    6.10
  -8   0  -2  109.99    3.40
   8   0  -2   99.19    4.50
   2   8   2  106.09    6.10
  -8   2   2  117.39    5.00
   2   8   2  115.59    7.40
   2   8   2  100.49    5.70
   8  -2   2   89.89    4.80
  -8   2  -2  117.39    4.10
   2   8  -2  107.99    5.80
   8  -2  -2   82.79    5.20
   2   8  -2  119.49    6.40
  -8   2  -2  120.89    2.90
   8  -4   2   61.29    5.60
  -8   4   2   94.79    6.10
  -8   4   2   90.49    4.20
   4   8   2   85.69    6.90
   4   8   2   86.59    6.50
   4   8   2   63.79    6.40
   4   8  -2   66.09    7.30
   4   8  -2   83.79    7.20
  -8   4  -2   87.89    4.90
   4   8  -2   73.49    5.80
   0   1   3   -2.40    1.10
   0  -1   3    0.10    1.60
   0   1   3    2.90    1.40
  -1   0   3   -0.40    1.30
   1   0   3    1.10    0.60
   1   0  -3    2.50    1.40
  -1   0  -3    1.00    0.50
   1   0  -3   -0.60    1.00
   0  -1  -3    2.10    1.40
   0   1  -3    8.30    1.30
  -2  -1   3  455.15    2.30
   2   1   3  460.15    0.90
   1  -2   3  457.85    2.40
   2   1   3  427.86    1.10
  -1   2   3  452.35    2.70
  -1   2   3  459.85    2.60
   1  -2  -3  447.56    2.60
  -1   2  -3  464.55    2.20
   2   1  -3  450.05    2.30
  -2  -1  -3  453.85    1.80
   1   2   3  444.76    2.40
   1   2   3  438.96    2.20
   2  -1   3  453.75    1.80
  -2   1   3  455.85    2.40
  -1  -2   3  444.36    2.50
  -2   1   3  459.45    1.80
   1   2  -3  460.95    2.50
  -1  -2  -3  436.36    2.40
  -2   1  -3  446.76    1.60
   2  -1  -3  445.46    2.50
   3   2   3   18.90    2.10
   2  -3   3   15.00    3.20
  -2   3   3   14.90    2.90
   3   2   3   14.80    1.70
   3   2   3   20.50    1.30
  -3  -2   3   21.10    2.50
  -2   3  -3   21.60    2.40
   3   2  -3   16.00    2.50
   2  -3  -3   16.30    2.80
   3   0   3   -4.30    1.20
  -3   0   3   -4.80    2.10
   0   3   3   -3.10    2.50
   0   3   3   -8.00    2.90
  -3   0  -3    1.10    0.90
   0  -3  -3   -3.00    2.20
   3   0  -3   -1.70    2.20
   0   3  -3    3.00    2.50
   0   3  -3    3.00    2.50
   2   3   3   14.60    2.10
  -3   2   3   20.30    2.60
  -3   2   3   23.20    2.70
  -2  -3   3   20.20    2.70
   3  -2   3   18.10    2.60
   2   3   3   19.60    2.30
   2   3  -3   15.50    2.70
  -3   2  -3   15.00    2.10
   3  -2  -3   18.70    2.60
   4   3   3    4.20    1.70
  -3   4   3    4.10    3.70
   3  -4   3    3.10    3.50
   4   3   3    3.40    2.70
  -4  -3   3    6.90    3.20
   4   3   3    5.60    2.50
  -3   4  -3    2.40    3.10
   3  -4  -3    2.50    3.60
   4   3  -3    5.90    3.10
   1  -4   3   84.99    3.40
   4   1   3   77.99    1.40
  -1   4   3   82.39    3.30
  -4  -1   3   72.29    2.60
  -4  -1  -3   77.89    1.30
   1  -4  -3   74.69    3.10
  -4  -1  -3   75.59    1.90
  -1   4  -3   78.59    3.10
   4   1  -3   76.19    2.60
   4  -1   3   75.29    2.10
   1   4   3   82.79    3.10
  -4   1   3   80.89    1.60
   1   4   3   79.29    3.30
  -4   1   3   82.29    2.70
  -1  -4  -3   78.39    2.60
   1   4  -3   85.79    3.20
  -4   1  -3   81.09    1.60
   4  -1  -3   74.99    2.90
   1   4  -3   75.99    3.20
   3   4   3    6.60    2.90
  -4   3   3   -0.10    3.40
   4  -3   3    1.20    3.10
   3   4   3    5.40    2.30
   3   4   3    3.40    2.70
  -4   3  -3    1.80    2.60
   3   4  -3    0.90    3.20
   4  -3  -3    6.00    3.40
   3   4  -3    4.90    2.50
   4  -5   3   30.20    4.40
   5   4   3   29.90    2.80
   5   4   3   27.40    3.70
  -4   5   3   38.50    4.40
  -4   5  -3   33.90    4.00
   5   4  -3   30.70    3.90
   4  -5  -3   32.40    5.30
   5   4  -3   29.50    1.40
   5   2   3  117.29    2.40
  -5  -2   3  115.29    3.30
   5   2   3  115.59    2.10
   2  -5   3  110.79    4.30
  -2   5   3  119.39    4.30
  -2   5  -3  123.79    3.90
   2  -5  -3  108.99    4.00
   5   2  -3  111.19    3.40
  -5   0   3   -1.80    2.80
   5   0   3    1.00    1.90
   0   5   3    2.40    4.00
   0   5   3    3.70    4.40
  -5   0  -3   -1.50    1.70
   0   5  -3   -0.50    3.80
   0  -5  -3   -0.20    3.40
  -5   0  -3   -4.80    2.00
   0   5  -3    1.20    3.80
   5   0  -3   -3.80    3.00
  -5   2   3  113.29    3.40
   2   5   3  118.39    3.70
   5  -2   3  110.69    2.70
   2   5   3  109.99    3.80
  -5   2   3  118.59    2.60
   2   5  -3  110.89    3.90
  -5   2  -3  114.59    2.20
   5  -2  -3  113.29    3.70
   2   5  -3  111.19    4.10
   4   5   3   31.20    3.60
  -5   4   3   31.90    4.30
   4   5   3   29.80    3.40
   4   5   3   33.80    3.00
   5  -4   3   27.50    3.90
   4   5  -3   30.80    4.20
   4   5  -3   31.70    4.10
   5  -4  -3   30.60    4.50
  -5   4  -3   33.40    3.30
   6   5   3   14.40    4.40
  -5   6   3    0.00    6.60
   5  -6   3    3.50    5.50
   6   5   3    2.50    3.50
  -5   6   3    1.30    5.80
   5  -6  -3    7.20    5.50
   6   5  -3    0.80    4.70
  -5   6  -3   10.80    4.90
   6   5  -3    3.20    5.10
   3  -6   3    9.50    4.80
   6   3   3   -1.40    3.30
   6   3   3    0.40    2.40
  -6  -3   3   -0.50    4.00
  -3   6   3   -9.50    5.10
   6   3  -3   -0.90    4.40
  -3   6  -3   -0.20    4.50
   3  -6  -3   10.20    4.70
  -1   6   3   13.40    4.80
   6   1   3   10.10    2.40
  -6  -1   3   11.30    3.40
  -6  -1  -3   16.30    2.20
   1  -6  -3    4.40    4.40
  -6  -1  -3   13.20    2.30
   6   1  -3   21.50    3.40
  -1   6  -3   14.30    4.30
  -6   1   3   15.40    3.50
   1   6   3   16.60    4.70
   6  -1   3   12.90    2.90
   1   6   3   12.60    4.60
  -1  -6  -3    8.80    3.90
   6  -1  -3   11.50    3.70
  -6   1  -3   13.40    2.20
   1   6  -3    8.50    4.60
   1   6  -3   14.80    4.40
  -6   3   3    1.90    4.20
   6  -3   3    4.00    3.50
  -6   3   3    1.90    3.40
   3   6   3    0.00    4.60
   3   6   3   -3.80    4.40
   3   6   3   -0.50    3.50
  -6   3  -3    2.70    2.90
   6  -3  -3    7.20    4.30
   3   6  -3    4.00    4.50
   3   6  -3   -1.70    5.50
   6  -5   3    7.00    5.80
   5   6   3  -14.20    3.30
   5   6   3    7.10    4.10
  -6   5   3   -1.50    5.00
   5   6   3    7.30    5.20
  -6   5   3    6.10    5.40
   5   6  -3    2.60    5.70
   5   6  -3    0.30    5.50
   6  -5  -3    4.20    5.60
   5   6  -3    5.60    3.30
  -6   5  -3   -0.80    5.10
   7   4   3   12.70    4.30
   7   4   3    6.20    3.00
  -4   7   3    2.20    7.60
   4  -7   3   -5.90    5.80
  -4   7   3   19.50    6.40
   7   4  -3    3.90    4.70
   4  -7  -3   12.40    6.20
  -4   7  -3   -0.20    6.60
  -2   7   3   13.50    5.90
   7   2   3   13.60    3.00
   7   2   3    5.00    2.70
  -7  -2   3    9.80    4.20
   7   2  -3    8.90    4.70
  -2   7  -3    8.40    5.30
   2  -7  -3    2.60    5.40
   7   0   3   -3.50    3.20
  -7   0   3   -2.70    4.50
   0   7   3   -1.30    5.40
   0   7   3  -11.00    6.00
   7   0  -3   -4.70    4.00
   0  -7  -3   -2.40    4.80
  -7   0  -3   -0.50    2.70
  -7   0  -3    1.70    2.10
   0   7  -3    3.40    5.20
   0   7  -3   -7.10    5.30
  -7   2   3   10.90    4.30
   7  -2   3    7.30    3.90
  -7   2   3    8.50    1.70
   2   7   3    6.70    5.10
   2   7   3   13.20    4.40
   2   7   3   13.60    5.40
   7  -2  -3    3.20    4.50
   2   7  -3   13.70    5.60
  -7   2  -3    8.80    3.10
   2   7  -3    5.40    5.30
   4   7   3   10.60    6.40
   7  -4   3    4.10    5.50
  -7   4   3    9.30    5.40
  -7   4   3    2.00    4.30
   4   7   3    4.40    4.60
   4   7   3   -4.20    5.10
   4   7  -3    3.80    5.50
  -7   4  -3   11.60    4.60
   4   7  -3    6.80    6.00
   7  -4  -3   -2.10    5.60
   4   7  -3    0.30    4.70
  -3   8   3   -1.70    8.30
  -3   8   3    6.20    9.70
  -8  -3   3   -6.20    5.40
   8   3   3   -0.50    3.20
   8   3   3    2.90    4.00
   3  -8  -3    6.00    6.60
   8   3  -3   -2.20    5.70
  -3   8  -3   -2.00    6.90
   8   1   3   23.50    3.60
  -1   8   3   20.70    6.90
  -1   8   3   20.80    7.60
  -8  -1   3   24.10    4.80
  -1   8  -3   17.30    6.30
   1  -8  -3   24.40    6.30
  -8  -1  -3   15.40    3.10
  -1   8  -3   11.00    6.50
   8   1  -3   14.30    4.80
   1   8   3   19.40    5.60
  -8   1   3   18.80    4.90
   1   8   3   19.10    6.80
   1   8   3   17.20    6.30
   8  -1   3   18.30    4.10
  -8   1  -3   21.60    2.50
   8  -1  -3   19.80    5.60
  -8   1  -3   24.50    3.10
   1   8  -3   18.50    6.20
   1   8  -3   17.40    6.50
   3   8   3    0.20    6.60
  -8   3   3    0.30    5.60
   8  -3   3    5.00    5.10
  -8   3   3   -6.50    2.20
   3   8   3    9.30    5.80
   3   8   3    4.20    6.20
   3   8  -3    0.90    6.90
   8  -3  -3    5.70    5.90
  -8   3  -3   -1.00    3.50
   3   8  -3    1.40    6.00
   0   0   4  593.84    1.50
   0   0  -4  585.14    2.00
  -1  -1   4  100.29    1.90
  -1   1   4  102.39    1.70
   1   1   4   98.39    1.00
  -1   1   4   97.89    1.80
   1   1   4  103.29    1.90
  -1  -1  -4   98.99    1.40
   1   1  -4  101.89    1.90
  -1   1  -4  103.79    1.50
  -1  -1  -4  109.89    1.20
   1  -1  -4  100.89    1.70
   1  -1  -4  101.39    1.90
   0   2   4 5484.05    6.50
   0  -2  -4 5085.29    4.70
   2   0  -4 5238.28    4.20
   0  -2  -4 5392.76    6.30
   0   2  -4 5714.03    6.50
  -2   2   4 2699.23    4.50
   2  -2   4 2670.93    4.10
   2   2   4 2677.63    3.20
   2   2   4 2678.83    4.10
  -2   2   4 2758.42    4.70
  -2  -2   4 2701.83    4.60
   2   2  -4 2778.72    4.70
  -2   2  -4 2719.83    3.80
  -2  -2  -4 2666.83    4.10
   2  -2  -4 2703.63    4.60
  -1   3   4 1389.36    4.00
  -3  -1   4 1310.67    3.60
  -1   3   4 1336.37    4.40
  -1   3  -4 1352.26    3.70
   3   1  -4 1310.37    3.60
   3   1  -4 1375.16    1.80
  -1   3  -4 1346.07    4.00
   1  -3  -4 1322.07    3.80
  -3  -1  -4 1321.17    3.00
   1   3   4 1326.27    3.50
   1   3   4 1337.57    3.50
  -3   1   4 1362.86    2.70
   3  -1   4 1351.66    2.60
  -3   1   4 1322.47    3.60
   3  -1  -4 1311.77    3.70
   1   3  -4 1334.17    4.00
  -3   1  -4 1319.77    2.00
   1   3  -4 1340.67    4.10
  -3  -3   4   26.40    3.10
   3   3   4   25.90    2.40
   3  -3   4   27.80    3.50
  -3   3   4   26.20    3.10
  -3   3   4   22.60    3.20
   3   3   4   64.99    2.50
   3   3   4   21.70    1.90
   3   3  -4   22.20    3.00
   3  -3  -4   27.30    3.20
  -3   3  -4   24.10    2.40
   4   2   4 1549.64    2.90
   2  -4   4 1588.84    5.20
  -2   4   4 1499.75    5.90
   4   2   4 1650.23    2.30
  -2   4   4 1633.94    5.30
  -4  -2   4 1565.64    4.60
   4   2  -4 1577.94    4.60
   4   2  -4 1684.73    1.20
   2  -4  -4 1525.95    4.30
  -2   4  -4 1597.14    4.70
   0   4   4 4251.77    6.60
  -4   0   4 4179.18    5.90
   0   4   4 4127.59    7.20
   0  -4  -4 3998.80    6.00
   4   0  -4 4113.19    5.90
   0   4  -4 4210.48    6.80
   0   4  -4 4151.08    6.60
  -4   2   4 1591.84    4.70
   2   4   4 1633.44    5.00
  -4   2   4 1632.14    4.00
   2   4   4 1611.94    4.70
   4  -2   4 1599.94    4.30
   4  -2  -4 1533.45    4.80
   2   4  -4 1605.24    5.10
  -4   2  -4 1596.94    3.30
   2   4  -4 1589.14    5.00
   4   4   4  961.00    4.20
   4  -4   4  882.91    4.80
   4   4   4  915.21    4.40
  -4   4   4  975.90    5.10
  -4   4   4  929.91    5.50
   4   4   4  944.81    3.30
  -4  -4   4  911.01    4.90
  -4   4  -4  943.91    4.20
   4   4  -4  944.51    4.90
   4  -4  -4  931.01    5.10
   5   3   4  299.47    3.10
   5   3   4  315.37    2.10
  -5  -3   4  301.07    4.20
  -3   5   4  327.57    4.90
  -3   5   4  278.17    5.60
   3  -5   4  311.37    4.60
   5   3  -4  323.67    4.10
  -3   5  -4  320.37    4.10
   3  -5  -4  293.57    4.50
  -1   5   4  235.78    4.50
  -5  -1   4  243.48    3.40
  -1   5   4  234.48    5.10
   5   1   4  254.77    1.60
   5   1   4  250.07    1.60
  -1   5  -4  242.38    4.00
   1  -5  -4  240.48    4.00
  -1   5  -4  242.28    4.40
   5   1  -4  241.28    3.50
  -5  -1  -4  239.78    2.50
   5  -1   4  227.98    2.70
  -5   1   4  238.48    3.50
   1   5   4  242.38    4.20
  -5   1   4  249.68    1.60
   1   5   4  239.88    4.50
  -5   1  -4  243.68    2.00
  -1  -5  -4  251.57    3.50
   5  -1  -4  242.68    3.80
   1   5  -4  227.88    4.30
   1   5  -4  231.68    3.30
   5  -3   4  283.77    3.50
  -5   3   4  319.07    4.20
   3   5   4  311.97    4.20
   3   5   4  307.57    3.90
  -5   3   4  325.07    4.00
   3   5   4  298.47    3.20
   3   5  -4  307.17    4.50
   3   5  -4  304.37    4.60
  -5   3  -4  329.77    3.30
   5  -3  -4  301.47    4.60
   5   5   4  148.59    3.20
   5  -5   4  126.49    5.70
  -5   5   4  163.78    5.40
  -5   5   4  159.58    6.50
   5   5   4  146.89    4.50
   5   5   4  171.88    4.00
   5   5  -4  135.99    4.70
   5   5  -4  154.68    5.90
  -5   5  -4  162.58    4.30
   5   5  -4  159.68    2.70
   5  -5  -4  153.98    5.40
  -4   6   4 1364.16    8.50
   6   4   4 1269.37    4.90
  -4   6   4 1478.05    7.10
   6   4   4 1271.27    3.70
  -6  -4   4 1376.06    7.10
   4  -6   4 1190.68    6.70
   4  -6  -4 1277.07    7.00
   6   4  -4 1246.48    6.10
  -4   6  -4 1442.36    6.30
  -2   6   4 1641.54    6.80
   6   2   4 1421.86    3.20
  -2   6   4 1366.96    7.60
  -6  -2   4 1513.55    5.70
   6   2   4 1513.85    2.90
   6   2  -4 1459.75    5.70
   2  -6  -4 1494.45    6.30
  -2   6  -4 1555.24    6.30
   0   6   4  572.74    5.70
  -6   0   4  593.94    4.20
   0   6   4  618.74    5.50
   6   0   4  565.44    2.60
   0   6  -4  582.94    5.30
  -6   0  -4  583.14    3.00
   6   0  -4  568.24    4.40
   0  -6  -4  595.64    4.80
   0   6  -4  620.34    5.60
  -6   0  -4  588.14    2.30
   6  -2   4 1353.66    4.70
  -6   2   4 1553.24    5.70
  -6   2   4 1539.15    3.20
   2   6   4 1589.54    6.90
   2   6   4 1535.75    6.50
   6  -2  -4 1439.56    5.90
  -6   2  -4 1530.35    4.00
   2   6  -4 1517.75    6.60
   2   6  -4 1470.45    6.40
   6  -4   4 1153.88    6.10
  -6   4   4 1450.85    7.20
   4   6   4 1420.96    5.60
   4   6   4 1345.87    6.70
  -6   4   4 1442.96    5.50
   4   6   4 1208.38    4.70
   4   6  -4 1290.77    6.30
   4   6  -4 1339.07    6.70
  -6   4  -4 1454.45    4.90
   6  -4  -4 1261.77    6.70
   6  -6   4  254.77    6.40
  -6   6   4  377.16    7.20
   6   6   4  263.27    4.20
  -6   6   4  355.36    7.10
   6   6   4  320.17    5.60
   6   6  -4  345.27    6.90
   6  -6  -4  287.87    7.10
  -6   6  -4  374.96    5.70
   6   6  -4  272.17    6.30
   7   5   4   58.69    4.50
   5  -7   4   47.60    6.70
  -5   7   4   72.69    8.50
  -5   7   4   79.29    7.00
   7   5   4   53.79    3.50
   7   5  -4   60.99    7.40
   5  -7  -4   57.99    6.80
  -5   7  -4   75.19    6.20
   7   5  -4   57.49    5.80
  -3   7   4  403.06    6.80
   7   3   4  322.37    3.20
  -3   7   4  383.36    9.10
  -7  -3   4  360.96    6.10
   7   3   4  340.27    2.80
  -3   7  -4  389.66    6.10
   7   3  -4  335.57    5.70
   3  -7  -4  336.77    6.30
  -7  -1   4   59.89    4.40
  -1   7   4   72.29    5.70
  -1   7   4   74.29    6.60
   7   1   4   60.39    2.40
   7   1   4   60.19    2.20
   1  -7  -4   55.29    5.10
  -7  -1  -4   53.69    2.80
   7   1  -4   52.19    4.30
  -1   7  -4   60.29    5.40
  -1   7  -4   67.19    5.50
  -7   1   4   55.89    4.50
   7  -1   4   58.99    3.20
   1   7   4   52.09    5.70
   1   7   4   60.89    5.70
  -7   1  -4   67.29    2.50
   1   7  -4   60.29    5.40
  -7   1  -4   59.99    2.90
  -1  -7  -4   55.19    4.90
   7  -1  -4   55.29    4.60
   1   7  -4   56.49    5.30
  -7   3   4  384.96    5.60
   3   7   4  355.56    6.00
   3   7   4  371.16    6.40
  -7   3   4  373.36    3.40
   7  -3   4  289.37    4.80
   3   7   4  305.97    4.60
   3   7  -4  349.27    5.70
  -7   3  -4  401.86    3.80
   3   7  -4  355.56    6.10
   7  -3  -4  330.27    5.80
   5   7   4   75.79    5.60
   5   7   4   55.19    4.90
   5   7   4   72.29    5.50
   7  -5   4   46.40    5.60
  -7   5   4   70.89    6.60
  -7   5   4   71.29    5.10
  -7   5  -4   75.79    5.50
   5   7  -4   71.89    4.00
   5   7  -4   52.79    6.40
   7  -5  -4   71.49    6.80
   5   7  -4   66.29    7.00
  -2   8   4  706.93    8.90
  -8  -2   4  692.23    6.30
  -2   8   4  699.63    9.20
   2  -8  -4  662.73    7.50
  -2   8  -4  702.13    8.40
   8   2  -4  554.44    5.90
  -2   8  -4  636.24    8.70
  -8   0   4  719.03    6.00
   0   8   4  746.53    7.50
   8   0   4  560.84    3.30
   0   8   4  673.73    8.10
   0  -8  -4  687.73    6.90
   8   0  -4  587.14    5.90
   0   8  -4  638.64    7.50
  -8   0  -4  711.03    3.10
   0   8  -4  735.33    7.60
  -8   0  -4  659.93    3.00
   2   8   4  538.15    6.20
  -8   2   4  716.83    6.40
   2   8   4  694.63    7.70
   8  -2   4  505.95    4.50
   2   8   4  649.24    8.10
   2   8  -4  656.23    7.60
   8  -2  -4  557.94    6.40
  -8   2  -4  678.03    4.20
  -8   2  -4  679.13    4.00
   2   8  -4  603.34    7.00
  -1   0   5   -1.80    2.10
   0   1   5   -0.70    1.30
   0   1   5    1.00    1.90
   0  -1   5   -0.80    1.60
   1   0   5  -56.59    1.30
   0   1  -5    4.30    1.60
  -1   0  -5   -0.30    1.00
   0  -1  -5    0.70    1.90
   1   0  -5    3.70    1.60
  -1   0  -5  -45.80    2.10
   1   0  -5    4.70    1.80
  -2  -1   5  416.16    2.70
  -1   2   5  432.56    2.80
  -1   2   5  428.06    2.70
   1  -2  -5  416.96    2.70
  -2  -1  -5  432.56    2.50
   2   1  -5  429.06    2.70
  -1   2  -5  417.56    2.30
   2   1  -5  434.16    1.80
  -2   1   5  418.96    2.60
   1   2   5  421.26    2.70
  -2   1   5  424.76    2.10
  -1  -2   5  426.96    2.80
   1   2   5  425.06    2.10
   1   2  -5  427.76    2.80
  -2   1  -5  421.66    1.60
  -2   1  -5  435.56    1.80
  -1  -2  -5  423.96    2.70
  -1  -2  -5  411.26    1.80
   2  -1  -5  412.06    2.30
   2  -1  -5  412.66    2.80
   3   2   5   13.50    1.10
   3   2   5   13.80    1.00
  -2   3   5   11.10    3.10
  -2   3   5   16.10    3.70
  -3  -2   5   13.70    2.90
  -2   3  -5   12.10    2.40
   3   2  -5   14.00    2.90
   2  -3  -5   18.70    3.00
  -2   3  -5   14.20    3.30
  -3  -2  -5   13.20    2.40
   0   3   5    4.30    2.60
  -3   0   5    4.40    2.30
   0   3   5    2.90    2.80
   0   3  -5   -4.60    2.60
   0   3  -5   -2.80    2.80
   3   0  -5    2.20    1.60
   3   0  -5    1.60    2.50
   0  -3  -5    2.30    2.30
   2   3   5   12.20    2.40
  -3   2   5   16.60    2.90
   2   3   5   16.50    2.80
  -3   2   5   11.10    2.30
   3  -2   5   10.20    2.50
  -2  -3   5   21.40    2.90
   3  -2  -5   17.90    3.00
   2   3  -5   20.50    3.00
  -2  -3  -5   12.10    1.90
  -3   2  -5   10.20    1.90
   4   3   5    3.60    1.60
   4   3   5    6.10    2.30
   3  -4   5    3.10    3.70
  -3   4   5    6.70    4.30
  -3   4   5   21.00    4.00
  -4  -3   5    5.90    3.70
   4   3  -5    6.10    3.70
   3  -4  -5    6.90    3.80
  -3   4  -5    3.30    3.00
  -4  -1   5   97.49    2.30
  -1   4   5   99.29    4.20
  -1   4   5  104.79    3.60
  -1   4  -5  103.19    3.20
  -1   4  -5   99.49    3.50
   4   1  -5   98.29    3.20
   1  -4  -5   95.39    3.20
   1   4   5  104.79    3.90
  -4   1   5   99.59    3.10
   4  -1   5   96.69    2.00
  -4   1   5   99.49    1.80
   1   4   5  100.49    3.60
   1   4  -5   97.19    3.50
   4  -1  -5  101.49    3.30
  -4   1  -5   97.89    1.30
  -1  -4  -5   95.29    2.70
   1   4  -5   97.09    3.60
   4  -3   5    8.50    3.80
  -4   3   5    7.20    3.10
   3   4   5    9.60    3.20
   3   4   5    4.40    3.30
  -4   3   5    2.10    3.70
   3   4   5    1.60    2.50
   3   4  -5    1.60    3.70
  -4   3  -5    7.40    2.80
   4  -3  -5   10.40    3.90
   5   4   5   42.70    2.30
   4  -5   5   40.20    4.70
   5   4   5   32.40    3.40
  -4   5   5   38.00    5.60
  -4   5   5   39.10    5.00
  -5  -4   5   43.90    4.40
  -4   5  -5   45.90    3.90
   5   4  -5   32.60    4.50
   4  -5  -5   40.30    4.90
   5   4  -5   31.20    1.60
  -2   5   5  119.69    5.30
  -2   5   5  133.39    4.50
  -5  -2   5  123.19    3.80
   5   2  -5  130.29    3.90
  -2   5  -5  122.79    4.60
  -2   5  -5  136.89    4.40
   2  -5  -5  124.99    4.20
   0   5   5   -0.60    4.10
  -5   0   5    5.20    3.40
   0   5   5   -4.90    4.60
   0   5  -5   -2.10    3.90
   0   5  -5   -2.60    4.20
   5   0  -5   -2.50    3.40
   0  -5  -5    7.40    3.40
   2   5   5  132.99    4.00
  -5   2   5  131.79    3.90
  -5   2   5  127.99    2.50
   5  -2   5  117.39    3.40
   2   5   5  128.09    4.10
   5  -2  -5  125.29    4.10
  -5   2  -5  127.29    2.10
   2   5  -5  125.59    4.20
   2   5  -5  132.09    4.20
   4   5   5   39.40    3.70
   5  -4   5   35.30    4.90
   4   5   5   33.90    4.40
  -5   4   5   44.80    4.70
  -5   4   5   41.20    5.10
   4   5   5   38.60    3.00
   4   5  -5   30.00    4.40
   5  -4  -5   36.30    4.80
   4   5  -5   43.80    5.60
  -5   4  -5   39.00    3.80
   5  -6   5    2.10    5.70
   6   5   5   -0.20    3.90
   6   5   5    2.70    2.90
  -5   6   5   11.10    6.10
  -5   6   5   19.80    6.80
   5  -6  -5   -6.40    6.00
  -5   6  -5    5.30    4.90
   6   5  -5    2.50    5.40
   6   5  -5    8.20    5.60
   6   3   5    1.70    1.70
  -3   6   5  -12.90    6.40
  -3   6   5   -2.50    5.40
  -6  -3   5   12.20    4.70
   6   3   5   -0.10    1.60
   3  -6  -5    1.60    5.10
   6   3  -5   -3.70    4.50
  -3   6  -5    2.10    4.60
  -6  -1   5    4.50    4.00
  -1   6   5   12.10    4.90
  -1   6   5   11.60    5.80
  -1   6  -5    9.80    4.50
   6   1  -5   24.90    4.00
   1  -6  -5    4.70    4.50
  -1   6  -5   16.30    5.10
  -6  -1  -5    9.70    2.90
   1   6   5   15.70    4.90
  -6   1   5   13.40    4.00
   6  -1   5   12.20    2.50
   1   6   5   12.70    4.90
  -6   1  -5   10.10    1.60
   1   6  -5   15.80    4.80
   1   6  -5    8.70    4.70
   6  -1  -5   11.90    4.30
  -1  -6  -5    9.60    3.90
   6  -3   5    5.10    4.10
   3   6   5    6.40    4.80
  -6   3   5   -3.10    4.70
   3   6   5   -1.50    4.50
   3   6   5    0.90    3.40
  -6   3   5    1.70    3.30
   6  -3  -5   -1.50    4.80
   3   6  -5   -0.10    5.20
   3   6  -5    8.30    5.00
  -6   3  -5    3.60    2.80
   5   6   5    0.90    3.50
   6  -5   5   10.80    5.90
   5   6   5    5.60    5.10
  -6   5   5   12.00    6.00
  -6   5   5    9.50    5.20
   5   6   5    5.70    4.90
   5   6  -5    8.00    5.60
   5   6  -5    8.20    3.40
   6  -5  -5    8.50    6.10
  -6   5  -5    4.80    4.80
   5   6  -5    3.00    6.00
   7   4   5    6.20    1.80
  -4   7   5    9.30    7.00
  -4   7   5    0.10    8.30
   7   4   5    5.80    1.80
  -7  -4   5    4.00    5.80
  -4   7  -5    9.70    5.90
   4  -7  -5   13.90    6.60
   7   4  -5    8.80    5.60
  -2   7   5   19.80    6.90
  -7  -2   5   17.60    5.70
  -2   7   5   15.10    6.30
  -2   7  -5   13.10    5.60
   7   2  -5   19.10    4.90
   2  -7  -5   22.30    5.60
  -2   7  -5   17.00    6.00
  -7   0   5   -1.30    4.50
   0   7   5    1.70    5.90
   0   7   5    0.00    6.40
   0   7  -5   -4.20    5.60
  -7   0  -5   -5.00    3.00
   0  -7  -5    4.00    5.00
   7   0  -5   -1.00    4.70
   0   7  -5    5.10    5.70
  -7   2   5   15.20    5.00
   2   7   5   12.50    5.90
   7  -2   5    6.10    3.50
   2   7   5   14.40    5.60
   2   7   5    9.20    4.30
   7  -2  -5   16.90    5.10
  -7   2  -5    8.20    2.60
   2   7  -5   15.40    5.90
   2   7  -5   14.70    5.70
   4   7   5    8.00    5.70
  -7   4   5    9.90    6.10
   4   7   5    6.20    5.20
  -7   4   5   11.20    4.10
   7  -4   5    7.20    4.40
   4   7   5    9.00    4.80
   4   7  -5    5.80    6.20
   7  -4  -5    7.40    6.30
  -7   4  -5    1.50    4.00
   4   7  -5    5.90    6.60
  -3   8   5  -11.40    9.50
  -8  -3   5    0.10    7.10
  -3   8   5    5.30    7.50
  -3   8  -5   -7.70    7.00
   8   3  -5   -3.70    6.10
  -3   8  -5   -3.80    7.60
   3  -8  -5    8.30    7.30
  -1   8   5   25.30    8.10
  -8  -1   5   26.50    5.70
  -1   8   5   33.90    7.00
   8   1  -5   23.50    5.50
  -1   8  -5   35.80    6.50
   1  -8  -5   30.70    6.60
  -1   8  -5   24.30    7.10
   8  -1   5   21.80    2.20
  -8   1   5   26.20    5.70
   1   8   5   21.50    7.30
   1   8   5   24.80    7.10
   1   8  -5   27.70    6.80
   8  -1  -5   23.20    5.70
  -8   1  -5   26.70    3.40
  -8   1  -5   -5.80    1.60
   1   8  -5   28.30    6.80
  -8   3   5   -1.80    6.10
   3   8   5   -5.80    7.80
   3   8   5   -4.10    7.30
   3   8   5    2.00    6.30
   8  -3   5   -0.90    4.70
   3   8  -5   -0.80    7.00
  -8   3  -5   -1.10    3.70
   3   8  -5    5.80    7.30
   8  -3  -5    1.60    6.80
   0   0   6  267.17    2.00
   0   0  -6  273.17    2.40
  -1   1   6 3025.60    4.20
  -1   1   6 3011.40    4.30
   1  -1   6 2932.11    3.50
  -1  -1   6 2983.20    4.40
   1   1  -6 3017.00    4.40
   1  -1  -6 2912.91    4.30
  -1  -1  -6 3057.39    4.60
   1  -1  -6 3030.10    4.50
  -2   0   6  526.35    2.80
   0   2   6  543.55    3.10
   0  -2   6  533.15    2.90
   0   2   6  534.55    2.40
   0   2  -6  559.24    3.00
   2   0  -6  530.35    2.90
  -2   0  -6  515.55    0.90
   2   0  -6  541.45    2.30
   0  -2  -6  521.55    3.10
  -2   0  -6  535.35    1.00
  -2   0  -6  541.45    2.90
   2   2   6  363.16    3.00
  -2   2   6  358.06    2.90
  -2   2   6  356.66    3.20
   2   2   6  347.57    1.50
  -2  -2   6  358.66    3.20
   2  -2  -6  360.96    3.20
  -2  -2  -6  368.96    1.50
   2   2  -6  367.36    3.30
  -2   2  -6  358.76    2.20
  -2  -2  -6  353.26    2.90
  -2   2  -6  379.16    2.80
  -3  -1   6 2419.16    4.90
  -1   3   6 2519.55    5.50
  -1   3   6 2588.24    5.20
  -1   3  -6 2570.84    5.10
   3   1  -6 2587.94    3.40
  -3  -1  -6 2581.04    4.60
   1  -3  -6 2463.05    5.00
   3   1  -6 2531.45    5.10
  -1   3  -6 2545.45    5.20
   1   3   6 2502.65    5.40
  -3   1   6 2515.95    5.00
   1   3   6 2657.13    4.70
  -3   1   6 2595.74    4.10
  -3   1  -6 4933.11    3.60
   1   3  -6 2562.64    5.50
   3  -1  -6 2503.45    5.10
   3   3   6 1588.74    3.10
  -3   3   6 1629.34    4.90
   3   3   6 1635.64    4.70
  -3   3   6 1616.94    5.30
  -3  -3   6 1576.64    5.30
   3   3   6 1602.34    2.80
  -3   3  -6 1563.24    3.80
   3   3  -6 1622.44    5.30
   3  -3  -6 1603.94    5.30
  -3  -3  -6  704.53    4.00
  -2   4   6  273.07    4.60
  -2   4   6  286.67    4.30
  -4  -2   6  269.37    3.80
  -2   4  -6  270.07    3.40
   4   2  -6  255.27    4.00
   4   2  -6  279.27    1.70
   2  -4  -6  251.47    4.00
  -4  -2  -6  260.37    3.00
  -2   4  -6  275.77    4.60
  -4   0   6  372.36    3.60
   0   4   6  375.96    4.30
   0   4   6  398.66    4.50
   4   0  -6  380.76    3.70
   0  -4  -6  368.26    3.80
   0   4  -6  382.56    4.00
  -4   0  -6  388.96    3.00
   0   4  -6  382.56    4.20
   2   4   6  266.97    3.80
  -4   2   6  270.17    3.90
  -4   2   6  279.47    3.10
   2   4   6  266.27    3.90
   4  -2  -6  277.77    4.10
   2   4  -6  273.87    4.10
  -2  -4  -6  264.27    2.90
  -4   2  -6  266.97    2.70
   2   4  -6  289.27    4.10
  -4   2  -6  270.27    2.00
   4   4   6  199.68    2.40
   4   4   6  206.08    4.30
   4   4   6  193.38    3.10
  -4   4   6  210.28    5.30
  -4  -4   6  201.08    4.70
  -4   4   6  200.28    4.70
   4   4  -6  203.08    4.60
  -4   4  -6  207.78    3.80
   4  -4  -6  189.58    4.80
  -3   5   6 1245.48    7.00
  -3   5   6 1341.47    6.50
  -5  -3   6 1278.27    5.90
   5   3  -6 1287.27    5.90
  -3   5  -6 1319.07    5.30
  -3   5  -6 1271.37    6.20
   3  -5  -6 1221.98    5.90
  -5  -1   6 1414.16    5.30
  -1   5   6 1382.36    6.80
  -1   5   6 1443.76    6.00
   1  -5  -6 1423.66    5.40
  -1   5  -6 1446.36    5.50
   5   1  -6 1407.26    5.40
  -1   5  -6 1446.46    6.00
   1   5   6 1504.25    6.30
  -5   1   6 1449.26    5.40
   1   5   6 1465.85    6.10
  -1  -5  -6 1449.55    4.80
   1   5  -6 1426.86    5.80
   5  -1  -6 1437.86    5.50
   1   5  -6 1423.96    5.80
   3   5   6 1258.77    5.60
  -5   3   6 1351.66    6.00
  -5   3   6 1360.36    5.00
   5  -3   6 1134.19    5.10
   3   5   6 1302.17    5.60
   3   5   6 1175.08    3.90
   3   5  -6 1244.38    6.10
   5  -3  -6 1216.58    6.60
   3   5  -6 1278.87    6.20
  -5   3  -6 1344.87    3.80
   5   5   6  743.63    3.40
   5   5   6  726.03    4.50
  -5   5   6  899.61    6.70
  -5   5   6  907.81    6.90
  -5   5  -6  899.51    4.90
   5   5  -6  801.32    6.30
   5  -5  -6  778.52    7.40
   5   5  -6  813.12    6.60
  -4   6   6  146.09    7.20
  -4   6   6  154.68    6.30
  -6  -4   6  148.29    5.70
  -4   6  -6  161.38    5.00
   6   4  -6  135.19    5.40
  -4   6  -6  148.59    7.00
   4  -6  -6  141.19    6.00
  -2   6   6  189.38    6.50
  -2   6   6  205.38    5.80
  -6  -2   6  204.38    4.70
   2  -6  -6  198.88    5.30
   6   2  -6  193.08    4.80
  -6  -2  -6  201.18    3.70
  -2   6  -6  211.98    4.90
  -2   6  -6  194.38    5.60
   0   6   6  153.78    5.40
  -6   0   6  150.08    4.40
   0   6   6  124.39    5.60
   0   6  -6  145.09    4.90
   6   0  -6  134.39    4.60
   0   6  -6  169.78    5.10
   0  -6  -6  146.39    4.30
   2   6   6  206.38    6.20
  -6   2   6  213.68    5.60
  -6   2   6  219.68    2.60
   2   6   6  204.58    5.10
   2   6  -6  187.38    5.20
   2   6  -6  179.58    5.20
   6  -2  -6  189.28    5.00
  -6   2  -6  207.08    2.20
   6  -4   6  117.59    5.00
   4   6   6  145.39    5.40
  -6   4   6  160.78    5.80
  -6   4   6  153.18    4.10
   4   6   6  154.28    4.90
   4   6   6  123.89    3.70
   4   6  -6  131.99    5.50
   6  -4  -6  135.69    5.90
  -6   4  -6  154.58    3.90
   4   6  -6  148.49    6.00
  -3   7   6  726.43    8.80
  -3   7   6  812.92    7.90
  -7  -3   6  744.93    6.80
   3  -7  -6  722.63    7.20
   7   3  -6  669.73    7.10
  -3   7  -6  804.62    7.40
  -3   7  -6  772.02    8.30
  -7  -1   6  861.01    6.10
  -1   7   6  757.82    8.10
  -1   7   6  889.01    7.40
  -7  -1  -6  871.91    4.30
   7   1  -6  756.12    6.00
  -1   7  -6  837.12    8.00
  -1   7  -6  857.41    7.60
   1  -7  -6  812.42    6.50
   1   7   6  847.42    7.10
   1   7   6  890.31    8.20
  -7   1   6  860.41    6.20
   1   7  -6  844.92    7.00
  -7   1  -6  830.62    4.30
  -1  -7  -6  856.31    5.90
   1   7  -6  774.82    7.00
   7  -1  -6  763.52    6.20
   3   7   6  754.82    7.70
  -7   3   6  810.32    6.60
  -7   3   6  814.02    3.70
   3   7   6  766.92    6.70
   3   7   6  619.74    5.00
   7  -3   6  551.94    4.80
   3   7  -6  676.33    7.10
   7  -3  -6  685.83    6.90
  -7   3  -6  791.32    3.70
   3   7  -6  774.52    7.40
  -2   8   6   72.79    9.30
  -2   8   6   86.19    9.00
  -8  -2   6   89.59    6.50
   2  -8  -6   83.19    7.20
   8   2  -6   67.19    7.10
  -2   8  -6   78.79    8.10
  -2   8  -6   94.39    7.70
  -8   0   6  119.09    6.20
   0   8   6   96.89    8.10
   0   8   6  132.59    7.70
   0  -8  -6  100.99    6.50
  -8   0  -6  117.39    4.00
   0   8  -6   98.09    6.90
   0   8  -6  116.39    6.80
   8   0  -6   87.49    6.10
   2   8   6  100.59    8.40
  -8   2   6   83.49    7.40
   2   8   6   91.09    7.30
   2   8   6   62.49    6.30
   2   8  -6   84.19    7.40
   8  -2  -6   73.49    7.50
   2   8  -6   83.89    7.50
  -8   2  -6   86.69    4.70
  -1   0   7    0.20    2.10
   0   1   7   -3.20    2.00
   0  -1   7    3.40    2.40
   1   0   7    3.10    1.50
  -1   0  -7   -4.40    2.40
   0  -1  -7   -3.50    1.70
   1   0  -7   -3.00    2.20
  -1   0  -7    0.90    1.40
   1   0  -7   -1.20    2.20
  -2  -1   7  123.29    2.10
  -1   2   7  126.19    2.80
  -1   2   7  126.69    2.70
   2   1   7  121.89    0.90
  -1   2  -7  126.89    2.80
   1  -2  -7  130.69    3.20
  -2  -1  -7  117.29    0.90
   2   1  -7  121.89    2.90
   2   1  -7  124.09    2.20
  -2  -1  -7  131.09    2.80
   1  -2  -7  117.29    2.90
  -2   1   7  122.39    2.80
   1   2   7  122.09    1.60
  -1  -2   7  118.09    2.90
   1   2   7  131.19    2.90
   1   2  -7  128.09    2.90
  -2   1  -7  123.39    1.60
  -1  -2  -7  126.59    2.90
  -1  -2  -7  113.09    2.00
   2  -1  -7  128.69    2.90
   2  -1  -7  121.49    2.90
  -2   1  -7  121.29    1.50
  -2   3   7    8.70    3.40
  -2   3   7   11.00    3.50
  -3  -2   7   11.60    3.40
   2  -3  -7    6.20    3.40
  -2   3  -7    9.90    3.00
   3   2  -7    6.60    3.50
   3   2  -7    6.10    2.30
  -3  -2  -7   12.80    3.00
  -3   0   7    1.30    3.00
   0   3   7   -1.00    3.20
   0   3   7    6.70    3.20
   0   3  -7   -0.80    3.20
  -3   0  -7   -0.40    2.80
   3   0  -7   -3.90    3.10
   0  -3  -7    2.90    2.50
   3   0  -7   -2.70    1.90
   0   3  -7    5.80    3.00
  -3   2   7    6.00    3.40
   2   3   7    8.20    3.30
  -3   2   7   -0.40    2.70
   2   3   7    7.60    2.00
  -2  -3   7    2.80    3.30
   2   3  -7    7.60    3.60
  -2  -3  -7    7.90    2.10
  -3   2  -7    9.80    2.10
  -2  -3  -7    7.50    3.30
  -3   2  -7    3.80    2.20
   3  -2  -7    6.00    3.50
  -3   4   7   -0.50    5.00
  -3   4   7    1.50    4.40
  -4  -3   7    4.90    4.20
   4   3  -7   -3.30    4.30
   3  -4  -7    4.20    4.30
  -3   4  -7   -1.50    3.10
  -4  -3  -7   -3.10    4.20
   4   3  -7    1.00    2.10
  -4  -1   7   30.60    3.50
  -1   4   7   18.40    4.30
  -1   4   7   28.50    3.80
  -4  -1  -7   28.50    2.90
   4   1  -7   23.50    3.60
   4   1  -7   26.50    1.90
   1  -4  -7   22.70    3.40
  -1   4  -7   33.50    3.40
  -1   4  -7   25.70    3.90
  -4   1   7   24.60    3.60
   1   4   7   23.90    4.10
   1   4   7   20.10    3.20
   1   4  -7   27.30    4.00
   1   4  -7   33.50    3.80
   4  -1  -7   37.70    3.70
   3   4   7   -3.60    3.80
  -4   3   7  -11.10    4.30
  -4   3   7   -0.20    3.20
  -3  -4   7    1.80    4.10
   3   4   7    3.20    2.20
   3   4   7    3.30    3.00
   3   4  -7   -5.60    4.40
   4  -3  -7    8.30    4.30
  -4   3  -7   -0.40    2.70
  -4   3  -7    3.50    3.50
  -4   5   7   22.50    5.50
  -4   5   7   29.60    6.50
  -5  -4   7   11.70    5.40
   5   4  -7   16.50    1.90
  -4   5  -7   18.10    3.90
   5   4  -7   17.60    5.20
   4  -5  -7   18.90    5.40
  -2   5   7   47.90    5.60
  -2   5   7   48.10    4.70
  -5  -2   7   51.49    4.30
  -2   5  -7   57.59    4.80
   5   2  -7   47.10    4.20
  -5  -2  -7   43.00    3.80
  -2   5  -7   54.89    4.80
   2  -5  -7   43.90    5.20
  -5   0   7   -0.70    4.00
   0   5   7   -4.40    5.00
   0   5   7   -1.60    4.40
   0  -5  -7   -0.50    3.70
  -5   0  -7   -4.30    3.10
   5   0  -7   -3.00    4.20
   0   5  -7    0.50    4.40
   0   5  -7   -3.50    4.60
  -5   2   7   49.00    4.40
  -5   2   7   52.69    2.80
   2   5   7   49.80    4.80
   2   5   7   50.99    3.80
   5  -2  -7   48.00    4.40
   2   5  -7   44.40    4.70
   2   5  -7   45.60    4.70
  -5   2  -7   54.69    1.80
  -2  -5  -7   50.09    3.50
  -5   2  -7   48.70    2.10
   4   5   7   17.80    4.40
   4   5   7   12.60    3.30
  -5   4   7   23.30    5.40
  -5   4   7   13.90    4.30
   4   5   7   15.50    2.80
   4   5  -7   16.00    5.00
   5  -4  -7   17.50    5.30
  -5   4  -7   11.30    4.70
   4   5  -7   17.90    5.10
  -5   4  -7   20.40    3.50
  -5   6   7   -3.40    6.80
  -5   6   7   20.80    7.20
  -5   6  -7   10.00    5.00
   6   5  -7    7.60    7.20
   5  -6  -7    7.10    7.00
  -3   6   7    8.40    6.90
  -3   6   7    0.10    6.10
  -6  -3   7    9.60    5.30
   3  -6  -7    2.20    5.50
   6   3  -7    7.00    5.20
  -3   6  -7    1.20    4.80
  -3   6  -7    0.10    6.80
  -6  -1   7    4.20    4.70
  -1   6   7   16.40    6.20
  -1   6   7    8.90    5.40
  -1   6  -7   13.00    4.90
   1  -6  -7    3.80    4.70
   6   1  -7   13.80    4.70
  -1   6  -7    8.00    5.50
  -6   1   7   12.70    4.50
   1   6   7   11.20    5.30
   1   6   7    6.50    5.30
  -6   1  -7    4.50    4.30
  -1  -6  -7    9.50    4.00
   1   6  -7    0.90    5.20
   6  -1  -7   15.30    4.80
   1   6  -7    8.90    5.30
   3   6   7   -0.90    5.40
  -6   3   7   10.30    5.20
   3   6   7    1.90    5.10
  -6   3   7   -2.80    3.50
   3   6   7    1.60    3.80
   3   6  -7   -2.20    5.60
  -6   3  -7   -3.30    2.50
   6  -3  -7   -3.40    5.50
   3   6  -7   -2.30    5.70
  -6   3  -7   -7.30    3.50
   5   6   7    7.40    4.20
   5   6   7    6.00    3.20
  -6   5   7   16.90    6.90
  -6   5   7    6.10    5.50
   5   6  -7    6.10    6.70
   5   6  -7    9.90    6.60
   6  -5  -7   -0.80    6.50
  -6   5  -7    1.40    5.90
  -6   5  -7    3.70    4.60
  -4   7   7   -7.90    9.10
  -4   7   7   -5.30    7.80
  -7  -4   7    2.20    7.60
   4  -7  -7   -5.50    6.90
   7   4  -7    0.30    6.50
  -4   7  -7   -6.30    6.10
  -4   7  -7    7.60    7.20
  -2   7   7    8.50    7.60
  -2   7   7    0.60    6.90
  -7  -2   7   11.00    5.50
   2  -7  -7    9.00    6.10
   7   2  -7    3.30    5.80
  -2   7  -7   -5.00    6.70
  -7  -2  -7    0.40    4.10
  -2   7  -7    4.80    6.60
  -7   0   7   -0.40    5.40
   0   7   7    4.10    7.00
   0   7   7    0.60    6.50
   0   7  -7   -5.30    6.10
   0  -7  -7   -6.20    5.20
  -7   0  -7   -0.30    4.10
   7   0  -7    4.10    5.50
   0   7  -7   -1.20    6.30
   2   7   7  -10.50    7.10
  -7   2   7    6.10    5.80
   2   7   7   11.20    6.40
   2   7  -7   11.10    6.40
   7  -2  -7   -0.80    5.90
   2   7  -7    6.20    6.40
   4   7   7    1.50    6.10
  -7   4   7   -5.80    7.00
   4   7   7   -9.50    6.10
   4   7   7   -0.90    4.60
  -7   4   7    0.50    4.80
   4   7  -7    6.20    6.90
   4   7  -7   -9.60    7.80
  -7   4  -7    0.90    3.30
   7  -4  -7   -4.80    7.10
  -7   4  -7    5.10    4.80
  -1   8   7   14.40    9.10
  -1   8   7   28.90    9.10
  -8  -1   7   14.30    7.50
   1  -8  -7   17.60    6.80
  -8  -1  -7   15.20    4.50
  -1   8  -7   11.40    7.30
   8   1  -7   14.80    6.60
  -1   8  -7   11.50    7.90
  -8   1   7   16.70    6.50
   1   8   7   20.70    7.90
   1   8   7   10.60    7.90
   8  -1  -7    9.20    6.60
   1   8  -7    8.60    7.10
  -8   1  -7   13.80    4.00
  -1  -8  -7    5.00    6.30
   1   8  -7    3.40    7.50
   0   0  -8 5653.53    8.10
   1   1   8  759.22    2.30
  -1   1   8  707.93    3.20
   1  -1   8  698.93    2.60
  -1  -1   8  708.83    3.30
  -1  -1  -8  705.93    2.40
  -1   1  -8  720.23    2.70
   1   1  -8  730.53    3.40
   1   1  -8  704.73    3.30
  -1  -1  -8  704.13    3.60
   1  -1  -8  719.73    3.50
   1  -1  -8  707.33    3.30
  -2   0   8 1466.85    4.20
   0   2   8 1509.25    4.60
   0   2   8 1503.45    3.80
   0  -2   8 1530.15    4.60
   0   2  -8 1587.14    4.20
  -2   0  -8 1527.75    4.50
   2   0  -8 1542.35    3.90
   2   0  -8 1530.25    4.40
   0  -2  -8 1482.75    4.60
  -2   0  -8 1485.55    2.00
   2   2   8 2122.99    2.70
  -2   2   8 2166.08    5.20
  -2   2   8 2156.38    5.30
  -2  -2   8 2078.39    5.30
   2  -2  -8 2141.19    5.30
  -2   2  -8 2207.98    4.20
   2   2  -8 2211.58    5.50
  -2  -2  -8 2111.69    5.30
  -2   2  -8 2150.98    4.10
  -3  -1   8   58.19    3.40
  -1   3   8   69.79    3.70
  -1   3   8   68.89    3.30
  -1   3  -8   57.79    3.20
   1  -3  -8   66.69    3.30
  -1   3  -8   60.99    3.00
   3   1  -8   67.69    3.50
  -3  -1  -8   60.29    3.10
   3   1  -8   63.29    2.20
  -3   1   8   70.49    3.40
   1   3   8   70.09    3.80
   1   3   8   62.99    2.30
  -1  -3   8   49.90    3.50
  -1  -3  -8   61.49    2.60
   1   3  -8   77.39    3.60
  -3   1  -8   62.09    1.20
  -3   1  -8   58.99    1.00
  -1  -3  -8   64.59    3.70
   3  -1  -8   61.39    3.30
   3  -1  -8   62.79    3.50
  -3   3   8  917.11    5.10
   3   3   8  877.21    2.00
  -3   3   8  916.41    5.20
  -3  -3   8  911.91    5.20
   3   3   8  887.81    2.00
   3  -3  -8  909.11    5.10
   3   3  -8  899.81    5.20
  -3  -3  -8  885.81    4.80
  -3   3  -8  902.11    3.70
  -3   3  -8  910.61    4.50
  -2   4   8 1729.03    6.50
  -2   4   8 1750.92    6.10
  -4  -2   8 1708.53    6.00
  -2   4  -8 1746.23    5.20
   4   2  -8 1685.23    6.10
   2  -4  -8 1663.43    5.80
   4   2  -8 1707.43    3.50
  -4  -2  -8 1726.93    5.30
  -2   4  -8 1708.53    5.90
  -4   0   8  775.12    4.60
   0   4   8  785.72    4.40
   0   4   8  792.42    5.40
   0   4  -8  798.22    5.10
  -4   0  -8  790.32    4.70
   4   0  -8  782.42    4.70
   0   4  -8  793.62    4.70
   0  -4  -8  787.42    4.50
  -4   2   8 1746.03    5.90
   2   4   8 1751.52    6.10
  -4   2   8 1764.22    4.50
   2   4   8 1705.73    4.50
  -4   2  -8 1723.23    2.90
  -4   2  -8 1752.42    3.10
   2   4  -8 1702.33    6.40
  -2  -4  -8 1755.62    4.20
   4  -2  -8 1697.13    6.10
   4   4   8 1391.96    2.20
  -4   4   8 1537.75    6.30
   4   4   8 1418.96    2.40
  -4   4   8 1522.55    6.70
  -4  -4   8 1459.45    6.80
   4   4  -8 1457.85    6.80
  -4   4  -8 1545.25    5.00
   4  -4  -8 1393.16    6.70
  -4   4  -8 1398.06    6.10
  -3   5   8  134.99    5.90
  -3   5   8  127.19    5.60
  -5  -3   8  125.99    5.20
   5   3  -8  129.39    5.20
   5   3  -8  124.49    1.80
  -3   5  -8  138.59    4.10
   3  -5  -8  129.59    5.20
  -5  -3  -8  128.29    4.20
  -3   5  -8  132.19    6.20
  -5  -1   8  241.98    4.70
  -1   5   8  232.58    5.80
  -1   5   8  240.08    5.90
  -1   5  -8  236.18    4.70
  -5  -1  -8  226.58    3.80
   5   1  -8  224.78    4.80
  -1   5  -8  238.38    5.30
   1  -5  -8  235.28    4.50
  -5   1   8  246.38    4.70
   1   5   8  227.38    5.50
   1   5   8  241.48    5.10
   1   5  -8  233.38    5.20
  -5   1  -8  246.98    4.00
   1   5  -8  238.48    4.90
   5  -1  -8  246.48    4.80
  -5   3   8  126.39    5.20
   3   5   8  112.79    5.00
  -5   3   8  136.79    4.20
   3   5   8  118.39    3.10
   3   5   8  124.89    4.20
   3   5  -8  137.49    5.30
   5  -3  -8  129.49    5.30
   3   5  -8  122.09    5.40
  -5   3  -8  145.49    2.70
  -5   3  -8  125.99    3.30
  -5   5   8  111.29    6.80
  -5   5   8  113.89    6.10
  -5   5  -8  112.49    4.00
   5   5  -8  106.99    6.30
   5   5  -8   96.09    2.80
   5  -5  -8   97.69    6.30
  -5   5  -8   90.09    6.00
  -4   6   8  440.36    8.00
  -4   6   8  460.45    7.50
  -6  -4   8  423.46    6.80
  -4   6  -8  458.75    5.50
   6   4  -8  418.96    6.70
  -4   6  -8  402.76    6.80
   4  -6  -8  386.76    7.00
  -2   6   8  700.73    8.10
  -2   6   8  726.83    7.70
  -6  -2   8  714.63    6.30
   2  -6  -8  693.43    6.00
   6   2  -8  680.83    6.30
  -2   6  -8  724.93    5.90
  -2   6  -8  675.13    6.70
  -6   0   8 1622.54    6.90
   0   6   8 1640.34    8.10
   0   6   8 1708.53    7.50
  -6   0  -8 1691.13    6.10
   0   6  -8 1654.23    7.30
   0  -6  -8 1648.94    6.40
   6   0  -8 1550.14    6.80
   0   6  -8 1635.54    7.70
   2   6   8  710.93    6.70
  -6   2   8  735.73    6.40
   2   6   8  699.23    6.40
   6  -2  -8  684.33    6.40
   2   6  -8  663.13    6.70
   2   6  -8  703.43    6.40
  -6   4   8  454.55    5.40
  -6   4   8  458.55    6.80
   4   6   8  460.75    6.10
   4   6   8  396.36    4.70
   4   6   8  351.16    3.90
   4   6  -8  441.36    6.80
   4   6  -8  422.16    7.80
   6  -4  -8  392.56    7.10
  -6   4  -8  465.85    3.90
  -6   4  -8  383.06    4.90
  -3   7   8    8.40    8.70
  -3   7   8   27.10    7.90
  -7  -3   8   15.50    7.70
   3  -7  -8   19.90    6.80
  -3   7  -8   24.70    6.90
   7   3  -8    7.90    6.20
  -3   7  -8    9.00    7.50
  -7  -1   8  211.38    6.30
  -1   7   8  221.98    7.30
  -1   7   8  197.28    8.20
  -1   7  -8  228.48    6.50
  -7  -1  -8  215.38    5.00
   7   1  -8  197.38    6.30
   1  -7  -8  211.78    6.30
  -1   7  -8  217.28    7.10
  -7   1   8  215.88    6.20
   1   7   8  218.78    7.30
   1   7   8  212.38    8.10
   1   7  -8  197.28    6.90
  -1  -7  -8  214.68    6.20
   1   7  -8  221.08    6.50
   7  -1  -8  199.58    6.10
  -7   3   8   17.70    6.50
   3   7   8   17.30    7.50
   3   7   8   11.80    5.00
   3   7   8   24.40    6.60
   3   7  -8    8.00    8.10
   7  -3  -8    9.50    6.90
   3   7  -8   18.30    7.30
  -1   0   9   12.80    2.60
   0   1   9    1.50    2.50
   0  -1   9    1.00    2.40
   1   0   9    3.20    2.10
   0   1  -9   -0.70    3.20
   1   0  -9    3.80    2.80
  -1   0  -9    1.20    3.20
   0  -1  -9    3.60    3.10
   1   0  -9    4.00    2.70
  -1   0  -9    1.20    2.00
  -1   2   9  153.28    3.10
  -1   2   9  149.69    3.50
   2   1   9  151.48    1.40
  -2  -1   9  151.78    3.30
  -1   2  -9  152.68    2.70
   1  -2  -9  156.18    3.20
   2   1  -9  154.18    2.90
  -2  -1  -9  148.79    3.60
   2   1  -9  145.59    4.00
  -2  -1  -9  143.29    1.30
   1  -2  -9  152.68    3.60
  -2   1   9  143.79    3.30
   1   2   9  142.29    2.30
  -1  -2   9  144.39    3.90
   1   2  -9  156.18    3.40
  -2   1  -9  153.78    2.00
  -2   1  -9  148.49    1.80
  -1  -2  -9  146.49    2.40
  -1  -2  -9  147.29    3.70
   2  -1  -9  155.48    3.70
   2  -1  -9  152.58    3.50
  -2   3   9    1.60    3.80
  -2   3   9    9.40    3.90
  -3  -2   9   12.70    4.60
   2  -3  -9   -2.40    3.90
   3   2  -9    9.60    4.10
   3   2  -9    5.00    3.10
  -2   3  -9    3.90    3.30
  -3  -2  -9    0.20    3.80
  -3   0   9    3.20    3.50
   0   3   9    0.60    3.90
   0   3   9   -5.40    3.30
   0   3  -9    0.50    3.50
   0   3  -9    0.50    3.40
  -3   0  -9   -1.20    3.50
   3   0  -9    2.70    2.60
   3   0  -9   -4.00    3.60
   0  -3  -9    0.70    3.90
  -3   2   9    2.20    3.90
   2   3   9    3.80    2.20
  -3   2   9    1.00    3.10
  -2  -3   9    4.70    4.70
  -2  -3  -9    3.30    2.20
  -3   2  -9    5.80    2.20
   2   3  -9    8.70    4.00
  -2  -3  -9   11.10    3.80
  -3   2  -9    3.30    2.20
   3  -2  -9    1.20    4.00
  -3   4   9    9.20    4.90
  -3   4   9   -6.10    4.80
  -4  -3   9   -3.80    4.90
   4   3  -9    2.30    4.70
   3  -4  -9    2.10    4.60
   4   3  -9    1.60    2.80
  -4  -3  -9   -3.40    4.40
  -3   4  -9    2.70    3.80
  -3   4  -9   12.10    4.00
  -4  -1   9   52.09    4.10
  -1   4   9   48.10    4.60
  -1   4   9   42.60    4.10
  -1   4  -9   53.69    5.00
  -4  -1  -9   49.30    3.70
   4   1  -9   41.90    4.20
   1  -4  -9   46.00    3.90
   4   1  -9   52.79    2.70
  -1   4  -9   49.80    3.80
  -4   1   9   50.99    4.30
   1   4   9   50.29    4.70
   1   4   9   46.00    3.60
   1   4  -9   50.49    4.80
  -1  -4  -9   48.40    3.40
  -4   1  -9   52.99    4.10
   4  -1  -9   55.79    4.30
   1   4  -9   55.19    4.30
  -4   3   9   -1.60    4.40
  -4   3   9   -4.60    4.80
   3   4   9    2.40    2.20
  -3  -4   9   13.20    4.90
   3   4   9    0.30    2.30
  -4   3  -9   -1.70    2.80
   4  -3  -9   10.20    4.90
   3   4  -9    3.00    5.10
  -4   3  -9   -2.20    2.80
  -4   5   9   43.30    6.40
  -4   5   9   38.50    6.10
  -5  -4   9   36.00    5.90
  -4   5  -9   33.00    4.80
   5   4  -9   27.60    6.10
   5   4  -9   30.10    2.60
   4  -5  -9   24.60    5.70
  -4   5  -9   37.50    5.20
  -2   5   9   62.19    6.10
  -2   5   9   85.19    5.40
  -5  -2   9   58.09    5.00
  -2   5  -9   74.99    4.40
   5   2  -9   62.59    5.20
  -5  -2  -9   64.69    4.20
   5   2  -9   62.59    2.20
   2  -5  -9   68.69    4.70
  -2   5  -9   69.99    6.30
  -5   0   9   -1.50    4.60
   0   5   9   -3.70    5.60
   0   5   9   -3.80    4.50
   0   5  -9   -3.70    4.70
   0   5  -9   -1.50    5.10
   0  -5  -9    4.30    4.50
  -5   0  -9   -3.30    3.90
   5   0  -9    6.60    4.50
  -5   2   9   72.09    5.00
   2   5   9   72.19    5.50
   2   5   9   70.69    4.30
   5  -2  -9   60.19    5.20
   2   5  -9   63.89    5.50
  -2  -5  -9   75.59    3.60
   2   5  -9   64.99    6.20
   4   5   9   30.40    2.30
  -5   4   9   28.30    6.30
   4   5   9   28.50    2.50
  -5   4   9   33.30    4.70
   4   5  -9   26.80    6.20
   5  -4  -9   31.30    6.10
   4   5  -9   27.40    6.00
  -5   4  -9   32.10    4.60
  -5   4  -9   31.10    3.50
  -3   6   9   -8.20    7.70
  -3   6   9    2.10    6.40
  -6  -3   9   -5.50    6.30
   6   3  -9   -6.30    6.20
  -3   6  -9    4.90    5.10
  -3   6  -9    4.20    7.50
   3  -6  -9    8.70    7.00
  -6  -1   9   13.10    5.50
  -1   6   9   -5.20    7.20
  -1   6   9    5.20    6.10
  -1   6  -9   14.50    5.50
   1  -6  -9   12.50    5.20
  -6  -1  -9    6.40    4.90
   6   1  -9   13.00    5.60
  -1   6  -9   13.20    7.00
  -6   1   9    5.60    5.50
   1   6   9   15.30    6.50
   1   6   9   10.40    6.10
   1   6  -9   13.40    5.50
   1   6  -9   11.40    6.10
  -6   1  -9   10.60    4.50
   6  -1  -9    8.90    6.50
  -6   3   9    6.60    7.30
   3   6   9    6.10    7.00
   3   6   9   -3.10    4.80
   3   6   9    2.80    3.70
   3   6  -9   -4.70    6.60
   6  -3  -9   -2.90    6.40
   3   6  -9   -4.00    6.20
  -2   7   9   15.10    9.10
  -2   7   9    6.50    7.40
  -7  -2   9   13.60    6.50
   2  -7  -9   11.00    6.80
   7   2  -9   13.70    6.80
  -2   7  -9   11.60    6.50
  -2   7  -9    8.30    7.60
  -7   0   9   -4.10    6.30
   0   7   9   -6.50    8.10
   0   7   9   -8.10    7.20
   0   7  -9   -4.00    7.20
   0  -7  -9    5.80    5.80
   0   7  -9   -1.60    6.70
   7   0  -9    0.10    6.50
  -7   2   9   14.10    6.80
   2   7   9   20.80    7.10
   2   7   9   10.30    7.30
   2   7  -9   25.00    8.30
   7  -2  -9   11.10    6.90
  -7   2  -9   15.50    5.30
   2   7  -9    8.20    7.20
   0   0  10  465.65    2.90
   0   0 -10  469.75    4.00
   1   1  10 1782.92    3.80
  -1   1  10 1733.93    4.60
   1  -1  10 1774.32    4.20
  -1  -1  10 1762.52    5.30
  -1  -1 -10 1724.23    3.60
  -1   1 -10 1789.62    5.60
   1   1 -10 1780.62    4.90
  -1   1 -10 1765.62    4.00
   1   1 -10 1765.42    5.10
  -1  -1 -10 1711.53    5.40
   1  -1 -10 1799.42    5.70
   1  -1 -10 1750.22    5.10
  -2   0  10  208.28    3.70
   0   2  10  208.78    3.20
   0  -2  10  201.28    3.40
   0   2 -10  206.18    3.30
  -2   0 -10  217.68    2.00
  -2   0 -10  201.98    4.00
   2   0 -10  211.98    3.40
   2   0 -10  208.68    3.80
   0  -2 -10  207.18    4.00
  -2   0 -10  206.38    1.70
   2   2  10  276.47    2.00
  -2   2  10  262.47    4.60
  -2  -2  10  270.97    4.80
   2  -2 -10  264.47    4.10
  -2   2 -10  281.17    2.90
  -2  -2 -10  276.67    2.00
   2   2 -10  274.07    4.30
   2   2 -10  280.17    4.20
  -2  -2 -10  287.27    4.40
   2  -2 -10  259.37    4.10
  -2   2 -10  279.27    3.00
  -3  -1  10 1236.48    5.40
  -1   3  10 1268.27    5.70
  -1   3  10 1297.27    5.50
   1  -3 -10 1244.98    4.90
   3   1 -10 1260.07    5.50
  -3  -1 -10 1258.77    5.40
   3   1 -10 1211.88    4.20
  -1   3 -10 1222.58    5.10
  -3   1  10 1262.57    5.50
   1   3  10 1237.88    3.60
  -1  -3  10 1223.18    5.30
   1   3 -10 1305.07    5.60
  -3   1 -10 1237.38    5.60
  -3   1 -10 1234.98    1.90
   3  -1 -10 1221.98    4.70
  -1  -3 -10 1196.68    6.40
  -3   1 -10 1221.08    1.80
   3  -1 -10 1263.27    5.50
  -1  -3 -10 1228.58    4.00
  -3   3  10 1375.46    6.30
  -3   3  10 1397.96    5.80
  -3  -3  10 1313.57    6.30
  -3   3 -10 1383.46    4.50
   3  -3 -10 1338.07    6.20
   3   3 -10 1387.26    6.40
   3   3 -10 1268.47    4.60
  -3  -3 -10 1259.97    6.00
  -3   3 -10 1379.86    4.20
  -2   4  10  199.08    5.40
  -2   4  10  206.18    5.10
  -4  -2  10  188.78    5.00
  -2   4 -10  197.48    4.70
   4   2 -10  209.08    5.10
   2  -4 -10  218.88    4.80
   4   2 -10  187.48    3.20
  -4  -2 -10  210.68    5.30
  -4   0  10  150.98    4.60
   0   4  10  151.98    5.30
   0   4  10  166.18    3.80
   0   4 -10  153.88    4.70
  -4   0 -10  153.78    4.30
   4   0 -10  155.48    4.70
   4   0 -10  142.59    3.50
   0   4 -10  166.58    4.40
  -4   2  10  210.68    5.10
   2   4  10  204.58    3.30
   4  -2 -10  211.68    5.90
   2   4 -10  220.28    6.20
  -4   2 -10  197.48    1.30
  -2  -4 -10  206.58    2.90
  -4   2 -10  216.18    1.50
  -4   4  10  165.78    5.80
  -4   4  10  153.88    6.30
  -4  -4  10  135.79    6.10
  -4   4 -10  154.28    4.40
   4   4 -10  135.49    6.10
  -4   4 -10  154.28    4.10
   4  -4 -10  143.69    5.90
   4   4 -10  131.59    3.60
  -3   5  10  772.52    7.20
  -3   5  10  797.22    8.30
  -5  -3  10  732.43    6.90
   5   3 -10  699.33    6.90
   5   3 -10  661.73    3.10
   3  -5 -10  701.23    6.70
  -3   5 -10  751.42    5.10
  -5  -3 -10  734.43    6.70
  -5  -1  10 1002.50    6.40
  -1   5  10 1005.80    7.30
  -1   5  10 1035.30    6.40
  -1   5 -10 1021.20    7.60
  -1   5 -10 1010.30    6.00
  -5  -1 -10 1007.10    5.60
   5   1 -10  950.40    6.40
   1  -5 -10  973.40    5.80
  -5   1  10 1019.30    6.40
   1   5  10 1027.10    7.30
   1   5  10 1034.10    5.70
   1   5 -10  975.00    6.90
  -5   1 -10 1003.90    5.80
   1   5 -10 1004.10    6.50
  -1  -5 -10 1012.20    5.20
   5  -1 -10  942.41    7.10
  -5   3  10  777.52    6.80
   3   5  10  730.63    3.90
   3   5  10  635.64    3.50
   5  -3 -10  697.03    7.00
   3   5 -10  699.33    6.80
  -5   3 -10  742.13    2.50
   3   5 -10  737.83    6.90
  -5   3 -10  773.02    2.50
  -5   5  10  581.64    8.50
  -5   5  10  598.04    7.30
  -5   5 -10  519.25    6.20
  -5   5 -10  594.94    4.90
   5   5 -10  512.65    8.10
   5   5 -10  452.65    3.80
   5  -5 -10  514.05    7.90
  -2   6  10  104.09    7.90
  -2   6  10  104.39    7.10
  -6  -2  10  100.49    6.50
  -2   6 -10   89.59    7.70
   2  -6 -10   81.29    6.10
   6   2 -10   90.69    6.40
  -6  -2 -10  102.29    5.90
  -2   6 -10   90.49    5.60
  -6   0  10  172.98    6.20
   0   6  10  179.18    7.60
   0   6  10  184.18    6.10
   0   6 -10  183.78    6.70
  -6   0 -10  171.88    5.00
   0   6 -10  186.98    6.30
   0  -6 -10  186.18    5.10
   6   0 -10  159.58    6.30
  -6   2  10   90.09    6.50
   2   6  10   95.59    7.90
   2   6  10   90.29    5.40
   6  -2 -10   81.39    7.40
   2   6 -10   82.19    6.90
   2   6 -10   90.69    6.30
  -6   2 -10   85.09    6.30
  -2  -6 -10   87.49    4.50
  -1   7  10  554.34    9.90
  -1   7  10  602.54    8.90
  -7  -1  10  591.14    7.90
  -1   7 -10  547.95    9.50
  -1   7 -10  583.44    7.70
  -7  -1 -10  607.54    6.80
   1  -7 -10  571.34    8.00
   7   1 -10  505.55    8.80
  -7   1  10  610.84    7.50
   1   7  10  591.84    8.80
   1   7  10  556.94    7.70
   1   7 -10  590.74    8.20
  -7   1 -10  585.14    7.00
   1   7 -10  577.74    8.90
   7  -1 -10  509.85    7.80
  -1   0  11    0.90    3.20
   0   1  11   -1.20    3.00
   0  -1  11    3.10    3.50
   1   0  11   -3.30    2.60
   0   1 -11    3.40    3.90
  -1   0 -11    0.20    3.80
   1   0 -11   -1.50    3.70
   0  -1 -11    0.70    4.00
   1   0 -11   -3.30    3.20
  -1   0 -11   -0.20    2.50
  -1   2  11   29.30    3.40
   2   1  11   29.70    1.70
  -2  -1  11   34.60    3.80
  -1   2 -11   32.70    3.60
   1  -2 -11   34.20    3.50
  -1   2 -11   29.10    3.40
   2   1 -11   29.50    3.50
   2   1 -11   22.50    3.90
  -2  -1 -11   25.50    4.30
  -2  -1 -11   27.00    1.80
   1  -2 -11   31.90    4.20
   1   2  11   31.80    2.50
  -2   1  11   33.00    3.80
  -1  -2  11   33.80    4.60
   1   2 -11   29.70    3.90
   1   2 -11   30.00    4.00
  -2   1 -11   25.20    4.50
  -2   1 -11   29.70    2.20
  -1  -2 -11   27.60    2.60
  -2   1 -11   29.10    2.00
  -1  -2 -11   27.10    4.30
   2  -1 -11   26.10    3.90
   2  -1 -11   27.00    4.50
  -2   3  11   -2.10    4.40
  -3  -2  11    5.30    4.60
  -2   3 -11    4.40    3.80
   2  -3 -11    6.00    5.10
   3   2 -11    2.10    4.80
   3   2 -11    3.90    3.90
  -2   3 -11    4.20    3.70
  -3  -2 -11    2.70    4.60
  -3   0  11   -1.70    4.20
   0   3  11    4.20    3.80
   0   3 -11    1.90    4.10
  -3   0 -11    4.00    4.40
   3   0 -11    3.10    3.40
   0   3 -11    1.90    4.00
   3   0 -11    0.60    4.30
   0  -3 -11   -1.20    4.70
   2   3  11    0.40    2.30
  -3   2  11    2.90    4.60
  -2  -3  11   -3.30    4.70
   3  -2 -11   13.70    4.60
   2   3 -11    4.00    4.70
  -3   2 -11    0.40    2.20
  -2  -3 -11   -0.10    4.80
  -3   2 -11    6.90    2.30
  -2  -3 -11    4.80    2.50
  -3   4  11   -6.90    5.80
  -3   4  11   -2.20    5.60
  -4  -3  11    2.10    5.80
  -3   4 -11    6.00    4.60
   4   3 -11   -7.20    5.70
   3  -4 -11  -10.20    6.30
   4   3 -11    1.90    3.50
  -4  -3 -11    1.20    5.30
  -3   4 -11   -2.20    4.20
  -4  -1  11   13.80    4.70
  -1   4  11   11.80    4.40
  -1   4  11    5.70    6.40
  -1   4 -11    0.10    4.70
  -4  -1 -11    2.60    4.60
   4   1 -11   14.60    4.80
   1  -4 -11    6.90    4.30
   4   1 -11    5.50    3.00
  -1   4 -11    4.80    4.30
  -4   1  11    9.10    5.00
   1   4  11    5.80    3.80
   1   4 -11    9.60    5.20
  -1  -4 -11   10.80    3.60
  -4   1 -11   13.20    4.70
   4  -1 -11   14.30    4.90
   1   4 -11    3.30    4.80
   3   4  11   -2.60    1.60
  -4   3  11    0.70    5.80
  -3  -4  11    0.40    5.70
   3   4  11    3.10    1.50
   4  -3 -11   -6.50    5.70
  -4   3 -11   -1.40    2.50
  -4   3 -11    2.30    2.80
   3   4 -11    2.20    5.70
  -4   5  11    6.20    7.60
  -4   5  11    4.70    8.10
  -5  -4  11   -0.80    6.90
  -4   5 -11    7.00    6.10
  -4   5 -11    7.40    4.70
   5   4 -11   -1.00    7.00
   5   4 -11    2.90    3.30
   4  -5 -11    4.60    7.00
  -2   5  11   24.80    6.70
  -2   5  11   15.20    6.20
  -5  -2  11   25.10    5.90
  -2   5 -11   15.80    5.60
  -2   5 -11   24.00    5.50
   5   2 -11   25.50    7.00
  -5  -2 -11   19.10    5.20
   5   2 -11   18.80    3.10
   2  -5 -11   23.70    5.40
  -5   0  11    5.20    5.60
   0   5  11   -1.80    6.40
   0   5  11   -0.60    4.80
   0   5 -11    1.70    5.40
   0   5 -11   -1.40    6.00
  -5   0 -11    3.30    5.60
   5   0 -11   -1.40    5.70
  -5   2  11   27.90    6.10
   2   5  11   15.30    3.90
   5  -2 -11   10.40    6.10
   2   5 -11   15.10    6.30
   2   5 -11   19.00    5.70
  -2  -5 -11   25.50    3.50
  -5   2 -11   31.80    5.60
  -5   4  11    5.20    7.50
   4   5 -11    6.00    7.20
  -5   4 -11   -4.10    3.40
   4   5 -11    8.30    7.40
   5  -4 -11    2.10    7.30
   4   5 -11    3.70    4.60
  -5   4 -11    4.80    3.20
  -3   6  11   -3.40    7.80
  -6  -3  11    9.10    7.60
   3  -6 -11    3.70    7.20
  -1   6  11   10.90    9.20
  -1   6  11   -2.30    6.80
  -6  -1  11    4.10    6.70
  -1   6 -11   16.30    7.30
  -1   6 -11    2.80    6.20
   1  -6 -11    0.00    5.70
  -6  -1 -11    5.80    5.30
   6   1 -11    5.40    6.50
  -6   1  11    2.70    6.40
   1   6  11    5.50    7.80
   1   6  11    2.20    6.20
   1   6 -11    5.70    6.70
   1   6 -11    0.20    7.20
  -1  -6 -11    4.20    5.30
  -6   1 -11    6.60    5.50
   6  -1 -11    8.40    6.80
   3   6  11    9.60    4.30
   6  -3 -11   11.90    7.20
   3   6 -11    0.70    7.20
   0   0  12  510.75    3.60
   0   0 -12  500.55    5.00
  -1   1  12  104.09    3.60
  -1  -1  12  122.89    3.90
   1   1  12  110.69    2.80
  -1  -1 -12  106.09    3.10
  -1   1 -12  115.79    4.60
   1   1 -12  106.39    4.40
   1   1 -12  106.09    3.90
  -1  -1 -12  101.39    4.60
  -1   1 -12  101.79    3.10
   1  -1 -12   96.29    4.40
   1  -1 -12  110.89    3.70
  -2   0  12 1490.45    6.10
   0   2  12 1429.16    4.60
   0  -2  12 1443.76    5.30
  -2   0 -12 1432.36    3.10
   0  -2 -12 1414.36    4.70
   0   2 -12 1437.76    6.50
  -2   0 -12 1458.85    6.20
   2   0 -12 1368.56    5.60
   0  -2 -12 1378.86    6.30
   2   0 -12 1452.75    5.70
  -2   0 -12 1495.75    3.30
  -2   2  12  957.00    5.40
  -2  -2  12  952.10    5.50
   2   2  12  943.61    2.70
   2  -2 -12  956.80    6.20
  -2  -2 -12  965.60    2.60
  -2   2 -12  945.91    6.50
  -2   2 -12  981.20    3.80
   2   2 -12  984.10    5.80
   2   2 -12  892.61    5.30
  -2  -2 -12  933.21    5.90
   2  -2 -12  906.41    5.80
  -2   2 -12 1002.00    4.00
  -1   3  12  362.86    4.70
  -3  -1  12  342.67    5.20
   1  -3 -12  345.97    4.60
  -1   3 -12  348.47    4.20
  -3  -1 -12  335.27    5.20
   3   1 -12  312.47    4.80
   3   1 -12  359.46    5.30
  -3   1  12  345.77    5.20
   1   3  12  346.47    3.50
   1   3 -12  353.76    5.20
  -3   1 -12  340.77    5.50
   3  -1 -12  320.87    4.70
  -1  -3 -12  338.87    6.50
   3  -1 -12  358.06    5.30
  -1  -3 -12  348.57    3.60
  -3   3  12    8.80    6.30
  -3  -3  12   17.90    5.60
   3  -3 -12    6.10    5.40
  -3   3 -12   18.50    3.40
   3   3 -12   12.70    6.70
   3   3 -12   -2.90    4.50
  -3  -3 -12   13.30    5.70
  -3   3 -12    9.30    3.10
  -2   4  12  714.33    6.40
  -2   4  12  704.83    7.10
  -4  -2  12  686.43    6.60
  -2   4 -12  712.23    6.00
  -2   4 -12  715.83    5.60
   2  -4 -12  667.33    6.60
   4   2 -12  674.33    6.70
   4   2 -12  580.44    4.50
  -4  -2 -12  662.33    6.30
  -4   0  12 1372.76    7.00
   0   4  12 1357.76    5.60
   0   4 -12 1385.96    7.00
  -4   0 -12 1302.47    6.60
   4   0 -12 1167.08    5.10
   0   4 -12 1351.86    6.50
   4   0 -12 1321.57    7.10
  -4   2  12  699.13    6.70
   2   4  12  674.43    3.70
   4  -2 -12  677.53    6.60
   2   4 -12  651.33    7.00
   2   4 -12  671.13    6.60
  -4   2 -12  653.73    7.40
  -2  -4 -12  696.13    3.60
  -4   4  12  464.85    8.60
  -4  -4  12  431.26    7.60
  -4   4 -12  448.96    4.30
  -4   4 -12  451.75    4.30
   4   4 -12  424.56    8.00
   4  -4 -12  456.85    7.00
   4   4 -12  344.47    4.80
  -3   5  12  127.99    7.60
  -3   5  12  128.19    8.70
  -5  -3  12   94.89    7.30
  -3   5 -12  103.39    6.60
   5   3 -12  118.09    7.10
   5   3 -12   81.99    3.60
   3  -5 -12  102.79    6.70
  -3   5 -12  119.69    5.50
  -5  -3 -12  111.49    6.50
  -1   5  12   95.59    7.40
  -1   5  12   88.39    6.00
  -5  -1  12   86.79    6.20
  -1   5 -12  102.39    6.50
  -1   5 -12  102.19    6.50
  -5  -1 -12   93.69    5.70
   5   1 -12   84.99    6.20
   1  -5 -12   96.39    5.30
  -5   1  12  103.19    6.30
   1   5  12  101.49    5.00
   1   5 -12  105.09    7.80
  -5   1 -12  101.09    5.90
   1   5 -12  100.29    6.20
  -1  -5 -12   93.89    4.60
   5  -1 -12   86.99    6.00
   3   5  12  100.89    2.40
  -5   3  12  118.59    7.00
   3   5  12   91.19    2.40
   5  -3 -12  105.69    7.30
   3   5 -12  117.19    8.00
   3   5 -12  109.29    6.90
  -6   0  12  337.07    7.80
   0   6  12  315.77    9.30
   0   6  12  312.27    7.90
   0   6 -12  301.87    9.50
  -6   0 -12  299.37    6.60
   0   6 -12  313.67    7.40
   6   0 -12  292.07    7.70
   0   1  13   -3.60    3.20
   1   0  13    3.10    3.10
   0  -1  13   -5.30    3.60
  -1   0  13   -0.50    3.90
   0  -1 -13    5.40    3.20
   0   1 -13    0.80    4.70
  -1   0 -13    1.70    5.10
   1   0 -13   -0.50    5.40
   0  -1 -13    9.90    5.00
   1   0 -13   -7.00    4.70
  -1   0 -13    1.60    3.00
  -1   2  13   66.69    4.80
  -2  -1  13   60.09    4.70
   1  -2 -13   54.19    4.20
  -1   2 -13   45.40    5.80
  -1   2 -13   50.39    4.10
  -1   2 -13   63.99    4.10
   2   1 -13   45.40    5.30
  -2  -1 -13   53.19    5.10
   2   1 -13   63.69    4.80
   1  -2 -13   60.09    5.10
  -2  -1 -13   51.69    2.00
   1   2  13   50.59    3.50
  -2   1  13   53.29    4.60
  -1  -2  13   48.50    4.60
  -2   1 -13   60.19    2.80
   1   2 -13   48.90    5.00
  -2   1 -13   56.59    5.20
   1   2 -13   62.29    5.30
  -1  -2 -13   51.29    3.10
  -1  -2 -13   54.99    5.40
   2  -1 -13   56.89    4.70
  -2   1 -13   54.59    2.70
   2  -1 -13   49.50    4.70
  -2   3  13   -6.60    5.30
  -3  -2  13   -4.30    5.60
   2  -3 -13    7.50    5.10
  -2   3 -13    4.10    4.10
  -2   3 -13    0.00    4.20
   3   2 -13    5.10    5.60
   3   2 -13    5.50    4.10
  -3  -2 -13    7.40    5.70
  -3   0  13   -7.60    5.10
   0   3  13    0.90    4.40
   0   3 -13   -0.90    5.30
   0   3 -13   -0.10    5.60
   0   3 -13   -9.60    5.60
  -3   0 -13    2.20    5.30
   0  -3 -13    0.80    4.40
   3   0 -13   -1.20    4.30
   0  -3 -13   -7.20    5.90
   3   0 -13   -6.80    5.00
   2   3  13    1.40    2.40
  -3   2  13    3.70    5.60
  -2  -3  13   -4.60    5.60
   3  -2 -13   -4.30    6.30
  -2  -3 -13    4.60    2.30
   2   3 -13    4.90    5.90
  -3   2 -13   -7.30    6.20
   2   3 -13   -3.70    5.10
  -3   2 -13    2.70    2.20
  -2  -3 -13   10.90    6.20
  -3   2 -13    0.20    2.30
  -3   4  13    9.00    6.90
  -4  -3  13    5.90    7.00
  -3   4 -13    2.20    4.70
   3  -4 -13   10.40    6.40
   4   3 -13   15.90    7.20
   4   3 -13    9.10    4.70
  -4  -3 -13   -6.40    6.80
  -3   4 -13    2.50    4.70
  -1   4  13   27.20    6.10
  -4  -1  13   28.50    5.60
  -4  -1 -13   20.00    5.90
   4   1 -13   19.50    4.00
   4   1 -13   28.20    6.20
   1  -4 -13   29.00    4.90
  -1   4 -13   24.70    4.90
  -4   1  13   17.00    5.80
   1   4  13   22.10    4.10
   1   4 -13   21.20    6.30
  -1  -4 -13   28.10    4.10
  -4   1 -13   18.60    6.00
   1   4 -13   26.40    5.70
   4  -1 -13   29.60    7.00
  -4   3  13   14.60    7.10
  -4   3 -13   -2.00    1.90
   4  -3 -13    7.90    7.60
   3   4 -13  -12.40    7.50
   3   4 -13   -2.10    5.00
  -4   3 -13   -1.10    1.80
  -2   5  13   35.20    7.20
  -5  -2  13   36.40    7.50
  -2   5 -13   31.20    6.30
   5   2 -13   49.60    7.80
  -5  -2 -13   33.70    6.40
   5   2 -13   29.50    4.00
   2  -5 -13   32.90    6.50
  -5   0  13   -4.10    7.00
   0   5  13   -0.50    5.40
   0   5 -13    3.60    6.20
   0   5 -13    9.60    7.10
  -5   0 -13    1.70    6.40
   5   0 -13    5.80    7.10
  -5   2  13   28.40    7.70
   2   5  13   33.00    4.10
   5  -2 -13   32.80    7.50
   2   5 -13   40.50    7.20
  -2  -5 -13   21.70    3.70
   2   5 -13   39.80    7.60
  -5   2 -13   45.40    8.20
   0   0  14   88.19    4.50
   0   0 -14   74.89    5.60
   0   0 -14   77.29    3.60
  -1   1  14  799.82    5.90
  -1  -1  14  820.02    6.20
   1   1  14  795.12    4.10
  -1  -1 -14  789.62    3.90
  -1   1 -14  760.12    6.80
  -1   1 -14  809.12    4.60
   1   1 -14  735.03    6.20
  -1  -1 -14  753.82    6.70
   1  -1 -14  722.63    6.40
   1   1 -14  792.72    5.50
  -1   1 -14  822.42    4.50
   0   2  14  173.68    4.60
  -2   0  14  166.68    6.00
  -2   0 -14  162.38    2.40
   0  -2 -14  162.58    4.60
   0   2 -14  153.88    6.10
  -2   0 -14  164.68    6.10
  -2   0 -14  169.58    2.50
   2   0 -14  138.39    5.30
   0  -2 -14  147.89    6.10
   2   0 -14  186.18    6.10
  -2   2  14  103.19    6.30
  -2  -2  14   96.69    5.60
   2  -2 -14  100.39    6.00
  -2   2 -14  105.39    6.80
   2   2 -14   85.19    5.40
   2   2 -14  111.19    6.60
  -2   2 -14  106.49    3.70
  -2   2 -14  111.49    3.60
  -2  -2 -14   93.69    6.10
   2  -2 -14   87.09    6.10
  -2  -2 -14  108.79    2.00
  -1   3  14  835.92    6.50
  -3  -1  14  789.22    7.00
  -1   3 -14  827.62    6.00
  -1   3 -14  723.93    7.70
  -1   3 -14  821.52    6.10
  -3  -1 -14  746.63    7.30
   3   1 -14  644.24    5.70
   3   1 -14  812.52    7.00
  -3   1  14  803.22    7.50
   1   3  14  821.62    4.60
  -1  -3 -14  790.02    4.40
   1   3 -14  826.32    7.70
   1   3 -14  707.23    7.00
  -3   1 -14  761.42    7.50
  -1  -3 -14  720.73    7.40
   3  -1 -14  655.73    7.00
   3  -1 -14  818.72    6.80
  -3   3  14  481.95    7.30
  -3  -3  14  477.45    8.20
   3  -3 -14  466.55    7.90
  -3   3 -14  436.46    8.60
   3   3 -14  506.05    7.90
   3   3 -14  367.56    6.50
  -3   3 -14  410.56    3.70
  -3  -3 -14  478.95    7.90
  -3   3 -14  486.55    3.90
  -2   4  14   68.89    6.80
  -4  -2  14   70.29    7.00
  -2   4 -14   75.69    5.40
  -2   4 -14   75.79    5.80
   2  -4 -14   64.49    7.40
   4   2 -14   79.39    7.50
   4   2 -14   58.79    4.60
  -4  -2 -14   72.49    7.10
  -4   0  14  133.19    6.90
   0   4  14  123.39    5.70
   0   4 -14  125.79    6.50
   0   4 -14  133.49    6.00
  -4   0 -14  130.59    7.70
   4   0 -14   94.29    6.00
   4   0 -14  119.99    6.90
   0  -4 -14  123.09    5.40
   2   4  14   70.09    3.20
  -4   2  14   72.09    6.80
   2   4 -14   72.09    7.00
   4  -2 -14   65.89    7.20
   2   4 -14   78.39    7.60
   2   4 -14   52.29    6.40
  -4   2 -14   74.79    7.30
  -2  -4 -14    2.10    2.70
   0  -1  15    2.50    5.20
  -1   0  15   -0.80    5.60
   0   1  15    1.90    4.90
  -1   0 -15    0.70    4.10
   0  -1 -15   -4.50    4.80
   0   1 -15   -4.30    6.40
  -1   0 -15   -2.20    6.60
   1   0 -15    4.50    6.80
   0  -1 -15  -10.40    6.40
   0   1 -15   -2.40    4.20
  -1   2  15    7.10    5.00
  -2  -1  15    7.30    5.70
  -1   2 -15   -4.20    7.20
   2   1 -15    7.10    6.90
  -2  -1 -15    3.40    6.90
  -1   2 -15    7.70    4.60
   2   1 -15   -0.40    5.90
   1  -2 -15    6.60    7.70
  -1   2 -15    9.60    4.70
  -2   1  15    1.00    6.60
  -1  -2  15    5.30    5.50
   1   2  15    5.90    4.00
  -2   1 -15   18.90    3.00
   1   2 -15    8.90    6.30
  -2   1 -15    8.20    7.10
   1   2 -15    4.80    5.60
  -1  -2 -15   12.70    6.80
   2  -1 -15    5.40    6.40
  -1  -2 -15    7.20    3.50
  -2   1 -15   10.90    3.20
   2  -1 -15    2.80    6.60
  -2   3  15  -10.10    7.30
  -3  -2  15    4.80    7.20
   2  -3 -15    5.80    6.20
  -2   3 -15   -9.40    8.40
  -2   3 -15    3.00    4.50
   3   2 -15   -3.90    5.70
   0   3  15   -5.00    5.20
  -3   0  15    0.70    6.50
   0   3 -15    0.40    5.50
   0   3 -15    7.30    7.10
  -3   0 -15   -1.20    7.40
   3   0 -15    4.00    5.90
   0  -3 -15    3.70    5.10
   0  -3 -15   -9.00    7.20
   3   0 -15   -7.50    6.60
  -3   2  15    1.00    7.70
   3  -2 -15   -0.30    6.70
  -3   2 -15    0.30    8.10
   2   3 -15    2.00    7.30
   2   3 -15    0.40    7.30
  -2  -3 -15   -3.70    7.70
   0   0  16  980.30    6.30
   0   0 -16  869.21    9.20
   0   0 -16 1007.60    6.20
   1   1  16  125.29    4.30
  -1  -1  16  138.09    7.00
  -1   1  16  136.49    6.50
  -1   1 -16  128.59    4.80
  -1  -1 -16  123.49    4.20
  -1   1 -16  108.49    8.80
   1   1 -16  108.29    8.10
  -1  -1 -16  119.69    7.80
   1  -1 -16  109.29    7.40
  -1   1 -16  132.39    5.00
   2   0 -16  452.25    7.00
   0   0   0    0.00    0.00
_computing_structure_solution     'SHELXT 2014/5 (Sheldrick, 2014)'
;
_shelx_hkl_checksum              45257
_shelx_res_file
;
TITL 2_a.res in I4/mcm
    2_a.res
    created by SHELXL-2016/6 at 11:11:02 on 27-Mar-2018
REM Old TITL 2 in I4/mcm
REM SHELXT solution in I4/mcm
REM R1 0.030,  Rweak 0.000,  Alpha 0.025,  Orientation as input
REM Formula found by SHELXT:  F4 K Br
CELL  0.71073   6.0999   6.0999  11.0509   90.000   90.000   90.000
ZERR    4.000   0.0009   0.0009   0.0022    0.000    0.000    0.000
LATT  2
SYMM -X, -Y, Z
SYMM -Y, X, Z
SYMM Y, -X, Z
SYMM -X, Y, 1/2-Z
SYMM X, -Y, 1/2-Z
SYMM Y, X, 1/2-Z
SYMM -Y, -X, 1/2-Z
SFAC F K BR
UNIT 16 4 4
L.S. 10
LIST 4
ACTA
TEMP -173.15
SIZE 0.231 0.146 0.127
FMAP 2
PLAN 20
WGHT    0.015200    0.233100
EXTI    0.008715
FVAR       0.43701
BR1   3    0.500000    0.000000    0.500000    10.12500    0.00811    0.00811 =
         0.00749    0.00000    0.00000    0.00046
K1    2    0.500000    0.500000    0.250000    10.12500    0.01077    0.01077 =
         0.01009    0.00000    0.00000    0.00000
F1    1    0.655080    0.155080    0.378891    10.50000    0.01457    0.01457 =
         0.01221    0.00295    0.00295   -0.00080
HKLF 4
REM  2_a.res in I4/mcm
REM R1 =  0.0153 for     198 Fo > 4sig(Fo)  and  0.0171 for all     214 data
REM     13 parameters refined using      0 restraints
END
WGHT      0.0152      0.2331
REM Highest difference peak  0.598,  deepest hole -0.733,  1-sigma level  0.165
Q1    1   0.6354  0.1354  0.4200  10.50000  0.05    0.42
Q2    1   0.6535  0.3672  0.3283  11.00000  0.05    0.37
Q3    1   0.6557  0.3160  0.5000  10.50000  0.05    0.36
Q4    1   0.8108  0.3108  0.4091  10.50000  0.05    0.33
Q5    1   0.4064  0.0936  0.4393  10.50000  0.05    0.32
Q6    1   0.8237  0.0688  0.3385  11.00000  0.05    0.30
Q7    1   0.6753  0.1752  0.2517  10.50000  0.05    0.26
Q8    1   0.3380  0.0569  0.5000  10.50000  0.05    0.23
Q9    1   0.5000  0.5000  0.0966  10.25000  0.05    0.22
Q10   1   0.5000  0.0000  0.3417  10.25000  0.05    0.20
Q11   1   0.7879  0.2370  0.2930  11.00000  0.05    0.18
Q12   1   0.5663  0.0663  0.3495  10.50000  0.05    0.14
Q13   1   0.2237  0.4375  0.2303  11.00000  0.05    0.10
Q14   1   0.4951  0.1596  0.3711  11.00000  0.05    0.10
;
_shelx_res_checksum              94886
loop_
_space_group_symop_operation_xyz
'x, y, z'
'-x, -y, z'
'-y, x, z'
'y, -x, z'
'-x, y, -z+1/2'
'x, -y, -z+1/2'
'y, x, -z+1/2'
'-y, -x, -z+1/2'
'x+1/2, y+1/2, z+1/2'
'-x+1/2, -y+1/2, z+1/2'
'-y+1/2, x+1/2, z+1/2'
'y+1/2, -x+1/2, z+1/2'
'-x+1/2, y+1/2, -z+1'
'x+1/2, -y+1/2, -z+1'
'y+1/2, x+1/2, -z+1'
'-y+1/2, -x+1/2, -z+1'
'-x, -y, -z'
'x, y, -z'
'y, -x, -z'
'-y, x, -z'
'x, -y, z-1/2'
'-x, y, z-1/2'
'-y, -x, z-1/2'
'y, x, z-1/2'
'-x+1/2, -y+1/2, -z+1/2'
'x+1/2, y+1/2, -z+1/2'
'y+1/2, -x+1/2, -z+1/2'
'-y+1/2, x+1/2, -z+1/2'
'x+1/2, -y+1/2, z'
'-x+1/2, y+1/2, z'
'-y+1/2, -x+1/2, z'
'y+1/2, x+1/2, z'
loop_
_atom_site_type_symbol
_atom_site_label
_atom_site_fract_x
_atom_site_fract_y
_atom_site_fract_z
_atom_site_U_iso_or_equiv
_atom_site_adp_type
_atom_site_calc_flag
_atom_site_occupancy
Br Br1 0.500000 0.000000 0.500000 0.00790(12) Uani d 1
K K1 0.500000 0.500000 0.250000 0.01054(16) Uani d 1
F F1 0.65508(11) 0.15508(11) 0.37889(7) 0.0138(2) Uani d 1
loop_
_atom_site_aniso_label
_atom_site_aniso_U_11
_atom_site_aniso_U_22
_atom_site_aniso_U_33
_atom_site_aniso_U_12
_atom_site_aniso_U_13
_atom_site_aniso_U_23
Br1 0.00811(14) 0.00811(14) 0.00749(15) 0.00046(10) 0.000 0.000
K1 0.0108(2) 0.0108(2) 0.0101(3) 0.000 0.000 0.000
F1 0.0146(3) 0.0146(3) 0.0122(4) -0.0008(4) 0.0030(2) 0.0030(2)
loop_
_atom_type_symbol
_atom_type_description
_atom_type_scat_dispersion_real
_atom_type_scat_dispersion_imag
_atom_type_scat_source
F F 0.0171 0.0103 'International Tables Vol C Tables 4.2.6.8 and 6.1.1.4'
K K 0.2009 0.2494 'International Tables Vol C Tables 4.2.6.8 and 6.1.1.4'
Br Br -0.2901 2.4595 'International Tables Vol C Tables 4.2.6.8 and 6.1.1.4'
loop_
_geom_angle_atom_site_label_1
_geom_angle_atom_site_label_2
_geom_angle_atom_site_label_3
_geom_angle_site_symmetry_1
_geom_angle_site_symmetry_3
_geom_angle
F1 Br1 F1 . 18_556 90.02(5)
F1 Br1 F1 . 2_655 89.98(5)
F1 Br1 F1 18_556 2_655 180.0
F1 Br1 F1 . 17_656 180.0
F1 Br1 F1 18_556 17_656 89.98(5)
F1 Br1 F1 2_655 17_656 90.02(5)
F1 K1 F1 28_545 3_655 144.84(4)
F1 K1 F1 28_545 2_665 139.16(4)
F1 K1 F1 3_655 2_665 73.977(14)
F1 K1 F1 28_545 26_455 73.977(14)
F1 K1 F1 3_655 26_455 139.16(3)
F1 K1 F1 2_665 26_455 74.60(3)
F1 K1 F1 28_545 4_565 74.60(3)
F1 K1 F1 3_655 4_565 116.61(3)
F1 K1 F1 2_665 4_565 73.977(15)
F1 K1 F1 26_455 4_565 78.20(4)
F1 K1 F1 28_545 27_565 116.61(3)
F1 K1 F1 3_655 27_565 74.60(3)
F1 K1 F1 2_665 27_565 78.20(4)
F1 K1 F1 26_455 27_565 73.977(15)
F1 K1 F1 4_565 27_565 144.84(4)
F1 K1 F1 28_545 25_655 73.977(14)
F1 K1 F1 3_655 25_655 78.20(4)
F1 K1 F1 2_665 25_655 144.84(4)
F1 K1 F1 26_455 25_655 116.61(3)
F1 K1 F1 4_565 25_655 139.16(3)
F1 K1 F1 27_565 25_655 73.977(15)
F1 K1 F1 28_545 . 78.20(4)
F1 K1 F1 3_655 . 73.978(14)
F1 K1 F1 2_665 . 116.61(3)
F1 K1 F1 26_455 . 144.84(4)
F1 K1 F1 4_565 . 73.977(14)
F1 K1 F1 27_565 . 139.16(4)
F1 K1 F1 25_655 . 74.60(3)
F1 K1 K1 28_545 25_665 142.700(14)
F1 K1 K1 3_655 25_665 37.300(14)
F1 K1 K1 2_665 25_665 72.421(19)
F1 K1 K1 26_455 25_665 107.579(19)
F1 K1 K1 4_565 25_665 142.700(14)
F1 K1 K1 27_565 25_665 37.300(14)
F1 K1 K1 25_655 25_665 72.421(19)
F1 K1 K1 . 25_665 107.579(19)
F1 K1 K1 28_545 25 37.300(14)
F1 K1 K1 3_655 25 142.700(14)
F1 K1 K1 2_665 25 107.579(19)
F1 K1 K1 26_455 25 72.421(19)
F1 K1 K1 4_565 25 37.300(14)
F1 K1 K1 27_565 25 142.700(14)
F1 K1 K1 25_655 25 107.579(19)
F1 K1 K1 . 25 72.421(19)
K1 K1 K1 25_665 25 180.0
F1 K1 K1 28_545 25_565 107.579(19)
F1 K1 K1 3_655 25_565 107.579(19)
F1 K1 K1 2_665 25_565 37.300(14)
F1 K1 K1 26_455 25_565 37.300(14)
F1 K1 K1 4_565 25_565 72.421(19)
F1 K1 K1 27_565 25_565 72.421(19)
F1 K1 K1 25_655 25_565 142.700(14)
F1 K1 K1 . 25_565 142.699(15)
K1 K1 K1 25_665 25_565 90.0
K1 K1 K1 25 25_565 90.0
F1 K1 K1 28_545 25_655 72.421(19)
F1 K1 K1 3_655 25_655 72.421(19)
F1 K1 K1 2_665 25_655 142.700(14)
F1 K1 K1 26_455 25_655 142.700(14)
F1 K1 K1 4_565 25_655 107.579(19)
F1 K1 K1 27_565 25_655 107.579(19)
F1 K1 K1 25_655 25_655 37.300(14)
F1 K1 K1 . 25_655 37.301(14)
K1 K1 K1 25_665 25_655 90.0
K1 K1 K1 25 25_655 90.0
K1 K1 K1 25_565 25_655 180.0
Br1 F1 K1 . 25_655 125.809(18)
Br1 F1 K1 . . 125.809(18)
K1 F1 K1 25_655 . 105.40(3)
loop_
_geom_bond_atom_site_label_1
_geom_bond_atom_site_label_2
_geom_bond_site_symmetry_2
_geom_bond_distance
Br1 F1 . 1.8923(9)
Br1 F1 18_556 1.8924(9)
Br1 F1 2_655 1.8924(9)
Br1 F1 17_656 1.8924(9)
K1 F1 28_545 2.7112(6)
K1 F1 3_655 2.7112(6)
K1 F1 2_665 2.7112(6)
K1 F1 26_455 2.7112(6)
K1 F1 4_565 2.7112(6)
K1 F1 27_565 2.7112(6)
K1 F1 25_655 2.7112(6)
K1 F1 . 2.7112(6)
K1 K1 25_665 4.3133(6)
K1 K1 25 4.3133(6)
K1 K1 25_565 4.3133(6)
K1 K1 25_655 4.3133(6)

_cod_database_fobs_code 1549359
