#------------------------------------------------------------------------------
#$Date: 2019-11-17 08:10:20 +0200 (Sun, 17 Nov 2019) $
#$Revision: 228815 $
#$URL: file:///home/coder/svn-repositories/cod/cif/1/54/90/1549036.cif $
#------------------------------------------------------------------------------
#
# This file is available in the Crystallography Open Database (COD),
# http://www.crystallography.net/
#
# All data on this site have been placed in the public domain by the
# contributors.
#
data_1549036
loop_
_publ_author_name
'Manner, Virginia W.'
'Cawkwell, Marc J.'
'Kober, Edward M.'
'Myers, Thomas W.'
'Brown, Geoff W.'
'Tian, Hongzhao'
'Snyder, Christopher J.'
'Perriot, Romain'
'Preston, Daniel N.'
_publ_section_title
;
 Examining the chemical and structural properties that influence the
 sensitivity of energetic nitrate esters.
;
_journal_issue                   15
_journal_name_full               'Chemical science'
_journal_page_first              3649
_journal_page_last               3663
_journal_paper_doi               10.1039/c8sc00903a
_journal_volume                  9
_journal_year                    2018
_chemical_formula_sum            'C4 H7 N3 O9'
_chemical_formula_weight         241.13
_space_group_crystal_system      triclinic
_space_group_IT_number           2
_space_group_name_Hall           '-P 1'
_space_group_name_H-M_alt        'P -1'
_symmetry_space_group_name_Hall  '-P 1'
_symmetry_space_group_name_H-M   'P -1'
_atom_sites_solution_hydrogens   geom
_audit_creation_method           SHELXL-2014/7
_audit_update_record
;
2017-10-27 deposited with the CCDC.
2018-03-09 downloaded from the CCDC.
;
_cell_angle_alpha                100.557(19)
_cell_angle_beta                 96.753(19)
_cell_angle_gamma                114.760(14)
_cell_formula_units_Z            2
_cell_length_a                   7.6451(14)
_cell_length_b                   7.8238(17)
_cell_length_c                   8.9723(15)
_cell_measurement_reflns_used    100
_cell_measurement_temperature    173(2)
_cell_measurement_theta_max      28.84
_cell_measurement_theta_min      2.48
_cell_volume                     467.59(18)
_computing_cell_refinement       'crystal clear 2.0'
_computing_data_collection       'crystal clear 2.0'
_computing_data_reduction        'crystal clear 2.0'
_computing_molecular_graphics    'SHELXL-2014/7 (Sheldrick, 2014)'
_computing_publication_material  'SHELXL-2014/7 (Sheldrick, 2014)'
_computing_structure_refinement  'SHELXL-2014/7 (Sheldrick, 2014)'
_computing_structure_solution    'SHELXL-2014/7 (Sheldrick, 2014)'
_diffrn_ambient_temperature      173(2)
_diffrn_measured_fraction_theta_full 0.980
_diffrn_measured_fraction_theta_max 0.980
_diffrn_measurement_device_type  'image plates'
_diffrn_measurement_method       'single axis rotation'
_diffrn_radiation_type           MoK\a
_diffrn_radiation_wavelength     0.71073
_diffrn_reflns_av_R_equivalents  0.1632
_diffrn_reflns_av_unetI/netI     0.1193
_diffrn_reflns_Laue_measured_fraction_full 0.980
_diffrn_reflns_Laue_measured_fraction_max 0.980
_diffrn_reflns_limit_h_max       9
_diffrn_reflns_limit_h_min       -9
_diffrn_reflns_limit_k_max       9
_diffrn_reflns_limit_k_min       -9
_diffrn_reflns_limit_l_max       10
_diffrn_reflns_limit_l_min       -10
_diffrn_reflns_number            5053
_diffrn_reflns_point_group_measured_fraction_full 0.980
_diffrn_reflns_point_group_measured_fraction_max 0.980
_diffrn_reflns_theta_full        25.023
_diffrn_reflns_theta_max         25.023
_diffrn_reflns_theta_min         2.366
_diffrn_source                   'rotating anode'
_exptl_absorpt_coefficient_mu    0.172
_exptl_absorpt_correction_T_max  0.953
_exptl_absorpt_correction_T_min  0.934
_exptl_absorpt_correction_type   numerical
_exptl_absorpt_process_details   sadabs
_exptl_crystal_colour            colorless
_exptl_crystal_density_diffrn    1.713
_exptl_crystal_description       block
_exptl_crystal_F_000             248
_exptl_crystal_size_max          0.320
_exptl_crystal_size_mid          0.290
_exptl_crystal_size_min          0.210
_refine_diff_density_max         0.449
_refine_diff_density_min         -0.388
_refine_diff_density_rms         0.110
_refine_ls_extinction_coef       0.09(2)
_refine_ls_extinction_expression Fc^*^=kFc[1+0.001xFc^2^\l^3^/sin(2\q)]^-1/4^
_refine_ls_extinction_method     'SHELXL-2014/7 (Sheldrick 2014'
_refine_ls_goodness_of_fit_ref   0.979
_refine_ls_hydrogen_treatment    constr
_refine_ls_matrix_type           full
_refine_ls_number_parameters     146
_refine_ls_number_reflns         1535
_refine_ls_number_restraints     0
_refine_ls_restrained_S_all      0.979
_refine_ls_R_factor_all          0.0935
_refine_ls_R_factor_gt           0.0738
_refine_ls_shift/su_max          0.000
_refine_ls_shift/su_mean         0.000
_refine_ls_structure_factor_coef Fsqd
_refine_ls_weighting_details
'w=1/[\s^2^(Fo^2^)+(0.1272P)^2^] where P=(Fo^2^+2Fc^2^)/3'
_refine_ls_weighting_scheme      calc
_refine_ls_wR_factor_gt          0.1798
_refine_ls_wR_factor_ref         0.2054
_reflns_Friedel_coverage         0.000
_reflns_number_gt                1131
_reflns_number_total             1535
_reflns_threshold_expression     'I > 2\s(I)'
_cod_data_source_file            c8sc00903a2.cif
_cod_data_source_block           VWM_2
_cod_depositor_comments
'Adding full bibliography for 1549035--1549036.cif.'
_cod_original_cell_volume        467.59(16)
_cod_database_code               1549036
_shelx_shelxl_version_number     2014/7
_shelx_space_group_comment
;
The symmetry employed for this shelxl refinement is uniquely defined
by the following loop, which should always be used as a source of
symmetry information in preference to the above space-group names.
They are only intended as comments.
;
_shelx_estimated_absorpt_t_min   0.947
_shelx_estimated_absorpt_t_max   0.965
_shelx_res_file
;

    test_a.res created by SHELXL-2014/7


TITL test_a.res in P-1
REM Old TITL test in P-1

REM SHELXT solution in P-1
REM R1 0.263,  Rweak 0.014,  Alpha 0.040,  Orientation as input
REM Formula found by SHELXT:  C9 O7

CELL  0.71073   7.6451   7.8238   8.9723  100.557   96.753  114.760
ZERR    2.000   0.0014   0.0017   0.0015    0.019    0.019    0.014
LATT  1
SFAC C H N O
UNIT 8 14 6 18
TEMP 173.150
SIZE 0.21 0.29 0.32
L.S. 20
BOND $H
LIST 6
FMAP 2
PLAN 1
ACTA
HTAB
CONF

OMIT -5 0 3
OMIT 6 -7 2
OMIT -8 1 2

WGHT    0.127200
EXTI    0.085825
FVAR       1.14983
O7    4   -0.056977    0.375173    0.158962    11.00000    0.03140    0.02131 =
         0.02115    0.00245   -0.00216   -0.00087
O9    4   -0.153351    0.194764    0.327421    11.00000    0.03824    0.03904 =
         0.02901    0.01343    0.00659    0.00492
O1    4    0.490431    0.705564    0.319045    11.00000    0.02857    0.03685 =
         0.03046    0.00020    0.00095    0.01303
O4    4    0.398206    1.055144    0.316788    11.00000    0.03190    0.02064 =
         0.03452    0.00247    0.00129    0.00588
O8    4   -0.277612    0.072742    0.079337    11.00000    0.04298    0.02314 =
         0.03328   -0.00021   -0.00498   -0.00178
O2    4    0.699427    0.686416    0.172153    11.00000    0.04345    0.04291 =
         0.05412    0.00863    0.02040    0.01776
N2    3    0.323797    1.153808    0.233771    11.00000    0.05463    0.02524 =
         0.03946    0.00268    0.00581    0.01958
N3    3   -0.170848    0.201443    0.194040    11.00000    0.03133    0.02168 =
         0.03008    0.00652    0.00029    0.00420
N1    3    0.668512    0.706851    0.300611    11.00000    0.02760    0.02705 =
         0.04795   -0.00123    0.00347    0.00944
O6    4    0.147780    1.094484    0.199503    11.00000    0.06373    0.06623 =
         0.05626    0.01527    0.00796    0.04361
O3    4    0.772526    0.730124    0.422577    11.00000    0.04177    0.05787 =
         0.05226   -0.00918   -0.01099    0.02553
O5    4    0.451907    1.291195    0.206453    11.00000    0.09067    0.02732 =
         0.06642    0.01441    0.01664    0.01639
C1    1    0.187045    0.701806    0.230409    11.00000    0.02629    0.02128 =
         0.02216    0.00221   -0.00045    0.00513
AFIX  13
H1A   2    0.101230    0.702905    0.140778    11.00000   -1.20000
AFIX   0
C3    1    0.252382    0.891338    0.356246    11.00000    0.02743    0.02553 =
         0.02581    0.00049    0.00207    0.00761
AFIX  23
H3A   2    0.138640    0.913658    0.368352    11.00000   -1.20000
H3B   2    0.306832    0.878804    0.454584    11.00000   -1.20000
AFIX   0
C4    1    0.064480    0.533724    0.295671    11.00000    0.02917    0.02216 =
         0.01875   -0.00177   -0.00214    0.00480
AFIX  23
H4A   2    0.148827    0.498040    0.359155    11.00000   -1.20000
H4B   2   -0.016923    0.568380    0.357972    11.00000   -1.20000
AFIX   0
C2    1    0.358920    0.680293    0.176159    11.00000    0.03432    0.02051 =
         0.02535   -0.00080   -0.00127    0.00644
AFIX  23
H2A   2    0.314946    0.552647    0.106603    11.00000   -1.20000
H2B   2    0.424275    0.779031    0.123062    11.00000   -1.20000

AFIX   0
HKLF 4

REM  test_a.res in P-1
REM R1 =  0.0738 for    1131 Fo > 4sig(Fo)  and  0.0935 for all    1535 data
REM    146 parameters refined using      0 restraints

END

WGHT      0.1190      0.0000

REM Instructions for potential hydrogen bonds
EQIV $1 -x, -y+1, -z
HTAB C1 O7_$1
EQIV $2 -x, -y+1, -z+1
HTAB C3 O9_$2
EQIV $3 x-1, y, z
HTAB C4 O3_$3
EQIV $4 x+1, y+1, z
HTAB C2 O8_$4

REM Highest difference peak  0.449,  deepest hole -0.388,  1-sigma level  0.110
Q1    1  -0.2353 -0.0568  0.1572  11.00000  0.05    0.45
;
_shelx_res_checksum              51535
_shelx_hkl_file
;
   1   0   0   13.18    1.63
  -1   0   0  133.65    7.16
  -1   0   0  164.46    7.94
   2   0   0 1405.82   64.51
   2   0   0 1391.49   63.35
  -2   0   0 1721.12   79.22
  -2   0   0 1486.70   66.91
   4   0   0    1.70    2.43
   4   0   0   17.73    5.11
  -4   0   0    1.30    2.34
  -4   0   0    3.55    2.01
   5   0   0   34.24    6.96
   5   0   0   50.78    6.42
  -5   0   0   38.02   23.49
  -5   0   0   39.56    5.18
   6   0   0   50.34    8.88
   6   0   0   59.53    8.77
  -6   0   0   56.27   10.71
  -6   0   0   53.84    7.80
  -7   0   0    9.41    3.58
  -7   0   0    7.59    1.78
   8   0   0    6.15    6.32
   8   0   0   -0.81    1.29
  -8   0   0    7.37    7.24
  -8   0   0    9.17    2.45
  -7   0  -1   53.14   12.38
  -7   0  -1   53.39   10.24
   7   0   1   38.33    9.25
   7   0   1   47.17    9.26
  -6   0  -1    3.75    7.36
  -6   0  -1    2.16    1.57
   6   0   1    1.94    2.45
   6   0   1    2.43    2.19
  -5   0  -1   54.77   12.01
  -5   0  -1   67.29    8.26
   5   0   1   69.89   10.69
   5   0   1   74.60    9.18
  -4   0  -1   56.73    8.92
   4   0   1  122.82   14.56
   4   0   1  145.29   13.98
   3   0   1  177.41   15.46
   3   0   1  245.06   13.86
  -2   0  -1  448.74   23.86
  -2   0  -1  400.37   19.97
   2   0   1  485.75   26.26
   2   0   1  387.42   19.22
   0   0  -1   -0.12    0.50
   0   0  -1    1.66    1.68
   0   0   1    1.61    1.72
   0   0   1    1.38    1.43
   1   0  -1   93.44    4.79
  -1   0   1  166.87    8.00
   3   0  -1 2159.20   97.07
  -3   0   1 1615.87   73.48
  -3   0   1 1853.16   82.38
   4   0  -1  400.47   34.72
  -4   0   1  390.01   34.15
  -4   0   1  383.75   32.14
   5   0  -1   12.73    5.26
  -5   0   1   17.25    6.68
  -5   0   1   26.87    8.63
   6   0  -1   19.83    6.83
   6   0  -1   32.47   10.23
  -6   0   1   26.89    9.17
  -6   0   1   21.90    6.88
   7   0  -1    1.15    1.65
   7   0  -1    2.10    2.19
  -7   0   1    2.52    1.87
  -7   0   1    3.43    1.40
   8   0  -1   48.21   10.57
  -8   0   1   57.48   11.27
  -8   0   1   61.44   11.52
  -7   0  -2    2.86    6.61
  -7   0  -2    1.83    1.55
   7   0   2    1.87    3.20
   7   0   2    0.87    1.63
  -6   0  -2  128.24   22.33
  -6   0  -2  135.01   14.88
   6   0   2  134.69   17.85
   6   0   2  150.91   16.45
  -5   0  -2  238.76   27.19
  -5   0  -2  282.14   25.25
   5   0   2  313.49   31.35
   5   0   2  343.08   30.10
   4   0   2  814.58   43.58
   4   0   2  924.11   41.27
  -3   0  -2   66.78    9.39
  -3   0  -2   67.49    7.71
   3   0   2   68.96   10.25
   3   0   2   70.04    8.08
  -2   0  -2  194.49   13.97
  -2   0  -2  233.51   14.07
   2   0   2  171.62   14.28
   2   0   2  242.22   14.36
  -1   0  -2  205.98   11.40
   1   0   2  212.28   11.58
   0   0   2 9999.00   99.98
   1   0  -2    4.71    5.57
  -1   0   2    9.68    2.59
  -1   0   2   12.62    4.30
   2   0  -2    2.32    2.38
   2   0  -2    2.49    2.63
  -2   0   2    3.17    3.13
  -2   0   2    4.77    4.80
   4   0  -2    0.52    1.21
   4   0  -2    1.23    1.20
  -4   0   2    0.32    0.83
  -4   0   2    0.96    0.91
   5   0  -2  204.58   11.94
   5   0  -2  200.97   10.34
  -5   0   2  311.86   15.44
  -5   0   2  231.51   10.66
   6   0  -2   95.78   13.38
   6   0  -2  129.23   17.03
  -6   0   2  195.09   25.27
  -6   0   2  121.11   15.40
   7   0  -2   15.46    3.69
   7   0  -2   20.80    4.23
  -7   0   2   23.99    4.79
  -7   0   2   19.47    3.12
   8   0  -2    2.09    2.30
   8   0  -2    0.70    1.83
  -8   0   2    2.01    1.89
  -8   0   2    2.24    1.71
  -7   0  -3    0.44    3.97
  -7   0  -3    0.94    1.63
   7   0   3    2.04    4.31
   7   0   3    1.30    2.79
  -6   0  -3    0.65    4.94
  -6   0  -3    3.84    2.42
   6   0   3    0.72    2.62
   6   0   3    1.11    2.53
  -5   0  -3   20.82   11.49
  -5   0  -3   33.78   11.20
   5   0   3   34.11   12.77
   5   0   3   37.54   12.49
  -4   0  -3    2.75    6.44
  -4   0  -3    7.71    7.20
   4   0   3   13.19    5.43
   4   0   3    8.07    2.86
  -3   0  -3   96.63   13.09
  -3   0  -3   99.40   10.83
   3   0   3  103.68   14.54
   3   0   3  102.19   11.08
  -2   0  -3   81.00    8.30
  -2   0  -3   72.53    6.37
   2   0   3   79.03   10.00
   2   0   3   79.87    6.76
  -1   0  -3  338.78   19.89
  -1   0  -3  336.68   18.19
   1   0   3  368.00   23.82
   1   0   3  334.03   18.19
   0   0  -3   61.07    6.10
   0   0  -3   60.11    4.89
   0   0   3   66.76    7.19
   0   0   3   63.32    5.08
   1   0  -3 2393.63   21.12
  -1   0   3 2331.43   19.16
  -2   0   3  153.35   10.02
  -2   0   3  117.57    6.61
   3   0  -3   53.15    3.25
   3   0  -3   46.88    2.99
   5   0  -3    0.00    0.22
   6   0  -3   27.88    8.62
  -6   0  -4    0.97    7.02
  -6   0  -4    1.08    1.71
   6   0   4    0.00    2.92
   6   0   4    0.49    2.04
  -5   0  -4   83.63   15.79
  -5   0  -4  151.13   18.75
   5   0   4  162.25   24.10
   5   0   4  174.71   21.28
  -4   0  -4   14.60    8.74
  -4   0  -4   58.81    8.42
   4   0   4   39.47   15.71
   4   0   4   41.21   14.73
  -3   0  -4   27.12   10.45
  -3   0  -4   40.90   13.50
   3   0   4   37.63   14.13
   3   0   4   46.04   15.09
  -2   0  -4    8.17    4.63
  -2   0  -4    9.25    3.59
   2   0   4    7.85    5.05
   2   0   4    9.43    4.15
  -1   0  -4    4.85    5.35
   1   0   4    3.16    4.88
   1   0   4    9.01    9.16
   0   0  -4  138.74   10.93
   0   0  -4  175.26   11.49
   0   0   4  132.40   12.21
   0   0   4  187.24   13.94
   1   0  -4  127.61    9.38
   1   0  -4  135.79    8.81
  -1   0   4   85.26    8.92
  -1   0   4  127.34    8.44
  -2   0   4   56.66    6.02
  -2   0   4   65.87    4.80
   3   0  -4    3.24    1.51
  -3   0   4    0.09    0.36
  -6   0  -5    2.80    5.60
  -6   0  -5    4.10    2.71
   6   0   5    2.76    7.33
   6   0   5    3.02    3.69
  -5   0  -5   47.15   13.03
  -5   0  -5  118.90   21.67
   5   0   5   91.90   20.76
   5   0   5  117.31   21.37
  -4   0  -5    9.84    7.11
  -4   0  -5   23.45    4.99
   4   0   5   22.19    8.06
   4   0   5   24.30    5.55
  -3   0  -5  171.01   19.15
  -3   0  -5  196.41   19.35
   3   0   5  214.24   25.36
   3   0   5  213.80   20.69
  -2   0  -5  507.40   28.21
  -2   0  -5  486.39   25.03
   2   0   5  636.27   39.21
   2   0   5  552.06   27.51
  -1   0  -5   37.50    6.92
  -1   0  -5   35.54    5.46
   1   0   5   47.60    9.55
   1   0   5   39.46    5.99
   0   0  -5   26.22    7.91
   0   0  -5   25.57    7.13
   0   0   5   22.83    8.15
   0   0   5   26.75    7.44
   1   0  -5  183.05   18.12
   1   0  -5  203.67   18.93
  -1   0   5  191.45   20.27
  -1   0   5  201.71   18.44
   2   0  -5    4.54    4.91
   2   0  -5   -0.08    0.85
  -2   0   5    0.06    1.53
  -2   0   5    0.50    1.46
   3   0  -5    2.78    1.85
  -3   0   5    0.06    0.92
  -3   0   5    0.65    1.27
   4   0  -5   11.84    3.82
  -4   0   5   56.92    3.40
  -4   0   5   52.83    2.71
  -5   0  -6    3.01    7.75
  -5   0  -6    1.44    2.09
   5   0   6    0.29    4.18
   5   0   6   -0.69    2.45
  -4   0  -6   14.18    7.00
  -4   0  -6   42.85    7.74
   4   0   6   37.77   11.05
   4   0   6   43.29    8.57
  -3   0  -6    2.98    4.49
  -3   0  -6    5.12    3.35
   3   0   6    6.03    7.37
   3   0   6    6.16    4.67
  -2   0  -6  168.03   19.00
  -2   0  -6  179.51   17.90
   2   0   6  169.47   21.82
   2   0   6  191.40   18.93
  -1   0  -6   81.22   11.76
  -1   0  -6   84.18   10.61
   1   0   6   81.70   14.51
   1   0   6   90.48   11.15
   0   0  -6  510.11   27.80
   0   0  -6  544.10   27.23
   0   0   6  452.14   30.17
   0   0   6  566.24   27.59
   1   0  -6  101.41    9.63
   1   0  -6  106.78    8.83
  -1   0   6   89.73   11.51
  -1   0   6  109.87    8.79
   2   0  -6  159.99   11.58
   2   0  -6  148.15    9.65
  -2   0   6  144.51   12.48
  -2   0   6  160.58    9.91
   3   0  -6   47.84    6.87
  -3   0   6   24.23    4.70
  -3   0   6   44.02    5.37
   4   0  -6   24.23    8.28
  -4   0   6   69.45    7.58
  -4   0   6   90.77    7.88
  -4   0  -7   48.55   13.80
  -4   0  -7    1.18    2.06
   4   0   7    0.74    4.77
   4   0   7    1.22    4.85
  -3   0  -7    2.63    3.96
  -3   0  -7    8.06    3.19
   3   0   7    8.27    7.32
   3   0   7    7.75    4.02
  -2   0  -7  266.62   31.95
  -2   0  -7  321.26   35.92
   2   0   7  252.92   34.18
   2   0   7  333.19   36.99
  -1   0  -7   64.61   11.88
  -1   0  -7   70.21   11.22
   1   0   7   55.40   13.31
   1   0   7   74.41   12.05
   0   0  -7   28.79   11.30
   0   0  -7   30.82   11.32
   0   0   7   24.33   11.98
   0   0   7   29.65   10.94
   1   0  -7   11.56    5.84
   1   0  -7   14.12    5.80
  -1   0   7    9.68    6.95
  -1   0   7   16.54    6.75
   2   0  -7    0.15    1.87
   2   0  -7    0.80    1.58
  -2   0   7    0.16    1.47
  -2   0   7    0.40    1.37
   3   0  -7   -3.63    3.86
  -3   0   7  152.16   15.72
  -3   0   7  242.13   20.70
   4   0  -7    8.20    3.91
  -4   0   7   24.06    3.79
  -4   0   7    5.71    2.52
  -3   0  -8    0.42    4.67
  -3   0  -8    0.13    1.16
   3   0   8   -0.12    5.02
   3   0   8    1.46    4.78
  -2   0  -8    0.91    3.86
  -2   0  -8    3.14    2.52
   2   0   8    3.47    6.98
   2   0   8    3.90    4.44
  -1   0  -8   80.41   13.75
  -1   0  -8   87.51   11.94
   1   0   8  157.28   24.51
   1   0   8   92.86   12.62
   0   0  -8  502.82   55.57
   0   0  -8  496.59   53.64
   0   0   8  461.15   55.70
   0   0   8  537.81   57.19
   1   0  -8    7.55    5.42
   1   0  -8    7.09    3.77
  -1   0   8    7.39    6.04
  -1   0   8    6.51    3.82
   2   0  -8    2.14    2.76
   2   0  -8    1.35    1.21
  -2   0   8    2.04    3.10
  -2   0   8    0.95    1.37
   3   0  -8   21.56   10.53
   3   0  -8   16.62    6.94
  -3   0   8   14.06    6.74
  -3   0   8   23.38    3.36
  -4   0   8    4.26    3.03
  -4   0   8    0.73    0.82
   5   0  -8    1.72    1.76
  -5   0   8    2.29    0.94
  -2   0  -9   10.14    4.19
   2   0   9   11.20    9.54
   2   0   9   12.02    5.49
  -1   0  -9   55.39   12.11
  -1   0  -9  121.85   12.96
   1   0   9  116.92   19.33
   1   0   9  139.42   13.81
   0   0  -9    6.60    4.99
   0   0  -9   13.17    4.21
   0   0   9   13.15    7.28
   0   0   9   13.76    5.04
   1   0  -9   13.69    5.05
   1   0  -9   16.74    3.98
  -1   0   9   16.98    6.86
  -1   0   9   18.30    4.75
   2   0  -9    1.56    2.36
   2   0  -9    3.53    1.86
  -2   0   9    1.83    2.52
  -2   0   9    3.07    3.06
   3   0  -9  215.47   36.50
   3   0  -9  366.14   59.05
  -3   0   9  348.58   58.08
  -3   0   9  500.73   80.42
   4   0  -9   -0.22    1.48
  -4   0   9    0.21    1.34
  -4   0   9    0.36    0.95
   5   0  -9    0.23    1.01
  -5   0   9    0.96    1.28
  -5   0   9    0.07    0.32
   0   0 -10   44.87   12.92
   0   0 -10    9.61    3.60
   0   0  10   11.15    5.96
   0   0  10    5.53    6.51
   1   0 -10    0.02    3.37
   1   0 -10    0.92    1.63
  -1   0  10    1.93    3.93
  -1   0  10   -0.17    1.37
   2   0 -10    0.17    3.03
   2   0 -10    0.04    0.61
  -2   0  10    0.43    1.66
  -2   0  10   -0.25    1.02
   3   0 -10    4.45    5.14
   3   0 -10    6.48    2.16
  -3   0  10    6.86    3.50
  -3   0  10   20.84    5.05
   4   0 -10    1.86    3.64
  -4   0  10    2.87    3.10
  -4   0  10   16.37    3.56
  -3   1  10   19.54    4.89
  -3   1  10   12.78    2.64
   3  -1 -10   14.82    5.55
   3  -1 -10   19.20    3.07
  -2   1  10    3.26    4.29
  -2   1  10    3.46    3.84
   2  -1 -10    3.00    6.31
   2  -1 -10    3.46    3.70
  -1   1  10   24.62    9.88
  -1   1  10   30.45    5.77
   1  -1 -10   17.22    7.92
   1  -1 -10   27.24    5.33
  -5   1   9  107.92    8.34
   5  -1  -9  113.46    8.14
  -4   1   9   10.96    4.68
  -4   1   9   38.58    4.25
   4  -1  -9   11.56    4.32
  -3   1   9    0.12    1.19
  -3   1   9    7.36    3.80
   3  -1  -9    0.17    2.49
   3  -1  -9    0.03    0.49
  -2   1   9   13.77    6.83
  -2   1   9   13.80    3.30
   2  -1  -9    7.88    6.31
   2  -1  -9   14.18    3.23
  -1   1   9   43.46   12.72
  -1   1   9   58.21   12.08
   1  -1  -9   31.45   12.11
   1  -1  -9   54.90   11.51
   0   1   9   31.40   10.43
   0   1   9   44.39    7.50
   0  -1  -9   19.76    9.31
   0  -1  -9   41.35    6.90
   1   1   9    3.22    5.89
   1   1   9    3.25    4.08
  -1  -1  -9    3.53    7.63
  -1  -1  -9    2.53    2.51
  -5   1   8   76.02   13.19
   5  -1  -8  114.93   19.42
  -4   1   8    1.15    1.74
  -4   1   8    0.38    0.94
   4  -1  -8   -0.26    1.47
   4  -1  -8    0.83    0.83
  -3   1   8   60.51    9.92
  -3   1   8   57.07    7.35
   3  -1  -8   38.06    7.84
   3  -1  -8   53.70    7.12
  -2   1   8   -0.40    2.43
  -2   1   8    0.04    1.37
   2  -1  -8   -0.79    3.01
   2  -1  -8    0.62    1.28
  -1   1   8   10.55    7.59
  -1   1   8   11.64    6.20
   1  -1  -8    7.04    7.78
   1  -1  -8   10.74    5.11
   0   1   8   24.32    8.85
   0   1   8   26.88    6.48
   0  -1  -8   12.35    9.38
   0  -1  -8   25.99    5.42
   1   1   8   10.00    6.30
   1   1   8   10.71    4.60
  -1  -1  -8    4.42    6.02
  -1  -1  -8   10.45    3.49
   2   1   8   24.03    8.80
   2   1   8   30.59    7.58
  -2  -1  -8   14.09    9.65
  -2  -1  -8   24.66    5.37
   3   1   8    6.51    8.51
   3   1   8    7.27    8.24
  -3  -1  -8    1.31    5.58
  -3  -1  -8    6.73    6.94
  -5   1   7   23.08    2.76
  -5   1   7   30.92    3.29
   5  -1  -7   42.01    4.36
  -4   1   7    0.04    0.76
  -4   1   7    0.22    0.85
   4  -1  -7    0.24    1.30
   4  -1  -7    0.83    0.84
  -3   1   7    0.19    1.84
  -3   1   7   -0.18    0.75
   3  -1  -7    8.89    9.66
   3  -1  -7   -0.03    0.69
  -2   1   7   15.03    7.71
  -2   1   7   14.60    5.88
   2  -1  -7    7.55    5.72
   2  -1  -7   16.30    6.13
  -1   1   7   44.50    8.84
  -1   1   7   53.73    7.70
   1  -1  -7   16.82    9.04
   1  -1  -7   45.98    6.78
   0   1   7  216.55   32.48
   0   1   7  242.61   32.19
   0  -1  -7  353.25   47.09
   0  -1  -7  185.69   24.98
   1   1   7  775.97   64.75
   1   1   7  832.90   24.06
  -1  -1  -7  281.92   27.82
   2   1   7   25.74    8.51
   2   1   7   27.76    6.42
  -2  -1  -7    9.44    8.23
  -2  -1  -7   25.70    5.50
   3   1   7  146.09   30.65
   3   1   7  153.04   28.88
  -3  -1  -7   85.31   21.45
  -3  -1  -7  138.30   25.92
   4   1   7   16.64    8.20
   4   1   7   18.33    6.14
  -4  -1  -7   14.38   11.60
  -4  -1  -7   17.96    4.78
  -4   1   6    4.46    2.37
  -4   1   6    2.24    2.57
   4  -1  -6    3.35    2.61
   4  -1  -6    2.94    2.67
  -3   1   6  108.77   13.40
  -3   1   6  171.00   17.00
   3  -1  -6   -1.64    5.90
  -2   1   6   20.04    7.94
  -2   1   6   30.84   10.32
   2  -1  -6    8.35    5.15
   2  -1  -6   29.44    9.69
  -1   1   6    0.49    2.25
  -1   1   6    0.59    1.80
   1  -1  -6    0.08    0.98
   0   1   6  235.14   27.75
   0   1   6  294.34   29.97
   0  -1  -6   86.31   14.67
   1   1   6   84.18   13.68
   1   1   6   96.74   11.41
  -1  -1  -6   30.91   15.36
  -1  -1  -6   79.40    9.40
   2   1   6    6.46    5.58
   2   1   6    8.08    4.58
  -2  -1  -6    1.63    4.16
  -2  -1  -6   14.79    5.56
   3   1   6    1.46    8.58
   3   1   6    2.13    3.92
  -3  -1  -6    0.76    5.16
  -3  -1  -6    2.76    2.50
   4   1   6   42.17   12.55
   4   1   6   42.05   10.39
  -4  -1  -6   30.69   12.89
  -4  -1  -6   41.65    9.79
  -4   1   5  104.24    5.98
   4  -1  -5  187.73    9.46
  -3   1   5  402.84   20.67
   3  -1  -5  388.47   17.49
  -2   1   5   52.69    8.04
  -2   1   5   55.65    6.53
   2  -1  -5   19.41    6.60
   2  -1  -5   49.58    5.91
  -1   1   5  877.59   76.42
  -1   1   5  907.25   18.77
   1  -1  -5  363.61   33.61
   0   1   5   16.75    6.68
   0   1   5   18.47    6.01
   0  -1  -5    7.92    5.21
   0  -1  -5   18.91    5.61
   1   1   5  912.82   49.84
   1   1   5  769.98   35.92
   2   1   5    3.12    4.34
   2   1   5    6.13    6.24
  -2  -1  -5    0.44    4.19
  -2  -1  -5    5.72    5.46
   3   1   5   85.30   16.34
   3   1   5   90.44   14.19
  -3  -1  -5   53.09   13.67
  -3  -1  -5   78.89   12.27
   4   1   5   -0.02    2.61
   4   1   5   -0.13    2.27
  -4  -1  -5   -1.19    5.72
  -4  -1  -5    0.20    1.10
   5   1   5   35.92   10.00
   5   1   5   14.48    5.76
  -5  -1  -5   14.59   12.00
  -5  -1  -5   11.73    3.91
  -3   1   4   23.39    6.42
  -3   1   4   43.16    4.51
   3  -1  -4   27.54    7.50
   3  -1  -4   44.48    4.62
  -2   1   4   65.79    7.20
  -2   1   4   71.16    5.40
   2  -1  -4   48.33   12.61
   2  -1  -4   59.10    4.98
  -1   1   4   72.47    8.58
  -1   1   4   66.35    6.14
   1  -1  -4   26.90    7.33
   1  -1  -4   53.84    4.90
   0   1   4   30.01    6.56
   0   1   4   29.52    4.38
   0  -1  -4   22.95    3.47
   1   1   4    2.26    4.21
   1   1   4    1.43    2.30
  -1  -1  -4    0.20    4.49
  -1  -1  -4    1.51    1.74
   2   1   4 2039.08   92.32
   2   1   4 1840.01   77.49
   3   1   4   93.01   14.82
   3   1   4  108.64   13.56
  -3  -1  -4   60.27   12.60
  -3  -1  -4   92.64   11.63
   4   1   4    6.55    5.49
   4   1   4    5.46    3.89
  -4  -1  -4   10.22   11.34
  -4  -1  -4    6.46    3.61
   5   1   4    6.13    4.79
   5   1   4    6.18    4.43
  -5  -1  -4    3.22    9.31
  -5  -1  -4    5.53    2.76
   6   1   4   22.42    7.73
   6   1   4   25.79    5.98
  -6  -1  -4   23.95   10.36
  -6  -1  -4   26.32    5.48
  -3   1   3  378.89   17.67
  -3   1   3  353.76   16.04
   3  -1  -3  434.96   19.53
  -2   1   3    8.05    8.40
  -2   1   3    1.36    2.26
   2  -1  -3    6.77    6.80
  -1   1   3 1194.63   56.94
  -1   1   3 1348.38   61.47
   0   1   3 1030.24   50.90
   0   1   3  975.56   45.88
   1   1   3   46.85    7.62
   1   1   3   41.39    5.32
  -1  -1  -3   27.90    9.60
  -1  -1  -3   35.63    4.23
   2   1   3  186.27   20.06
   2   1   3  169.31   16.34
  -2  -1  -3   89.32   12.57
  -2  -1  -3  106.33   11.06
   3   1   3  102.39   12.13
   3   1   3   96.07    8.48
  -3  -1  -3   89.58   16.29
  -3  -1  -3   89.77    7.99
   4   1   3    1.80    3.34
   4   1   3    2.52    3.40
  -4  -1  -3    1.07    5.94
  -4  -1  -3    6.51    3.43
   5   1   3   87.00   15.80
   5   1   3   79.98   11.85
  -5  -1  -3   56.16   14.11
  -5  -1  -3   70.99   10.36
   6   1   3  402.05   33.99
   6   1   3  420.27   17.78
  -6  -1  -3  410.59   37.42
  -6  -1  -3  357.40   25.67
   8  -1  -2    0.04    0.33
  -7   1   2   85.38    9.91
   7  -1  -2   50.00    6.86
   6  -1  -2   57.61    6.63
   6  -1  -2   74.22    6.83
   5  -1  -2   14.84    4.67
  -2   1   2 5362.77   26.42
   2  -1  -2 4284.36   22.89
   1  -1  -2   92.17    9.00
   1  -1  -2  115.61    6.56
   0   1   2  840.57   40.48
   0   1   2  891.14   41.34
   0  -1  -2  637.53   34.19
   0  -1  -2  794.74   37.07
   1   1   2  242.12   15.44
   1   1   2  245.44   13.76
  -1  -1  -2  160.13   13.84
   2   1   2 2359.37   28.51
  -2  -1  -2 2292.46   29.33
   3   1   2   33.22    6.08
   3   1   2   34.86    5.38
  -3  -1  -2   23.13    9.11
  -3  -1  -2   37.46    5.73
   4   1   2    1.25    3.51
   4   1   2    2.06    3.38
  -4  -1  -2   -0.78   16.10
  -4  -1  -2    0.88    1.53
   5   1   2    5.20    4.21
   5   1   2    5.40    3.44
  -5  -1  -2    7.76    9.44
  -5  -1  -2    5.63    3.14
   6   1   2   35.37    9.56
   6   1   2   29.77    6.79
  -6  -1  -2   69.05   18.34
  -6  -1  -2   39.81    8.30
   7   1   2   21.12    6.28
   7   1   2   20.13    4.42
  -7  -1  -2   29.41    8.50
  -7  -1  -2   29.94    5.74
  -8   1   1   32.44    4.50
  -8   1   1   41.69    4.80
   8  -1  -1   44.10    7.29
   8  -1  -1   22.33    3.60
  -7   1   1   89.06   11.36
  -7   1   1  112.14   12.84
   7  -1  -1  112.82   14.86
  -6   1   1   12.72    6.27
  -6   1   1   18.97    6.70
   6  -1  -1   16.20    6.71
  -5   1   1  268.14   15.29
  -5   1   1  392.70   17.93
   5  -1  -1  368.62   19.74
   4  -1  -1  751.21   36.68
   4  -1  -1  681.79   31.23
  -3   1   1  601.98   28.26
   3  -1  -1  493.00   23.81
   3  -1  -1  482.13   22.06
  -2   1   1   92.77    6.34
   2  -1  -1 1109.08   49.39
  -1   1   1  265.37   13.42
  -1   1   1  347.97   16.13
   1  -1  -1   41.31    3.59
   0   1   1    0.16    1.08
   0  -1  -1    0.54    1.62
   0  -1  -1   10.88    1.71
  -1  -1  -1  347.29   20.83
  -1  -1  -1  472.54   22.94
   2   1   1   86.99    8.25
   2   1   1   83.82    6.44
  -2  -1  -1   55.88    8.44
  -2  -1  -1   83.08    6.47
   3   1   1    7.87    4.01
   3   1   1    5.11    2.37
  -3  -1  -1    3.04    5.43
  -3  -1  -1    5.59    2.38
   4   1   1  310.36   20.50
   4   1   1  271.14   15.15
  -4  -1  -1  246.51   21.44
  -4  -1  -1  253.98   14.59
   5   1   1   38.39   13.08
   5   1   1   35.36   11.35
  -5  -1  -1   34.23   13.42
  -5  -1  -1   34.95   11.18
   6   1   1   61.71   10.10
   6   1   1   64.77    8.46
  -6  -1  -1   72.04   12.89
  -6  -1  -1   62.27    8.11
   7   1   1    6.61    3.34
   7   1   1    8.23    3.03
  -7  -1  -1    8.36    4.41
  -7  -1  -1    8.70    2.90
  -8   1   0    1.46    2.13
  -8   1   0    2.22    1.48
   8  -1   0    2.11    2.10
   8  -1   0    1.42    1.59
  -7   1   0   46.97    8.15
  -7   1   0   69.86    8.23
   7  -1   0    2.18    3.61
  -6   1   0   28.03   10.96
  -6   1   0   46.80    5.64
   6  -1   0   36.87   13.58
   6  -1   0   -0.33    2.08
  -5   1   0   77.92    8.20
  -5   1   0   87.28    6.74
   5  -1   0   55.53    7.59
   5  -1   0   31.10   10.51
  -4   1   0    4.22    2.98
  -4   1   0    8.40    3.10
   4  -1   0    1.11    2.67
   4  -1   0   -1.15    1.96
  -3   1   0  485.06   24.87
  -3   1   0  460.31   22.27
   3  -1   0   -1.98    2.21
  -2   1   0 6562.56   38.88
  -1   1   0  231.64   12.13
   1  -1   0  183.52    9.78
   0   1   0  196.66   10.14
   0   1   0  155.84    8.03
   0  -1   0  221.11   11.33
   0  -1   0  269.42   12.96
   1   1   0  149.32   28.83
   1   1   0  233.84   12.26
  -1  -1   0  180.26   25.14
  -1  -1   0  214.31   11.24
   2   1   0  168.75   12.18
   2   1   0  135.31    8.59
  -2  -1   0  101.41    8.70
  -2  -1   0  127.38    8.20
   3   1   0    1.79    3.18
   3   1   0    9.86    2.63
  -3  -1   0   11.00    2.62
   4   1   0  224.47   15.14
   4   1   0  226.45   12.60
  -4  -1   0  211.72   16.72
  -4  -1   0  226.62   12.85
   5   1   0   10.22    5.01
   5   1   0   12.77    5.15
  -5  -1   0   12.54    7.35
  -5  -1   0   11.11    4.40
   6   1   0    7.41    4.29
   6   1   0   10.96    5.38
  -6  -1   0    7.25    4.93
  -6  -1   0    6.45    3.18
   7   1   0  103.92   11.06
   7   1   0  137.09   11.24
  -7  -1   0  122.26   11.96
  -7  -1   0  104.91    8.82
  -8   1  -1    4.59    3.52
  -8   1  -1    9.33    2.89
   8  -1   1    7.48    3.46
   8  -1   1    1.71    1.68
  -7   1  -1  129.79   18.85
  -7   1  -1  191.12   20.39
   7  -1   1  167.19   20.65
   7  -1   1  181.26   19.01
  -6   1  -1   44.70   15.46
  -6   1  -1   72.74   10.54
   6  -1   1   56.82   10.74
   6  -1   1   70.51   10.13
  -5   1  -1   -0.14    2.17
  -5   1  -1    0.75    1.57
   5  -1   1    0.22    2.94
   5  -1   1   -0.03    1.04
  -4   1  -1  341.21   31.13
  -4   1  -1  292.78   25.75
   4  -1   1  178.36   18.42
   4  -1   1  290.92   25.39
  -3   1  -1  469.13   25.65
  -3   1  -1  416.67   21.17
   3  -1   1  301.38   18.27
   3  -1   1  443.36   22.19
   2  -1   1  592.47   32.58
  -1   1  -1    1.80    2.58
  -1   1  -1    2.80    2.92
   1  -1   1    1.88    2.52
   1  -1   1    1.89    2.16
   0   1  -1    8.76    8.61
   0  -1   1    9.51    9.41
   1   1  -1 2217.36   18.95
   1   1  -1 2148.63   95.81
  -3  -1   1  301.39   17.20
  -3  -1   1  350.81   17.91
   4   1  -1   14.78    4.93
   4   1  -1   16.04    5.29
  -4  -1   1   13.39    4.77
  -4  -1   1   12.97    3.78
   5   1  -1   15.68    6.19
   5   1  -1   10.92    5.41
  -5  -1   1   17.99    7.61
  -5  -1   1   17.50    6.29
   6   1  -1   33.11    5.83
   6   1  -1   30.36    6.57
  -6  -1   1   32.60    4.68
   7   1  -1   19.07    4.98
   7   1  -1    2.14    4.99
  -7  -1   1   27.63    6.72
  -7  -1   1   21.14    4.60
  -8   1  -2    1.00    2.73
  -8   1  -2    1.43    1.53
   8  -1   2    1.90    2.61
   8  -1   2    0.11    0.78
  -7   1  -2  132.35   24.80
  -7   1  -2  161.76   27.25
   7  -1   2  156.44   28.52
   7  -1   2  163.80   27.41
  -6   1  -2   10.81    7.28
  -6   1  -2   22.11    4.09
   6  -1   2   17.26    5.68
   6  -1   2   20.05    4.11
  -5   1  -2   75.58   11.45
  -5   1  -2   70.21    9.07
   5  -1   2   44.49   10.00
   5  -1   2   68.97    8.91
  -4   1  -2  111.55   13.36
  -4   1  -2  104.10   11.09
   4  -1   2   69.78   10.73
   4  -1   2  108.69   11.29
  -3   1  -2  372.32   22.21
  -3   1  -2  340.56   18.64
   3  -1   2  359.24   19.22
   0   1  -2 1553.66   72.50
   0  -1   2 1106.85   53.03
   0  -1   2 1317.56   59.29
   2   1  -2    0.21    0.62
  -2  -1   2   22.83    2.74
   3   1  -2  115.73    9.52
  -3  -1   2  454.93   22.21
  -4  -1   2 2571.44   31.64
  -4  -1   2 2502.87   99.79
   5   1  -2  113.29   11.24
  -5  -1   2  130.36   13.38
   6   1  -2   90.21   11.07
   6   1  -2  126.59   15.41
  -6  -1   2  149.94   18.18
  -6  -1   2   95.69   10.68
   7   1  -2   14.52    3.98
  -7  -1   2   29.47    7.38
  -7  -1   2   15.78    3.51
  -7   1  -3    0.59    4.74
  -7   1  -3    0.48    1.22
   7  -1   3    1.10    3.09
   7  -1   3    0.01    1.26
  -6   1  -3    4.66    5.29
  -6   1  -3   14.33    6.66
   6  -1   3   10.55    6.78
   6  -1   3   11.90    5.84
  -5   1  -3   65.31   10.55
  -5   1  -3   84.50   10.46
   5  -1   3   42.75   17.28
  -4   1  -3   72.91    9.51
  -4   1  -3   74.91    7.46
   4  -1   3   53.50    9.91
   4  -1   3   74.81    7.48
  -3   1  -3  484.07   43.44
  -3   1  -3  459.70   39.90
   3  -1   3  325.00   32.14
   3  -1   3  451.40   38.97
  -2   1  -3  254.32   17.76
  -2   1  -3  198.70   12.60
   2  -1   3  133.42   12.43
   2  -1   3  215.10   13.40
   0   1  -3    0.92    2.55
   0   1  -3    0.21    4.80
   0  -1   3   -0.01    2.71
   0  -1   3    0.02    2.83
   3   1  -3  194.07   17.16
  -3  -1   3  197.58   16.85
   4   1  -3   50.78    5.31
   4   1  -3   72.79    6.25
  -4  -1   3  126.73    7.09
   5   1  -3   70.94    7.16
   5   1  -3   73.57    8.27
  -5  -1   3   74.19    6.82
   6   1  -3  123.87   15.06
  -6  -1   3  102.38   11.05
   7   1  -3   -0.11    0.53
   7   1  -3    0.76    2.19
  -7  -1   3    0.22    0.48
  -7   1  -4   10.59    6.63
  -7   1  -4   17.16    5.07
   7  -1   4   14.96    7.26
   7  -1   4   14.34    4.89
  -6   1  -4   24.27    6.74
  -6   1  -4   87.35   12.21
   6  -1   4   65.93   13.92
   6  -1   4   77.37   10.99
  -5   1  -4  129.83   15.88
  -5   1  -4  134.07   14.11
   5  -1   4  134.13   19.73
   5  -1   4  127.32   13.26
  -4   1  -4  145.31   18.41
  -4   1  -4  156.46   17.84
   4  -1   4  109.58   17.69
   4  -1   4  155.07   17.55
  -3   1  -4  237.39   17.56
  -3   1  -4  262.71   16.19
   3  -1   4  199.30   18.12
   3  -1   4  265.97   15.82
  -2   1  -4   57.19    8.92
  -2   1  -4   56.85    7.30
   2  -1   4   37.51    8.39
   2  -1   4   60.42    7.41
  -1   1  -4  618.52  485.99
  -1   1  -4  785.50   38.63
   1  -1   4  602.96   34.80
   1  -1   4  792.61   39.14
   1   1  -4  119.80   10.34
   1   1  -4  146.94    8.92
  -1  -1   4  113.20   10.40
  -1  -1   4  167.57   10.09
   2   1  -4   -8.33    6.55
  -2  -1   4 1119.78   53.02
  -2  -1   4 1219.70   55.58
   3   1  -4  114.57   11.09
  -3  -1   4   91.81    9.24
  -3  -1   4  100.76    9.31
   4   1  -4  811.44   35.75
   4   1  -4  617.18   28.59
  -4  -1   4  738.48   30.67
   5   1  -4    2.58    2.42
   5   1  -4    1.89    2.79
  -5  -1   4    2.09    1.89
   6   1  -4   -0.03    0.67
  -6  -1   4   34.91    3.97
   7   1  -4    0.01    0.22
  -7  -1   4    0.16    0.33
  -6   1  -5    0.86    4.09
  -6   1  -5    0.21    1.19
   6  -1   5   -0.25    4.03
   6  -1   5    0.11    2.08
  -5   1  -5    5.00    5.86
  -5   1  -5    5.72    3.98
   5  -1   5    7.53    7.98
   5  -1   5    5.86    4.92
  -4   1  -5   35.51   13.32
  -4   1  -5   22.53    8.15
   4  -1   5   16.75    8.82
   4  -1   5   25.17    9.42
  -3   1  -5    3.82    5.65
  -3   1  -5    2.74    3.24
   3  -1   5   45.42   11.98
   3  -1   5    2.13    3.30
  -2   1  -5   46.84   16.16
  -2   1  -5   51.05    6.29
   2  -1   5   37.59   13.76
   2  -1   5   49.38    6.51
  -1   1  -5   19.05    6.73
  -1   1  -5   26.56    7.79
   1  -1   5   17.29    6.84
   1  -1   5   21.18    6.24
   0   1  -5    1.53    3.18
   0   1  -5    2.84    2.03
   0  -1   5    2.38    2.87
   0  -1   5    2.94    2.37
   1   1  -5  637.61   55.50
   1   1  -5  598.60   50.53
  -1  -1   5  602.06   53.35
  -1  -1   5  603.81   50.81
   2   1  -5    3.70    5.06
  -2  -1   5    0.43    1.48
  -2  -1   5    4.85    2.86
  -3  -1   5   69.28    6.90
  -3  -1   5   72.64    5.27
   4   1  -5    0.14    0.48
   4   1  -5    2.81    3.27
  -4  -1   5   21.74    3.20
  -4  -1   5   40.07    4.95
   5   1  -5  167.14   20.80
  -5  -1   5  762.41   92.71
  -6   1  -6    2.65    6.48
  -6   1  -6    3.20    4.11
   6  -1   6    3.60    6.51
   6  -1   6    1.58    4.26
  -5   1  -6    0.11    3.61
  -5   1  -6    0.90    2.38
   5  -1   6    1.67    6.48
   5  -1   6   -0.86    2.38
  -4   1  -6   51.12   10.77
  -4   1  -6   53.95    9.31
   4  -1   6   49.93   13.60
   4  -1   6   53.07    9.53
  -3   1  -6  182.98   26.77
  -3   1  -6  191.03   26.38
   3  -1   6  172.83   28.34
   3  -1   6  193.74   26.60
  -2   1  -6  168.96   21.10
  -2   1  -6  173.73   19.50
   2  -1   6  138.83   20.70
   2  -1   6  195.98   21.60
  -1   1  -6  316.15   21.77
  -1   1  -6  353.65   20.51
   1  -1   6  316.27   25.33
   1  -1   6  349.02   19.77
   0   1  -6   42.87   14.88
   0   1  -6   43.06   14.42
   0  -1   6   46.34   16.23
   0  -1   6   47.55   15.65
   1   1  -6    4.57    4.03
   1   1  -6    5.47    2.77
  -1  -1   6    3.82    3.42
  -1  -1   6    4.60    2.67
   2   1  -6  392.93   22.78
   3   1  -6  106.24   14.40
  -3  -1   6   77.35    9.51
  -3  -1   6  110.43   11.55
   4   1  -6   22.26    8.00
   4   1  -6   15.42    5.96
  -4  -1   6   14.84    5.69
  -4  -1   6   13.24    4.66
   5   1  -6   19.46    7.98
   5   1  -6   31.96    3.88
  -5  -1   6    7.91    3.18
  -5   1  -7   35.36   13.16
  -5   1  -7   83.10   10.58
   5  -1   7   68.75   19.28
   5  -1   7   79.29   10.30
  -4   1  -7  116.35   23.19
  -4   1  -7  122.03   22.58
   4  -1   7   98.71   23.81
   4  -1   7  123.61   22.86
  -3   1  -7  628.97   28.52
  -3   1  -7  602.92   64.97
   3  -1   7  553.74   66.21
   3  -1   7  682.50   24.39
  -2   1  -7   41.92   14.92
  -2   1  -7   38.34   12.86
   2  -1   7   31.49   13.73
   2  -1   7   44.79   14.98
  -1   1  -7  199.56   22.39
  -1   1  -7  213.00   21.44
   1  -1   7  189.57   24.73
   1  -1   7  233.79   22.65
   0   1  -7  233.39   26.71
   0   1  -7  234.15   25.00
   0  -1   7  240.87   29.66
   0  -1   7  217.07   22.84
   1   1  -7    8.57    5.51
   1   1  -7    6.10    5.90
  -1  -1   7    8.05    4.33
  -1  -1   7    8.11    3.66
   2   1  -7    0.42    2.33
  -2  -1   7   17.39    7.79
  -2  -1   7    0.04    1.33
   3   1  -7    0.38    4.78
  -3  -1   7   15.19    5.62
  -3  -1   7   22.05    7.21
   4   1  -7   12.56    5.77
  -4  -1   7   10.70    5.09
  -4  -1   7    9.68    4.07
   5   1  -7  371.39    8.72
   5   1  -7  371.25   35.98
  -4   1  -8   41.22   12.12
  -4   1  -8   45.41   10.76
   4  -1   8   44.39   16.19
   4  -1   8   53.34   12.60
  -3   1  -8   21.03    9.84
  -3   1  -8   22.25    6.52
   3  -1   8   19.59    9.69
   3  -1   8   22.07    7.50
  -2   1  -8   65.85   12.61
  -2   1  -8   69.28   10.60
   2  -1   8   65.78   15.20
   2  -1   8   73.92   11.40
  -1   1  -8    6.40    6.73
  -1   1  -8    7.06    4.22
   1  -1   8    6.97    6.06
   1  -1   8    6.59    4.43
   0   1  -8   80.16   12.33
   0   1  -8   79.20    9.96
   0  -1   8   90.85   15.42
   0  -1   8   77.84    9.82
   1   1  -8   30.22    7.67
   1   1  -8   26.10    4.75
  -1  -1   8   30.83    8.24
  -1  -1   8   34.83    6.30
   2   1  -8   35.37    7.79
  -2  -1   8   21.82    5.91
  -2  -1   8   31.91    5.15
   3   1  -8   12.99    8.12
  -3  -1   8    2.74    2.52
  -3  -1   8    2.56    1.94
  -4  -1   8   79.58   10.77
  -4  -1   8   52.59    6.30
   5   1  -8    4.51    2.04
   5   1  -8    3.80    2.07
  -5  -1   8    3.90    1.85
  -5  -1   8    0.06    0.20
  -3   1  -9  166.30   18.44
  -3   1  -9  160.82   14.03
   3  -1   9  181.24   23.54
   3  -1   9  186.54   15.27
  -2   1  -9    0.72    3.99
  -2   1  -9   -0.11    1.22
   2  -1   9    1.52    4.14
   2  -1   9    0.40    2.71
  -1   1  -9   34.22   10.29
  -1   1  -9   35.53    8.51
   1  -1   9   36.21   12.10
   1  -1   9   36.64    9.04
   0   1  -9   50.15   11.09
   0   1  -9   49.65    8.67
   0  -1   9   56.73   13.62
   0  -1   9   47.84    8.51
   1   1  -9   20.86    7.24
   1   1  -9   17.33    3.80
  -1  -1   9   19.43    7.10
  -1  -1   9   18.00    4.38
   2   1  -9  123.18   16.87
  -2  -1   9   61.28   10.90
  -2  -1   9  104.99   12.86
   3   1  -9   22.66    5.62
  -3  -1   9    8.34    3.48
  -3  -1   9   16.45    3.01
   4   1  -9    0.91    1.72
  -4  -1   9    3.73    2.63
  -4  -1   9    0.17    0.56
   5   1  -9    7.95    2.12
   5   1  -9   -0.21    0.86
  -5  -1   9    7.08    2.10
  -5  -1   9    1.38    1.12
  -1   1 -10    1.38    3.92
  -1   1 -10    0.88    2.01
   1  -1  10    0.31    2.50
   1  -1  10   -0.11    2.03
   0   1 -10   -0.14    3.50
   0   1 -10   -0.11    0.93
   0  -1  10    1.01    3.69
   0  -1  10    0.89    2.65
   1   1 -10    0.52    3.04
   1   1 -10    0.60    1.18
  -1  -1  10    1.00    3.30
  -1  -1  10    2.43    2.87
   2   1 -10   42.38   10.91
  -2  -1  10   18.91    6.50
  -2  -1  10   27.75    6.33
   3   1 -10   16.49    5.87
  -3  -1  10    6.80    3.45
  -3  -1  10    4.44    1.89
   4   1 -10   55.00    8.99
  -4  -1  10    6.44    2.33
  -5   2   9   -0.13    0.65
  -5   2   9    0.16    0.54
   5  -2  -9    0.17    0.80
   5  -2  -9    0.02    0.37
  -4   2   9    3.72    2.04
  -4   2   9    1.01    0.94
   4  -2  -9   -4.53    3.48
   4  -2  -9    3.42    1.27
  -3   2   9    1.41    3.19
  -3   2   9    0.79    1.23
   3  -2  -9    0.58    3.00
   3  -2  -9    2.15    1.47
  -2   2   9   77.40   12.39
  -2   2   9  106.77   10.22
   2  -2  -9   75.19   13.22
   2  -2  -9   99.57    9.89
  -1   2   9   32.74   10.04
  -1   2   9   44.10    9.58
   1  -2  -9   28.50   12.51
   1  -2  -9   39.28    8.60
   0   2   9   38.08   12.06
   0   2   9   46.69   10.64
   0  -2  -9   28.91   12.60
   0  -2  -9   38.75    9.08
  -5   2   8   -0.08    0.70
  -5   2   8    0.15    0.47
   5  -2  -8    1.02    1.01
  -4   2   8   11.85    3.64
  -4   2   8   17.16    2.70
   4  -2  -8   23.53    7.00
   4  -2  -8   13.35    2.07
  -3   2   8  115.17   15.17
  -3   2   8  175.59   17.79
   3  -2  -8  131.84   16.92
   3  -2  -8  140.89   14.71
  -2   2   8    0.02    2.12
  -2   2   8    0.42    1.47
   2  -2  -8    0.67    3.89
   2  -2  -8    0.71    1.31
  -1   2   8   63.98   12.22
  -1   2   8   71.22   10.49
   1  -2  -8   42.04   11.50
   1  -2  -8   60.51    8.92
   0   2   8  103.19   21.48
   0   2   8  120.97   22.25
   0  -2  -8   73.79   18.76
   0  -2  -8   89.85   16.71
   1   2   8   22.31    7.32
   1   2   8   24.33    6.81
  -1  -2  -8   16.83   11.00
  -1  -2  -8   21.44    5.01
   2   2   8   12.04    7.21
   2   2   8    1.38    2.82
  -2  -2  -8    2.51    8.72
  -2  -2  -8    1.68    2.65
  -5   2   7   34.44    5.01
  -5   2   7   45.68    5.63
   5  -2  -7   55.45    6.91
   5  -2  -7   40.74    4.59
  -4   2   7    8.19    4.40
  -4   2   7   11.02    4.83
   4  -2  -7   12.76    6.27
   4  -2  -7    8.53    3.61
  -3   2   7    1.76    2.89
  -3   2   7    0.83    1.26
   3  -2  -7    1.71    4.56
   3  -2  -7    1.58    1.26
  -2   2   7  156.31   23.41
  -2   2   7  190.95   25.35
   2  -2  -7  119.67   19.83
   2  -2  -7  153.56   20.65
  -1   2   7  380.07   34.99
  -1   2   7  497.31   39.08
   1  -2  -7  309.48   31.26
   1  -2  -7  372.04   29.81
   0   2   7   41.55    9.76
   0   2   7   46.53    8.57
   0  -2  -7   26.54    9.48
   0  -2  -7   39.73    6.79
   1   2   7   16.72   10.26
   1   2   7   21.68    6.52
  -1  -2  -7   14.19   11.89
  -1  -2  -7   17.57    9.29
   2   2   7    0.08    2.88
   2   2   7    0.47    2.60
  -2  -2  -7   -1.02    5.57
  -2  -2  -7    0.32    1.55
   3   2   7    5.04    4.71
   3   2   7    5.09    4.26
  -3  -2  -7    2.68    6.35
  -3  -2  -7    6.33    3.48
  -5   2   6  117.53    9.49
  -5   2   6  201.09   14.91
  -4   2   6    3.33    1.97
  -4   2   6    3.07    3.03
   4  -2  -6    4.93    2.12
  -3   2   6   26.58    5.71
  -3   2   6   29.58    4.63
   3  -2  -6   26.23    6.85
   3  -2  -6   24.11    3.76
  -2   2   6   72.17   11.21
  -2   2   6   90.64   11.06
   2  -2  -6   56.78   11.99
   2  -2  -6   73.52    8.96
  -1   2   6  107.55   15.03
  -1   2   6  130.68   15.28
   1  -2  -6  100.41   16.99
   1  -2  -6   99.10   11.77
   0   2   6   39.67   14.97
   0   2   6   46.62    8.13
   0  -2  -6   30.58   14.87
   0  -2  -6   33.57   12.00
   1   2   6   17.10    8.15
   1   2   6   22.83    8.52
  -1  -2  -6   14.72   10.38
  -1  -2  -6   22.67    7.97
   2   2   6    2.35    4.76
   2   2   6   -0.03    2.26
  -2  -2  -6    1.45    7.54
  -2  -2  -6    0.07    1.01
   3   2   6    1.50    4.07
   3   2   6    0.83    3.86
  -3  -2  -6   17.32   14.10
  -3  -2  -6    0.67    1.33
   4   2   6    1.66    3.95
   4   2   6    2.44    5.09
  -4  -2  -6    2.48    9.48
  -4  -2  -6    1.83    2.56
   4  -2  -5    6.08    5.69
   4  -2  -5    3.23    2.97
  -3   2   5  121.09   10.07
  -3   2   5  138.13    8.53
  -2   2   5  299.28   19.07
  -2   2   5  323.89   17.08
   2  -2  -5  227.61   17.60
   2  -2  -5  313.92   16.66
  -1   2   5  171.44   14.07
  -1   2   5  203.97   13.62
   1  -2  -5  118.07   14.79
   1  -2  -5  145.27    9.88
   0   2   5  535.62   30.84
   0   2   5  612.35   30.38
   0  -2  -5  424.52   38.37
   0  -2  -5  463.87   23.58
   1   2   5   44.64    7.39
  -1  -2  -5   29.61   11.63
  -1  -2  -5   35.48    5.85
   2   2   5   75.97   14.27
   2   2   5   89.09   14.55
  -2  -2  -5   55.93   16.18
  -2  -2  -5   75.46   11.91
   3   2   5   12.75    8.16
   3   2   5   12.99    7.60
  -3  -2  -5   12.52   11.57
  -3  -2  -5   21.33    5.26
   4   2   5   97.43   21.86
   4   2   5  114.67   22.45
  -4  -2  -5   98.06   25.04
  -4  -2  -5   99.26   19.47
   4  -2  -4   13.46    4.32
  -3   2   4   75.58    8.61
  -3   2   4   62.88    6.67
   3  -2  -4   47.09    7.27
   3  -2  -4   43.99    4.86
  -2   2   4  831.30   70.20
  -2   2   4  921.20   16.70
   2  -2  -4  902.70   26.50
   2  -2  -4  742.80   61.75
  -1   2   4  565.77   49.36
  -1   2   4  664.31   56.11
   1  -2  -4  523.25   48.08
   1  -2  -4  526.87   44.71
   0   2   4  157.94   16.81
   0   2   4  187.51   18.12
   0  -2  -4  121.42   20.02
   0  -2  -4  156.65   15.18
   1   2   4   34.82   12.17
   1   2   4   41.40   13.84
  -1  -2  -4   19.04   19.34
  -1  -2  -4   35.98   11.92
   2   2   4    9.05    4.37
   2   2   4    8.54    3.87
  -2  -2  -4    5.31   10.62
  -2  -2  -4    5.01    4.91
   3   2   4   59.41   12.16
   3   2   4   63.02   10.88
  -3  -2  -4   61.42   16.69
  -3  -2  -4   49.66   65.51
   4   2   4    9.37    6.51
   4   2   4   13.01    7.92
  -4  -2  -4    7.87    8.04
  -4  -2  -4    9.68    5.64
   5   2   4   29.09    9.70
   5   2   4   34.02    8.81
  -5  -2  -4   39.54   17.03
  -5  -2  -4   30.87    7.58
  -4   2   3 1353.19   12.85
  -3   2   3   55.18    4.41
   3  -2  -3   17.23    2.27
   2  -2  -3  808.86   40.89
   2  -2  -3  856.31   39.96
  -1   2   3   84.78    8.72
  -1   2   3  131.79    9.09
   1  -2  -3  183.39   17.31
   1  -2  -3  125.16    8.39
   0   2   3  930.06   46.68
   0   2   3 1171.95   55.24
   0  -2  -3 1010.52   54.67
   0  -2  -3 1063.73   50.46
   1   2   3  162.70   17.13
   1   2   3  185.29   17.82
  -1  -2  -3  141.42   18.78
  -1  -2  -3  174.48   16.72
   2   2   3   42.70   14.51
   2   2   3   45.07   14.73
  -2  -2  -3   39.57   16.16
  -2  -2  -3   43.13   14.03
   3   2   3  121.84   15.50
   3   2   3  129.09   14.37
  -3  -2  -3  107.55   19.58
  -3  -2  -3  112.21   12.36
   4   2   3   22.27    6.67
   4   2   3   19.37    5.10
  -4  -2  -3   19.53   10.63
  -4  -2  -3   18.08    4.18
   5   2   3   22.60    6.81
   5   2   3   23.05    6.61
  -5  -2  -3   26.82   13.56
  -5  -2  -3   24.83    6.44
   6   2   3    2.20    3.50
   6   2   3    1.36    3.35
  -6  -2  -3    1.82    4.33
  -6  -2  -3    1.69    2.14
   7  -2  -2    2.04    1.44
  -6   2   2   13.86    4.85
   6  -2  -2    1.56    1.77
  -5   2   2   44.07   13.59
   5  -2  -2   28.11    8.72
   5  -2  -2   28.04    8.59
  -4   2   2    1.00    0.99
   4  -2  -2   -0.06    0.25
   4  -2  -2    0.98    0.57
  -3   2   2  572.69   28.34
  -3   2   2  623.34   30.93
   3  -2  -2  835.45   38.00
  -2   2   2  592.22   27.91
   2  -2  -2 1713.27   78.01
   2  -2  -2 1755.48   78.85
   0  -2  -2  765.84   41.29
   0  -2  -2  811.68   38.99
  -1  -2  -2  589.98   35.96
  -1  -2  -2  679.63   33.89
   2   2   2  219.75   22.00
   2   2   2  256.57   23.42
  -2  -2  -2  240.04   26.69
  -2  -2  -2  261.34   24.02
   3   2   2    2.26    3.84
  -3  -2  -2   18.82   11.38
  -3  -2  -2   16.06    6.12
   4   2   2    2.08    2.60
   4   2   2    2.77    4.73
  -4  -2  -2    1.99    5.47
  -4  -2  -2    9.10    4.29
   5   2   2    4.32    4.40
   5   2   2    2.09    2.76
  -5  -2  -2    2.52    5.17
  -5  -2  -2    3.23    2.61
   6   2   2  203.29   36.54
   6   2   2  222.47   36.77
  -6  -2  -2  262.45   22.28
  -6  -2  -2  236.28   39.38
  -8   2   1   36.49    7.43
   8  -2  -1   -0.04    0.64
   8  -2  -1    9.02    4.07
  -7   2   1   18.26    8.25
   7  -2  -1    1.68    1.76
   7  -2  -1   10.19    4.35
  -6   2   1   53.61    6.21
   6  -2  -1   34.84   12.45
   6  -2  -1   81.73    7.36
  -5   2   1  145.65    9.24
   5  -2  -1   96.88    7.53
   5  -2  -1  116.97    6.22
  -4   2   1  897.48   42.19
   4  -2  -1 1113.06   51.47
  -3   2   1    1.12    9.15
   3  -2  -1    2.04    3.91
  -2   2   1 1876.09   84.26
  -2   2   1 2055.69   92.49
   2  -2  -1 1534.67   68.98
  -1   2   1 1350.83   61.18
   1  -2  -1 2773.19   23.86
   0   2   1 2455.06   23.88
   1   2   1  168.14   14.27
   1   2   1  270.46   15.01
  -1  -2  -1  257.16   20.78
  -1  -2  -1  313.74   17.62
   2   2   1   46.82    7.51
  -2  -2  -1  139.57   17.68
  -2  -2  -1  152.60   14.80
   3   2   1   73.38    8.47
   3   2   1   79.68    6.90
  -3  -2  -1   83.05   11.94
  -3  -2  -1   83.84    7.37
   4   2   1  178.32   19.21
   4   2   1  176.71   16.95
  -4  -2  -1  184.35   22.40
  -4  -2  -1  185.50   17.91
   5   2   1    7.95    4.56
   5   2   1    9.37    4.82
  -5  -2  -1    9.65    7.31
  -5  -2  -1   10.71    5.19
   6   2   1  205.75   16.64
   6   2   1  176.92   31.53
  -6  -2  -1  182.75   34.46
  -6  -2  -1  202.05   12.36
  -8   2   0    0.24    1.39
   8  -2   0    2.43    3.09
   8  -2   0    6.39    3.04
  -7   2   0   13.69    6.46
  -7   2   0   56.20    7.40
   7  -2   0   48.91    9.04
   7  -2   0   31.67    4.35
  -6   2   0   52.24    6.94
  -6   2   0   48.33    5.71
   6  -2   0    4.18    3.50
  -5   2   0    3.26    2.58
  -5   2   0    2.62    3.53
   5  -2   0    3.72    3.64
   5  -2   0   -2.17    2.44
  -4   2   0   37.73    5.40
   4  -2   0   20.58    8.04
   4  -2   0    3.65    4.77
  -3   2   0 3380.66   38.63
   3  -2   0 3239.37   34.75
   3  -2   0 3077.56   23.43
  -2   2   0  637.08   38.25
   2  -2   0  571.14   31.95
  -1   2   0  162.03   10.16
  -1   2   0  221.05   13.40
   1  -2   0  220.65   13.24
   1   2   0 1106.78   51.24
  -1  -2   0 1017.13   49.22
  -1  -2   0 1121.31   51.85
   2   2   0   59.70    9.16
   2   2   0   62.31    5.67
  -2  -2   0   55.12    7.06
   3   2   0   12.24    5.13
  -3  -2   0   94.29   12.49
  -3  -2   0  105.75   10.92
   4   2   0   44.35    7.68
   4   2   0   53.56    7.77
  -4  -2   0   39.88    8.24
  -4  -2   0   51.13    7.23
   5   2   0    4.21    3.05
   5   2   0    2.41    2.50
  -5  -2   0    2.56    3.61
  -5  -2   0    2.95    2.12
   6   2   0  562.71   92.46
   6   2   0  632.43   18.81
  -6  -2   0  656.51   20.13
  -8   2  -1   12.11    4.13
  -8   2  -1   22.17    3.86
   8  -2   1   23.85    6.14
   8  -2   1    7.94    2.13
  -7   2  -1    4.06    4.43
  -7   2  -1    2.99    2.26
   7  -2   1    4.56    3.88
   7  -2   1    0.87    1.15
  -6   2  -1  414.37   36.42
  -6   2  -1  404.76   34.55
   6  -2   1  370.67   35.24
   6  -2   1  342.36   28.87
  -5   2  -1    0.09    2.08
  -5   2  -1    8.36    3.40
   5  -2   1   -0.10    2.01
   5  -2   1    0.23    0.98
  -4   2  -1  139.58   13.45
   4  -2   1   95.56   11.98
  -3   2  -1   49.96    7.58
  -3   2  -1   60.36    5.20
   3  -2   1   48.51    7.45
   3  -2   1   62.80    5.42
  -2   2  -1 1832.23   86.17
   2  -2   1 1301.56   62.25
   2  -2   1 1324.79   59.74
  -1   2  -1  954.27   47.44
   1  -2   1  884.26   44.23
   0   2  -1 4079.15   36.03
   0   2  -1 3788.99   37.01
   0  -2   1 4390.37   40.94
   1   2  -1  103.98    7.61
   1   2  -1   84.27    7.51
  -1  -2   1  132.56    9.87
  -1  -2   1  144.60    8.79
   2   2  -1  829.75   41.80
   2   2  -1  801.80   38.59
  -2  -2   1 1029.57   49.88
  -2  -2   1 1112.93   51.43
   3   2  -1   44.51    6.99
  -3  -2   1   57.49    7.72
  -3  -2   1   97.97   10.07
   4   2  -1   -0.12    2.49
   4   2  -1   18.13    4.74
  -4  -2   1    1.95    3.48
  -4  -2   1   10.74    3.05
   5   2  -1   62.74   10.32
   5   2  -1   76.61   11.86
  -5  -2   1   52.93    9.53
  -5  -2   1   71.78   10.73
   6   2  -1   85.91   11.87
   6   2  -1   57.27    9.05
  -6  -2   1   92.86   12.69
  -6  -2   1   83.74   10.49
   7   2  -1    0.77    1.44
   7   2  -1    1.42    2.92
  -7  -2   1    1.26    2.38
  -7  -2   1    1.17    1.91
  -8   2  -2    2.37    4.25
  -8   2  -2    1.14    1.69
   8  -2   2    1.41    2.12
  -7   2  -2    4.87    3.30
  -7   2  -2    8.10    2.54
   7  -2   2    7.99    3.99
   7  -2   2    6.80    2.39
  -6   2  -2  384.65   49.86
  -6   2  -2  355.01   45.29
   6  -2   2  344.80   46.57
   6  -2   2  325.38   41.18
  -5   2  -2   68.08    8.09
  -5   2  -2   81.55    7.51
   5  -2   2   70.80    9.79
   5  -2   2   72.23    6.62
  -4   2  -2   17.06    6.38
  -4   2  -2   23.29    6.58
   4  -2   2   17.81    6.62
   4  -2   2   21.97    6.27
  -1   2  -2  123.66   11.40
   1  -2   2  136.67   11.93
   1  -2   2  134.02    7.94
   0   2  -2 1383.32   65.75
   0  -2   2 1371.41   65.31
   1   2  -2 1011.14   48.01
   1   2  -2  713.15   36.37
  -1  -2   2 1033.37   49.85
   2   2  -2 1087.74   51.03
   2   2  -2 1409.97   65.83
  -2  -2   2 1506.69   68.40
   3   2  -2   -0.34    1.81
   3   2  -2    1.13    2.13
  -3  -2   2    0.17    0.95
   4   2  -2   68.91   10.24
   4   2  -2   92.74   11.43
  -4  -2   2  154.25   17.85
  -4  -2   2  168.52   17.45
   5   2  -2   46.33   14.71
   5   2  -2   34.50   12.15
  -5  -2   2   59.42   10.70
  -5  -2   2   55.67    8.47
   6   2  -2  159.20   18.30
   6   2  -2  124.23   17.93
  -6  -2   2  228.42   26.27
  -6  -2   2  188.37   20.13
   7   2  -2   43.11    9.25
   7   2  -2   55.46   12.69
  -7  -2   2   84.87   10.31
  -7  -2   2   56.21   10.71
  -8   2  -3    2.67    4.16
  -8   2  -3    8.82    2.87
   8  -2   3   11.43    4.92
   8  -2   3    7.34    2.73
  -7   2  -3    3.83    4.21
  -7   2  -3    3.28    2.17
   7  -2   3    3.55    3.14
   7  -2   3   -0.08    1.19
  -6   2  -3  419.82   35.19
  -6   2  -3  431.22   34.50
   6  -2   3  403.02   37.02
   6  -2   3  398.51   31.18
  -5   2  -3   55.78    9.76
  -5   2  -3   64.07    9.02
   5  -2   3   55.96   10.59
   5  -2   3   54.29    7.75
  -4   2  -3   74.37   10.33
  -4   2  -3  102.36    8.84
   4  -2   3   82.87   10.55
   4  -2   3   86.98    7.71
  -3   2  -3  403.13   37.62
  -3   2  -3  450.91   39.24
   3  -2   3  373.15   35.34
   3  -2   3  436.23   37.86
  -2   2  -3  471.11   29.47
  -2   2  -3  507.96   26.43
   2  -2   3  700.12   38.88
   2  -2   3  503.50   26.00
  -1   2  -3  838.06   44.84
   1  -2   3  596.02   35.00
   1  -2   3  684.98   33.11
   0   2  -3    2.61    4.65
   0  -2   3    4.31    5.60
   0  -2   3   22.84    3.08
   2   2  -3  278.03   15.97
   2   2  -3  288.49   17.65
  -2  -2   3  369.97   21.33
   3   2  -3   48.47    8.80
  -3  -2   3   69.01    7.07
   4   2  -3    0.88    2.82
   4   2  -3   -3.52    4.32
  -4  -2   3    9.75    2.74
   5   2  -3    5.08    3.10
   5   2  -3   16.62    7.22
  -5  -2   3   28.12    9.01
   6   2  -3   22.94    4.24
   6   2  -3   16.73    5.03
  -6  -2   3   26.82    4.22
   7   2  -3    7.62    2.83
  -7  -2   3   10.74    2.99
  -7   2  -4   10.80    5.15
  -7   2  -4   15.28    4.02
   7  -2   4   14.15    5.74
   7  -2   4   12.60    3.90
  -6   2  -4  217.48   25.39
  -6   2  -4  220.51   24.14
   6  -2   4  205.99   26.93
   6  -2   4  192.20   20.63
  -5   2  -4    2.41    4.64
  -5   2  -4    2.30    2.33
   5  -2   4    1.97    3.13
   5  -2   4    3.49    3.34
  -4   2  -4    1.08    3.38
  -4   2  -4    4.48    4.78
   4  -2   4   -0.02    2.35
   4  -2   4    6.24    6.94
  -3   2  -4  909.80   30.68
  -3   2  -4 1022.85   24.07
   3  -2   4  875.85   77.15
   3  -2   4 1035.52   22.94
  -2   2  -4 1144.27   32.80
  -2   2  -4 1290.51   24.93
   2  -2   4 1050.71   31.46
   2  -2   4 1243.87   23.60
  -1   2  -4  232.00   18.50
  -1   2  -4  286.68   16.84
   1  -2   4  242.37   18.83
   1  -2   4  354.32   19.52
   0   2  -4   38.07    6.97
   1   2  -4  262.23   18.12
  -1  -2   4  181.28   10.42
   2   2  -4  117.92   13.34
  -2  -2   4  275.03   25.84
   3   2  -4   -7.05    6.24
  -3  -2   4  922.64   39.76
   4   2  -4    5.72    5.73
   4   2  -4    6.56    6.83
  -4  -2   4   17.56    3.40
   5   2  -4   31.77    6.00
  -5  -2   4   75.99    7.54
   6   2  -4    6.29    1.78
   6   2  -4    5.20    3.26
  -6  -2   4    8.76    1.91
   7   2  -4    2.53    2.93
   7   2  -4    0.14    0.73
  -7  -2   4    2.31    2.43
  -7   2  -5    4.67    6.71
  -7   2  -5    8.74    3.45
   7  -2   5   11.00    6.04
   7  -2   5    7.22    7.53
  -6   2  -5    9.72    5.65
  -6   2  -5    9.73    3.98
   6  -2   5    8.33    5.10
   6  -2   5    7.52    4.04
  -5   2  -5  386.96   44.68
  -5   2  -5  423.68   47.08
   5  -2   5  409.62   50.20
   5  -2   5  366.03   40.33
  -4   2  -5   99.39   15.43
  -4   2  -5  103.29   12.46
   4  -2   5   93.51   15.38
   4  -2   5   95.69   11.69
  -3   2  -5    7.79    7.17
  -3   2  -5    8.47    3.98
   3  -2   5    6.58    4.51
   3  -2   5    9.44    4.90
  -2   2  -5   84.83   13.37
  -2   2  -5   86.62   10.26
   2  -2   5   76.40   12.31
   2  -2   5   91.66   10.92
  -1   2  -5  933.23   30.50
  -1   2  -5 1079.56   23.83
   1  -2   5  897.12   31.48
   1  -2   5 1010.62   21.49
   0   2  -5  123.45   15.81
   0  -2   5  114.51   14.69
   0  -2   5  163.46   15.65
   1   2  -5   64.29    9.82
  -1  -2   5   79.74   10.43
  -1  -2   5   69.86    7.69
   2   2  -5   15.36    6.60
  -2  -2   5   17.49    7.17
  -2  -2   5   16.74    5.89
   3   2  -5   36.38   11.94
   3   2  -5   -4.40    6.48
  -3  -2   5   35.02   11.85
  -3  -2   5   33.73   10.84
   4   2  -5   12.83    5.24
  -4  -2   5   23.56    8.30
  -4  -2   5   16.83    6.29
   5   2  -5   -0.13    1.31
   5   2  -5    4.56    3.75
  -5  -2   5    9.97    4.53
   6   2  -5    7.16    3.20
   6   2  -5    4.82    3.28
  -6  -2   5   11.45    1.93
   7   2  -5   22.02    3.89
   7   2  -5   16.22    3.04
  -7  -2   5   28.56    3.92
  -7  -2   5   20.72    2.84
  -6   2  -6   22.59    8.18
  -6   2  -6   27.83    7.73
   6  -2   6   24.46    9.62
   6  -2   6   21.90    7.30
  -5   2  -6  285.25   34.21
  -5   2  -6  309.57   34.91
   5  -2   6  293.10   38.66
   5  -2   6  255.97   28.59
  -4   2  -6   11.72    7.76
  -4   2  -6   14.58    4.33
   4  -2   6   15.14    6.72
   4  -2   6   24.27    6.93
  -3   2  -6  151.98   20.28
  -3   2  -6  141.48   15.57
   3  -2   6  147.02   20.07
   3  -2   6  150.92   16.38
  -2   2  -6  236.51   28.65
  -2   2  -6  260.77   27.51
   2  -2   6  235.60   28.98
   2  -2   6  250.15   26.36
  -1   2  -6  263.33   21.11
  -1   2  -6  253.42   16.06
   1  -2   6  255.21   21.71
   1  -2   6  251.94   15.67
   0   2  -6   51.26    9.04
   0   2  -6   57.90    6.34
   0  -2   6   44.41   15.76
   0  -2   6   55.40    6.15
   1   2  -6   43.84   15.51
  -1  -2   6   40.28   13.98
  -1  -2   6   53.58    5.55
   2   2  -6   24.06    7.27
  -2  -2   6   23.73    5.28
  -2  -2   6   28.40    4.73
   3   2  -6   -8.32    8.18
  -3  -2   6  267.66   24.91
  -3  -2   6  231.61   20.39
   4   2  -6  125.58   11.26
  -4  -2   6  105.85    9.80
  -4  -2   6  141.00   12.04
   5   2  -6    5.19    3.42
  -5  -2   6    4.05    2.56
  -5  -2   6    3.09    2.14
   6   2  -6   79.79    6.01
   6   2  -6   74.22    7.03
  -6  -2   6   70.88    5.37
  -6  -2   6   67.50    5.08
  -5   2  -7  218.85   22.88
  -5   2  -7  219.87   20.75
   5  -2   7  223.24   28.46
   5  -2   7  208.49   19.10
  -4   2  -7   19.10    8.77
  -4   2  -7   16.52    5.06
   4  -2   7   17.54    7.66
   4  -2   7   16.95    5.41
  -3   2  -7   68.40   14.09
  -3   2  -7   68.51   10.88
   3  -2   7   68.47   14.70
   3  -2   7   70.02   11.57
  -2   2  -7   29.40   12.27
  -2   2  -7   20.48    7.67
   2  -2   7   22.86   10.08
   2  -2   7   24.62    9.31
  -1   2  -7  123.71   17.38
  -1   2  -7  137.69   14.95
   1  -2   7  136.09   19.01
   1  -2   7  127.54   13.97
   0   2  -7   90.00   14.09
   0   2  -7   96.80   11.07
   0  -2   7   77.90   12.74
   0  -2   7   98.05   11.25
   1   2  -7   42.63   16.28
  -1  -2   7   19.22    8.60
  -1  -2   7   48.04    7.17
   2   2  -7   47.27    9.34
  -2  -2   7   27.28   10.15
  -2  -2   7   46.45    6.27
   3   2  -7  130.70   21.49
  -3  -2   7  124.74   17.95
  -3  -2   7  134.25   17.87
   4   2  -7  136.87   16.07
  -4  -2   7  144.86   17.28
  -4  -2   7  160.89   17.78
   5   2  -7   56.44   10.09
   5   2  -7   74.21   13.67
  -5  -2   7   45.79    8.08
  -5  -2   7   77.86   13.11
  -4   2  -8    2.48    4.75
  -4   2  -8    2.88    2.82
   4  -2   8    2.81    4.87
   4  -2   8   -0.24    2.95
  -3   2  -8   29.94   10.18
  -3   2  -8   24.82    6.82
   3  -2   8   27.10   10.28
   3  -2   8   28.15    8.47
  -2   2  -8   -0.36    3.98
  -2   2  -8    0.29    1.45
   2  -2   8    1.08    3.06
   2  -2   8   -0.53    2.39
  -1   2  -8   96.99   15.76
  -1   2  -8   94.56   11.52
   1  -2   8   96.99   16.69
   1  -2   8   83.68   10.07
   0   2  -8    0.13    3.57
   0   2  -8   -0.03    1.10
   0  -2   8    0.50    2.59
   0  -2   8   -0.08    2.02
   1   2  -8   74.76   12.45
  -1  -2   8   45.20    9.49
  -1  -2   8   76.64    8.92
   2   2  -8   47.46   10.66
  -2  -2   8   34.63    7.17
  -2  -2   8   47.07    7.23
   3   2  -8    3.24   15.59
  -3  -2   8    0.24    1.17
  -3  -2   8    3.29    2.85
   4   2  -8   30.49    7.64
  -4  -2   8   33.02    7.50
  -4  -2   8   33.90    6.52
  -5  -2   8    4.43    1.21
  -5  -2   8    8.01    2.18
  -3   2  -9   24.39   10.03
  -3   2  -9   20.89    6.53
   3  -2   9   23.56   10.41
   3  -2   9   20.41    7.46
  -2   2  -9    5.43    6.57
  -2   2  -9    5.22    3.59
   2  -2   9    6.99    7.06
   2  -2   9    4.78    4.45
  -1   2  -9    5.39    6.96
  -1   2  -9    6.79    3.48
   1  -2   9    4.14    4.95
   1  -2   9    4.18    3.51
   0   2  -9  365.46   42.14
   0   2  -9  285.12   31.03
   0  -2   9  271.25   35.65
   0  -2   9  321.86   34.12
   1   2  -9  126.44   19.19
  -1  -2   9   57.01   11.78
  -1  -2   9  113.53   14.16
   2   2  -9    4.62    6.24
  -2  -2   9    2.35    2.66
  -2  -2   9    3.55    2.53
   3   2  -9  137.07   26.75
  -3  -2   9   67.75   13.76
  -3  -2   9  113.91   20.67
   4   2  -9    0.33    1.67
  -4  -2   9    0.79    1.85
  -4  -2   9    0.03    0.63
  -1   2 -10    7.87    7.74
   1  -2  10    8.09    6.78
   1  -2  10    8.56    5.30
   0   2 -10   21.23    9.48
   0   2 -10   15.99    4.80
   0  -2  10   14.39    8.05
   0  -2  10   17.28    5.67
   1   2 -10   41.43   12.36
   2   2 -10    1.02    3.12
  -2  -2  10    0.31    1.50
  -2  -2  10    0.13    1.13
   3   2 -10    1.19    3.33
  -3  -2  10    1.12    2.07
  -3  -2  10    0.59    1.62
  -4   3   9   41.10    6.29
  -4   3   9   55.18    5.04
   4  -3  -9   74.71    8.67
   4  -3  -9   64.06    5.25
  -3   3   9    5.78    4.39
  -3   3   9    5.28    2.33
   3  -3  -9    4.85    4.68
   3  -3  -9    5.49    2.40
  -2   3   9    2.01    3.49
  -2   3   9    2.29    2.83
   2  -3  -9    2.19    5.86
   2  -3  -9    2.69    3.05
  -1   3   9   11.65    5.66
  -1   3   9   15.22    5.05
   1  -3  -9   12.02   11.15
   1  -3  -9   12.49    4.11
  -6   3   8    0.07    0.36
  -6   3   8    0.01    0.15
  -5   3   8   15.95    3.40
  -5   3   8   20.13    4.32
   5  -3  -8   19.47    2.58
  -4   3   8    3.41    2.71
  -4   3   8    2.15    1.67
   4  -3  -8    4.58    3.67
   4  -3  -8    3.99    2.06
  -3   3   8  211.98   36.85
  -3   3   8  193.24   31.94
   3  -3  -8  196.43   34.63
   3  -3  -8  212.53   35.34
  -2   3   8   32.50    9.22
  -2   3   8   39.57    8.46
   2  -3  -8   34.92   11.36
   2  -3  -8   37.16    8.02
  -1   3   8   22.72    7.74
  -1   3   8   28.80    8.04
   1  -3  -8   20.71    9.40
   1  -3  -8   25.54    6.63
   0   3   8   41.42   11.54
   0   3   8   49.57   10.99
   0  -3  -8   43.14   16.03
   0  -3  -8   46.78   10.21
   1   3   8   67.20   14.26
   1   3   8   93.65   14.59
  -1  -3  -8   66.66   18.18
  -1  -3  -8   74.58   12.01
  -5   3   7    0.33    1.10
   5  -3  -7    0.41    1.16
   5  -3  -7    0.97    0.61
  -4   3   7   25.90    5.05
  -4   3   7   52.12    7.04
   4  -3  -7   56.40   10.72
   4  -3  -7   31.42    4.29
  -3   3   7    0.55    1.61
  -3   3   7    0.65    1.19
   3  -3  -7    1.63    3.91
   3  -3  -7    1.29    1.25
  -2   3   7  420.86   47.77
  -2   3   7  449.23   47.96
   2  -3  -7  413.00   48.42
   2  -3  -7  423.64   45.62
  -1   3   7   27.72    7.21
  -1   3   7   48.83    9.45
   1  -3  -7   24.85    9.30
   1  -3  -7   45.02    7.83
   0   3   7    6.37    4.10
   0   3   7    5.91    3.79
   0  -3  -7    4.87    7.52
   0  -3  -7    5.58    2.66
   1   3   7    8.25    5.88
   1   3   7    8.58    5.49
  -1  -3  -7    9.25   11.10
  -1  -3  -7    7.82    4.49
   2   3   7    2.82    4.87
   2   3   7    1.84    3.72
  -2  -3  -7    2.96    8.94
  -2  -3  -7    1.86    2.38
  -5   3   6   64.37    8.06
  -5   3   6   77.20    9.75
   5  -3  -6  120.19   14.78
   5  -3  -6   55.79    6.27
  -4   3   6   12.12    4.72
  -4   3   6   16.78    6.10
   4  -3  -6   13.74    4.58
  -3   3   6  316.33   41.47
  -3   3   6  352.01   44.34
   3  -3  -6  297.35   39.95
   3  -3  -6  325.06   41.15
  -2   3   6   86.95   14.07
  -2   3   6   92.34   13.60
   2  -3  -6   84.89   16.01
   2  -3  -6   85.52   12.57
  -1   3   6   45.16   15.25
  -1   3   6   65.97   11.81
   1  -3  -6   46.57   62.39
   1  -3  -6   53.62    9.28
   0   3   6  134.42   16.31
   0   3   6  170.23   17.79
   0  -3  -6  131.24   20.76
   0  -3  -6  144.33   14.72
   1   3   6  431.84   46.03
   1   3   6  514.18   21.33
  -1  -3  -6  453.76   32.55
  -1  -3  -6  450.25   44.72
   2   3   6   21.86    7.65
   2   3   6   24.18    8.00
  -2  -3  -6   18.79   11.10
  -2  -3  -6   22.90    6.44
   3   3   6   40.57   11.67
   3   3   6   44.32   11.14
  -3  -3  -6   41.27   16.84
  -3  -3  -6   45.37   10.53
  -5   3   5    7.23    2.76
  -5   3   5   13.33    5.12
   5  -3  -5    3.65    1.36
  -4   3   5   34.36   12.03
  -4   3   5   20.05    7.56
   4  -3  -5   39.27   15.03
   4  -3  -5   24.74    8.59
  -3   3   5    1.45    2.09
  -3   3   5    0.15    1.18
   3  -3  -5    1.29    3.34
   3  -3  -5    0.28    0.81
  -2   3   5  749.19   23.14
  -2   3   5  873.45   19.78
   2  -3  -5  873.61   31.19
   2  -3  -5  784.76   19.68
  -1   3   5   32.36    6.24
  -1   3   5   45.64    8.00
   1  -3  -5   38.33    6.10
   0   3   5   11.78    5.58
   0   3   5   20.00    8.79
   0  -3  -5    9.14    6.61
   0  -3  -5   49.27    7.43
   1   3   5    2.41    3.06
   1   3   5    1.41    3.50
  -1  -3  -5    2.83    6.70
  -1  -3  -5    4.89    2.97
   2   3   5   21.72    6.44
   2   3   5   25.90    6.46
  -2  -3  -5   31.51   15.07
  -2  -3  -5   22.59    5.20
   3   3   5   46.40   12.19
   3   3   5   49.83   11.51
  -3  -3  -5   49.95   17.25
  -3  -3  -5   47.94   10.76
   4   3   5   73.76   12.69
   4   3   5   86.78   10.74
  -4  -3  -5   81.55   16.58
  -4  -3  -5   81.45    9.76
  -5   3   4  193.68   18.72
  -5   3   4  114.84   12.02
   5  -3  -4   56.59    5.86
  -4   3   4    5.42    2.48
  -4   3   4    3.75    2.71
   4  -3  -4    8.31    4.32
   4  -3  -4    0.91    1.67
   3  -3  -4  804.61   38.32
   3  -3  -4  803.75   35.33
  -2   3   4    2.31    3.13
  -2   3   4    3.27    2.02
   2  -3  -4    3.92    4.12
   2  -3  -4    3.82    2.00
  -1   3   4 1017.75   47.83
  -1   3   4  798.23   36.41
   1  -3  -4 1683.65   79.48
   0   3   4   32.73   11.48
   0   3   4   47.87   16.09
   0  -3  -4   50.61   12.33
   0  -3  -4   48.47    6.16
   1   3   4   77.58   11.46
   1   3   4   94.97   12.53
  -1  -3  -4   79.13   15.80
  -1  -3  -4   84.78   10.37
   2   3   4   86.28   14.82
   2   3   4   92.68   14.71
  -2  -3  -4   96.01   19.63
  -2  -3  -4   87.60   13.55
   3   3   4    6.44    5.02
   3   3   4    5.22    4.69
  -3  -3  -4    6.25    9.43
  -3  -3  -4    5.01    3.59
   4   3   4    0.49    1.92
   4   3   4    0.02    2.37
  -4  -3  -4   -0.36    6.02
  -4  -3  -4    0.21    1.05
  -5   3   3   31.92   10.68
   5  -3  -3   17.31    5.61
  -4   3   3   18.62    5.89
  -4   3   3   25.48    7.64
   4  -3  -3   35.61    4.61
  -3   3   3   31.85    5.00
  -3   3   3   35.62    5.05
   3  -3  -3   48.33    7.06
   3  -3  -3   48.58    5.77
  -2   3   3   37.55    7.61
  -2   3   3   71.29    7.95
   2  -3  -3   77.27   10.17
   2  -3  -3   79.84    8.74
  -1   3   3  332.83   30.95
   1  -3  -3  772.34   67.80
   1  -3  -3  837.27   70.41
   0   3   3  118.89   19.32
   0  -3  -3  416.72   40.61
   0  -3  -3  407.27   35.98
   1   3   3   21.36    8.93
   1   3   3   34.94   11.92
  -1  -3  -3   31.26   13.27
  -1  -3  -3   38.99   13.10
   2   3   3  170.45   18.76
  -2  -3  -3  207.74   26.32
  -2  -3  -3  178.14   17.83
   3   3   3  185.15   19.69
   3   3   3  194.86   18.22
  -3  -3  -3  213.99   26.92
  -3  -3  -3  170.94   16.47
   4   3   3  114.62   22.40
   4   3   3  120.16   21.85
  -4  -3  -3  151.58   32.82
  -4  -3  -3  122.66   22.13
   5   3   3    0.28    2.67
   5   3   3    0.00    1.99
  -5  -3  -3    0.94    5.12
  -5  -3  -3    0.56    1.30
  -7   3   2   21.83    8.90
  -7   3   2    3.74    1.69
   7  -3  -2    2.47    1.19
  -6   3   2   36.52   12.27
   6  -3  -2    8.38    3.27
   6  -3  -2   31.43   10.43
   5  -3  -2  181.38    9.50
   5  -3  -2  238.26   10.92
  -4   3   2   42.66    5.29
  -4   3   2   34.53    5.61
   4  -3  -2   43.48    4.88
  -3   3   2   83.20    7.29
  -3   3   2   96.55    8.98
   3  -3  -2  146.11    9.45
  -2   3   2  152.66   12.26
  -2   3   2   88.69    7.17
   2  -3  -2  130.27   10.56
   2  -3  -2  164.78   10.57
  -1   3   2  406.19   25.18
  -1   3   2  583.28   29.35
   1  -3  -2  663.67   35.74
   1  -3  -2  694.14   34.75
   0   3   2  195.90   28.61
   0   3   2  346.31   30.30
   0  -3  -2  335.23   32.31
   0  -3  -2  417.12   36.49
   1   3   2   70.66   11.20
  -1  -3  -2  162.02   19.47
  -1  -3  -2  185.68   18.04
   2   3   2   12.79    6.19
   2   3   2   34.07   11.48
  -2  -3  -2   37.08   15.28
  -2  -3  -2   36.77   12.20
   3   3   2   73.17   10.63
   3   3   2   83.76   10.10
  -3  -3  -2   88.93   15.62
  -3  -3  -2   87.91   10.57
   4   3   2   75.59   12.05
   4   3   2   76.94   10.69
  -4  -3  -2   81.73   16.58
  -4  -3  -2   71.39    9.90
   5   3   2    4.65    3.30
   5   3   2    3.76    3.37
  -5  -3  -2    6.05    6.04
  -5  -3  -2    5.35    2.73
  -9   3   1   12.84    2.82
   9  -3  -1    0.32    0.61
  -8   3   1    5.46    1.82
   8  -3  -1    4.77    2.04
   8  -3  -1    3.02    1.11
  -7   3   1    2.48    1.65
   7  -3  -1    0.25    0.79
  -6   3   1    1.65    2.57
   6  -3  -1    0.16    0.94
  -5   3   1  109.40    8.66
   5  -3  -1  130.18    9.56
  -4   3   1 1321.06   29.13
  -3   3   1   11.81    2.89
  -3   3   1    7.24    8.00
   3  -3  -1   11.01    2.71
  -2   3   1  483.81   25.13
   2  -3  -1  837.04   40.77
  -1   3   1  177.53   12.71
  -1   3   1  164.71   11.30
   1  -3  -1  241.00   16.13
   1  -3  -1  289.04   16.43
   0   3   1  264.78   18.26
   0  -3  -1  370.33   22.76
   1   3   1  164.42   18.36
  -1  -3  -1  271.45   27.22
   2   3   1   34.09   12.08
   2   3   1   58.48    5.87
  -2  -3  -1   72.67   11.42
  -2  -3  -1   72.21    6.83
   3   3   1   16.16    6.45
  -3  -3  -1   15.94    8.58
  -3  -3  -1   20.27    7.82
   4   3   1  617.79   49.64
   4   3   1  632.26   47.82
  -4  -3  -1  656.61   54.39
  -4  -3  -1  632.36   48.41
   5   3   1   67.82   14.47
   5   3   1   55.80   11.15
  -5  -3  -1   68.82   15.54
  -5  -3  -1   69.67   13.59
   6   3   1   47.27   10.27
   6   3   1   36.09    7.09
  -6  -3  -1   44.01    9.62
  -6  -3  -1   49.25    8.77
  -8   3   0   17.58    4.88
   8  -3   0   25.99    7.07
   8  -3   0   20.23    4.10
  -7   3   0   21.29    3.72
   7  -3   0    1.77    2.23
   7  -3   0   18.82    2.94
  -6   3   0    0.52    1.66
   6  -3   0    1.99    3.71
   6  -3   0   -1.47    2.07
  -5   3   0  655.08   31.42
   5  -3   0  514.27   26.56
  -4   3   0  326.64   30.35
   4  -3   0  334.65   30.10
   4  -3   0  269.67   23.18
  -3   3   0 1082.34   54.29
   3  -3   0 1135.48   54.73
  -2   3   0  640.44   32.14
  -2   3   0  590.87   31.46
   2  -3   0  694.44   35.58
  -1   3   0 1718.67   79.24
  -1   3   0 1666.38   77.36
   1  -3   0 1879.52   86.44
  -1  -3   0  243.08   17.19
  -1  -3   0  338.25   18.78
   2   3   0   -0.14    3.12
   2   3   0    2.25    2.39
  -2  -3   0    0.78    2.38
  -2  -3   0    3.50    2.53
   3   3   0    5.72    7.16
   3   3   0    5.86    5.73
  -3  -3   0    8.22    4.37
  -3  -3   0    6.97    6.50
   4   3   0  189.40   27.11
   4   3   0  481.68   60.80
  -4  -3   0  494.72   64.26
  -4  -3   0  491.87   62.07
   5   3   0  169.77   21.23
   5   3   0  155.15   18.10
  -5  -3   0  162.11   21.28
  -5  -3   0  204.84   23.15
   6   3   0    1.40    2.17
   6   3   0    1.08    3.32
  -6  -3   0    1.48    2.47
  -6  -3   0    1.24    1.90
  -8   3  -1   36.59    7.78
   8  -3   1   24.89    7.76
   8  -3   1   20.28    4.61
  -7   3  -1    2.43    2.68
   7  -3   1    8.62    6.17
   7  -3   1    0.02    0.76
  -6   3  -1   14.34    6.40
   6  -3   1   11.08    6.16
   6  -3   1   14.51    5.35
  -5   3  -1    0.28    2.20
   5  -3   1   -0.32    2.26
   5  -3   1   -0.08    0.99
  -4   3  -1  526.78   47.06
   4  -3   1  392.67   36.26
   4  -3   1  463.54   39.19
  -3   3  -1   43.18    7.54
   3  -3   1   48.48   10.07
   3  -3   1   38.67    4.11
  -2   3  -1   53.46   10.12
   2  -3   1   41.73    6.61
  -1   3  -1   62.43    8.45
   1  -3   1   96.04    9.95
   0   3  -1 1428.26   67.00
   0   3  -1 1520.95   71.73
   0  -3   1 1472.77   70.07
   1   3  -1   17.09    3.66
   1   3  -1   35.05    6.70
  -1  -3   1   24.21    5.50
  -1  -3   1   58.04    7.26
   2   3  -1   29.91    8.59
  -2  -3   1   36.94    7.05
  -2  -3   1   36.58    4.95
   3   3  -1  301.55   20.84
   3   3  -1  415.38   22.48
  -3  -3   1  563.98   31.17
  -3  -3   1  533.72   25.75
   4   3  -1  156.41   22.77
   4   3  -1  339.93   43.88
  -4  -3   1  487.35   62.73
  -4  -3   1  510.40   64.06
   5   3  -1   77.86   11.29
   5   3  -1   56.01    8.93
  -5  -3   1   82.55   12.62
  -5  -3   1  102.06   12.67
   6   3  -1    1.60    2.10
   6   3  -1    1.27    3.40
  -6  -3   1    1.19    2.94
  -6  -3   1    1.77    1.82
  -8   3  -2    1.34    2.18
   8  -3   2    1.30    2.51
   8  -3   2    0.03    0.87
  -7   3  -2  136.74   16.19
  -7   3  -2  137.58   15.07
   7  -3   2  120.30   17.47
   7  -3   2  116.12   12.57
  -6   3  -2   86.81   14.11
  -6   3  -2   94.77   13.54
   6  -3   2   78.19   14.46
   6  -3   2   83.45   11.90
  -5   3  -2   11.74    6.86
   5  -3   2   18.94    8.06
   5  -3   2    3.65    2.32
  -4   3  -2  206.86   21.97
   4  -3   2  164.85   19.35
   4  -3   2  241.12   21.69
  -3   3  -2  255.31   19.70
   3  -3   2  152.10   14.62
   3  -3   2  202.65   12.40
  -1   3  -2  899.25   47.54
   1  -3   2  705.48   37.92
   1   3  -2 2217.58   31.72
  -1  -3   2 3454.14   41.29
   2   3  -2  129.35   13.43
   2   3  -2  143.72   15.27
  -2  -3   2  212.24   19.29
   3   3  -2   33.43   12.00
   3   3  -2   24.93    8.92
  -3  -3   2   36.80   11.82
   4   3  -2  101.46   16.57
   4   3  -2  131.06   19.20
  -4  -3   2  203.94   28.85
  -4  -3   2  205.20   26.96
   5   3  -2   34.27    6.91
  -5  -3   2  201.22   23.68
  -5  -3   2  199.32   21.07
   6   3  -2    0.54    1.23
   6   3  -2    1.51    4.13
  -6  -3   2    1.65    1.92
  -8   3  -3   16.01    5.22
  -8   3  -3   14.42    4.08
   8  -3   3   12.32    5.55
   8  -3   3   12.32    3.90
  -7   3  -3    8.83    4.62
  -7   3  -3    6.62    2.49
   7  -3   3    6.97    4.28
   7  -3   3    5.65    2.83
  -6   3  -3    0.45    2.80
  -6   3  -3    1.03    1.68
   6  -3   3    0.50    2.40
   6  -3   3    0.16    1.51
  -5   3  -3  137.91   18.52
  -5   3  -3  163.74   18.05
   5  -3   3  129.54   17.85
   5  -3   3  149.51   16.29
  -4   3  -3    3.50    4.53
  -4   3  -3   24.58    8.66
   4  -3   3    3.49    3.99
   4  -3   3   11.07    5.01
  -3   3  -3    9.47    6.00
   3  -3   3    9.64    3.70
  -2   3  -3   32.84    8.17
   2  -3   3    9.60    5.01
   2  -3   3   23.51    3.61
  -1   3  -3  186.35   16.73
   1  -3   3  240.20   18.40
   0   3  -3  131.49   12.65
   0  -3   3  176.32   14.71
   1   3  -3  279.76   27.12
  -1  -3   3  305.33   29.51
   2   3  -3   14.32    4.54
   2   3  -3   14.18    5.90
  -2  -3   3   22.24    6.47
   3   3  -3  196.57   21.13
   3   3  -3  168.52   19.01
  -3  -3   3  297.68   29.15
   4   3  -3  267.62   36.04
   4   3  -3  266.15   35.32
  -4  -3   3  347.12   43.92
   5   3  -3    3.41    2.71
   5   3  -3   16.98    9.63
  -5  -3   3   32.49    5.58
   6   3  -3    2.98    2.13
   6   3  -3    6.72   10.13
  -6  -3   3    3.82    2.32
  -7   3  -4   29.58    8.25
  -7   3  -4   28.40    7.06
   7  -3   4   31.13    9.88
   7  -3   4   23.00    5.96
  -6   3  -4   70.59   12.45
  -6   3  -4   73.70   10.85
   6  -3   4   78.25   14.80
   6  -3   4   61.98    9.21
  -5   3  -4    9.82    6.16
  -5   3  -4   13.55    5.74
   5  -3   4   11.21    6.23
   5  -3   4   11.57    4.98
  -4   3  -4    8.57    6.57
  -4   3  -4    7.19    6.83
   4  -3   4    6.62    7.23
   4  -3   4    7.61    7.30
  -3   3  -4  211.53   24.15
  -3   3  -4  264.56   24.52
   3  -3   4  158.67   18.94
   3  -3   4  260.59   24.11
  -2   3  -4   88.32   14.03
   2  -3   4   56.22   10.12
   2  -3   4   82.72    9.21
  -1   3  -4  426.36   40.74
   1  -3   4  309.09   31.72
   1  -3   4  311.67   27.44
   0   3  -4   19.19    7.01
   0  -3   4   26.74    8.96
   0  -3   4   19.41    5.42
   1   3  -4  978.92   28.06
  -1  -3   4 1590.04   35.04
   2   3  -4    1.44    2.65
   2   3  -4    5.09    4.58
  -2  -3   4    3.80    3.38
   3   3  -4    0.44    1.50
  -3  -3   4    1.25    2.04
   4   3  -4    2.17    2.32
   4   3  -4    2.58    3.66
  -4  -3   4    1.04    1.38
   5   3  -4    1.83    2.96
   5   3  -4   -1.42    5.01
  -5  -3   4    4.97    3.29
   6   3  -4    3.57    2.14
   6   3  -4    3.28    3.46
  -6  -3   4    7.19    2.72
  -7   3  -5   22.21    6.94
  -7   3  -5   24.76    6.70
   7  -3   5   27.15    9.61
   7  -3   5   20.23    5.73
  -6   3  -5   69.35   12.79
  -6   3  -5   74.19   11.23
   6  -3   5   75.79   15.51
   6  -3   5   62.92    9.43
  -5   3  -5  120.15   17.22
  -5   3  -5  130.64   14.18
   5  -3   5  121.93   17.82
   5  -3   5  112.25   12.21
  -4   3  -5   73.55   13.66
  -4   3  -5   79.65   10.02
   4  -3   5   73.41   12.67
   4  -3   5   77.49    9.87
  -3   3  -5   26.13   11.84
  -3   3  -5   29.02    9.92
   3  -3   5   21.37    9.02
   3  -3   5   29.79   10.42
  -2   3  -5  150.92   16.47
   2  -3   5  140.91   15.20
   2  -3   5  188.46   12.26
  -1   3  -5  414.56   40.28
   1  -3   5  271.38   28.34
   1  -3   5  371.31   32.52
   0   3  -5   45.00    9.33
   0  -3   5   43.35    8.49
   0  -3   5   34.97    5.07
   1   3  -5    2.01    4.24
  -1  -3   5    3.47    3.08
  -1  -3   5    9.98    4.45
   2   3  -5  227.46   17.34
  -2  -3   5  325.35   20.43
   3   3  -5    0.13    0.96
   3   3  -5    0.24    2.67
  -3  -3   5  154.88   15.46
   4   3  -5   -0.10    0.73
   4   3  -5   -7.67    6.74
  -4  -3   5    0.17    0.86
   5   3  -5   36.80    6.86
   5   3  -5   93.44   13.44
  -5  -3   5  190.19   20.56
   6   3  -5   -0.03    0.53
  -6  -3   5    3.58    2.50
  -6   3  -6   13.23    7.12
  -6   3  -6   13.68    4.61
   6  -3   6   11.41    6.68
   6  -3   6   10.49    5.38
  -5   3  -6  107.47   17.75
  -5   3  -6  117.25   15.82
   5  -3   6  125.18   21.28
   5  -3   6  104.65   14.35
  -4   3  -6  106.62   16.99
  -4   3  -6  114.58   12.86
   4  -3   6  101.77   16.08
   4  -3   6  109.53   12.17
  -3   3  -6   66.54   12.59
  -3   3  -6   58.72    8.20
   3  -3   6   51.02   10.66
   3  -3   6   61.94    8.58
  -2   3  -6    0.69    4.18
  -2   3  -6    1.54    2.50
   2  -3   6    2.28    4.69
   2  -3   6    0.88    3.31
  -1   3  -6    5.55    6.16
   1  -3   6    6.33    5.64
   1  -3   6    8.89    4.11
   0   3  -6   12.99    9.40
   0  -3   6    3.61    3.68
   0  -3   6    4.00    3.46
   1   3  -6   27.46    7.37
  -1  -3   6   19.74    4.85
  -1  -3   6   25.74    4.65
   2   3  -6   64.88   10.82
  -2  -3   6   56.53    8.53
  -2  -3   6   77.24    8.97
   3   3  -6  383.64   49.01
   3   3  -6  352.30   46.96
  -3  -3   6  358.18   46.45
  -3  -3   6  451.73   56.95
   4   3  -6   14.54    6.46
   4   3  -6   18.73   11.11
  -4  -3   6   22.42    3.49
  -4  -3   6   21.17    9.25
   5   3  -6   11.28    3.40
  -5  -3   6   18.75    4.99
   6   3  -6    0.04    0.47
  -6  -3   6   46.03    4.94
  -6  -3   6   37.31    4.04
  -5   3  -7   42.93   11.64
  -5   3  -7   38.79    7.56
   5  -3   7   38.99   11.51
   5  -3   7   32.96    6.93
  -4   3  -7   12.10   10.75
  -4   3  -7   12.05    6.95
   4  -3   7    9.34    7.31
   4  -3   7   10.28    6.60
  -3   3  -7    1.32    4.55
  -3   3  -7    1.23    1.63
   3  -3   7    1.21    4.39
   3  -3   7    0.80    2.46
  -2   3  -7   20.59    9.89
  -2   3  -7   18.23    6.79
   2  -3   7   11.93    6.78
   2  -3   7   17.66    6.99
  -1   3  -7  168.53   21.36
   1  -3   7  134.17   18.76
   1  -3   7  156.35   15.67
   0   3  -7   84.55   13.30
   0  -3   7   94.32   14.31
   0  -3   7  115.61   12.17
   1   3  -7   11.42    7.35
  -1  -3   7    7.21    3.75
  -1  -3   7   13.11    5.74
   2   3  -7   46.45   62.57
  -2  -3   7   49.60   65.48
  -2  -3   7   65.79   10.27
   3   3  -7  201.50   25.51
  -3  -3   7  254.19   29.58
  -3  -3   7  279.03   30.65
   4   3  -7   67.46    8.96
   4   3  -7   68.97   12.46
  -4  -3   7   59.91    8.41
  -4  -3   7   84.15   10.61
   5   3  -7  121.31   20.50
   5   3  -7  136.73   23.96
  -5  -3   7    3.84    1.37
  -5   3  -8  113.33   16.98
  -5   3  -8  103.08   15.96
   5  -3   8  104.41   22.00
   5  -3   8   94.59   14.55
  -4   3  -8   10.87    8.06
  -4   3  -8   10.44    4.22
   4  -3   8   11.20    7.10
   4  -3   8    9.25    5.61
  -3   3  -8   45.41   12.82
  -3   3  -8   36.59    7.33
   3  -3   8   34.42   10.81
   3  -3   8   34.67    8.08
  -2   3  -8   17.67    9.25
  -2   3  -8   16.66    8.94
   2  -3   8   12.57    8.80
   2  -3   8   14.43    8.51
  -1   3  -8  241.79   32.01
   1  -3   8  169.15   25.44
   1  -3   8  217.74   24.96
   0   3  -8   10.16    8.46
   0  -3   8    4.53    4.49
   0  -3   8    6.27    4.12
   1   3  -8   81.62   14.41
  -1  -3   8   65.82   11.45
  -1  -3   8   70.13    9.54
   2   3  -8   15.75    9.77
  -2  -3   8   10.46    5.95
  -2  -3   8   23.00    4.69
   3   3  -8   57.07   11.46
  -3  -3   8   92.49   13.02
  -3  -3   8   80.59   10.16
   4   3  -8   49.25    6.27
   4   3  -8   34.60    7.55
  -4  -3   8   72.50    8.86
  -4  -3   8   72.37    7.44
   5   3  -8    0.16    0.50
   5   3  -8    1.16    2.22
  -5  -3   8    0.52    0.82
  -5  -3   8    0.19    0.50
  -3   3  -9    2.49    5.58
  -3   3  -9    2.33    2.74
   3  -3   9    1.92    5.00
   3  -3   9    3.76    4.77
  -2   3  -9  109.82   25.14
  -2   3  -9   90.81   18.12
   2  -3   9   83.40   21.51
   2  -3   9   85.19   17.01
  -1   3  -9   96.31   21.80
   1  -3   9   73.47   18.68
   1  -3   9   92.53   17.08
   0   3  -9   99.79   16.87
   0  -3   9   72.93   13.98
   0  -3   9   95.05   12.38
   1   3  -9   18.80    8.07
  -1  -3   9   17.16    5.57
  -1  -3   9   19.82    4.51
   2   3  -9   50.14   13.07
  -2  -3   9   23.65    6.62
  -2  -3   9   41.39    8.94
   3   3  -9  167.63   17.85
  -3  -3   9  111.68   12.29
  -3  -3   9  159.25   12.75
   4   3  -9   12.63    3.42
   4   3  -9   11.85    4.71
  -4  -3   9   20.44    4.98
  -4  -3   9    0.31    1.05
  -2   3 -10   13.58   10.02
  -2   3 -10   11.14    4.35
   2  -3  10    7.61    6.50
   2  -3  10    9.92    4.53
  -1   3 -10   89.51   15.02
   1  -3  10   59.14   17.45
   1  -3  10   70.87   14.44
   0   3 -10   -0.68    3.92
   0  -3  10   -0.03    2.02
   0  -3  10   -0.08    1.59
   1   3 -10   54.41   14.07
  -1  -3  10   55.93   12.85
  -1  -3  10   53.26   10.63
   2   3 -10    2.96    5.19
  -2  -3  10    0.16    1.18
  -2  -3  10    0.04    1.08
  -5   4   8   13.45    3.82
  -5   4   8   22.58    6.00
   5  -4  -8   27.72    7.66
   5  -4  -8   11.82    2.91
  -4   4   8   14.62    4.88
  -4   4   8   13.65    3.77
   4  -4  -8   20.86    6.83
   4  -4  -8   12.48    3.42
  -3   4   8   38.19    9.75
  -3   4   8   40.50    8.12
   3  -4  -8   36.24    9.49
   3  -4  -8   37.24    8.05
  -2   4   8    0.69    2.37
  -2   4   8    0.30    1.43
   2  -4  -8   -0.36    3.02
   2  -4  -8    0.49    1.46
  -1   4   8   51.86    9.90
  -1   4   8   62.48    8.53
   1  -4  -8   63.43   15.30
   1  -4  -8   62.10    8.38
  -6   4   7   36.16    6.70
  -6   4   7   47.73    8.65
   6  -4  -7   21.58    3.95
  -5   4   7    0.60    1.35
  -5   4   7    0.53    1.45
   5  -4  -7    0.91    2.41
   5  -4  -7    0.07    0.38
  -4   4   7  166.82   28.93
  -4   4   7  230.36   38.20
   4  -4  -7  196.58   34.13
   4  -4  -7  187.84   31.40
  -3   4   7    0.93    1.81
  -3   4   7    0.47    2.08
   3  -4  -7    0.73    2.99
   3  -4  -7    0.97    1.23
  -2   4   7  143.25   26.29
  -2   4   7  146.81   25.48
   2  -4  -7  142.30   27.98
   2  -4  -7  170.60   29.62
  -1   4   7   12.84    5.18
  -1   4   7   15.19    5.82
   1  -4  -7   13.24    9.79
   1  -4  -7   14.31    4.83
   0   4   7   69.94   15.43
   0   4   7   90.15   17.89
   0  -4  -7   88.59   22.90
   0  -4  -7   81.43   15.85
   1   4   7   72.24   14.07
   1   4   7   87.45   11.01
  -1  -4  -7   84.91   18.22
  -1  -4  -7   86.63   10.47
  -6   4   6    3.31    1.20
  -6   4   6    4.64    1.80
  -5   4   6   17.66    3.15
  -5   4   6   31.58    6.44
   5  -4  -6   28.13    7.27
   5  -4  -6    2.86    1.73
  -4   4   6   62.50    9.33
  -4   4   6   45.06    7.83
   4  -4  -6   87.59   13.43
   4  -4  -6   47.25    7.00
  -3   4   6    0.57    1.67
  -3   4   6   -0.14    1.44
   3  -4  -6    0.06    2.19
   3  -4  -6    0.74    0.98
  -2   4   6   24.74    5.39
  -2   4   6   26.85    5.72
   2  -4  -6   26.09    8.42
   2  -4  -6   29.01    5.84
  -1   4   6   27.37    6.62
  -1   4   6   29.73    6.36
   1  -4  -6   34.46   12.36
   1  -4  -6   31.26    6.27
   0   4   6    0.65    2.11
   0   4   6    0.58    2.46
   0  -4  -6   -0.48    5.50
   0  -4  -6    1.25    1.69
   1   4   6   43.62   11.32
   1   4   6   59.94   13.90
  -1  -4  -6   55.88   18.04
  -1  -4  -6   54.22   12.12
   2   4   6    0.75    2.35
   2   4   6    0.77    2.49
  -2  -4  -6    0.76    5.97
  -2  -4  -6    0.29    1.23
  -6   4   5  226.79   21.36
   6  -4  -5  121.53   11.56
  -5   4   5  340.97   26.35
  -5   4   5  330.85   26.46
   5  -4  -5  401.36   29.97
  -4   4   5   65.59   10.21
  -4   4   5   64.38   10.56
   4  -4  -5   77.86   13.49
   4  -4  -5   25.32    8.31
  -3   4   5  247.19   23.46
  -3   4   5  323.98   28.69
   3  -4  -5  327.53   31.78
   3  -4  -5  331.98   29.47
  -2   4   5    4.45    2.85
  -2   4   5    4.44    2.97
   2  -4  -5    5.40    5.62
   2  -4  -5    5.72    2.97
  -1   4   5    2.69    2.64
  -1   4   5    2.94    2.76
   1  -4  -5    2.88    6.64
   1  -4  -5    3.38    2.32
   0   4   5  100.25   12.71
   0   4   5  132.02   14.59
   0  -4  -5  129.25   20.50
   0  -4  -5  132.03   14.15
   1   4   5    4.76    3.98
   1   4   5    6.35    5.81
  -1  -4  -5    6.75   10.59
  -1  -4  -5    5.01    3.84
   2   4   5   20.46    6.97
   2   4   5   22.28    7.10
  -2  -4  -5   23.02   14.20
  -2  -4  -5   21.78    6.35
   3   4   5   31.95    7.79
   3   4   5   41.21    8.09
  -3  -4  -5   43.01   15.82
  -3  -4  -5   38.62    7.01
  -6   4   4    2.53    1.38
  -6   4   4    8.80    4.88
   6  -4  -4    0.00    0.38
  -5   4   4   12.24    5.49
  -5   4   4   20.69    8.25
   5  -4  -4    9.07    3.91
  -4   4   4    9.50    4.69
  -4   4   4    6.80    6.93
   4  -4  -4   12.43    5.57
   4  -4  -4    3.10    3.35
  -3   4   4  119.74   15.13
  -3   4   4  190.56   20.35
   3  -4  -4  334.61   35.37
   3  -4  -4  330.17   32.94
   2  -4  -4  420.32   21.73
   2  -4  -4  286.21   29.20
  -1   4   4   17.04    6.35
  -1   4   4   41.75    7.26
   1  -4  -4   34.31    9.07
   1  -4  -4   51.79    7.99
   0   4   4   29.01   10.98
   0  -4  -4   47.70   12.67
   0  -4  -4   32.50   11.96
   1   4   4    0.37    1.46
   1   4   4    0.49    2.13
  -1  -4  -4    0.57    4.53
  -1  -4  -4    0.38    1.18
   2   4   4   83.30   13.10
   2   4   4   86.56   12.63
  -2  -4  -4  107.86   21.45
  -2  -4  -4   94.35   13.16
   3   4   4   25.81    6.74
   3   4   4   26.81    6.85
  -3  -4  -4   35.13   13.51
  -3  -4  -4   26.65    5.78
  -7   4   3   20.34    2.44
   7  -4  -3    2.72    1.73
   7  -4  -3    0.44    0.31
  -6   4   3    2.06    2.51
  -6   4   3    2.47    2.55
   6  -4  -3    2.09    1.67
  -5   4   3  322.73   32.43
  -5   4   3  353.25   14.28
   5  -4  -3  405.93   11.80
  -4   4   3    6.39    3.92
  -4   4   3    9.12    4.86
   4  -4  -3   21.04    7.25
  -3   4   3  101.45   10.51
  -3   4   3  127.02   10.28
   3  -4  -3  194.35   15.25
   3  -4  -3  198.72   12.28
  -2   4   3   94.01   10.69
  -2   4   3   88.18    8.31
   2  -4  -3  317.17   21.31
   2  -4  -3  247.22   15.05
  -1   4   3   71.47    9.77
  -1   4   3  129.57   10.25
   1  -4  -3  140.70   14.49
   1  -4  -3  158.21   11.95
   0   4   3    2.57    3.59
   0  -4  -3    1.05    3.52
   0  -4  -3    3.06    3.44
   1   4   3    3.69    4.58
   1   4   3   10.05    4.93
  -1  -4  -3   14.54    9.30
  -1  -4  -3   11.76    5.18
   2   4   3  386.78   43.79
   2   4   3  475.02   51.02
  -2  -4  -3  558.90   64.62
  -2  -4  -3  501.71   54.16
   3   4   3   28.77    7.88
   3   4   3   30.68    7.48
  -3  -4  -3   39.41   14.32
  -3  -4  -3   33.75    7.87
   4   4   3   60.59   13.91
   4   4   3   67.34   14.06
  -4  -4  -3   83.22   16.43
  -4  -4  -3   58.21   12.28
  -8   4   2  174.69   30.26
  -8   4   2   92.20   15.88
   8  -4  -2   12.83    3.06
   8  -4  -2    7.73    3.13
  -7   4   2   24.85    4.59
  -7   4   2    6.26    3.08
   7  -4  -2    7.06    3.36
  -6   4   2   33.47   11.75
  -6   4   2   23.05    8.56
   6  -4  -2   10.14    4.09
  -5   4   2  291.60   30.55
   5  -4  -2  285.88   27.83
  -4   4   2   51.53    5.81
  -4   4   2   45.02   15.21
   4  -4  -2   53.52    4.97
  -3   4   2   16.65    5.39
  -3   4   2   14.23    5.12
   3  -4  -2   27.67    7.49
  -2   4   2   25.66    8.01
  -2   4   2   21.73    6.61
   2  -4  -2   30.79    6.72
  -1   4   2   29.69   10.21
  -1   4   2   22.33    7.39
   1  -4  -2   33.74    6.82
   1  -4  -2   48.06    7.55
   0   4   2   25.91   10.43
   0   4   2   57.68    6.88
   0  -4  -2   59.58    9.26
   0  -4  -2   66.80    7.25
   1   4   2   22.31    7.61
   1   4   2   48.95    7.22
  -1  -4  -2   55.51   11.23
  -1  -4  -2   56.32    8.24
   2   4   2    5.00    4.70
   2   4   2    6.07    3.33
  -2  -4  -2    9.86    6.80
  -2  -4  -2    9.99    4.45
   3   4   2  194.32   22.68
   3   4   2  227.97   24.19
  -3  -4  -2  302.71   36.03
  -3  -4  -2  253.14   26.65
   4   4   2   51.59    8.81
   4   4   2   51.15    7.89
  -4  -4  -2   67.96   13.83
  -4  -4  -2   54.98    7.86
  -9   4   1    0.89    0.89
   9  -4  -1    0.57    0.95
   9  -4  -1    4.27    4.15
  -8   4   1    1.32    1.06
   8  -4  -1    0.20    0.92
   8  -4  -1    0.08    0.51
  -7   4   1   12.47    5.74
   7  -4  -1   21.10    9.25
  -6   4   1  337.27   29.99
   6  -4  -1  493.84   17.02
   6  -4  -1  370.69   30.62
  -5   4   1   33.02   11.13
  -5   4   1   42.98   15.25
   5  -4  -1   27.19    9.52
   5  -4  -1   30.09   10.21
  -4   4   1    0.10    1.10
  -4   4   1   -0.26    1.78
   4  -4  -1    0.30    1.13
  -3   4   1  260.48   23.88
   3  -4  -1  183.39   17.59
  -2   4   1  204.95   19.70
   2  -4  -1  377.05   33.08
  -1   4   1  535.75   47.42
  -1   4   1  564.96   48.95
   1  -4  -1  782.99   68.15
   1  -4  -1  897.41   20.95
   0   4   1   46.25    8.56
   0   4   1   40.30    6.88
   0  -4  -1   64.69   10.88
   0  -4  -1   71.53    8.79
   1   4   1   82.89   11.49
   1   4   1  156.90   11.61
  -1  -4  -1  159.58   14.90
  -1  -4  -1  179.43   12.69
   2   4   1  218.52   22.93
  -2  -4  -1  492.07   45.65
  -2  -4  -1  466.72   40.37
   3   4   1   47.63    8.48
  -3  -4  -1  230.23   24.16
  -3  -4  -1  215.43   19.19
   4   4   1    1.26    1.70
   4   4   1    2.35    2.84
  -4  -4  -1    3.07    5.23
  -4  -4  -1    2.45    1.97
   5   4   1   38.50    7.58
   5   4   1   35.82    6.65
  -5  -4  -1   41.03    9.34
  -5  -4  -1   43.07    6.85
  -9   4   0    1.47    1.50
   9  -4   0    0.52    1.51
  -8   4   0   24.43    5.40
   8  -4   0   21.60    5.01
   8  -4   0   18.67    2.46
  -7   4   0    6.37    3.95
   7  -4   0    0.64    1.32
   7  -4   0   -0.08    1.71
  -6   4   0    0.74    2.33
   6  -4   0    0.05    1.35
   6  -4   0    1.93    3.20
  -5   4   0    0.44    2.69
   5  -4   0    0.11    1.47
   5  -4   0    1.00    2.00
  -4   4   0   27.72    9.79
   4  -4   0   32.42    5.25
  -3   4   0    5.28    2.75
  -3   4   0    7.09    4.80
   3  -4   0    7.20    4.25
  -2   4   0  100.11    8.59
  -2   4   0   74.46   14.30
   2  -4   0  132.53   11.15
  -1   4   0   31.18    4.86
   1  -4   0   66.57    7.43
   0   4   0    2.00    2.95
   0   4   0   -1.20    2.36
   0  -4   0    2.08    3.88
   0  -4   0    1.00    1.49
   1   4   0  350.39   21.98
   1   4   0  356.75   20.37
  -1  -4   0  480.50   28.83
  -1  -4   0  526.55   26.29
   2   4   0   -0.11    3.60
   2   4   0    0.38    2.06
  -2  -4   0    0.69    2.81
  -2  -4   0    1.69    2.29
   3   4   0  198.46   28.66
   3   4   0  241.56   32.29
  -3  -4   0  471.72   61.86
  -3  -4   0  420.81   53.38
   4   4   0    7.58    5.30
   4   4   0    5.26    3.27
  -4  -4   0   12.79    6.59
  -4  -4   0    8.60    2.83
   5   4   0   34.59    8.72
   5   4   0   20.16    6.31
  -5  -4   0   37.45   10.18
  -5  -4   0   42.24    9.23
  -8   4  -1    4.02    2.85
   8  -4   1    0.97    1.91
   8  -4   1    2.41    1.95
  -7   4  -1   88.03   12.36
   7  -4   1  102.19   15.04
   7  -4   1   83.71   10.02
  -6   4  -1  567.41   20.56
   6  -4   1  515.98   22.44
   6  -4   1  595.86   13.65
  -5   4  -1   26.61   10.62
   5  -4   1   36.02   13.08
   5  -4   1   25.61    8.54
  -4   4  -1   84.20   13.67
   4  -4   1   89.53   11.85
   4  -4   1   82.32    8.92
  -3   4  -1  135.51   20.13
   3  -4   1  212.18   22.40
   2  -4   1  832.42   44.46
  -1   4  -1   21.36    4.11
   1  -4   1   33.76    7.56
   0   4  -1  857.92   72.66
   0   4  -1  933.71   24.97
   0  -4   1 1680.77   31.20
   1   4  -1   25.23    7.65
   1   4  -1   30.34    5.84
  -1  -4   1   50.16    6.79
   2   4  -1  177.93   20.84
   2   4  -1  252.72   27.53
  -2  -4   1  306.57   33.50
  -2  -4   1  301.69   30.25
   3   4  -1   83.78   14.81
   3   4  -1  111.44   17.19
  -3  -4   1  197.22   28.90
  -3  -4   1  169.32   22.69
   4   4  -1    9.76    7.05
   4   4  -1   21.93    6.25
  -4  -4   1   33.33    9.00
  -4  -4   1   36.82    6.45
   5   4  -1   45.83    7.86
   5   4  -1   40.96    8.26
  -5  -4   1   77.53   12.15
  -5  -4   1   86.87   10.08
  -8   4  -2    1.49    2.22
   8  -4   2    0.40    1.69
   8  -4   2    0.58    1.72
  -7   4  -2   10.19    6.37
   7  -4   2    0.94    2.97
   7  -4   2   12.16    6.46
  -6   4  -2    8.25    4.77
   6  -4   2   -0.64    2.34
   6  -4   2    8.99    3.57
  -5   4  -2  256.93   29.06
   5  -4   2  354.34   20.92
   5  -4   2  254.59   25.39
  -4   4  -2   43.03    9.77
   4  -4   2   38.42    7.00
   4  -4   2   38.41    5.49
  -3   4  -2  285.28   30.70
   3  -4   2  316.12   30.74
  -2   4  -2  130.29   15.11
   2  -4   2  234.26   19.65
  -1   4  -2  532.94   31.88
   1  -4   2  777.96   43.15
   0   4  -2   31.16    4.61
   0   4  -2   39.93    9.26
   0  -4   2   59.18    9.34
   1   4  -2  703.22   60.32
   1   4  -2  604.26   53.17
  -1  -4   2 1119.33   25.90
   2   4  -2   15.29    4.09
   2   4  -2   21.37    5.96
   3   4  -2    2.29    3.65
   3   4  -2    3.57    3.58
  -3  -4   2    3.80    2.23
   4   4  -2   68.02   11.71
   4   4  -2  102.21   15.48
  -4  -4   2  150.98   18.12
   5   4  -2    4.18    3.13
   5   4  -2   20.56    6.59
  -5  -4   2    9.05    3.07
  -8   4  -3   79.79    8.82
   8  -4   3    1.15    2.68
  -7   4  -3   69.88   11.75
   7  -4   3    0.99    2.79
  -6   4  -3  706.81   56.24
   6  -4   3  532.07   47.67
   6  -4   3  546.23   40.70
  -5   4  -3  484.05   44.68
   5  -4   3    0.27    2.77
  -4   4  -3   49.24   10.09
   4  -4   3   40.34   14.78
   4  -4   3   56.20    6.65
  -3   4  -3  453.10   44.97
   3  -4   3  322.07   32.02
   3  -4   3  342.97   30.37
  -2   4  -3   56.69   11.46
   2  -4   3  113.60   15.81
  -1   4  -3   43.03    9.96
   1  -4   3   72.13   11.71
   0   4  -3  539.74   48.44
   0  -4   3  706.14   62.50
   1   4  -3   12.75    5.03
   1   4  -3   12.11    6.17
  -1  -4   3   22.27    8.34
   2   4  -3    6.41    6.12
  -2  -4   3   10.66    3.09
   3   4  -3    0.29    1.82
   3   4  -3    0.29    2.14
  -3  -4   3    1.34    1.53
   4   4  -3    0.03    2.16
   4   4  -3   -0.35    2.37
  -4  -4   3   -0.01    0.77
   5   4  -3    2.59    2.63
   5   4  -3    6.54    5.94
  -5  -4   3   10.42    5.09
  -7   4  -4   11.81    5.98
   7  -4   4    6.23    5.52
   7  -4   4    1.07    2.67
  -6   4  -4  145.34   20.88
   6  -4   4  107.55   18.57
   6  -4   4  120.31   14.55
  -5   4  -4  190.75   28.56
   5  -4   4  120.16   20.72
   5  -4   4  169.70   22.66
  -4   4  -4   72.82   13.95
   4  -4   4   48.78   10.03
   4  -4   4   72.37    9.35
  -3   4  -4  883.52   49.34
   3  -4   4  529.56   33.34
   3  -4   4  691.39   32.46
  -2   4  -4  283.48   31.39
   2  -4   4  109.32   14.55
   2  -4   4  216.93   20.24
  -1   4  -4   99.10   14.87
   1  -4   4   66.35   11.44
   0   4  -4  179.22   20.53
   0  -4   4  274.47   27.62
   1   4  -4  124.83   12.46
  -1  -4   4  173.78   14.91
   2   4  -4   60.24    8.55
   2   4  -4   53.65    9.86
  -2  -4   4   63.93    9.46
   3   4  -4   63.52   10.56
   3   4  -4   55.45   10.43
  -3  -4   4  108.09   15.30
   4   4  -4    8.28    5.62
   4   4  -4    5.77    5.20
  -4  -4   4   10.29    5.64
   5   4  -4    0.36    1.22
   5   4  -4    0.40    2.61
  -5  -4   4    0.39    1.20
  -7   4  -5   27.07    8.92
   7  -4   5   17.23    8.34
   7  -4   5   14.86    4.93
  -6   4  -5   24.49    8.99
   6  -4   5   20.37    7.87
   6  -4   5   16.12    3.76
  -5   4  -5   20.97    8.93
   5  -4   5   11.21    7.65
   5  -4   5   17.00    4.42
  -4   4  -5   47.14   11.01
   4  -4   5   25.19   11.11
   4  -4   5   45.20    6.67
  -3   4  -5   62.91   13.52
   3  -4   5   38.06    8.77
   3  -4   5   60.45    8.41
  -2   4  -5    1.76    6.19
   2  -4   5    1.15    3.28
   2  -4   5    0.50    1.72
  -1   4  -5    5.57    4.79
   1  -4   5    7.57    5.49
   1  -4   5    4.90    2.89
   0   4  -5    5.84    5.39
   0  -4   5    8.02    4.48
   0  -4   5    9.65    4.32
   1   4  -5    7.23    7.83
  -1  -4   5   15.34    5.06
   2   4  -5   96.03   11.32
   2   4  -5   49.00    9.99
  -2  -4   5  105.50   13.49
   3   4  -5    8.24    4.09
   3   4  -5    6.15    4.77
  -3  -4   5   15.40    3.64
   4   4  -5    3.23    2.70
   4   4  -5    3.40    4.60
  -4  -4   5   11.75    3.16
   5   4  -5   11.66    4.33
   5   4  -5   63.25   15.58
  -5  -4   5  100.66   17.65
  -6   4  -6   19.82    8.60
  -6   4  -6   18.26    4.65
   6  -4   6   15.44    7.20
   6  -4   6   15.61    4.88
  -5   4  -6  145.04   23.23
   5  -4   6   99.44   17.71
   5  -4   6  120.32   14.86
  -4   4  -6   -0.17    4.73
   4  -4   6    0.66    3.54
   4  -4   6    0.42    2.05
  -3   4  -6    3.40    6.80
   3  -4   6    0.74    2.67
   3  -4   6    4.42    3.82
  -2   4  -6  194.41   24.98
   2  -4   6  111.59   16.18
   2  -4   6  135.69   13.93
  -1   4  -6   65.52   12.03
   1  -4   6   66.74   12.14
   1  -4   6   57.07    7.78
   0   4  -6   31.08    8.83
   0  -4   6   30.66    6.78
   0  -4   6   29.36    5.23
   1   4  -6  997.11   34.92
  -1  -4   6  834.30   28.56
  -1  -4   6 1030.99   24.04
   2   4  -6    3.68    5.21
  -2  -4   6    4.77    3.56
  -2  -4   6    6.80    4.62
   3   4  -6    2.79    2.16
   3   4  -6    2.30    3.68
  -3  -4   6    3.49    2.81
   4   4  -6    0.76    1.40
   4   4  -6    1.30    5.75
  -4  -4   6    0.08    0.78
   5   4  -6   17.28    5.06
   5   4  -6   29.37   10.65
  -5  -4   6   10.95    3.30
  -6   4  -7   63.86   13.29
  -6   4  -7   62.15    8.67
   6  -4   7   49.09   12.99
   6  -4   7   26.24    5.41
  -5   4  -7   14.40    9.97
  -5   4  -7    9.71    5.21
   5  -4   7    8.65    6.92
   5  -4   7    9.65    6.14
  -4   4  -7    9.55    9.49
   4  -4   7    5.06    5.12
   4  -4   7    5.56    3.93
  -3   4  -7   22.97    9.52
   3  -4   7   13.72    8.44
   3  -4   7   17.41    8.25
  -2   4  -7   33.53   10.88
   2  -4   7   41.42   10.90
   2  -4   7   36.07    5.93
  -1   4  -7   44.17   17.10
   1  -4   7   57.35   13.14
   1  -4   7   42.80   13.74
   0   4  -7   11.24    6.74
   0  -4   7   15.18    6.92
   0  -4   7   13.70    5.63
   1   4  -7   53.07   10.50
  -1  -4   7   46.62    8.11
  -1  -4   7   59.16    8.10
   2   4  -7    1.72    5.19
  -2  -4   7    0.13    2.01
  -2  -4   7    0.08    2.17
   3   4  -7  125.30   15.50
   3   4  -7  122.75   18.56
  -3  -4   7  205.34   24.51
  -3  -4   7  193.74   22.76
   4   4  -7    1.17    1.37
   4   4  -7    5.75    7.81
  -4  -4   7    0.61    1.42
  -4  -4   7    0.42    1.61
  -5   4  -8    6.41    8.30
  -5   4  -8    6.18    6.58
   5  -4   8    7.22    9.37
   5  -4   8    0.31    2.33
  -4   4  -8   12.79   10.21
   4  -4   8    9.01    6.81
   4  -4   8    7.52    4.08
  -3   4  -8  129.63   27.41
   3  -4   8   78.72   18.97
   3  -4   8  110.03   19.87
  -2   4  -8   50.45   12.62
   2  -4   8   44.21   11.10
   2  -4   8   40.63    7.11
  -1   4  -8   21.08   10.14
   1  -4   8   19.24    7.21
   1  -4   8   19.63    4.73
   0   4  -8   17.19    9.85
   0  -4   8   24.47    6.08
   0  -4   8   21.60    9.52
   1   4  -8  333.61   36.96
  -1  -4   8  269.16   29.34
  -1  -4   8  426.81   41.46
   2   4  -8   63.93   13.11
  -2  -4   8   64.32   10.93
  -2  -4   8   92.71   12.63
   3   4  -8    1.39    4.76
  -3  -4   8    0.60    1.61
  -3  -4   8    0.74    1.65
   4   4  -8    1.45    1.46
   4   4  -8    1.48    3.88
  -4  -4   8    0.93    1.75
  -4  -4   8    0.33    1.24
  -3   4  -9    4.13    7.60
   3  -4   9    1.36    4.40
   3  -4   9    0.10    1.94
  -2   4  -9    1.23    6.91
   2  -4   9    1.65    3.81
   2  -4   9   -0.25    1.86
  -1   4  -9    0.96    4.43
   1  -4   9    1.07    3.76
   1  -4   9    0.29    1.71
   0   4  -9    1.96    4.14
   0  -4   9    1.17    2.22
   0  -4   9    0.21    1.64
   1   4  -9    0.83    3.91
  -1  -4   9    0.10    1.44
  -1  -4   9    1.12    2.98
   2   4  -9   28.74    9.10
  -2  -4   9   23.29    5.75
  -2  -4   9   40.50    6.49
   3   4  -9   32.76   10.63
  -3  -4   9   39.35    9.67
  -3  -4   9   51.65   10.68
  -1   4 -10   17.85    8.18
   1  -4  10   12.40    6.17
   1  -4  10    1.21    2.64
   0   4 -10   10.10    8.45
   0  -4  10   10.03    5.64
   0  -4  10    0.00    1.57
   1   4 -10   62.52   12.05
  -1  -4  10   36.94    7.51
  -1  -4  10   54.89    6.85
  -6   5   7   12.04    2.81
  -6   5   7   17.09    4.28
   6  -5  -7    2.98    3.03
  -5   5   7    1.75    2.14
  -5   5   7    0.00    1.77
   5  -5  -7    0.34    2.03
   5  -5  -7    0.90    1.25
  -4   5   7  108.46   19.83
  -4   5   7   78.40   14.56
   4  -5  -7  131.01   24.41
   4  -5  -7   88.17   16.20
  -3   5   7  374.70   16.82
   3  -5  -7  150.34   27.73
   3  -5  -7  183.30   31.44
  -2   5   7    8.47    4.03
  -2   5   7    7.90    3.77
   2  -5  -7    9.78    7.48
   2  -5  -7    9.01    3.76
  -1   5   7   28.32    6.72
  -1   5   7   32.78    6.32
   1  -5  -7   34.13   12.51
   1  -5  -7   35.56    6.74
  -7   5   6    0.88    0.71
  -7   5   6    0.03    0.35
  -6   5   6    0.51    0.89
  -6   5   6    2.44    2.34
   6  -5  -6    0.21    0.48
  -5   5   6  129.08   22.50
  -5   5   6  103.62   19.30
   5  -5  -6   64.31   12.11
  -4   5   6   31.67    7.33
  -4   5   6   25.22    6.75
   4  -5  -6   34.95   10.00
   4  -5  -6   44.42    9.31
  -3   5   6    6.28    3.04
  -3   5   6    6.28    3.30
   3  -5  -6    6.70    5.37
   3  -5  -6    4.30    2.19
  -2   5   6   55.49   11.84
  -2   5   6   66.50   13.20
   2  -5  -6   76.91   17.69
   2  -5  -6   78.90   15.24
  -1   5   6    9.53    5.38
  -1   5   6   12.10    5.41
   1  -5  -6   10.47    9.58
   1  -5  -6   12.05    3.93
   0   5   6    4.70    3.20
   0   5   6    4.53    4.20
   0  -5  -6    7.05    9.50
   0  -5  -6    5.84    3.28
  -7   5   5   60.68    4.89
  -7   5   5   60.59    6.62
   7  -5  -5    6.88    1.32
  -6   5   5   27.05    5.69
  -6   5   5   21.11    4.51
   6  -5  -5    6.42    2.08
  -5   5   5   39.43    7.67
  -5   5   5   25.78    6.43
   5  -5  -5   44.29    6.53
  -4   5   5    4.75    4.11
  -4   5   5   13.93    7.30
   4  -5  -5   30.69    9.51
   4  -5  -5   18.84    8.26
  -3   5   5   19.01    9.55
  -3   5   5   36.44    7.22
   3  -5  -5   50.36   11.17
   3  -5  -5   43.63    7.28
  -2   5   5   12.83    6.97
  -2   5   5   34.96    7.40
   2  -5  -5   40.63   10.43
   2  -5  -5   39.79    7.35
  -1   5   5    2.83    2.88
  -1   5   5    4.25    4.23
   1  -5  -5    6.74    8.40
   1  -5  -5    4.51    3.35
   0   5   5   12.38    4.44
   0   5   5   14.88    5.17
   0  -5  -5   16.11    8.66
   0  -5  -5   14.93    4.36
   1   5   5   97.02   19.19
   1   5   5  125.02   23.15
  -1  -5  -5  138.47   29.21
  -1  -5  -5  118.24   21.79
  -7   5   4   29.92    6.33
  -7   5   4   16.54    3.44
   7  -5  -4    0.90    0.86
  -6   5   4    3.33    3.74
  -6   5   4    2.31    2.03
   6  -5  -4    1.22    1.24
  -5   5   4  193.70   18.71
  -5   5   4  195.83   18.27
   5  -5  -4  277.17   22.72
  -4   5   4   14.06    7.35
  -4   5   4    3.18    3.54
   4  -5  -4    3.91    2.14
  -3   5   4   12.19    6.76
  -3   5   4   14.47    6.50
   3  -5  -4   22.06   10.05
   3  -5  -4   26.10    8.95
  -2   5   4    4.12    4.74
  -2   5   4   48.58   64.18
   2  -5  -4   14.44    8.01
   2  -5  -4   12.28    4.90
  -1   5   4    0.08    3.50
  -1   5   4    0.51    2.22
   1  -5  -4    1.28    3.62
   1  -5  -4    0.32    1.20
   0   5   4   10.69    8.23
   0   5   4   25.07    6.34
   0  -5  -4   36.56   11.77
   0  -5  -4   30.18    6.49
   1   5   4    9.75    3.95
   1   5   4   12.84    4.87
  -1  -5  -4   14.72    9.87
  -1  -5  -4   13.40    4.05
   2   5   4    2.05    2.15
   2   5   4    3.51    4.19
  -2  -5  -4    5.05    8.99
  -2  -5  -4    3.25    2.62
  -8   5   3   35.53    3.80
  -8   5   3   40.11    3.75
   8  -5  -3    0.07    0.22
  -7   5   3   53.08    8.15
  -7   5   3   50.46    7.84
   7  -5  -3   57.55    7.26
  -6   5   3    9.81    5.32
  -6   5   3    1.64    3.54
   6  -5  -3    2.11    1.68
  -5   5   3   53.61    9.86
  -5   5   3   36.13   12.30
   5  -5  -3   54.71    8.53
  -4   5   3  478.04   42.70
  -4   5   3  509.54   18.56
   4  -5  -3  789.37   20.68
  -3   5   3   93.91   13.28
  -3   5   3  101.08   12.32
   3  -5  -3  203.01   23.03
   3  -5  -3  187.03   18.03
  -2   5   3   29.95   13.59
  -2   5   3   37.69   13.97
   2  -5  -3   43.82    9.75
   2  -5  -3   45.62    6.88
  -1   5   3   56.26   10.87
  -1   5   3   60.58    8.97
   1  -5  -3  146.56   19.21
   1  -5  -3  136.97   14.95
   0   5   3   36.97   14.30
   0   5   3   43.59   14.47
   0  -5  -3   46.35   17.14
   0  -5  -3   49.21   64.99
   1   5   3   38.84   10.17
   1   5   3   92.32   12.97
  -1  -5  -3  112.57   19.34
  -1  -5  -3  108.03   14.72
   2   5   3    1.09    1.86
   2   5   3    0.43    2.17
  -2  -5  -3    0.90    5.03
  -2  -5  -3    1.45    1.74
   3   5   3    0.06    1.07
   3   5   3    0.31    3.29
  -3  -5  -3    1.40    6.18
  -3  -5  -3    0.63    1.24
  -8   5   2    0.60    0.95
   8  -5  -2    0.54    0.94
   8  -5  -2    0.34    0.83
  -7   5   2    3.89    2.94
  -7   5   2    2.34    2.69
   7  -5  -2    0.15    0.59
  -6   5   2   53.20    7.41
  -6   5   2   25.05    7.07
   6  -5  -2   18.06    3.42
  -5   5   2   31.82   11.61
  -5   5   2   26.40   10.28
   5  -5  -2   14.41    5.69
  -4   5   2    9.97    3.54
  -4   5   2    9.24    5.05
   4  -5  -2   13.60    3.42
  -3   5   2  147.84   12.77
  -3   5   2  131.64   11.83
   3  -5  -2  233.19   14.37
  -2   5   2  145.24   18.28
  -2   5   2  116.84   15.19
  -1   5   2   88.61   15.34
  -1   5   2   99.12   13.31
   1  -5  -2  100.92   16.14
   1  -5  -2  113.53   14.01
   0   5   2   30.13   12.83
   0   5   2   37.17   13.70
   0  -5  -2   63.38   12.59
   0  -5  -2   65.81    9.15
   1   5   2   37.39    8.65
   1   5   2   73.24    9.30
  -1  -5  -2   82.57   13.81
  -1  -5  -2   89.08   10.64
   2   5   2    7.95    6.52
   2   5   2   37.66    8.11
  -2  -5  -2   33.40   10.95
  -2  -5  -2   36.98    7.07
   3   5   2   48.59    8.12
   3   5   2   71.78   10.29
  -3  -5  -2   92.35   17.10
  -3  -5  -2   73.63    9.28
  -9   5   1    7.97    2.89
  -9   5   1    5.15    3.51
   9  -5  -1    1.33    1.57
   9  -5  -1    0.11    0.53
  -8   5   1  123.82   23.23
  -8   5   1   62.49   12.33
   8  -5  -1   74.07   14.40
  -7   5   1  124.91   16.02
   7  -5  -1  159.16   19.43
   7  -5  -1  162.46   18.18
  -6   5   1    1.46    2.00
  -6   5   1    0.46    2.94
   6  -5  -1    0.89    1.65
   6  -5  -1    3.24    4.06
  -5   5   1   20.87    4.73
  -5   5   1   13.44    5.87
   5  -5  -1   30.64    6.16
   4  -5  -1  828.55   38.60
  -3   5   1   47.61   15.60
  -3   5   1   29.86   11.04
   3  -5  -1   73.72    7.24
  -2   5   1   52.45    6.99
  -2   5   1   60.98    8.16
   2  -5  -1   99.10    8.84
  -1   5   1   74.26    9.26
  -1   5   1  103.45   11.47
   1  -5  -1  127.19   14.74
   1  -5  -1  143.54   11.54
   0   5   1    5.46    6.22
   0   5   1    8.02    3.64
   0  -5  -1   11.78    7.06
   0  -5  -1   16.06    4.10
   1   5   1  436.41   57.86
   1   5   1  576.34   72.77
  -1  -5  -1 1000.29 1314.54
  -1  -5  -1  911.91  113.43
   2   5   1   81.54   13.83
   2   5   1  105.40   14.88
  -2  -5  -1  214.29   28.89
  -2  -5  -1  173.16   20.83
   3   5   1    0.22    3.28
   3   5   1    0.69    3.32
  -3  -5  -1    1.68    4.12
  -3  -5  -1    2.16    1.94
   4   5   1   20.00    5.17
   4   5   1   16.45    6.17
  -4  -5  -1   32.90    9.80
  -4  -5  -1   26.19    5.20
  -8   5   0   12.86    5.73
   8  -5   0    9.10    4.91
   8  -5   0    4.86    3.78
  -7   5   0    5.99    5.35
   7  -5   0   11.75    6.29
   7  -5   0    7.06    3.83
  -6   5   0   42.37   14.84
   6  -5   0   49.00   64.71
   6  -5   0   43.78   13.81
  -5   5   0  118.36   18.52
   5  -5   0  158.83   18.51
  -4   5   0  503.36   25.75
  -4   5   0  545.82   31.42
   4  -5   0  543.30   28.96
  -3   5   0   41.40   13.55
  -3   5   0   32.44   11.71
   3  -5   0   58.33    7.34
  -2   5   0   70.52    9.76
   2  -5   0  162.31   12.44
  -1   5   0  477.87   26.40
  -1   5   0  477.45   26.93
   1  -5   0  892.64   42.49
   0   5   0  709.74   37.43
   0   5   0  773.69   40.12
   0  -5   0 1058.69   54.53
   0  -5   0 1326.56   60.05
   1   5   0  169.18   19.43
   1   5   0  191.24   20.31
  -1  -5   0  345.05   35.22
  -1  -5   0  341.90   31.09
   2   5   0   22.70    6.53
   2   5   0   42.98    8.41
  -2  -5   0   57.81   11.64
  -2  -5   0   53.53    7.37
   3   5   0   47.88    9.78
   3   5   0   81.76   12.47
  -3  -5   0  126.13   19.52
  -3  -5   0  110.31   13.86
   4   5   0    1.28    3.74
   4   5   0    0.17    2.38
  -4  -5   0    0.31    3.94
  -4  -5   0    0.99    2.14
  -8   5  -1   73.77   15.02
   8  -5   1   52.93   12.39
   8  -5   1   71.81   13.38
  -7   5  -1   33.02    7.26
   7  -5   1   47.38    9.29
   7  -5   1   36.91    5.35
  -6   5  -1    3.43    4.96
   6  -5   1    6.09    4.68
   6  -5   1    3.72    2.62
  -5   5  -1   14.18    8.69
   5  -5   1    8.03    3.79
   5  -5   1   12.96    3.76
  -4   5  -1  261.55   21.35
   4  -5   1  358.97   22.51
  -3   5  -1  432.84   26.53
   3  -5   1  533.21   29.80
  -2   5  -1  671.15   57.55
  -2   5  -1  590.01   52.63
   2  -5   1 1078.43   30.19
  -1   5  -1   36.79   12.54
  -1   5  -1   37.49   13.99
   1  -5   1   60.59    8.81
   0   5  -1    1.20    2.63
   0   5  -1    1.63    5.02
   0  -5   1    1.77    3.23
   1   5  -1  146.69   17.98
   1   5  -1  165.88   20.37
  -1  -5   1  277.51   29.06
   2   5  -1  184.44   26.82
   2   5  -1  212.98   30.01
  -2  -5   1  343.56   44.37
   3   5  -1  110.30   16.05
   3   5  -1  149.12   19.05
  -3  -5   1  249.90   30.08
  -3  -5   1  229.93   24.18
   4   5  -1   24.78    6.57
   4   5  -1   41.92    9.18
  -4  -5   1   84.33   13.92
  -4  -5   1   70.95    8.73
  -8   5  -2   28.13    7.47
   8  -5   2   25.72    7.90
   8  -5   2   26.56    5.88
  -7   5  -2    8.62    6.21
   7  -5   2   11.56    7.19
   7  -5   2    7.93    4.59
  -6   5  -2  220.24   23.22
   6  -5   2  209.55   22.13
   6  -5   2  220.01   18.33
  -5   5  -2  198.13   24.02
   5  -5   2  157.65   18.97
   5  -5   2  171.74   16.80
  -4   5  -2   57.26   13.32
   4  -5   2   63.46    9.43
   4  -5   2   64.78    7.83
  -3   5  -2   -0.56    4.32
   3  -5   2    2.55    5.08
  -2   5  -2   11.50    5.98
   2  -5   2   15.95    6.57
  -1   5  -2  193.55   13.29
  -1   5  -2  215.14   18.12
   1  -5   2  268.48   19.56
   0   5  -2  286.20   17.90
   0   5  -2  243.25   18.08
   0  -5   2  316.07   20.88
   1   5  -2   49.26    7.93
   1   5  -2   51.43    9.58
  -1  -5   2  111.14   13.97
   2   5  -2   32.40   11.45
   2   5  -2   63.78   13.73
  -2  -5   2   64.84   10.82
   3   5  -2    5.88    5.36
   3   5  -2    6.18    6.02
  -3  -5   2    9.12    5.13
   4   5  -2    0.50    1.93
   4   5  -2    1.72    4.21
  -4  -5   2    2.43    2.35
  -8   5  -3    1.56    2.55
   8  -5   3    2.37    3.70
   8  -5   3    0.41    1.73
  -7   5  -3   16.35    6.77
   7  -5   3   14.66    5.76
   7  -5   3   11.05    3.22
  -6   5  -3    5.23    6.59
   6  -5   3    6.99    5.42
   6  -5   3    5.68    3.30
  -5   5  -3  112.66   17.10
   5  -5   3  140.64   18.34
   5  -5   3  105.27   11.52
  -4   5  -3   10.69    7.11
   4  -5   3   13.26    5.86
   4  -5   3   13.35    3.85
  -3   5  -3    6.86    5.93
   3  -5   3   -0.03    2.57
  -2   5  -3  501.30   33.10
   2  -5   3  927.33   48.54
  -1   5  -3   49.62    9.80
   1  -5   3  130.29   14.42
   0   5  -3    7.15    3.35
   0   5  -3    9.00    6.33
   0  -5   3   10.14    5.33
   1   5  -3   19.41    4.50
   1   5  -3   14.49    5.59
  -1  -5   3   39.23    7.41
   2   5  -3    6.99    3.66
   2   5  -3    6.10    5.02
  -2  -5   3   14.43    5.63
   3   5  -3   28.05    7.09
   3   5  -3   19.65    6.57
  -3  -5   3   49.64    7.66
   4   5  -3   14.70    5.54
   4   5  -3   22.14    9.23
  -4  -5   3   34.24    7.88
  -7   5  -4   14.26    6.86
   7  -5   4    0.19    2.00
   7  -5   4   12.64    4.02
  -6   5  -4  203.99   25.72
   6  -5   4  141.46   20.11
   6  -5   4  167.91   17.85
  -5   5  -4   68.18   14.82
   5  -5   4   63.95   13.12
   5  -5   4   57.63    9.36
  -4   5  -4   22.16   12.08
   4  -5   4   17.45    7.04
  -3   5  -4    0.13    5.01
   3  -5   4    0.01    2.66
   3  -5   4   -0.24    2.27
  -2   5  -4  128.59   16.65
   2  -5   4  157.32   16.71
  -1   5  -4  261.45   22.72
   1  -5   4  392.76   27.15
   0   5  -4    0.96    3.77
   0  -5   4   12.12    4.67
   1   5  -4   16.11    6.51
   1   5  -4   15.09    6.62
  -1  -5   4   26.77   10.44
   2   5  -4   72.97    9.39
   2   5  -4   57.53    9.97
  -2  -5   4  136.02   14.37
   3   5  -4   71.08   10.89
   3   5  -4   90.94   14.03
  -3  -5   4  130.41   15.39
   4   5  -4   27.02    6.10
   4   5  -4   20.96    7.26
  -4  -5   4   41.08    6.17
  -7   5  -5    0.19    2.92
   7  -5   5    8.14    4.91
   7  -5   5   -0.01    1.55
  -6   5  -5    1.01    4.30
   6  -5   5    0.68    2.26
   6  -5   5   -0.08    1.45
  -5   5  -5   10.70    9.66
   5  -5   5    8.85    5.07
  -4   5  -5   57.26   14.29
   4  -5   5   64.16   14.26
   4  -5   5   57.62    9.60
  -3   5  -5    0.77    4.89
   3  -5   5    0.48    2.04
   3  -5   5    9.40    5.79
  -2   5  -5  158.80   22.89
   2  -5   5  140.59   19.73
   2  -5   5  151.99   17.39
  -1   5  -5   -0.50    4.23
   1  -5   5    4.35    5.65
   1  -5   5    4.95    5.28
   0   5  -5   15.11    9.32
   0  -5   5   36.66   14.19
   1   5  -5  107.78   15.81
   1   5  -5   61.77   12.47
  -1  -5   5  128.68   20.07
   2   5  -5   22.54    4.51
   2   5  -5   22.13   11.03
   3   5  -5    8.76    3.32
   3   5  -5    9.14    5.13
  -3  -5   5   17.72    4.40
   4   5  -5    5.70    2.91
   4   5  -5    4.46    5.41
  -4  -5   5   10.93    3.22
  -6   5  -6    3.76    4.93
   6  -5   6    0.54    2.47
   6  -5   6   -0.28    1.90
  -5   5  -6    9.14    7.94
   5  -5   6    4.87    4.33
   5  -5   6    7.85    3.39
  -4   5  -6    5.27    8.58
   4  -5   6    0.97    2.76
   4  -5   6    3.17    3.78
  -3   5  -6   46.62   14.91
   3  -5   6  110.73   15.88
   3  -5   6   36.80    6.33
  -2   5  -6   24.92   12.55
   2  -5   6   44.28   16.22
   2  -5   6   24.81    8.80
  -1   5  -6 1178.79 1549.15
   1  -5   6  943.22  119.78
   1  -5   6 1083.58 1423.71
   0   5  -6   31.92   13.16
   0  -5   6   28.13   10.59
   0  -5   6   40.30   13.58
   1   5  -6    2.05    4.22
  -1  -5   6    1.75    2.62
  -1  -5   6    0.22    2.57
   2   5  -6    8.55    4.93
   2   5  -6    6.70    7.35
  -2  -5   6   13.23    7.65
   3   5  -6   47.16    9.94
   3   5  -6   33.95   10.68
   4   5  -6    6.26    3.02
   4   5  -6    0.18    3.24
  -4  -5   6    0.03    0.82
  -6   5  -7    2.06    5.88
   6  -5   7    0.78    2.54
   6  -5   7   -0.27    1.86
  -5   5  -7   -0.67    5.43
   5  -5   7    0.47    2.53
   5  -5   7    0.41    2.20
  -4   5  -7    7.64    8.27
   4  -5   7    0.38    2.38
   4  -5   7   -0.35    1.91
  -3   5  -7    7.10    7.31
   3  -5   7   10.30    7.21
   3  -5   7   10.02    6.46
  -2   5  -7    2.00    6.90
   2  -5   7    1.20    2.21
   2  -5   7   -0.08    2.02
  -1   5  -7   10.45    8.87
   1  -5   7   13.16    7.69
   1  -5   7   12.23    6.17
   0   5  -7   72.89   14.80
   0  -5   7   48.57    9.70
   0  -5   7   81.43   12.12
   1   5  -7  247.85   30.30
  -1  -5   7  393.16   41.19
  -1  -5   7  434.63   43.75
   2   5  -7   21.81    4.33
   2   5  -7   27.29   10.24
  -2  -5   7   22.04    5.91
  -2  -5   7   38.69   10.08
   3   5  -7    6.81    2.86
   3   5  -7    6.14    6.08
  -3  -5   7    6.90    3.54
  -3  -5   7   11.36    5.78
   4   5  -7    4.63    3.71
   4   5  -7    4.07    6.42
  -4  -5   7    0.33    0.91
  -4  -5   7    9.60    4.71
  -5   5  -8    0.46    4.85
   5  -5   8    0.83    2.72
   5  -5   8    1.21    3.03
  -4   5  -8   86.81   21.36
   4  -5   8   31.06   10.42
   4  -5   8   55.67   11.45
  -3   5  -8   33.64   13.30
   3  -5   8   21.72    9.10
   3  -5   8   23.57    6.51
  -2   5  -8    8.96    8.91
   2  -5   8    8.80    4.79
   2  -5   8    9.14    4.05
  -1   5  -8  331.11   39.78
   1  -5   8  365.04   42.17
   1  -5   8  353.24   36.79
   0   5  -8    0.57    4.25
   0  -5   8    0.77    3.02
   0  -5   8   -0.01    2.15
   1   5  -8    5.91    5.83
  -1  -5   8   10.69    5.44
  -1  -5   8    7.05    4.34
   2   5  -8    0.83    3.93
  -2  -5   8    1.09    2.78
  -2  -5   8    0.66    2.60
   3   5  -8   24.14    4.86
   3   5  -8   30.01   10.41
  -3  -5   8   30.53    6.20
  -3  -5   8   52.84    8.91
  -3   5  -9   18.39    9.67
   3  -5   9   13.28    7.42
   3  -5   9   -0.01    1.64
  -2   5  -9   21.35   10.69
   2  -5   9   18.77    7.91
   2  -5   9    1.63    2.63
  -1   5  -9    7.23    6.54
   1  -5   9   11.50    6.64
   1  -5   9    9.17    4.38
   0   5  -9   16.34   11.04
   0  -5   9   14.10    5.57
   0  -5   9    1.49    2.88
   1   5  -9    4.70    7.68
  -1  -5   9    5.26    3.82
  -1  -5   9    0.50    2.07
   2   5  -9    3.76    7.01
  -2  -5   9    1.21    2.38
  -2  -5   9    1.58    3.11
  -6   6   6    6.70    6.68
  -6   6   6   19.43    5.69
   6  -6  -6    1.25    1.87
  -5   6   6   26.15    6.74
  -5   6   6   26.60    8.27
   5  -6  -6   15.40    4.92
  -4   6   6    0.50    1.53
  -4   6   6    0.37    1.98
   4  -6  -6   -0.49    2.79
   4  -6  -6    0.30    0.97
  -3   6   6   13.14    4.69
  -3   6   6    8.53    4.50
   3  -6  -6   16.33    9.86
   3  -6  -6   15.01    4.90
  -2   6   6   40.01    9.78
  -2   6   6   24.12    7.38
   2  -6  -6   62.59   17.25
   2  -6  -6   54.87   11.92
  -7   6   5    0.51    0.92
  -7   6   5    0.13    0.64
   7  -6  -5    0.05    0.57
  -6   6   5    1.61    3.88
  -6   6   5    1.56    2.56
   6  -6  -5    0.64    1.33
  -5   6   5   33.02    9.22
  -5   6   5   86.38   17.80
   5  -6  -5   66.51   13.44
  -4   6   5   66.64   15.03
  -4   6   5    8.26    5.56
   4  -6  -5   13.41    8.19
   4  -6  -5   14.36    3.86
  -3   6   5    0.15    3.13
  -3   6   5    1.54    3.21
   3  -6  -5   -0.15    3.24
   3  -6  -5    1.21    1.51
  -2   6   5    0.08    3.21
  -2   6   5    3.26    4.38
   2  -6  -5    4.45    5.19
   2  -6  -5    6.29    3.85
  -1   6   5    0.39    1.21
  -1   6   5    2.70    4.75
   1  -6  -5    1.17    4.20
   1  -6  -5    0.52    1.67
   0   6   5   93.65   11.38
   0   6   5  118.13   12.21
   0  -6  -5  146.61   20.38
   0  -6  -5  136.51   13.02
  -8   6   4    0.82    1.23
  -8   6   4    2.60    2.37
   8  -6  -4    4.09    3.09
   8  -6  -4    0.62    1.25
  -7   6   4   26.22    7.10
  -7   6   4    0.09    1.13
   7  -6  -4    7.46    2.70
  -6   6   4   22.89    7.55
  -6   6   4   23.28    6.90
   6  -6  -4   12.98    3.45
  -5   6   4   38.10    8.96
  -5   6   4   41.23    8.92
   5  -6  -4   23.19    4.98
  -4   6   4   26.50    8.01
  -4   6   4   39.87    8.99
   4  -6  -4   54.66    8.17
  -3   6   4    3.36    5.59
  -3   6   4    3.70    4.96
   3  -6  -4    6.71    8.10
   3  -6  -4    6.68    4.11
  -2   6   4    0.07    3.25
  -2   6   4    1.58    4.40
   2  -6  -4    0.19    3.82
   2  -6  -4    0.83    1.84
  -1   6   4   14.33    6.01
  -1   6   4   32.28    8.93
   1  -6  -4   69.66   18.23
   1  -6  -4   57.63   11.96
   0   6   4    1.17    3.63
   0   6   4    4.17    4.86
   0  -6  -4    7.09    7.82
   0  -6  -4    4.12    2.54
   1   6   4   29.59    6.50
   1   6   4   38.71    7.64
  -1  -6  -4   54.45   15.10
  -1  -6  -4   44.56    7.75
  -8   6   3    3.60    3.02
  -8   6   3    4.97    3.02
   8  -6  -3    0.83    1.43
   8  -6  -3    4.80    2.69
  -7   6   3   19.81    6.37
  -7   6   3   10.42    6.20
   7  -6  -3   48.19    9.91
  -6   6   3   27.72    7.11
  -6   6   3   16.05    4.64
   6  -6  -3   17.37    3.75
  -5   6   3  255.65   31.03
  -5   6   3  167.63   21.33
   5  -6  -3  382.57   41.98
  -4   6   3   65.88   10.87
  -4   6   3   72.08   11.29
   4  -6  -3  117.78   12.21
  -3   6   3   29.90    8.26
  -3   6   3   31.21    7.40
   3  -6  -3   70.81   14.22
   3  -6  -3   58.55    7.92
  -2   6   3   41.08    9.58
  -2   6   3   57.76   10.50
   2  -6  -3  114.14   19.85
   2  -6  -3   97.85   13.42
  -1   6   3  111.05   16.92
  -1   6   3  156.48   18.94
   1  -6  -3  274.44   36.13
   1  -6  -3  282.54   32.65
   0   6   3    7.39    5.65
   0   6   3    5.65    3.93
   0  -6  -3   18.91   10.98
   0  -6  -3   12.89    4.04
   1   6   3   -1.29    3.70
   1   6   3   -0.08    2.57
  -1  -6  -3    0.34    4.87
  -1  -6  -3   -0.05    1.13
   2   6   3    2.76    3.02
   2   6   3    0.04    2.37
  -2  -6  -3    2.19    6.45
  -2  -6  -3    3.03    2.91
  -8   6   2  134.73   23.38
  -8   6   2   96.15   17.82
   8  -6  -2   39.62    7.89
  -7   6   2   25.18    6.77
  -7   6   2   18.77    8.48
   7  -6  -2   11.73    3.14
   7  -6  -2    6.70    5.35
  -6   6   2  117.90   16.21
  -6   6   2   65.52   12.86
   6  -6  -2  106.52   13.47
  -5   6   2    7.29    4.40
  -5   6   2    4.42    4.25
   5  -6  -2    6.25    3.35
  -4   6   2   17.14    7.02
  -4   6   2   12.49    6.78
   4  -6  -2   28.24    9.47
  -3   6   2   79.11   13.62
  -3   6   2   67.93   12.24
   3  -6  -2  136.87   19.34
  -2   6   2    4.13    4.65
   2  -6  -2    7.86    9.08
   2  -6  -2    7.48    3.70
  -1   6   2   -0.89    3.67
  -1   6   2    2.02    3.25
   1  -6  -2    0.07    3.89
   1  -6  -2    1.71    2.33
   0   6   2    1.77    9.95
   0   6   2    2.95    4.07
   0  -6  -2    4.02    7.35
   0  -6  -2    6.67    3.99
   1   6   2   81.37   18.17
   1   6   2   75.20   15.33
  -1  -6  -2  147.89   30.34
  -1  -6  -2  139.78   25.13
   2   6   2   24.70    8.27
   2   6   2   50.42   11.99
  -2  -6  -2  109.89   25.24
  -2  -6  -2   81.25   15.70
  -8   6   1   63.12    8.64
  -8   6   1   84.11   10.94
   8  -6  -1   19.48    4.39
   8  -6  -1   49.40    6.23
  -7   6   1   21.37    5.66
  -7   6   1   14.85    5.60
   7  -6  -1   13.95    3.96
   7  -6  -1   17.03    4.90
  -6   6   1    2.65    2.73
  -6   6   1    0.25    3.81
   6  -6  -1    2.11    2.23
  -5   6   1    0.68    1.44
  -5   6   1   29.91   12.65
   5  -6  -1    7.51    3.88
  -4   6   1   25.73    9.68
  -4   6   1   17.25    8.41
   4  -6  -1   35.83   12.81
  -3   6   1   16.70    6.98
   3  -6  -1   28.90   10.70
  -2   6   1    0.37    2.00
  -2   6   1   -0.20    2.60
   2  -6  -1    0.49    1.33
  -1   6   1   84.43   14.87
  -1   6   1   82.33   14.72
   1  -6  -1  158.80   26.14
   1  -6  -1  178.28   25.03
   0   6   1  370.94   34.37
   0   6   1  340.73   29.93
   0  -6  -1  776.73   65.27
   0  -6  -1  852.57   28.37
   1   6   1    4.84    5.50
   1   6   1   16.85   10.46
  -1  -6  -1   10.63   10.47
  -1  -6  -1   20.65    5.56
   2   6   1    8.90    6.50
   2   6   1   18.58    6.80
  -2  -6  -1   36.68   14.10
  -2  -6  -1   30.63    7.73
   3   6   1    0.49    3.07
   3   6   1    5.25    5.07
  -3  -6  -1   12.60    9.87
  -3  -6  -1    7.28    3.12
  -8   6   0   31.19    6.88
   8  -6   0   35.25    6.97
   8  -6   0   43.65    6.42
  -7   6   0  161.57   21.53
   7  -6   0  152.50   19.25
   7  -6   0  163.85   18.72
  -6   6   0  300.66   34.01
  -6   6   0  259.01   33.78
   6  -6   0  254.41   29.92
   6  -6   0  331.83   36.63
  -5   6   0    0.20    1.04
  -5   6   0   27.52   13.09
   5  -6   0    0.57    1.82
  -4   6   0   76.70    9.44
  -4   6   0   78.37   12.08
   4  -6   0   86.55   10.82
  -3   6   0   47.60    7.36
  -3   6   0   32.96    7.12
   3  -6   0   91.21   12.04
  -2   6   0    1.95    2.75
  -2   6   0    1.44    3.96
   2  -6   0    5.56    5.78
  -1   6   0   87.94   11.79
  -1   6   0  105.68   14.97
   1  -6   0  164.68   17.88
   0   6   0    0.47    2.55
   0   6   0    0.16    3.77
   0  -6   0    0.38    1.62
   1   6   0    3.25   56.52
   1   6   0   29.72    8.12
  -1  -6   0   66.65   15.94
  -1  -6   0   59.62    9.91
   2   6   0    6.92    5.65
   2   6   0    8.10    5.42
  -2  -6   0   22.50   14.91
  -2  -6   0   19.32    4.68
   3   6   0    0.43    3.39
   3   6   0    1.05    3.20
  -3  -6   0    2.21    7.06
  -3  -6   0    0.08    0.97
  -8   6  -1    0.69    2.33
   8  -6   1    1.86    2.64
   8  -6   1    0.98    2.35
  -7   6  -1  141.61   20.31
   7  -6   1  156.72   20.54
   7  -6   1  148.83   17.23
  -6   6  -1    0.31    4.65
   6  -6   1    1.98    2.79
   6  -6   1    0.59    2.23
  -5   6  -1   13.68   10.03
   5  -6   1   33.00   12.62
  -4   6  -1   68.22    8.48
  -4   6  -1  104.18   17.22
   4  -6   1   86.22   11.65
  -3   6  -1    1.12    1.82
  -3   6  -1    1.28    4.45
   3  -6   1    7.86    3.28
  -2   6  -1   -0.01    0.99
  -2   6  -1    4.25    5.21
   2  -6   1    6.43    6.29
  -1   6  -1    1.70    2.27
  -1   6  -1    0.77    3.39
   1  -6   1    2.71    3.08
   0   6  -1  536.25   68.77
   0   6  -1  739.19   94.21
   0  -6   1 1314.59 1727.30
   1   6  -1   33.07    7.82
   1   6  -1   39.04    9.50
  -1  -6   1   79.40   12.07
   2   6  -1   32.62    8.87
   2   6  -1   37.09    9.68
  -2  -6   1   68.12   10.40
   3   6  -1    0.29    3.51
   3   6  -1    3.21    5.70
  -3  -6   1    1.67    2.25
  -8   6  -2    6.19    4.58
   8  -6   2    3.70    3.48
   8  -6   2    6.58    3.68
  -7   6  -2  137.71   26.54
   7  -6   2  139.37   26.60
   7  -6   2  157.41   26.88
  -6   6  -2  110.71   18.82
   6  -6   2  127.59   19.13
   6  -6   2  104.62   13.93
  -5   6  -2   54.74   14.64
   5  -6   2   38.08   13.49
   5  -6   2   44.54   14.78
  -4   6  -2   10.37    9.49
   4  -6   2   16.60    7.48
  -3   6  -2    0.21    3.80
   3  -6   2    1.55    2.52
  -2   6  -2   78.11   10.14
  -2   6  -2  132.80   18.40
  -1   6  -2  100.51   11.62
  -1   6  -2   90.18   13.91
   1  -6   2  140.82   16.83
   0   6  -2  298.45   39.39
   0   6  -2  361.86   48.65
   0  -6   2  579.97   74.33
   1   6  -2   76.13   10.72
   1   6  -2   62.60   10.88
  -1  -6   2  175.56   18.04
   2   6  -2    3.26    3.23
   2   6  -2   -0.13    3.39
  -2  -6   2    0.14    1.33
   3   6  -2    0.67    4.16
   3   6  -2   -0.48    3.34
  -3  -6   2    0.79    1.92
  -8   6  -3   23.85    6.95
   8  -6   3   25.49    7.83
   8  -6   3   17.15    3.98
  -7   6  -3   32.23   10.44
   7  -6   3   47.62   12.94
   7  -6   3   32.89    7.66
  -6   6  -3   -1.32    4.84
   6  -6   3    1.76    3.95
   6  -6   3    1.32    3.64
  -5   6  -3   54.56   14.00
   5  -6   3   38.80    9.41
   5  -6   3   49.23    7.93
  -4   6  -3   60.26   15.04
   4  -6   3   59.75   10.96
   4  -6   3   68.67    9.76
  -3   6  -3    4.64    5.70
   3  -6   3    9.52    5.92
  -2   6  -3    4.23    6.06
   2  -6   3   -3.08    3.00
  -1   6  -3   36.30   13.07
  -1   6  -3   49.53   10.56
   1  -6   3   60.96   11.08
   0   6  -3   32.59   10.92
   0   6  -3   31.71   12.55
   0  -6   3   48.94   64.79
   1   6  -3    0.34    1.10
   1   6  -3    1.28    5.04
  -1  -6   3    0.23    1.64
   2   6  -3   13.83    4.56
   2   6  -3   10.04    5.94
  -2  -6   3   30.73    6.60
   3   6  -3   66.54   10.74
   3   6  -3   57.69   10.77
  -3  -6   3  127.03   13.15
  -7   6  -4    0.66    3.62
   7  -6   4    0.18    1.70
   7  -6   4    0.13    1.67
  -6   6  -4   90.45   18.43
   6  -6   4   78.09   14.48
   6  -6   4   83.18   11.36
  -5   6  -4   26.33   12.30
   5  -6   4   21.03   10.99
   5  -6   4   22.01   10.05
  -4   6  -4    1.82    6.59
   4  -6   4    1.75    4.84
   4  -6   4    0.91    3.78
  -3   6  -4   18.15   13.15
   3  -6   4   27.32   11.63
   3  -6   4   29.26   11.59
  -2   6  -4   20.80   11.60
   2  -6   4   60.14   11.15
  -1   6  -4   96.50   15.52
   1  -6   4  186.67   21.87
   0   6  -4  148.99   20.85
   0   6  -4  145.73   23.06
   0  -6   4  256.01   35.79
   1   6  -4   80.41   11.51
   1   6  -4   79.13   13.61
  -1  -6   4  198.18   24.93
   2   6  -4    2.23    2.16
   2   6  -4    0.19    2.97
  -2  -6   4    5.18    3.61
   3   6  -4   16.83    5.28
   3   6  -4   14.26    7.33
  -3  -6   4   34.30    6.54
  -7   6  -5   -0.07    3.37
   7  -6   5    0.15    1.36
   7  -6   5    1.00    3.04
  -6   6  -5    3.70    7.78
   6  -6   5    1.61    3.06
   6  -6   5    0.46    2.57
   5  -6   5   15.75    9.81
   5  -6   5   16.75    9.33
  -4   6  -5   11.83   11.50
   4  -6   5    9.23    6.88
   4  -6   5   -0.21    2.66
  -3   6  -5   11.82   10.76
   3  -6   5   11.15    7.68
   3  -6   5   11.15    6.46
  -2   6  -5   32.66   14.18
   2  -6   5   37.44   14.07
   2  -6   5   42.67   14.43
  -1   6  -5  211.76   25.45
   1  -6   5  379.79   35.28
   0   6  -5   54.25    7.59
   0   6  -5   33.20    9.09
   0  -6   5   83.31   12.60
   1   6  -5   15.94    8.37
   1   6  -5   13.54   10.04
  -1  -6   5   25.21    6.53
   2   6  -5   28.41    7.01
   2   6  -5   19.26    7.85
  -2  -6   5   55.01   11.80
   3   6  -5   23.43    6.60
   3   6  -5   15.06    7.24
  -6   6  -6   -0.16    4.51
   6  -6   6    0.12    1.99
   6  -6   6    1.99    3.20
  -5   6  -6   40.24   14.31
   5  -6   6   40.79   11.23
   5  -6   6   45.88   10.78
  -4   6  -6    1.62    7.32
   4  -6   6    2.40    3.16
  -3   6  -6   35.73   13.71
   3  -6   6   32.47    9.46
   3  -6   6   27.36    7.72
  -2   6  -6  325.51   42.28
   2  -6   6  263.89   34.19
   2  -6   6  355.50   40.13
  -1   6  -6    5.48    7.61
   1  -6   6    6.52    5.23
   1  -6   6    9.84    6.94
   0   6  -6    3.79    7.19
   0  -6   6    7.31    5.98
   1   6  -6   31.10    5.97
   1   6  -6   17.04    8.25
  -1  -6   6  149.66   20.45
   2   6  -6   32.88    7.79
   2   6  -6   21.75   10.42
  -2  -6   6   39.68   10.00
   3   6  -6    0.36    0.91
   3   6  -6    0.08    3.62
  -3  -6   6    0.31    1.19
  -5   6  -7   63.09   18.12
   5  -6   7   55.26   14.15
   5  -6   7    1.42    3.43
  -4   6  -7   17.33   13.44
   4  -6   7   10.22    6.09
   4  -6   7    1.55    3.62
  -3   6  -7   20.62   12.29
   3  -6   7   19.53    7.07
   3  -6   7   21.88    6.16
  -2   6  -7    5.98    7.85
   2  -6   7    5.25    5.74
   2  -6   7   -0.63    2.65
  -1   6  -7   23.96    9.31
   1  -6   7   26.17    8.15
   1  -6   7   35.85    8.58
   0   6  -7  222.05   30.42
   0  -6   7  266.49   31.99
   0  -6   7  311.42   34.79
   1   6  -7   14.66    7.95
  -1  -6   7   15.71    5.97
  -1  -6   7   23.24    7.78
   2   6  -7    0.36    1.04
   2   6  -7    0.47    4.07
  -2  -6   7    0.65    2.37
  -2  -6   7   -0.66    3.99
  -4   6  -8    4.11    8.75
   4  -6   8    0.53    2.22
   4  -6   8    0.02    2.09
  -3   6  -8    0.93    6.57
   3  -6   8    0.38    2.31
   3  -6   8    0.74    3.08
  -2   6  -8   41.62   13.63
   2  -6   8   49.45   10.70
   2  -6   8   51.84    8.40
  -1   6  -8   29.07   12.11
   1  -6   8   21.73    7.64
   1  -6   8   33.34    8.88
   0   6  -8    2.92    6.14
   0  -6   8    5.02    4.31
   0  -6   8    0.54    4.09
   1   6  -8   27.63   11.34
  -1  -6   8   26.11    7.78
  -1  -6   8   47.72   11.95
   2   6  -8    7.72    3.03
   2   6  -8   10.50    8.74
  -2  -6   8   10.95    5.35
  -2  -6   8    9.05    5.93
  -2   6  -9    0.56    5.42
   2  -6   9    0.40    2.04
   2  -6   9    0.70    1.87
  -1   6  -9   10.31    7.24
   1  -6   9   11.76    6.08
   1  -6   9    0.18    2.16
   0   6  -9   26.70   11.94
   0  -6   9   23.60    7.36
   0  -6   9    3.26    5.59
  -5   7   5   32.94    8.57
  -5   7   5   80.23   11.49
   5  -7  -5   48.33    7.12
  -4   7   5   16.71    8.25
  -4   7   5   33.10    9.62
   4  -7  -5   49.74   10.86
  -3   7   5    5.76    7.59
  -3   7   5   11.90    6.12
   3  -7  -5   28.39   12.80
   3  -7  -5    9.27    3.28
  -7   7   4   39.66   10.32
  -7   7   4   41.36    8.02
   7  -7  -4   12.10    4.10
  -6   7   4    9.50    7.52
  -6   7   4    7.58    4.81
   6  -7  -4    3.78    2.69
  -5   7   4    7.71    5.82
  -5   7   4    5.63    5.37
   5  -7  -4   13.20    3.88
  -4   7   4    4.63    5.32
  -4   7   4    6.76    5.74
   4  -7  -4   12.36    3.70
  -3   7   4   22.60    7.92
  -3   7   4   27.20    8.09
   3  -7  -4   63.48   16.38
   3  -7  -4   52.34    7.90
  -2   7   4   -0.31    3.35
  -2   7   4    9.84    5.43
   2  -7  -4   -0.94    4.48
   2  -7  -4   11.36    4.37
  -1   7   4    3.18    6.02
  -1   7   4    7.59    8.73
   1  -7  -4   16.76   11.67
   1  -7  -4   15.78    4.97
  -7   7   3  121.05   13.86
  -7   7   3   47.33   11.38
   7  -7  -3  100.56    9.66
  -6   7   3   65.55   11.59
  -6   7   3   43.37    7.99
   6  -7  -3   36.22    6.16
  -5   7   3   78.67   16.77
  -5   7   3   53.23   12.51
   5  -7  -3  125.89   22.44
  -4   7   3    0.84    3.73
  -4   7   3    0.18    2.98
   4  -7  -3    0.48    1.12
  -3   7   3    1.05    4.07
  -3   7   3    0.70    3.18
   3  -7  -3    2.64    2.41
   2  -7  -3    9.70    9.46
   2  -7  -3   11.19    5.79
  -1   7   3    2.30    5.60
  -1   7   3    2.73    4.52
   1  -7  -3    7.90    8.86
   1  -7  -3    6.02    3.43
   0   7   3    5.58    5.95
   0   7   3    4.72    4.57
   0  -7  -3    7.91    9.42
   0  -7  -3    8.04    4.38
  -8   7   2   43.70    8.55
  -8   7   2   39.81    8.54
   8  -7  -2    7.41    3.05
   8  -7  -2   35.57    6.83
  -7   7   2   50.26    8.81
  -7   7   2   23.61    6.93
   7  -7  -2   12.02    3.69
  -6   7   2   13.49    5.26
  -6   7   2    6.56    4.64
   6  -7  -2    5.76    2.54
  -5   7   2   53.29   10.16
  -5   7   2   31.74    7.55
   5  -7  -2   67.01    9.76
  -4   7   2   46.15    9.28
  -4   7   2   32.67    8.47
   4  -7  -2   75.47   10.54
  -3   7   2    5.08    4.55
  -3   7   2    6.69    7.10
   3  -7  -2   10.68    6.25
  -2   7   2    0.86    3.66
  -2   7   2   -0.61    3.34
   2  -7  -2   -0.07    1.16
  -1   7   2  123.76   24.75
  -1   7   2  147.26   27.52
   1  -7  -2  330.15   59.75
   1  -7  -2  321.10   54.37
   0   7   2    4.43    6.56
   0   7   2    6.95    5.94
   0  -7  -2   19.73   13.47
   0  -7  -2   14.12    4.69
   1   7   2   19.51    8.65
   1   7   2    2.62    4.14
  -1  -7  -2    8.72   11.86
  -1  -7  -2    8.20    8.56
  -8   7   1   61.92    8.35
  -8   7   1   33.55    7.50
   8  -7  -1   14.56    3.91
   8  -7  -1   37.14    6.33
  -7   7   1   63.91    9.23
  -7   7   1   39.62    9.72
   7  -7  -1   26.26    5.28
   7  -7  -1   64.76    9.17
  -6   7   1    2.64    2.35
  -6   7   1    0.13    3.06
   6  -7  -1    1.13    1.53
  -5   7   1    6.59    4.45
  -5   7   1   51.20    9.34
   5  -7  -1    7.31    4.41
  -4   7   1   40.47    7.73
  -4   7   1   24.69    7.04
   4  -7  -1   71.92   10.72
  -3   7   1   15.72    7.71
  -3   7   1   12.70    8.28
   3  -7  -1   30.55    6.43
  -2   7   1  186.64   24.61
  -2   7   1  142.00   20.08
   2  -7  -1  332.70   38.13
  -1   7   1   35.57    9.71
  -1   7   1   36.69    9.70
   1  -7  -1   75.70   11.90
   0   7   1   30.40   10.87
   0   7   1    0.12    3.49
   0  -7  -1    3.51    3.62
   1   7   1    3.23    5.63
   1   7   1    5.44    5.68
  -1  -7  -1    9.24   10.46
  -1  -7  -1    8.13    4.07
  -8   7   0    0.41    1.36
  -8   7   0    0.39    2.41
   8  -7   0    0.17    1.07
   8  -7   0    0.14    1.70
  -7   7   0  133.16   25.29
  -7   7   0  123.63   25.82
   7  -7   0   67.38   14.36
   7  -7   0  131.13   24.81
  -6   7   0   11.19    3.70
  -6   7   0    8.82    7.45
   6  -7   0    8.38    3.34
  -5   7   0    2.69    2.47
  -5   7   0    1.44    5.37
   5  -7   0    2.61    2.64
  -4   7   0  195.86   18.14
  -4   7   0  162.49   17.86
   4  -7   0  419.54   34.65
  -3   7   0    0.91    1.54
  -3   7   0    1.38    4.35
   3  -7   0    6.60    4.48
  -2   7   0   73.58   11.58
  -2   7   0   63.65   12.77
   2  -7   0  167.28   21.39
  -1   7   0   86.15   13.32
  -1   7   0   83.12   14.56
   1  -7   0  189.59   22.54
   0   7   0    1.35    4.46
   0   7   0    1.77    3.79
   0  -7   0    3.62    3.20
   1   7   0   31.60    8.27
   1   7   0   39.18   10.13
  -1  -7   0   85.63   11.62
   2   7   0   20.60    8.35
   2   7   0   37.03   10.68
  -2  -7   0   55.50   10.11
  -8   7  -1    4.35    6.79
   8  -7   1    0.87    1.66
   8  -7   1    1.06    3.28
  -7   7  -1    1.39    3.85
   7  -7   1    1.83    3.06
   7  -7   1    0.13    2.45
  -6   7  -1    4.86    2.88
  -6   7  -1    5.03    7.53
   6  -7   1    3.46    3.04
   6  -7   1    5.01    4.60
  -5   7  -1   60.80    9.06
  -5   7  -1   57.92   14.67
   5  -7   1   72.64   12.42
  -4   7  -1    0.22    0.85
  -4   7  -1   -0.15    3.26
   4  -7   1    0.56    2.10
  -3   7  -1   17.52    3.92
  -3   7  -1   16.67    7.09
   3  -7   1   25.04    6.25
  -2   7  -1    6.73    3.84
  -2   7  -1    6.05    5.48
  -1   7  -1   92.59   13.56
  -1   7  -1   87.62   15.76
   1  -7   1  230.46   28.37
   0   7  -1   39.02    8.77
   0   7  -1   33.33    9.96
   0  -7   1   84.88   13.04
   1   7  -1    0.68    3.78
   1   7  -1    2.24    5.15
  -1  -7   1    5.71    4.18
   2   7  -1    0.01    3.70
   2   7  -1    1.06    5.10
  -2  -7   1    1.15    2.05
  -8   7  -2    3.08    5.83
   8  -7   2    0.73    1.87
   8  -7   2    0.24    1.77
  -7   7  -2    8.97    6.81
   7  -7   2    9.63    5.24
   7  -7   2   12.82    5.66
  -6   7  -2  156.69   25.47
   6  -7   2  142.63   19.92
   6  -7   2  142.09   18.85
  -5   7  -2   43.49   16.08
   5  -7   2    7.08    5.47
  -4   7  -2   64.18    8.10
  -4   7  -2   51.28   11.78
   4  -7   2   97.68   13.47
  -3   7  -2   18.57    3.96
  -3   7  -2   23.17    8.63
   3  -7   2   37.66    7.77
  -2   7  -2  253.95   22.03
  -2   7  -2  235.23   24.48
   2  -7   2  404.48   35.58
  -1   7  -2   -0.04    0.85
  -1   7  -2    0.99    3.96
   1  -7   2    1.73    2.76
   0   7  -2  186.11   21.70
   0   7  -2  165.45   22.19
   0  -7   2  504.98   25.12
   1   7  -2  114.25   22.13
   1   7  -2   90.99   20.65
  -1  -7   2  244.49   17.71
   2   7  -2    2.27    3.82
   2   7  -2    3.83    6.56
  -2  -7   2    5.74    3.48
  -7   7  -3   46.02   14.75
   7  -7   3   42.27   11.53
   7  -7   3   40.14    9.23
  -6   7  -3   94.52   22.30
   6  -7   3   62.96   15.66
   6  -7   3   92.94   18.32
  -5   7  -3  114.35   22.00
   5  -7   3   87.02   14.92
   5  -7   3  120.11   16.11
  -4   7  -3   52.59   16.14
   4  -7   3   78.69   14.01
  -3   7  -3   21.08    4.54
  -3   7  -3   16.54    9.70
   3  -7   3   34.15    8.29
  -2   7  -3    7.41    4.01
  -2   7  -3    8.02    8.09
   2  -7   3   12.79    7.18
  -1   7  -3   88.34   12.09
  -1   7  -3   98.76   16.85
   1  -7   3  142.16   20.19
   0   7  -3    2.49    2.20
   0   7  -3    4.10    6.55
   0  -7   3    6.07    4.59
   1   7  -3    4.16    2.83
   1   7  -3    3.73    5.30
  -1  -7   3    0.05    1.40
   2   7  -3    4.29    3.27
   2   7  -3    6.57    6.95
  -2  -7   3   12.02    4.91
  -7   7  -4   50.53   15.14
   7  -7   4   57.77   15.31
   7  -7   4   -0.14    2.39
  -6   7  -4   49.59   16.60
   6  -7   4   40.81   11.86
   6  -7   4   50.18   12.36
  -5   7  -4   24.77   13.31
   5  -7   4   22.79    8.48
   5  -7   4   25.68    7.60
  -4   7  -4   79.82   20.68
   4  -7   4   75.33   14.19
   4  -7   4   92.53   14.35
  -3   7  -4  104.82   22.09
   3  -7   4  167.19   24.04
  -2   7  -4  111.06   14.70
  -2   7  -4   72.24   15.50
   2  -7   4  182.60   25.23
  -1   7  -4    1.57    1.97
  -1   7  -4   10.01    8.21
   1  -7   4    2.45    3.25
   0   7  -4  135.46   16.55
   0   7  -4  111.50   16.54
   0  -7   4  204.54   25.65
   1   7  -4    0.01    0.85
   1   7  -4    0.63    3.48
  -1  -7   4    0.52    2.13
   2   7  -4    1.37    2.34
   2   7  -4    2.41    5.25
  -2  -7   4    5.04    3.50
  -6   7  -5   19.34   11.86
   6  -7   5   16.60    7.30
   6  -7   5   17.99    6.74
  -5   7  -5   76.73   21.59
   5  -7   5   52.97   14.28
   5  -7   5   19.84    7.74
  -4   7  -5   67.63   18.07
   4  -7   5   51.63   12.02
   4  -7   5   64.40   11.80
  -3   7  -5  128.80   25.57
   3  -7   5  158.25   22.70
   3  -7   5  177.43   21.84
  -2   7  -5   52.15   15.40
   2  -7   5  111.34   17.82
  -1   7  -5   72.78   10.61
  -1   7  -5   65.94   14.78
   1  -7   5  131.91   19.93
   0   7  -5   20.03    4.32
   0   7  -5   20.14   11.06
   0  -7   5   40.42   10.44
   1   7  -5    0.11    0.82
   1   7  -5   -0.20    3.74
  -1  -7   5    0.70    1.87
   2   7  -5   21.24    5.20
   2   7  -5   17.25    7.66
  -2  -7   5   45.84    8.15
  -6   7  -6    2.11    6.01
   6  -7   6    4.24    5.22
   6  -7   6    3.68    5.30
  -5   7  -6    1.05    7.50
   5  -7   6    1.01    4.75
   5  -7   6   -0.38    3.03
  -4   7  -6  187.39   39.52
   4  -7   6  143.90   29.84
   4  -7   6  116.04   23.41
  -3   7  -6    3.82    9.79
   3  -7   6   18.24    7.81
   3  -7   6    0.47    3.53
  -2   7  -6   31.60   13.00
   2  -7   6   29.15    9.90
   2  -7   6   41.19   10.81
  -1   7  -6   48.69   15.54
   1  -7   6   80.05   17.76
   1  -7   6   18.58    8.48
   0   7  -6    2.77    2.35
   0   7  -6    4.72    7.51
   0  -7   6    3.57    5.15
   1   7  -6    5.17    2.68
   1   7  -6    0.14    4.23
  -1  -7   6    8.04    4.58
  -5   7  -7   10.11   10.93
   5  -7   7    9.08    5.98
   5  -7   7   -0.43    2.61
  -4   7  -7    3.92   10.57
   4  -7   7    1.67    3.30
   4  -7   7    0.18    3.04
  -3   7  -7   32.93   12.48
   3  -7   7   28.06    9.12
   3  -7   7   -0.57    3.32
  -2   7  -7   81.83   17.33
   2  -7   7    0.84    5.11
  -1   7  -7    8.90    6.69
   1  -7   7   14.63    6.17
   1  -7   7    0.64    3.55
   0   7  -7    7.69    8.71
   0  -7   7    9.11    5.19
   0  -7   7   -0.04    3.27
   1   7  -7    0.22    0.78
   1   7  -7    1.44    4.82
  -1  -7   7    3.94    4.93
  -1  -7   7    0.80    2.85
  -3   7  -8   48.20   13.99
   3  -7   8   45.92   11.25
   3  -7   8   -0.11    2.46
  -2   7  -8    5.27    9.55
   2  -7   8    6.86    8.14
   2  -7   8   -0.38    2.75
  -1   7  -8  111.71   18.02
   1  -7   8    0.51    3.06
   0  -7   8    0.25    1.78
   0  -7   8    0.00    2.83
  -6   8   3    4.27    7.99
  -6   8   3    1.39    3.46
   6  -8  -3    2.45    2.96
  -5   8   3    0.29    3.45
  -5   8   3    0.05    2.53
   5  -8  -3    0.99    1.97
  -4   8   3   12.16    7.67
  -4   8   3   13.16    7.87
   4  -8  -3   11.26    4.32
  -3   8   3    6.43    9.57
  -3   8   3    8.59    5.85
   3  -8  -3   14.90    4.67
  -6   8   2    5.30    4.77
  -6   8   2    1.02    2.32
   6  -8  -2    5.55    3.33
  -5   8   2   32.89    9.47
  -5   8   2   21.19    8.14
   5  -8  -2   27.88    7.11
  -4   8   2  109.54   14.75
  -4   8   2   85.03   12.86
   4  -8  -2  196.67   17.95
  -3   8   2   70.29   16.09
  -3   8   2   64.92   15.42
   3  -8  -2  139.52   25.16
  -2   8   2    2.45    5.67
  -2   8   2    3.97    5.93
   2  -8  -2    9.29    4.51
  -1   8   2    1.73    4.42
  -1   8   2    3.99    6.45
   1  -8  -2    8.37    4.34
  -7   8   1   14.46    4.84
  -7   8   1    6.60    8.84
   7  -8  -1    6.51    6.70
  -6   8   1    1.18    2.03
   6  -8  -1    0.63    1.56
  -5   8   1    3.10    2.99
  -5   8   1    3.04    5.10
   5  -8  -1    3.27    2.86
  -4   8   1    0.26    1.51
  -4   8   1    0.89    3.31
   4  -8  -1    0.43    1.75
  -3   8   1  192.17   36.11
  -3   8   1  160.20   32.90
   3  -8  -1  383.80   20.79
  -2   8   1    9.69    5.12
  -2   8   1    8.39    6.88
   2  -8  -1   21.85    6.01
  -1   8   1    9.84    7.07
  -1   8   1    9.50    6.99
   1  -8  -1   18.14    6.62
  -7   8   0    5.81    3.49
  -7   8   0    5.27    5.56
   7  -8   0    4.06    3.69
   7  -8   0    1.47    4.48
  -6   8   0   56.95    8.27
  -6   8   0   23.96    9.18
   6  -8   0   28.88    6.04
  -5   8   0    4.86    3.11
  -5   8   0    4.04    4.43
   5  -8   0    6.06    3.78
  -4   8   0   95.68   17.77
  -4   8   0   64.99   14.55
   4  -8   0  204.85   35.47
  -3   8   0    3.63    2.69
  -3   8   0    2.92    4.66
   3  -8   0    7.00    3.52
  -2   8   0    3.52    3.23
  -2   8   0    2.39    6.77
   2  -8   0    9.22    5.40
  -1   8   0  195.18   20.49
  -1   8   0  191.20   21.81
   1  -8   0  508.38   27.20
   0   8   0   92.16   14.38
   0   8   0  108.10   15.25
   0  -8   0  239.61   19.75
  -7   8  -1    4.98    3.26
  -7   8  -1    4.53    6.41
   7  -8   1    4.31    3.30
   7  -8   1    0.63    2.93
  -6   8  -1    1.33    1.76
  -6   8  -1    1.29    4.51
   6  -8   1    2.54    2.57
  -5   8  -1    5.59    2.48
  -5   8  -1   -0.05    3.67
   5  -8   1    7.09    3.69
  -4   8  -1   21.74    4.18
  -4   8  -1   14.47    6.46
   4  -8   1   21.30    5.28
  -3   8  -1  170.86   19.85
  -3   8  -1  181.04   23.98
   3  -8   1  418.77   21.68
  -2   8  -1   19.70    4.57
   2  -8   1   77.85   16.48
  -1   8  -1   12.23    5.10
  -1   8  -1   10.96    8.97
   1  -8   1   29.57    8.59
   0   8  -1    0.32    2.36
   0   8  -1    0.23    4.11
   0  -8   1    0.56    1.77
  -7   8  -2   42.65   12.44
   7  -8   2   32.73    8.24
   7  -8   2   49.80   10.06
  -6   8  -2   81.67    9.72
  -6   8  -2   89.35   15.93
   6  -8   2  101.89   13.93
   6  -8   2   68.69   10.32
  -5   8  -2    0.51    1.21
  -5   8  -2    1.65    4.99
   5  -8   2    0.95    3.61
  -4   8  -2   15.26    3.65
  -4   8  -2   13.96    7.42
   4  -8   2   30.80    8.24
  -3   8  -2    9.65    2.93
  -3   8  -2    8.60    5.49
   3  -8   2   14.32    5.03
  -2   8  -2   69.30   13.31
  -2   8  -2   65.68   15.98
   2  -8   2  193.63   34.59
  -1   8  -2   74.14   15.20
  -1   8  -2   88.21   21.12
   1  -8   2  263.19   19.47
   0   8  -2   41.34   10.12
   0   8  -2   38.92   12.10
   0  -8   2  112.86   22.11
  -7   8  -3    5.16    7.60
   7  -8   3    0.59    2.14
   7  -8   3    6.01    6.29
  -6   8  -3   48.66   15.86
   6  -8   3   54.94   13.90
   6  -8   3   40.84   10.54
  -5   8  -3    0.35    5.60
   5  -8   3    0.94    2.26
   5  -8   3   -0.56    2.83
  -4   8  -3    9.37    3.33
  -4   8  -3    5.07    5.65
   4  -8   3   14.61    6.89
  -3   8  -3   11.02    3.24
  -3   8  -3   10.88    8.31
   3  -8   3   24.16    7.61
  -2   8  -3    5.78    2.32
  -2   8  -3    5.45    6.13
   2  -8   3   14.20    5.52
  -1   8  -3    0.75    1.66
  -1   8  -3    0.19    4.04
   1  -8   3    0.54    1.89
   0   8  -3   10.11    3.90
   0   8  -3   11.06    8.63
   0  -8   3   28.58    8.40
  -6   8  -4   25.97   11.41
   6  -8   4   17.66    7.47
   6  -8   4    0.38    3.62
  -5   8  -4    5.91    9.40
   5  -8   4    3.42    4.10
   5  -8   4    1.66    5.64
  -4   8  -4    8.53    9.73
   4  -8   4   10.24    7.30
  -3   8  -4    3.81    2.91
  -3   8  -4   -1.40    5.47
   3  -8   4    4.96    5.91
  -2   8  -4   40.41    9.07
  -2   8  -4   34.36   13.14
   2  -8   4   85.46   18.97
  -1   8  -4    0.04    0.70
  -1   8  -4    0.99    4.73
   1  -8   4    0.51    2.03
   0   8  -4   10.28    3.85
   0   8  -4    4.56    4.57
   0  -8   4   -0.11    1.48
  -5   8  -5   23.77   12.23
   5  -8   5   20.84    8.76
   5  -8   5   15.77    8.59
  -4   8  -5   71.98   16.95
   4  -8   5   86.50   14.86
   4  -8   5   90.54   14.37
  -3   8  -5   17.96   12.16
   3  -8   5   24.67    8.81
   3  -8   5    0.21    3.80
  -2   8  -5   12.52    3.86
  -2   8  -5   10.26    8.75
   2  -8   5   29.99   10.26
  -1   8  -5    1.76    1.85
  -1   8  -5    0.17    4.94
   1  -8   5    0.80    1.99
   0   8  -5    1.00    1.27
   0   8  -5    0.46    4.24
   0  -8   5    0.32    2.14
  -4   8  -6   29.90   15.37
   4  -8   6   28.21   10.52
   4  -8   6   35.82   11.38
  -3   8  -6   38.21   16.42
   3  -8   6   43.10   12.77
   3  -8   6   -0.53    3.77
  -2   8  -6   -0.08    5.95
   2  -8   6    0.82    2.64
   2  -8   6   -0.43    3.51
  -1   8  -6    4.10    2.64
  -1   8  -6    1.40    5.78
   1  -8   6   -0.08    2.95
  -2   8  -7    1.13    6.08
   2  -8   7    0.20    2.47
   2  -8   7    0.23    3.56
  -5   9   0   16.45    4.54
  -5   9   0   15.18    7.63
  -4   9   0   21.74    5.19
  -4   9   0   17.00    6.29
   4  -9   0   54.00    8.32
  -3   9   0   25.19    6.27
  -3   9   0   21.61    8.77
   3  -9   0   70.07   10.08
  -5   9  -1    7.26    7.20
  -5   9  -1   -0.02    2.84
   5  -9   1   14.48    4.97
  -4   9  -1   14.43    4.42
  -4   9  -1    9.67    4.90
   4  -9   1   38.86    9.72
  -3   9  -1   30.07    5.56
  -3   9  -1   30.69    9.55
   3  -9   1   84.40   11.04
  -2   9  -1   22.30    6.29
  -2   9  -1   22.11    9.22
  -5   9  -2   28.80    4.92
  -5   9  -2   20.04    7.56
   5  -9   2   47.09    8.75
  -4   9  -2    0.51    1.19
  -4   9  -2    0.14    3.61
   4  -9   2    0.76    2.24
  -3   9  -2    1.35    1.69
  -3   9  -2    0.33    2.66
   3  -9   2    3.17    3.52
  -2   9  -2    3.50    3.95
  -2   9  -2    6.29    9.28
   2  -9   2   11.16    5.12
  -5   9  -3   -0.04    0.75
  -5   9  -3   -0.17    4.04
   5  -9   3    0.80    2.56
  -4   9  -3    7.66    7.57
  -4   9  -3   -0.14    4.27
   4  -9   3   10.54    4.95
  -3   9  -3    0.94    1.50
  -3   9  -3    1.51    4.55
   3  -9   3    1.03    2.17
  -2   9  -3   44.86    6.33
  -2   9  -3   50.63   11.90
   2  -9   3    2.39    4.21
  -4   9  -4    0.47    1.33
  -4   9  -4    1.35    5.69
   4  -9   4    2.26    5.32
  -3   9  -4    7.23    7.32
  -3   9  -4    1.27    4.91
   3  -9   4   14.26    6.07

_computing_structure_solution     'SHELXT 2014/4 (Sheldrick, 2014)'
;
_shelx_hkl_checksum              18904
loop_
_space_group_symop_operation_xyz
'x, y, z'
'-x, -y, -z'
loop_
_atom_site_label
_atom_site_type_symbol
_atom_site_fract_x
_atom_site_fract_y
_atom_site_fract_z
_atom_site_U_iso_or_equiv
_atom_site_adp_type
_atom_site_occupancy
_atom_site_site_symmetry_order
_atom_site_calc_flag
_atom_site_refinement_flags_posn
_atom_site_refinement_flags_adp
O7 O -0.0570(3) 0.3752(3) 0.1590(2) 0.0304(6) Uani 1 1 d . .
O9 O -0.1534(3) 0.1948(4) 0.3274(2) 0.0393(7) Uani 1 1 d . .
O1 O 0.4904(3) 0.7056(3) 0.3190(2) 0.0343(6) Uani 1 1 d . .
O4 O 0.3982(3) 1.0551(3) 0.3168(2) 0.0324(6) Uani 1 1 d . .
O8 O -0.2776(3) 0.0727(3) 0.0793(2) 0.0414(7) Uani 1 1 d . .
O2 O 0.6994(4) 0.6864(4) 0.1722(3) 0.0471(7) Uani 1 1 d . .
N2 N 0.3238(5) 1.1538(4) 0.2338(3) 0.0404(8) Uani 1 1 d . .
N3 N -0.1708(4) 0.2014(4) 0.1940(3) 0.0311(7) Uani 1 1 d . .
N1 N 0.6685(4) 0.7069(4) 0.3006(3) 0.0373(7) Uani 1 1 d . .
O6 O 0.1478(5) 1.0945(5) 0.1995(3) 0.0575(8) Uani 1 1 d . .
O3 O 0.7725(4) 0.7301(4) 0.4226(3) 0.0549(8) Uani 1 1 d . .
O5 O 0.4519(5) 1.2912(4) 0.2065(3) 0.0648(9) Uani 1 1 d . .
C1 C 0.1870(4) 0.7018(4) 0.2304(3) 0.0263(7) Uani 1 1 d . .
H1A H 0.1012 0.7029 0.1408 0.032 Uiso 1 1 calc R U
C3 C 0.2524(4) 0.8913(4) 0.3562(3) 0.0290(7) Uani 1 1 d . .
H3A H 0.1386 0.9137 0.3684 0.035 Uiso 1 1 calc R U
H3B H 0.3068 0.8788 0.4546 0.035 Uiso 1 1 calc R U
C4 C 0.0645(4) 0.5337(4) 0.2957(3) 0.0275(7) Uani 1 1 d . .
H4A H 0.1488 0.4980 0.3592 0.033 Uiso 1 1 calc R U
H4B H -0.0169 0.5684 0.3580 0.033 Uiso 1 1 calc R U
C2 C 0.3589(4) 0.6803(4) 0.1762(3) 0.0305(7) Uani 1 1 d . .
H2A H 0.3149 0.5526 0.1066 0.037 Uiso 1 1 calc R U
H2B H 0.4243 0.7790 0.1231 0.037 Uiso 1 1 calc R U
loop_
_atom_site_aniso_label
_atom_site_aniso_U_11
_atom_site_aniso_U_22
_atom_site_aniso_U_33
_atom_site_aniso_U_23
_atom_site_aniso_U_13
_atom_site_aniso_U_12
O7 0.0314(11) 0.0213(12) 0.0211(10) 0.0024(8) -0.0022(8) -0.0009(9)
O9 0.0382(12) 0.0390(14) 0.0290(11) 0.0134(9) 0.0066(9) 0.0049(10)
O1 0.0286(11) 0.0368(14) 0.0305(11) 0.0002(9) 0.0010(9) 0.0130(9)
O4 0.0319(11) 0.0206(11) 0.0345(11) 0.0025(8) 0.0013(8) 0.0059(9)
O8 0.0430(13) 0.0231(13) 0.0333(12) -0.0002(9) -0.0050(10) -0.0018(10)
O2 0.0434(14) 0.0429(16) 0.0541(15) 0.0086(11) 0.0204(11) 0.0178(11)
N2 0.0546(18) 0.0252(15) 0.0395(14) 0.0027(11) 0.0058(13) 0.0196(13)
N3 0.0313(13) 0.0217(13) 0.0301(13) 0.0065(10) 0.0003(10) 0.0042(10)
N1 0.0276(13) 0.0270(15) 0.0479(16) -0.0012(11) 0.0035(12) 0.0094(11)
O6 0.0637(18) 0.066(2) 0.0563(16) 0.0153(14) 0.0080(14) 0.0436(16)
O3 0.0418(14) 0.0579(18) 0.0523(16) -0.0092(13) -0.0110(12) 0.0255(12)
O5 0.091(2) 0.0273(15) 0.0664(18) 0.0144(13) 0.0166(16) 0.0164(15)
C1 0.0263(14) 0.0213(16) 0.0222(13) 0.0022(11) -0.0004(11) 0.0051(11)
C3 0.0274(14) 0.0255(16) 0.0258(13) 0.0005(11) 0.0021(11) 0.0076(12)
C4 0.0292(14) 0.0222(15) 0.0187(12) -0.0018(10) -0.0021(10) 0.0048(12)
C2 0.0343(15) 0.0205(15) 0.0253(13) -0.0008(11) -0.0013(12) 0.0064(12)
loop_
_atom_type_symbol
_atom_type_description
_atom_type_scat_dispersion_real
_atom_type_scat_dispersion_imag
_atom_type_scat_source
C C 0.0033 0.0016 'International Tables Vol C Tables 4.2.6.8 and 6.1.1.4'
H H 0.0000 0.0000 'International Tables Vol C Tables 4.2.6.8 and 6.1.1.4'
N N 0.0061 0.0033 'International Tables Vol C Tables 4.2.6.8 and 6.1.1.4'
O O 0.0106 0.0060 'International Tables Vol C Tables 4.2.6.8 and 6.1.1.4'
loop_
_geom_angle_atom_site_label_1
_geom_angle_atom_site_label_2
_geom_angle_atom_site_label_3
_geom_angle
N3 O7 C4 113.4(2)
N1 O1 C2 115.1(2)
N2 O4 C3 115.4(2)
O5 N2 O6 128.9(3)
O5 N2 O4 112.6(3)
O6 N2 O4 118.5(3)
O9 N3 O8 128.5(3)
O9 N3 O7 118.9(2)
O8 N3 O7 112.6(2)
O2 N1 O3 129.3(3)
O2 N1 O1 118.3(3)
O3 N1 O1 112.4(3)
C2 C1 C4 112.4(2)
C2 C1 C3 112.8(2)
C4 C1 C3 107.3(2)
C2 C1 H1A 108.1
C4 C1 H1A 108.1
C3 C1 H1A 108.1
O4 C3 C1 111.2(2)
O4 C3 H3A 109.4
C1 C3 H3A 109.4
O4 C3 H3B 109.4
C1 C3 H3B 109.4
H3A C3 H3B 108.0
O7 C4 C1 104.4(2)
O7 C4 H4A 110.9
C1 C4 H4A 110.9
O7 C4 H4B 110.9
C1 C4 H4B 110.9
H4A C4 H4B 108.9
O1 C2 C1 104.2(2)
O1 C2 H2A 110.9
C1 C2 H2A 110.9
O1 C2 H2B 110.9
C1 C2 H2B 110.9
H2A C2 H2B 108.9
loop_
_geom_bond_atom_site_label_1
_geom_bond_atom_site_label_2
_geom_bond_distance
O7 N3 1.391(3)
O7 C4 1.454(3)
O9 N3 1.202(3)
O1 N1 1.387(4)
O1 C2 1.460(4)
O4 N2 1.398(4)
O4 C3 1.440(4)
O8 N3 1.214(3)
O2 N1 1.199(4)
N2 O5 1.202(4)
N2 O6 1.203(4)
N1 O3 1.210(4)
C1 C2 1.516(4)
C1 C4 1.526(4)
C1 C3 1.535(4)
C1 H1A 0.9800
C3 H3A 0.9700
C3 H3B 0.9700
C4 H4A 0.9700
C4 H4B 0.9700
C2 H2A 0.9700
C2 H2B 0.9700
loop_
_geom_torsion_atom_site_label_1
_geom_torsion_atom_site_label_2
_geom_torsion_atom_site_label_3
_geom_torsion_atom_site_label_4
_geom_torsion
C3 O4 N2 O5 178.7(2)
C3 O4 N2 O6 -1.3(4)
C4 O7 N3 O9 -3.3(4)
C4 O7 N3 O8 177.1(2)
C2 O1 N1 O2 -0.5(4)
C2 O1 N1 O3 179.3(3)
N2 O4 C3 C1 91.3(3)
C2 C1 C3 O4 45.1(3)
C4 C1 C3 O4 169.4(2)
N3 O7 C4 C1 175.5(2)
C2 C1 C4 O7 -78.3(3)
C3 C1 C4 O7 157.1(2)
N1 O1 C2 C1 -175.3(2)
C4 C1 C2 O1 -68.0(3)
C3 C1 C2 O1 53.5(3)
