#------------------------------------------------------------------------------
#$Date: 2019-11-17 08:12:14 +0200 (Sun, 17 Nov 2019) $
#$Revision: 228818 $
#$URL: file:///home/coder/svn-repositories/cod/cif/1/54/90/1549057.cif $
#------------------------------------------------------------------------------
#
# This file is available in the Crystallography Open Database (COD),
# http://www.crystallography.net/
#
# All data on this site have been placed in the public domain by the
# contributors.
#
data_1549057
loop_
_publ_author_name
'Nievergelt, Philipp P.'
'Babor, Martin'
'\<Cejka, Jan'
'Spingler, Bernhard'
_publ_section_title
;
 A high throughput screening method for the nano-crystallization of salts
 of organic cations.
;
_journal_issue                   15
_journal_name_full               'Chemical science'
_journal_page_first              3716
_journal_page_last               3722
_journal_paper_doi               10.1039/c8sc00783g
_journal_volume                  9
_journal_year                    2018
_chemical_absolute_configuration rmad
_chemical_formula_moiety         'C10 H16 N O, Cl'
_chemical_formula_sum            'C10 H16 Cl N O'
_chemical_formula_weight         201.69
_space_group_crystal_system      monoclinic
_space_group_IT_number           4
_space_group_name_Hall           'P 2yb'
_space_group_name_H-M_alt        'P 1 21 1'
_symmetry_space_group_name_Hall  'P 2yb'
_symmetry_space_group_name_H-M   'P 1 21 1'
_atom_sites_solution_hydrogens   geom
_atom_sites_solution_primary     direct
_audit_creation_date             2018-02-09
_audit_creation_method
;
Olex2 1.2
(compiled 2017.08.10 svn.r3458 for OlexSys, GUI svn.r5381)
;
_audit_update_record
;
2018-02-09 deposited with the CCDC.
2018-03-06 downloaded from the CCDC.
;
_cell_angle_alpha                90
_cell_angle_beta                 102.256(5)
_cell_angle_gamma                90
_cell_formula_units_Z            2
_cell_length_a                   7.2565(3)
_cell_length_b                   6.1232(3)
_cell_length_c                   12.5570(6)
_cell_measurement_reflns_used    5651
_cell_measurement_temperature    160.00(10)
_cell_measurement_theta_max      33.1270
_cell_measurement_theta_min      2.8520
_cell_volume                     545.23(4)
_computing_cell_refinement       'CrysAlisPro 1.171.39.43c (Rigaku OD, 2018)'
_computing_data_collection       'CrysAlisPro 1.171.39.43c (Rigaku OD, 2018)'
_computing_data_reduction        'CrysAlisPro 1.171.39.43c (Rigaku OD, 2018)'
_computing_molecular_graphics    'Olex2 (Dolomanov et al., 2009)'
_computing_publication_material  'Olex2 (Dolomanov et al., 2009)'
_computing_structure_refinement  'ShelXL (Sheldrick, 2015)'
_computing_structure_solution    'SIR97 (Burla et al., 2007)'
_diffrn_ambient_environment      N~2~
_diffrn_ambient_temperature      160.00(10)
_diffrn_detector                 'HPC detector'
_diffrn_detector_type            'Pilatus 200K'
_diffrn_measured_fraction_theta_full 0.998
_diffrn_measured_fraction_theta_max 0.910
_diffrn_measurement_details
;
List of Runs (angles in degrees, time in seconds):

  # Type    Start    End  Width  t~exp~   \w     \q     \k     \f   Frames
#--------------------------------------------------------------------------
  1  \w     -5.00  82.00   0.50   15.00    --    9.96  57.00 -30.00  174
  2  \w     55.00  90.00   0.50   15.00    --    9.96  19.00 -60.00   70
  3  \w     -5.00  77.00   0.50   15.00    --    9.96  57.00  90.00  164
  4  \w     -1.00  50.00   0.50   15.00    --    9.96  19.00 -60.00  102
  5  \w     -5.00  21.00   0.50   15.00    --    9.96 -57.00 -30.00   52
  6  \w     -4.00  36.00   0.50   15.00    --    9.96  57.00-120.00   80
  7  \w    -19.00  27.00   0.50   15.00    --  -11.05  57.00-150.00   92
;
_diffrn_measurement_device       'four-circle diffractometer'
_diffrn_measurement_device_type  'XtaLAB Synergy, Dualflex, Pilatus 200K'
_diffrn_measurement_method       '\w scans'
_diffrn_orient_matrix_type
'CrysAlisPro convention (1999,Acta A55,543-557)'
_diffrn_orient_matrix_UB_11      -0.0777276000
_diffrn_orient_matrix_UB_12      0.0666744000
_diffrn_orient_matrix_UB_13      -0.0239620000
_diffrn_orient_matrix_UB_21      0.0257411000
_diffrn_orient_matrix_UB_22      -0.0092890000
_diffrn_orient_matrix_UB_23      -0.0512442000
_diffrn_orient_matrix_UB_31      -0.0574739000
_diffrn_orient_matrix_UB_32      -0.0942478000
_diffrn_orient_matrix_UB_33      -0.0118744000
_diffrn_radiation_monochromator  mirror
_diffrn_radiation_probe          x-ray
_diffrn_radiation_type           MoK\a
_diffrn_radiation_wavelength     0.71073
_diffrn_reflns_av_R_equivalents  0.0287
_diffrn_reflns_av_unetI/netI     0.0381
_diffrn_reflns_Laue_measured_fraction_full 0.998
_diffrn_reflns_Laue_measured_fraction_max 0.910
_diffrn_reflns_limit_h_max       10
_diffrn_reflns_limit_h_min       -10
_diffrn_reflns_limit_k_max       9
_diffrn_reflns_limit_k_min       -8
_diffrn_reflns_limit_l_max       18
_diffrn_reflns_limit_l_min       -18
_diffrn_reflns_number            7304
_diffrn_reflns_point_group_measured_fraction_full 0.955
_diffrn_reflns_point_group_measured_fraction_max 0.805
_diffrn_reflns_theta_full        25.242
_diffrn_reflns_theta_max         32.767
_diffrn_reflns_theta_min         2.873
_diffrn_source                   'micro-focus sealed X-ray tube'
_diffrn_source_type              'PhotonJet (Mo) X-ray Source'
_exptl_absorpt_coefficient_mu    0.314
_exptl_absorpt_correction_T_max  1.00000
_exptl_absorpt_correction_T_min  0.74501
_exptl_absorpt_correction_type   multi-scan
_exptl_absorpt_process_details
'CrysAlisPro 1.171.39.43c (Rigaku Oxford Diffraction, 2018) Empirical absorption correction using spherical harmonics, implemented in SCALE3 ABSPACK scaling algorithm.'
_exptl_crystal_colour            colourless
_exptl_crystal_density_diffrn    1.229
_exptl_crystal_description       needle
_exptl_crystal_F_000             216
_exptl_crystal_size_max          0.4
_exptl_crystal_size_mid          0.08
_exptl_crystal_size_min          0.04
_refine_diff_density_max         0.283
_refine_diff_density_min         -0.166
_refine_diff_density_rms         0.042
_refine_ls_abs_structure_details
;
 Flack x determined using 1088 quotients [(I+)-(I-)]/[(I+)+(I-)]
 (Parsons, Flack and Wagner, Acta Cryst. B69 (2013) 249-259).
;
_refine_ls_abs_structure_Flack   -0.02(3)
_refine_ls_extinction_method     none
_refine_ls_goodness_of_fit_ref   1.059
_refine_ls_hydrogen_treatment    constr
_refine_ls_matrix_type           full
_refine_ls_number_parameters     121
_refine_ls_number_reflns         3239
_refine_ls_number_restraints     1
_refine_ls_restrained_S_all      1.059
_refine_ls_R_factor_all          0.0338
_refine_ls_R_factor_gt           0.0302
_refine_ls_shift/su_max          0.000
_refine_ls_shift/su_mean         0.000
_refine_ls_structure_factor_coef Fsqd
_refine_ls_weighting_details
'w=1/[\s^2^(Fo^2^)+(0.0397P)^2^] where P=(Fo^2^+2Fc^2^)/3'
_refine_ls_weighting_scheme      calc
_refine_ls_wR_factor_gt          0.0722
_refine_ls_wR_factor_ref         0.0737
_reflns_Friedel_coverage         0.638
_reflns_Friedel_fraction_full    0.903
_reflns_Friedel_fraction_max     0.681
_reflns_number_gt                2969
_reflns_number_total             3239
_reflns_threshold_expression     'I > 2\s(I)'
_cod_data_source_file            c8sc00783g2.cif
_cod_data_source_block           mb7_100_a1_180209_ephcl
_cod_depositor_comments
'Adding full bibliography for 1549042--1549063.cif.'
_cod_database_code               1549057
_shelx_shelxl_version_number     2014/7
_shelx_space_group_comment
;
The symmetry employed for this shelxl refinement is uniquely defined
by the following loop, which should always be used as a source of
symmetry information in preference to the above space-group names.
They are only intended as comments.
;
_shelx_estimated_absorpt_t_max   0.988
_shelx_estimated_absorpt_t_min   0.885
_reflns_odcompleteness_completeness 99.67
_reflns_odcompleteness_iscentric 1
_reflns_odcompleteness_theta     30.44
_olex2_refinement_description
;
1. Fixed Uiso
 At 1.2 times of:
  All C(H) groups, All N(H,H) groups
 At 1.5 times of:
  All C(H,H,H) groups, All O(H) groups
2.a Ternary CH refined with riding coordinates:
 C1(H1), C2(H2)
2.b Secondary CH2 refined with riding coordinates:
 N1(H1A,H1B)
2.c Aromatic/amide H refined with riding coordinates:
 C6(H6), C7(H7), C8(H8), C9(H9), C10(H10)
2.d Idealised Me refined as rotating group:
 C3(H3A,H3B,H3C), C4(H4A,H4B,H4C)
2.e Idealised tetrahedral OH refined as rotating group:
 O1(H1C)
;
_shelx_res_file
;
    C:\data\BSp\MB7_100_A1_180209_EphCl\mb7_100_a1_180209_ephcl.res created by SHELXL-2014/7

TITL MB7_100_A1_180209_EPHCL IN P2(1)
CELL  0.71073  7.25654  6.12319 12.55701 90.00000 102.25610 90.00000
ZERR 2  0.00034  0.00027  0.00058  0.00000  0.00460  0.00000
LATT -1
SYMM -X, Y+ 0.50000, -Z
SFAC C H N O CL
UNIT 20 32 2 2 2
TEMP -113
SIZE 0.04 0.08 0.40
PLAN 30
FMAP 2
L.S. 4
BOND $H
CONF
HTAB
ACTA
EQIV $1 X, Y+1, Z
EQIV $2 -X+1, Y+1/2, -Z
HTAB N1 CL1_$2
HTAB N1 CL1_$1
HTAB O1 CL1
REM P2(1) (#4 IN STANDARD SETTING)
WGHT    0.039700
FVAR       1.34898
C1    1    0.635951    0.568704    0.232723    11.00000    0.01909    0.02548 =
         0.02444   -0.00092    0.00588   -0.00321
AFIX  13
H1    2    0.510039    0.642164    0.215553    11.00000   -1.20000
AFIX   0
C2    1    0.780582    0.718953    0.196562    11.00000    0.02152    0.02194 =
         0.01943   -0.00217    0.00502   -0.00434
AFIX  13
H2    2    0.805423    0.846052    0.247609    11.00000   -1.20000
AFIX   0
C3    1    0.967458    0.605108    0.196150    11.00000    0.02006    0.02998 =
         0.02852   -0.00125    0.00691   -0.00384
AFIX 137
H3A   2    0.947141    0.488731    0.141324    11.00000   -1.50000
H3B   2    1.017680    0.542095    0.268207    11.00000   -1.50000
H3C   2    1.057586    0.711373    0.178653    11.00000   -1.50000
AFIX   0
C4    1    0.801715    0.982180    0.045005    11.00000    0.02994    0.02512 =
         0.03298    0.00448    0.01133   -0.00413
AFIX 137
H4A   2    0.927978    0.930126    0.041456    11.00000   -1.50000
H4B   2    0.812555    1.105965    0.095426    11.00000   -1.50000
H4C   2    0.735068    1.028621   -0.027681    11.00000   -1.50000
AFIX   0
C5    1    0.689214    0.528043    0.354297    11.00000    0.01774    0.02480 =
         0.02527    0.00236    0.00841   -0.00276
C6    1    0.783701    0.340655    0.398521    11.00000    0.02762    0.02494 =
         0.03266    0.00185    0.01054    0.00162
AFIX  43
H6    2    0.814153    0.230653    0.351753    11.00000   -1.20000
AFIX   0
C7    1    0.833629    0.313683    0.510508    11.00000    0.03088    0.03612 =
         0.03694    0.01291    0.00849    0.00362
AFIX  43
H7    2    0.898362    0.185401    0.540226    11.00000   -1.20000
AFIX   0
C8    1    0.789492    0.473109    0.579297    11.00000    0.02831    0.05363 =
         0.02475    0.00712    0.00739   -0.00388
AFIX  43
H8    2    0.823962    0.453939    0.656033    11.00000   -1.20000
AFIX   0
C9    1    0.695499    0.659762    0.536474    11.00000    0.03338    0.04391 =
         0.03094   -0.00690    0.01686   -0.00221
AFIX  43
H9    2    0.665081    0.768944    0.583674    11.00000   -1.20000
AFIX   0
C10   1    0.645444    0.687735    0.424262    11.00000    0.02656    0.03021 =
         0.03113    0.00068    0.01215    0.00509
AFIX  43
H10   2    0.580973    0.816458    0.394947    11.00000   -1.20000
AFIX   0
N1    3    0.694612    0.802545    0.084244    11.00000    0.02056    0.02486 =
         0.02391   -0.00108    0.00691   -0.00236
AFIX  23
H1A   2    0.684588    0.689323    0.036414    11.00000   -1.20000
H1B   2    0.575889    0.850831    0.083907    11.00000   -1.20000
AFIX   0
O1    4    0.626833    0.377620    0.167543    11.00000    0.03500    0.03019 =
         0.03284   -0.00930    0.01261   -0.01487
AFIX 147
H1C   2    0.531506    0.304096    0.172923    11.00000   -1.50000
AFIX   0
CL1   5    0.320719    0.021275    0.126259    11.00000    0.02102    0.02743 =
         0.02765    0.00220    0.00685   -0.00432
HKLF 4

REM  MB7_100_A1_180209_EPHCL IN P2(1)
REM R1 =  0.0302 for    2969 Fo > 4sig(Fo)  and  0.0338 for all    3239 data
REM    121 parameters refined using      1 restraints

END

WGHT      0.0397      0.0000

REM Instructions for potential hydrogen bonds
HTAB C1 Cl1_$1
EQIV $3 x+1, y+1, z
HTAB C3 Cl1_$3
HTAB C4 Cl1_$3
HTAB C4 O1_$1
HTAB N1 Cl1_$2
HTAB N1 Cl1_$1
HTAB O1 Cl1

REM Highest difference peak  0.283,  deepest hole -0.166,  1-sigma level  0.042
Q1    1   0.6462  0.5263  0.2985  11.00000  0.05    0.28
Q2    1   0.6837  0.6253  0.3838  11.00000  0.05    0.24
Q3    1   0.7400  0.4415  0.3807  11.00000  0.05    0.21
Q4    1   0.7129  0.5283  0.5554  11.00000  0.05    0.19
Q5    1   0.7083  0.6542  0.2156  11.00000  0.05    0.18
Q6    1   0.8644  0.6518  0.1939  11.00000  0.05    0.18
Q7    1   0.7197  0.6991  0.4750  11.00000  0.05    0.17
Q8    1   0.7557  0.5651  0.5415  11.00000  0.05    0.17
Q9    1   0.6349  0.6448  0.4795  11.00000  0.05    0.17
Q10   1   0.3656  0.1787  0.1349  11.00000  0.05    0.16
Q11   1   0.4580  0.1589  0.2439  11.00000  0.05    0.16
Q12   1   0.9394  1.0071  0.0754  11.00000  0.05    0.16
Q13   1   0.4183 -0.0366  0.1737  11.00000  0.05    0.15
Q14   1   0.6394  0.4988  0.2120  11.00000  0.05    0.15
Q15   1   0.7555  0.7396  0.1598  11.00000  0.05    0.15
Q16   1   0.9651  0.5208  0.2543  11.00000  0.05    0.15
Q17   1   0.4461  0.0044  0.1174  11.00000  0.05    0.15
Q18   1   1.0255  0.9776  0.1586  11.00000  0.05    0.14
Q19   1   0.7370  0.8916  0.0541  11.00000  0.05    0.14
Q20   1   0.8353  0.3693  0.4499  11.00000  0.05    0.14
Q21   1   0.5346  0.8443  0.3390  11.00000  0.05    0.14
Q22   1   0.3296  0.1546  0.2621  11.00000  0.05    0.13
Q23   1   0.6299  0.8220  0.0817  11.00000  0.05    0.13
Q24   1   0.7901  0.1836  0.2204  11.00000  0.05    0.13
Q25   1   0.5450  0.6905  0.2188  11.00000  0.05    0.13
Q26   1   0.3320  0.0871  0.0677  11.00000  0.05    0.13
Q27   1   0.3806  0.0359  0.0803  11.00000  0.05    0.13
Q28   1   0.9507  0.4542  0.1845  11.00000  0.05    0.13
Q29   1   0.8296  0.6179  0.7374  11.00000  0.05    0.13
Q30   1   0.5824  0.5941  0.2211  11.00000  0.05    0.13
;
_shelx_res_checksum              84065
_shelx_hkl_file
;
   0  -8   3 9.59188 4.93339   7
   0  -8   4 68.7509 8.34450   7
   0  -8   5 107.623 10.1423   7
   0  -8   6 14.6137 5.35939   7
   0  -8   7 23.1671 6.37816   7
   0  -7   2 106.788 9.19726   7
   0  -7   3 0.62320 3.55358   7
   0  -7   4 16.1610 4.64000   7
   0  -7   5 35.1485 6.07622   7
   0  -7   6 30.6058 6.01234   7
   0  -7   7 18.5377 5.38904   7
   0  -7   8-0.73059 4.10603   7
   0  -7   9 19.7783 5.51099   7
   0  -7  10 62.8575 8.49087   7
   0  -6   1 16.3693 3.93669   7
   0  -6   2 208.546 11.8041   7
   0  -6   3 62.8830 6.72951   7
   0  -6   4 258.585 14.0974   7
   0  -6   5 49.9559 6.27045   7
   0  -6   6 29.8723 5.42748   7
   0  -6   7 73.2003 7.70883   7
   0  -6   8 80.4515 8.05195   7
   0  -6   9 20.7056 5.13830   7
   0  -6  10 12.5934 5.10171   7
   0  -6  11 16.8389 5.05851   7
   0  -6  12 23.1813 5.80063   7
   0  -5   0 0.40754 2.29045   7
   0  -5   1 242.603 11.7713   7
   0  -5  -2 688.405 20.2031   3
   0  -5   2 685.258 24.8013   7
   0  -5   3 128.483 8.57739   7
   0  -5   4 25.2642 3.88283   7
   0  -5  -5 58.5525 4.10154   3
   0  -5   5 58.8701 5.96259   7
   0  -5  -6 270.679 10.8724   3
   0  -5   6 266.941 13.6398   7
   0  -5   7 58.8157 6.33608   7
   0  -5  -7 61.0763 4.71582   3
   0  -5   8-0.53468 2.91525   7
   0  -5  -8 0.31263 2.23472   3
   0  -5   9 35.7153 5.32337   7
   0  -5  10 43.7966 6.36355   7
   0  -5  11 24.8926 5.68454   7
   0  -5  12 15.4679 5.13216   7
   0  -5  13 21.0563 5.59453   7
   0  -5  14 17.6004 5.94066   7
   0  -4   1 298.135 12.2228   7
   0  -4  -1 274.933 8.76081   3
   0  -4  -2 76.9760 3.69996   3
   0  -4   2 71.5259 5.52707   7
   0  -4  -3 44.4525 2.94978   3
   0  -4   3 41.8651 4.38310   7
   0  -4   4 367.889 15.0852   7
   0  -4   5 353.403 14.4851   7
   0  -4   5 327.582 14.1284   6
   0  -4  -6 15.7178 2.58443   3
   0  -4   6 12.0021 3.29506   6
   0  -4   6 13.5582 2.97504   7
   0  -4   7 88.4213 3.81385   3
   0  -4  -7 89.8555 5.60191   3
   0  -4   7 80.6158 6.54035   6
   0  -4   7 72.5053 6.34756   7
   0  -4   8 398.274 12.9000   3
   0  -4   8 390.324 16.9327   7
   0  -4  -8 404.029 15.1296   3
   0  -4  -9 90.4576 6.28378   3
   0  -4   9 95.0275 5.05829   3
   0  -4  10 16.1635 2.55609   3
   0  -4  11 88.1253 5.55428   3
   0  -3   0 0.04612 0.46838   3
   0  -3  -1 840.403 23.3274   3
   0  -3  -2 1017.74 28.5340   3
   0  -3  -3 628.127 18.7697   3
   0  -3   4 558.999 15.7295   3
   0  -3  -4 616.982 17.9009   3
   0  -3   5 361.897 10.9408   3
   0  -3   6 238.359 10.5534   6
   0  -3   6 255.962 8.54041   3
   0  -3  -6 236.574 9.65123   3
   0  -3  -7 45.2070 3.82793   3
   0  -3   7 43.5303 3.03416   3
   0  -3   8 566.881 17.9411   3
   0  -3  -8 552.340 17.6248   2
   0  -3  -8 557.960 19.0830   3
   0  -3  -9 20.3105 3.12431   3
   0  -3   9 17.4295 2.57331   3
   0  -3  -9 15.2677 2.24418   2
   0  -3 -10 398.928 13.7851   2
   0  -3 -10 387.660 15.2312   3
   0  -3  10 376.385 14.2634   3
   0  -3 -11 40.4700 3.63122   2
   0  -3  11 37.9204 4.04471   3
   0  -3 -12 0.26495 1.89389   2
   0  -3  12-1.36081 2.49725   3
   0  -3  13 36.2144 4.62040   3
   0  -3 -13 38.5332 3.91301   2
   0  -3  14 151.122 9.16793   3
   0  -3 -14 156.765 8.26242   2
   0  -2   0 709.354 19.1643   3
   0  -2  -1 1123.67 30.5152   3
   0  -2  -2 390.764 11.7708   3
   0  -2   3 104.613 3.52104   3
   0  -2  -3 101.124 4.45355   3
   0  -2   4 853.940 24.7755   3
   0  -2  -4 929.661 26.0291   3
   0  -2  -4 924.164 25.2042   2
   0  -2   5 114.932 4.71896   3
   0  -2   5 114.142 4.25856   5
   0  -2  -5 115.546 4.67064   2
   0  -2  -6 8.46559 1.31425   2
   0  -2   6 7.03877 1.12813   5
   0  -2   6 11.9951 1.72035   3
   0  -2  -7 295.286 10.1189   2
   0  -2   7 300.856 10.6870   3
   0  -2   7 303.028 9.96876   5
   0  -2  -7 297.300 11.3044   3
   0  -2   8 458.862 15.3549   3
   0  -2  -8 442.249 15.8887   3
   0  -2   8 457.742 14.4166   5
   0  -2  -8 456.388 14.5075   2
   0  -2   9 524.746 17.2606   3
   0  -2  -9 491.745 16.0045   2
   0  -2  -9 476.568 17.3584   3
   0  -2  10 200.182 9.38072   3
   0  -2  10 188.415 9.56724   6
   0  -2 -10 218.354 8.55936   2
   0  -2 -10 205.585 9.69213   3
   0  -2  11 221.070 10.3754   3
   0  -2  11 230.221 9.22046   5
   0  -2 -11 238.813 9.43716   2
   0  -2  11 213.371 10.4872   6
   0  -2 -11 214.627 10.3656   3
   0  -2 -12 335.034 12.5450   2
   0  -2  12 317.753 13.8593   3
   0  -2  12 325.427 12.3101   5
   0  -2  13 82.0584 6.75114   3
   0  -2 -13 103.164 6.11152   2
   0  -2  14 5.93794 3.21178   3
   0  -2 -14 9.34107 2.65863   2
   0  -2 -15 20.5362 3.55015   2
   0  -2  15 12.8870 3.81775   3
   0  -2 -16 30.1355 4.25025   2
   0  -2  16 30.4327 5.39975   3
   0  -1  -1 699.402 19.1167   3
   0  -1   2 1424.66 36.9954   5
   0  -1  -2 1406.50 37.3357   2
   0  -1   2 1348.63 37.1903   3
   0  -1  -3 3396.48 88.3072   2
   0  -1   3 3334.23 88.5427   3
   0  -1   3 3288.93 88.2976   5
   0  -1   4 669.984 18.7856   3
   0  -1  -4 640.190 18.2778   2
   0  -1  -4 647.875 17.3033   1
   0  -1  -5 633.310 17.2758   2
   0  -1   5 610.405 17.9176   3
   0  -1  -5 582.056 16.0910   1
   0  -1  -6 1817.01 48.1992   1
   0  -1   6 1809.90 50.4148   3
   0  -1   7 152.118 6.84200   3
   0  -1  -7 151.955 4.90243   1
   0  -1   8 205.104 8.67714   3
   0  -1  -8 212.705 8.70186   3
   0  -1  -8 189.094 6.21356   1
   0  -1   9 336.365 12.2370   3
   0  -1   9 308.642 12.7436   4
   0  -1  -9 280.396 9.00255   1
   0  -1  10 280.274 12.7362   4
   0  -1 -10 288.531 8.96363   1
   0  -1  10 287.042 12.0355   3
   0  -1  11 87.3346 5.48644   5
   0  -1 -11 90.8625 5.24570   2
   0  -1  11 87.7222 6.26839   3
   0  -1 -11 94.1651 3.82979   1
   0  -1  12 47.2918 4.88669   3
   0  -1  12 41.3871 3.87783   5
   0  -1 -12 45.6907 3.90096   2
   0  -1 -12 40.7385 2.37788   1
   0  -1  13 63.5361 5.11781   5
   0  -1 -13 68.5064 4.98688   2
   0  -1  13 64.7104 6.06579   3
   0  -1 -14 147.202 7.95635   2
   0  -1  14 141.719 9.36935   3
   0  -1 -15 58.3252 5.11502   2
   0  -1  15 48.8215 5.97560   3
   0  -1 -16 0.35750 2.41232   2
   0  -1  16 4.59294 4.06649   3
   0  -1  17 67.0667 7.53925   3
   0  -1 -17 61.3789 5.76930   2
   0  -1  18 19.4232 5.22924   3
   0   0  -2 298.715 8.45268   4
   0   0   2 274.391 8.50480   3
   0   0  -3 5360.87 140.823   4
   0   0   3 5308.34 141.068   3
   0   0  -4 1541.73 44.6718   4
   0   0   4 1756.41 45.1149   3
   0   0  -5 259.584 8.81172   4
   0   0   5 254.418 9.17333   3
   0   0   6 25.9581 2.54099   3
   0   0  -6 28.3947 2.38351   4
   0   0   7-0.22389 1.41514   3
   0   0  -7 1.20878 1.23441   4
   0   0   7 0.22558 1.53744   4
   0   0  -8 9.43351 1.73613   4
   0   0   8 10.4099 2.44667   4
   0   0   8 9.14204 2.10835   3
   0   0  -8 12.7457 2.21980   3
   0   0   9 37.4947 4.07944   4
   0   0   9 45.9823 4.25109   3
   0   0  -9 42.5177 3.53445   4
   0   0  -9 40.3638 3.66620   3
   0   0  10 5.69796 2.33245   3
   0   0 -10 3.49769 1.97835   3
   0   0  10 5.76379 2.57572   4
   0   0 -10 3.92564 1.64248   4
   0   0  11 93.7744 6.69613   4
   0   0 -11 83.6442 5.81739   3
   0   0 -11 95.5846 5.71041   4
   0   0  11 91.8932 6.52297   3
   0   0 -12 45.5411 4.11062   4
   0   0  12 38.3912 4.83502   3
   0   0 -12 44.6218 4.55060   3
   0   0  12 38.8907 4.91198   4
   0   0  13 142.887 9.21271   3
   0   0 -13 143.820 6.26266   1
   0   0  14 7.78634 3.43134   3
   0   0 -14 2.79622 1.58305   1
   0   0  15 19.4290 4.46942   3
   0   0  16 22.8048 5.33380   3
   0   0 -16 15.7179 3.50104   2
   0   0 -17 36.0409 4.70660   2
   0   0  17 37.3161 6.19158   3
   0   0 -18 21.1786 4.17702   2
   0   1   0-0.45718 1.00168   7
   0   1  -1 622.665 17.8277   6
   0   1  -2 1446.06 37.6439   6
   0   1  -2 1307.02 38.0037   4
   0   1   3 3298.97 90.4836   3
   0   1  -3 3486.24 90.9116   4
   0   1   4 646.599 18.5275   4
   0   1  -4 635.543 18.5874   3
   0   1  -4 684.923 19.9097   4
   0   1   4 656.086 19.5729   3
   0   1   5 629.838 19.0473   3
   0   1  -5 617.782 18.9911   4
   0   1   5 625.168 18.0548   4
   0   1  -5 585.122 17.9978   3
   0   1   6 1768.08 49.7781   4
   0   1   6 1825.60 51.0449   3
   0   1  -6 1801.87 49.7687   3
   0   1  -6 1851.55 50.7784   4
   0   1  -7 161.153 7.29879   4
   0   1  -7 155.501 6.68265   3
   0   1   7 164.057 6.89969   4
   0   1   7 166.314 7.68228   3
   0   1  -8 199.272 8.15327   3
   0   1   8 199.829 9.27289   3
   0   1  -8 204.576 8.72246   4
   0   1   8 194.474 8.31061   4
   0   1   9 338.504 12.7151   4
   0   1  -9 338.551 12.2629   3
   0   1   9 329.151 13.4879   3
   0   1  -9 319.381 12.6164   4
   0   1  10 281.062 12.5169   3
   0   1 -10 268.711 11.4047   4
   0   1  10 294.712 11.9739   4
   0   1 -10 279.554 11.1917   3
   0   1 -11 83.9976 5.64529   3
   0   1  11 86.8771 6.66510   3
   0   1  11 78.5783 5.98407   4
   0   1 -11 86.3350 5.76318   4
   0   1 -12 38.3376 4.17955   3
   0   1  12 44.3690 5.11043   3
   0   1  12 30.4244 4.28293   4
   0   1 -12 45.0629 4.32150   4
   0   1 -13 58.9224 5.12986   4
   0   1  13 54.0804 5.90240   3
   0   1  13 52.0717 5.63252   4
   0   1  14 140.241 9.86320   3
   0   1 -14 143.193 8.42534   4
   0   1  15 58.1866 6.96958   3
   0   1 -15 49.3852 5.15039   4
   0   1  16-0.65960 3.48215   3
   0   1  17 65.4453 7.81107   3
   0   2   0 650.309 20.8203   7
   0   2   0 714.382 19.0484   3
   0   2  -1 1088.27 31.6531   6
   0   2   1 1140.25 30.0509   3
   0   2   1 1028.51 31.3790   7
   0   2   2 373.638 11.8739   3
   0   2  -2 414.608 12.9382   6
   0   2   3 105.768 3.53799   1
   0   2   3 108.702 3.96622   2
   0   2  -3 111.964 5.01714   6
   0   2  -4 845.573 25.5961   6
   0   2   4 865.682 24.3662   2
   0   2   4 887.153 23.3706   1
   0   2  -4 922.619 24.3242   3
   0   2   5 110.526 4.50488   4
   0   2  -5 125.514 6.30991   4
   0   2  -5 118.576 4.60507   3
   0   2  -6 9.92768 2.11972   4
   0   2  -6 8.76026 1.44610   3
   0   2   6 8.71343 1.41900   4
   0   2  -7 289.721 10.0666   3
   0   2   7 277.979 9.95555   4
   0   2  -7 309.598 11.8639   4
   0   2  -8 439.192 14.6018   3
   0   2  -8 455.104 16.2714   4
   0   2   8 440.159 14.6387   4
   0   2  -9 534.661 17.2813   3
   0   2   9 508.917 19.3173   3
   0   2  -9 545.709 18.9544   4
   0   2   9 523.633 17.4100   4
   0   2 -10 209.390 10.1302   4
   0   2 -10 207.483 8.92014   3
   0   2  10 203.613 9.05328   4
   0   2  10 213.615 10.7498   3
   0   2 -11 212.007 10.5099   4
   0   2 -11 226.922 9.72946   3
   0   2  11 228.655 11.6376   3
   0   2  11 215.238 9.99255   4
   0   2 -12 341.902 14.2077   4
   0   2 -12 323.009 12.9997   3
   0   2  12 339.267 15.4675   3
   0   2  12 322.104 13.7432   4
   0   2  13 91.6962 7.99366   3
   0   2 -13 81.1879 6.00646   3
   0   2 -13 92.2507 6.67434   4
   0   2  13 83.4324 6.49829   4
   0   2  14 12.0453 4.23233   3
   0   2 -14 7.09757 3.15140   4
   0   2 -15 23.8170 4.15574   4
   0   2  15 15.1812 5.07749   3
   0   2  16 30.9183 6.03785   3
   0   2 -16 31.8294 4.67212   4
   0   2  17 57.7697 7.83071   3
   0   2 -17 56.3669 6.00499   4
   0   3   0-0.11848 0.56238   3
   0   3  -1 834.901 25.3279   6
   0   3   1 800.546 22.8963   3
   0   3   2 1070.70 30.2881   3
   0   3  -2 1074.92 32.0330   6
   0   3  -3 651.458 17.2002   5
   0   3   3 632.324 19.4025   3
   0   3  -3 558.723 20.5327   6
   0   3   3 615.650 18.2192   1
   0   3   3 660.967 18.6094   2
   0   3   4 560.455 18.7715   3
   0   3   4 619.948 17.4013   2
   0   3   4 590.014 16.7062   1
   0   3  -4 614.727 19.3799   6
   0   3  -5 375.041 12.7811   6
   0   3   5 341.676 9.67835   1
   0   3   5 352.648 10.8076   2
   0   3   5 344.607 12.6543   3
   0   3   6 247.549 10.3911   3
   0   3   7 38.2326 2.73407   4
   0   3   7 31.6327 3.62919   3
   0   3   8 529.033 19.5688   3
   0   3  -8 566.604 19.9581   4
   0   3   8 546.588 17.1134   4
   0   3   9 13.7296 2.21143   4
   0   3  -9 17.9653 3.49973   4
   0   3   9 13.6950 3.17834   3
   0   3  10 384.045 13.7649   4
   0   3 -10 383.142 15.8829   4
   0   3  11 42.0196 3.97511   4
   0   3 -11 47.3469 4.87460   4
   0   3  12 1.26660 2.28420   4
   0   3 -12 1.72387 2.84797   4
   0   3 -13 36.6978 4.86302   4
   0   3  13 38.1531 4.68635   4
   0   3 -14 173.861 10.3183   4
   0   3 -15 61.9803 6.37801   4
   0   3 -16 17.2195 4.27079   4
   0   3  16 9.61454 4.74217   3
   0   4   1 281.106 9.23532   3
   0   4  -2 62.1069 5.13513   6
   0   4   2 80.8891 4.06730   3
   0   4  -3 44.2917 1.59135   5
   0   4  -3 45.9952 4.30669   6
   0   4   3 49.5850 3.50737   3
   0   4  -4 359.149 14.1225   4
   0   4   4 358.024 11.0539   1
   0   4   4 347.500 11.3311   2
   0   4   4 350.608 12.8468   3
   0   4  -4 338.834 13.4476   6
   0   4  -5 352.457 13.3153   6
   0   4   5 340.889 10.9496   2
   0   4  -5 331.137 13.9257   4
   0   4   5 349.794 13.0613   3
   0   4   5 333.558 10.1302   1
   0   4   6 13.2284 2.66704   3
   0   4  -6 12.5125 2.52150   6
   0   4   6 13.8301 1.66163   2
   0   4  -6 12.4874 2.87906   4
   0   4   6 15.3299 0.97431   1
   0   4   7 81.2937 5.97706   3
   0   4   8 403.851 16.4004   3
   0   4   8 409.432 13.4207   4
   0   4   9 86.6730 4.79833   4
   0   4   9 84.6735 6.85666   3
   0   4  10 11.1818 2.44646   4
   0   4  10 11.0363 3.31560   3
   0   4  11 103.319 5.93106   4
   0   4  11 77.5700 7.34668   3
   0   4 -11 93.7570 7.34957   4
   0   4  12 67.6220 7.23322   3
   0   4 -12 75.1578 6.86874   4
   0   4  12 71.5311 5.39849   4
   0   4 -13 109.754 8.37697   4
   0   4  13 115.283 9.62371   3
   0   4 -14 28.0571 5.05349   4
   0   4  14 23.1378 5.79536   3
   0   4  15 3.63747 4.20909   3
   0   4 -15 5.86573 3.52593   4
   0   5   0-2.19548 2.90884   7
   0   5  -1 234.196 11.1488   7
   0   5   1 223.522 11.1831   7
   0   5   2 705.791 25.2395   7
   0   5   2 735.782 21.8791   3
   0   5   3 104.636 7.43700   7
   0   5   3 104.449 5.28934   1
   0   5   3 115.856 5.82547   3
   0   5  -4 30.8867 4.05343   6
   0   5   4 28.6408 2.48715   1
   0   5   4 34.1540 4.69853   7
   0   5  -4 30.8741 4.03245   4
   0   5   4 28.6098 2.56793   2
   0   5   4 30.2200 3.20418   3
   0   5   5 49.4803 5.41423   7
   0   5   5 56.0372 4.52430   3
   0   5   5 57.5842 3.47216   2
   0   5  -5 53.4708 4.91269   6
   0   5   5 53.3339 2.98025   1
   0   5  -5 61.0147 5.59813   4
   0   5   6 260.314 8.28789   1
   0   5   6 261.935 12.6710   7
   0   5   6 283.427 9.56693   2
   0   5  -6 275.027 12.1176   6
   0   5   6 279.682 11.9569   3
   0   5  -6 282.648 13.0162   4
   0   5   7 53.4508 1.88089   1
   0   5   7 61.8279 5.46475   3
   0   5  -7 60.8392 5.82961   4
   0   5  -8 1.40962 2.82829   4
   0   5   8-0.84174 2.72123   3
   0   5   8 0.87312 1.45768   4
   0   5   9 47.1261 5.47605   3
   0   5  -9 52.0147 5.65090   4
   0   5   9 44.1881 3.48199   4
   0   5  10 55.8543 6.12903   3
   0   5  10 44.4745 3.77139   4
   0   5 -10 42.9370 5.41246   4
   0   5  11 26.2596 4.89490   3
   0   5  12 21.2133 5.15599   3
   0   5  13 19.7251 5.47581   3
   0   5  14 18.4697 5.19173   3
   0   6   0 456.515 18.5561   7
   0   6   1 15.2867 3.83170   7
   0   6   1 16.8218 4.16661   6
   0   6  -1 22.5712 4.20596   7
   0   6  -3 73.3489 6.07442   4
   0   6   3 54.6099 3.94464   2
   0   6   3 52.3523 3.99919   1
   0   6   3 57.2350 4.01396   3
   0   6   4 250.535 10.3621   3
   0   6   4 249.971 9.37794   2
   0   6  -4 235.753 12.1604   4
   0   6   4 240.098 9.30179   1
   0   6   5 51.1934 3.32762   1
   0   6   5 57.0568 4.88060   3
   0   6  -5 57.1847 5.94605   4
   0   6   5 53.8103 3.61310   2
   0   6  -6 25.8817 4.49695   4
   0   6   6 30.1531 2.73306   2
   0   6  -6 35.9882 4.46632   6
   0   6   6 27.9065 2.11904   1
   0   6   6 31.0582 4.05633   3
   0   6  -7 84.7847 7.49225   4
   0   6   7 95.0450 6.79407   3
   0   6  -7 91.0300 7.00028   6
   0   6  -8 68.0488 6.72489   4
   0   6   8 72.1244 6.43241   3
   0   6  -9 28.4120 4.83405   4
   0   6   9 24.8822 4.49001   3
   0   6  10 11.7755 4.04901   3
   0   6 -10 19.9760 4.67141   4
   0   6 -11 27.2576 5.03946   4
   0   6  11 20.4874 4.92537   3
   0   6  12 19.0772 5.03982   3
   0   6 -12 17.7653 4.74364   4
   0   6  13 10.3769 5.12875   3
   0   7   0 0.57804 3.56746   6
   0   7  -1 49.9012 6.25291   6
   0   7   1 41.8422 5.99544   6
   0   7  -2 101.748 7.75279   4
   0   7   2 94.3899 8.62346   6
   0   7   2 101.797 6.36610   1
   0   7  -3 0.95815 3.09753   4
   0   7   3 1.24440 3.44501   6
   0   7   3-1.31064 2.25976   1
   0   7   3 0.22866 1.84394   2
   0   7  -4 16.0640 4.26642   4
   0   7  -5 43.6588 5.75862   4
   0   7  -6 39.8822 5.55242   4
   0   7   6 42.1117 4.52177   3
   0   7   7 18.3352 3.79875   3
   0   7  -7 23.6651 4.56923   6
   0   7  -7 21.2713 4.79561   4
   0   7  -8 4.51371 3.64823   4
   0   7   8-0.44112 3.06623   3
   0   7  -9 7.38703 4.03652   4
   0   7   9 17.2324 4.43711   3
   0   7 -10 53.0949 6.71240   4
   0   7  10 64.9403 6.91357   3
   0   7  11 77.4744 7.95190   3
   0   7  12 4.48694 4.62476   3
   0   8   0 6.55829 3.52892   4
   0   8   0 3.28191 3.95311   6
   0   8   1 34.5661 6.26898   6
   0   8  -1 33.3631 5.81212   6
   0   8  -1 39.8010 5.42024   4
   0   8  -2 7.69241 3.86326   4
   0   8  -2 3.73963 3.75444   6
   0   8   2 5.50719 4.55112   6
   0   8  -3 4.14152 3.78790   6
   0   8   3 8.54055 4.99798   6
   0   8  -3 11.7280 4.39456   4
   0   8  -4 70.3070 7.25321   6
   0   8   4 79.8806 8.72270   6
   0   8  -4 65.9783 7.02060   4
   0   8  -5 111.359 9.17004   4
   0   8  -6 20.7075 5.12905   4
   0   8  -7 28.4768 5.59362   4
   0   8  -8 49.0334 6.86648   4
  -1  -8   8 18.8911 6.22952   7
  -1  -8   7 80.7857 9.10099   7
  -1  -8   6 38.7364 6.86837   7
  -1  -8   5 5.07224 4.84048   7
  -1  -8   4 10.7405 4.98458   7
   1  -8   3 9.23276 5.19661   7
   1  -8   4 44.4695 7.37033   7
   1  -8   5 0.77348 4.08336   7
   1  -8   6-0.79704 4.41313   7
  -1  -7  11 8.68587 5.43986   7
  -1  -7  10 34.8206 6.86575   7
  -1  -7   9 89.8438 9.29865   7
  -1  -7   8 27.4709 5.80527   7
  -1  -7   7 0.68525 3.73624   7
  -1  -7   6 23.3019 5.20919   7
  -1  -7   5 51.4951 6.79077   7
  -1  -7   4 161.941 11.0928   7
  -1  -7   3 1.80189 3.37592   7
   1  -7   1 104.729 9.12431   7
   1  -7   2 9.07325 4.10297   7
   1  -7   3 27.9695 5.68949   7
   1  -7   4 196.227 12.9961   7
   1  -7   5 49.7870 6.88269   7
   1  -7   6 25.8697 5.66728   7
   1  -7   7 82.5897 9.08014   7
   1  -7   8 34.1728 6.44300   7
   1  -7   9 1.58918 4.65869   7
   1  -7  10 55.0742 8.28840   7
  -1  -6  13 0.76999 4.39063   7
  -1  -6  12 2.91215 4.21094   7
  -1  -6  11 47.2191 7.00027   7
  -1  -6  10 22.6540 5.40552   7
  -1  -6   9 30.0034 5.38586   7
  -1  -6   8 17.8711 4.62441   7
  -1  -6   7 73.8726 7.51518   7
  -1  -6   6 287.315 14.9145   7
  -1  -6   5 13.8427 3.90206   7
  -1  -6   4 178.148 10.9265   7
  -1  -6   3 141.161 9.41908   7
  -1  -6   2 326.170 15.1554   7
   1  -6   0 113.703 8.62934   7
   1  -6   1 48.6774 5.95197   7
   1  -6   2 223.817 12.6393   7
   1  -6   3 19.4328 4.50410   7
   1  -6   4 144.181 10.1482   7
   1  -6   5 23.4609 4.75009   7
   1  -6   6 120.830 9.59846   7
   1  -6   7 14.8362 4.54280   7
   1  -6   8 19.4807 4.99918   7
   1  -6   9 101.145 9.31290   7
   1  -6  10 31.8173 6.43280   7
   1  -6  11 38.0073 6.67694   7
   1  -6  12 23.7284 6.24055   7
  -1  -5  14 28.0429 6.28431   7
  -1  -5  13 121.160 10.2775   7
  -1  -5  12 102.274 9.18644   7
  -1  -5  11 44.8082 6.25867   7
  -1  -5  10 41.6724 5.76844   7
  -1  -5   9 107.973 8.61220   7
  -1  -5   8 213.980 12.1645   7
   1  -5  -8 238.576 10.6217   3
   1  -5  -7 27.5730 3.41417   3
  -1  -5   7 24.2252 4.31709   7
  -1  -5   6 6.24398 2.82326   7
   1  -5  -6 8.91482 2.42641   3
   1  -5  -5 56.3255 4.08146   3
  -1  -5   5 63.9534 6.00511   7
  -1  -5   4 130.918 8.43945   7
  -1  -5   3 53.2565 5.29842   7
   1  -5  -2 145.586 5.94571   3
  -1  -5   2 152.708 8.76227   7
   1  -5  -1 73.1932 3.39020   3
  -1  -5   1 71.1288 5.84426   7
   1  -5   0 469.510 18.4547   7
   1  -5   0 458.921 13.0880   3
   1  -5   1 215.576 11.4013   7
   1  -5   2 133.806 8.68707   7
   1  -5   3 247.012 12.8025   7
   1  -5   4 282.683 13.8800   7
   1  -5   5 9.15858 3.37058   7
   1  -5   6 109.058 8.40212   7
   1  -5   7 146.287 9.73588   7
  -1  -5  -7 134.752 7.29718   3
  -1  -5  -8 93.3047 6.24983   3
   1  -5   8 85.4207 7.70539   7
   1  -5   9 4.82468 3.34155   7
   1  -5  10 21.3768 4.78763   7
   1  -5  11 63.4165 7.69022   7
   1  -5  12 32.8013 6.19860   7
   1  -5  13 76.8897 8.87414   7
   1  -4  -9 14.2840 3.15114   3
  -1  -4   8 38.8730 4.59992   7
   1  -4  -8 29.7225 3.65238   3
  -1  -4   8 30.0232 4.27983   6
   1  -4  -7 255.297 10.6518   3
  -1  -4   7 236.928 11.7955   6
  -1  -4   7 274.616 12.3935   7
  -1  -4   6 175.339 9.57894   6
   1  -4  -6 196.744 8.50576   3
  -1  -4   6 200.867 10.1604   7
  -1  -4   5 116.015 7.21172   7
  -1  -4   5 106.439 6.99967   6
  -1  -4   4 15.1589 2.96914   7
   1  -4  -3 113.667 5.21998   3
   1  -4  -2 516.720 15.7594   3
   1  -4  -1 244.462 8.13336   3
   1  -4   0 35.8086 1.98692   3
   1  -4   1 272.601 7.85513   3
   1  -4   1 244.947 11.8398   7
   1  -4   2 218.199 10.5334   7
   1  -4   3 68.8044 5.66171   7
   1  -4   4 293.946 8.36890   3
   1  -4   4 316.910 13.4940   7
   1  -4   5 326.076 9.82465   3
   1  -4   5 345.047 14.5455   7
  -1  -4  -5 339.020 12.0990   3
   1  -4   6 307.546 9.66142   3
  -1  -4  -6 300.628 11.6826   3
   1  -4   6 301.273 13.7672   7
  -1  -4  -7 173.785 8.40885   3
   1  -4   7 189.658 6.87206   3
   1  -4   7 179.089 10.1694   6
   1  -4   7 160.154 9.94984   7
   1  -4   8 283.547 13.8630   6
  -1  -4  -8 299.119 12.3896   3
   1  -4   8 329.162 14.8371   7
   1  -4   8 298.123 10.5588   3
   1  -4   9 104.158 5.52672   3
  -1  -4  -9 106.793 6.89910   3
   1  -4  10 186.082 8.31807   3
   1  -4  11 19.2387 3.05361   3
   1  -3 -15 0.38606 2.75961   2
  -1  -3  14 23.0172 4.08749   3
   1  -3 -14 27.3455 3.83819   2
  -1  -3  13 20.6353 3.77636   3
   1  -3 -13 29.0691 3.71523   2
   1  -3 -12 32.7982 3.73925   2
  -1  -3  12 39.0391 4.23509   3
  -1  -3  11 47.0462 4.46818   3
   1  -3 -11 49.8843 4.30605   2
  -1  -3  10 65.8698 5.58003   6
  -1  -3  10 60.7793 3.45745   5
   1  -3 -10 63.1892 5.18815   3
   1  -3 -10 65.8213 4.64591   2
  -1  -3  10 66.9563 4.89181   3
  -1  -3   9 491.659 14.8638   5
  -1  -3   9 517.147 16.8207   3
   1  -3  -9 491.005 17.7344   3
  -1  -3   9 519.056 18.7953   6
   1  -3  -9 469.610 16.5657   2
  -1  -3   8 912.349 25.2705   5
  -1  -3   8 950.019 29.5934   6
  -1  -3   8 861.645 26.7877   3
   1  -3  -8 913.324 28.3817   3
   1  -3  -7 21.7861 2.83075   3
  -1  -3   7 21.7587 3.00120   6
   1  -3  -6 459.580 15.5903   3
  -1  -3   6 452.776 16.4936   6
  -1  -3   5 1200.58 35.9770   6
   1  -3  -4 1402.82 39.7609   3
   1  -3  -3 143.072 6.00060   3
  -1  -3   2 85.0589 4.89595   7
   1  -3  -2 63.5828 3.46250   3
   1  -3  -1 789.450 21.9153   3
  -1  -3   1 730.151 23.7328   7
   1  -3   0 9.49052 1.12438   3
  -1  -3   0 7.84090 1.77213   7
   1  -3   1 356.449 10.4714   3
   1  -3   3 16.8163 1.18924   3
  -1  -3  -3 15.9102 1.82103   3
   1  -3   4 551.837 15.8116   3
   1  -3   5 131.911 5.09460   3
   1  -3   6 39.4739 2.69609   3
  -1  -3  -6 39.4909 3.44651   3
   1  -3   7 144.300 6.18275   3
  -1  -3  -7 136.069 7.08423   3
   1  -3   7 149.505 8.21405   6
   1  -3   8 193.297 8.12058   3
  -1  -3  -8 195.111 9.10803   3
   1  -3   8 204.316 10.2767   6
  -1  -3  -8 197.005 7.50575   2
   1  -3   9 175.542 9.68801   6
   1  -3   9 168.453 7.89738   3
  -1  -3  -9 177.019 8.85473   3
  -1  -3  -9 174.960 7.08926   2
   1  -3  10 78.2382 5.29863   3
  -1  -3 -10 86.9703 4.72218   2
   1  -3  10 87.3960 6.98019   6
   1  -3  11 71.8283 5.22942   3
  -1  -3 -11 61.5063 4.25966   2
   1  -3  12 75.5368 5.89314   3
  -1  -3 -12 76.2720 4.84700   2
   1  -3  13 3.95983 2.47538   3
  -1  -3 -13 3.57049 2.07354   2
   1  -3  14 71.9156 6.45644   3
   1  -2 -17 72.7739 6.47117   2
  -1  -2  17 71.7638 7.73716   3
   1  -2 -16 28.4156 4.34896   2
  -1  -2  16 36.7956 5.50733   3
  -1  -2  15 21.4141 4.58111   3
   1  -2 -15 17.9861 3.37506   2
   1  -2 -14 101.485 6.73890   2
  -1  -2  14 100.136 7.64322   3
  -1  -2  13 11.6754 3.35663   3
   1  -2 -13 14.6670 2.95235   2
   1  -2 -12 66.5495 2.93130   1
   1  -2 -12 82.4243 5.34592   2
  -1  -2  12 71.8051 5.94405   3
  -1  -2  12 65.6542 4.51767   5
   1  -2 -11 209.365 10.1278   3
  -1  -2  11 205.069 9.90645   3
   1  -2 -11 198.682 6.61717   1
   1  -2 -11 221.233 9.32409   2
  -1  -2  11 221.067 8.70236   5
  -1  -2  10 246.759 10.6281   3
   1  -2 -10 228.390 7.45525   1
  -1  -2  10 235.575 11.6362   4
  -1  -2  10 240.851 10.6064   6
   1  -2 -10 253.403 9.79533   2
   1  -2 -10 241.983 10.6370   3
  -1  -2   9 242.008 10.3410   3
   1  -2  -9 248.493 7.73624   1
   1  -2  -9 255.607 10.7610   3
  -1  -2   9 244.288 10.6012   6
   1  -2  -9 255.807 9.72364   2
  -1  -2   9 277.881 11.9356   4
  -1  -2   8 100.991 5.61810   3
  -1  -2   8 116.311 6.79795   4
  -1  -2   8 95.7276 5.64973   6
   1  -2  -8 97.4488 3.66719   1
   1  -2  -8 103.934 5.19702   2
   1  -2  -8 99.7027 5.77256   3
   1  -2  -7 406.561 13.7813   2
   1  -2  -7 435.634 12.3124   1
  -1  -2   7 419.412 14.2602   3
   1  -2  -7 421.094 14.7970   3
   1  -2  -6 784.728 22.4973   1
  -1  -2   6 827.240 24.0601   3
   1  -2  -6 865.069 24.1576   2
   1  -2  -5 25.5014 1.66952   1
  -1  -2   5 26.4781 2.10557   3
   1  -2  -5 27.2387 2.26937   2
   1  -2  -4 129.120 5.73791   3
   1  -2  -4 130.415 4.79717   1
  -1  -2   4 143.686 6.35835   4
  -1  -2   3 1650.63 45.6812   6
   1  -2  -3 1621.25 45.0835   3
  -1  -2   2 1479.99 41.3252   7
  -1  -2   2 1451.33 41.4521   6
   1  -2  -2 1500.42 40.6931   3
   1  -2  -1 1417.76 38.8333   3
  -1  -2   1 1432.28 39.7514   7
  -1  -2   0 37.9818 2.72042   7
  -1  -2  -3 1163.80 33.3648   3
   1  -2   3 1199.28 32.3853   3
  -1  -2  -4 489.094 13.8357   2
  -1  -2  -4 493.070 15.3420   3
   1  -2   4 473.411 14.4009   3
   1  -2   5 572.148 16.4640   3
  -1  -2  -5 525.122 15.6379   2
   1  -2   6 419.359 13.4504   3
   1  -2   6 408.276 14.6983   6
  -1  -2  -6 411.495 12.4420   2
  -1  -2  -6 417.645 14.2481   3
   1  -2   7 302.994 10.3095   5
  -1  -2  -7 301.533 11.4551   3
   1  -2   7 276.176 10.6376   3
   1  -2   7 296.021 11.7526   6
  -1  -2  -7 308.678 9.76620   2
   1  -2   8 551.584 18.2406   3
  -1  -2  -8 529.386 18.6707   3
  -1  -2  -8 563.711 16.8955   2
   1  -2   8 571.544 19.2174   6
  -1  -2  -9 83.1729 5.64982   3
  -1  -2  -9 85.5935 4.42171   2
   1  -2   9 85.5117 5.42608   3
   1  -2   9 92.7145 4.93727   5
   1  -2   9 83.3429 5.80882   6
   1  -2  10 223.231 10.2171   3
   1  -2  10 240.287 10.9068   6
  -1  -2 -10 237.511 10.7154   3
   1  -2  10 234.212 9.38818   5
  -1  -2 -10 231.476 8.92992   2
   1  -2  11 39.7248 3.52165   5
   1  -2  11 40.7319 4.61500   6
   1  -2  11 39.7338 4.29514   3
  -1  -2 -11 49.9639 3.67671   2
   1  -2  12 27.8679 3.96922   3
  -1  -2 -12 29.8600 3.10368   2
   1  -2  12 23.2850 3.07693   5
   1  -2  13 34.4752 4.58696   3
  -1  -2 -13 30.2754 3.31830   2
   1  -2  14 54.6674 6.02823   3
  -1  -2 -14 71.2176 5.05433   2
   1  -2  15 15.4629 4.14140   3
  -1  -2 -15 12.3584 2.87753   2
   1  -2  16 47.2631 6.40198   3
   1  -1 -18 32.6600 4.98173   2
  -1  -1  18 40.5665 6.63313   3
  -1  -1  17 141.484 10.4687   3
   1  -1 -17 123.773 8.23869   2
  -1  -1  16 111.386 9.06530   3
   1  -1 -16 125.596 7.84413   2
   1  -1 -15 4.22056 2.53725   2
  -1  -1  15-1.05724 3.74436   3
  -1  -1  14 5.31260 3.12983   3
   1  -1 -14 10.1251 2.66102   2
   1  -1 -13 135.645 5.38206   1
  -1  -1  13 127.285 8.48823   3
   1  -1 -13 139.243 7.42887   2
  -1  -1  12 25.3849 3.91920   3
   1  -1 -12 32.2292 2.23530   1
   1  -1 -12 29.4397 3.24639   2
  -1  -1  12 24.7418 4.20790   4
   1  -1 -11 84.2993 5.23448   2
   1  -1 -11 87.7559 3.81346   1
  -1  -1  11 85.2553 6.23219   3
   1  -1 -10 48.3301 3.66333   2
  -1  -1  10 35.3443 4.03689   3
   1  -1 -10 48.2339 2.53801   1
   1  -1  -9 444.285 13.1591   1
   1  -1  -9 473.315 15.0021   2
   1  -1  -9 424.869 15.6720   3
  -1  -1   9 433.470 16.0077   3
  -1  -1   8 318.831 12.8566   4
  -1  -1   8 320.469 12.3222   3
   1  -1  -8 323.049 9.88813   1
   1  -1  -8 314.971 12.1446   3
   1  -1  -8 357.717 11.5834   2
   1  -1  -7 179.759 6.16983   1
  -1  -1   7 226.307 8.58087   3
   1  -1  -7 203.507 7.47722   2
  -1  -1   6 458.377 14.5740   3
   1  -1  -6 435.193 12.5908   1
   1  -1  -6 440.255 13.7001   2
   1  -1  -5 144.952 4.72507   1
   1  -1  -5 148.858 5.60137   2
  -1  -1   5 146.586 6.05929   3
   1  -1  -4 1872.45 51.9319   2
   1  -1  -4 1945.62 50.9726   1
  -1  -1   4 1894.80 52.1555   3
   1  -1  -3 1548.68 43.0678   2
   1  -1  -3 1602.47 42.2510   1
  -1  -1   2 315.560 9.30958   4
   1  -1  -2 288.685 8.72619   1
  -1  -1   1 1324.56 36.4672   4
  -1  -1   1 1343.35 36.5593   7
  -1  -1   1 1412.13 36.7594   6
   1  -1  -1 1356.17 36.6199   1
  -1  -1   0 8118.72 213.025   5
  -1  -1  -2 1350.48 35.7423   4
  -1  -1  -2 1351.95 35.7071   1
   1  -1   3 2064.63 55.5681   3
  -1  -1  -3 2064.18 54.7960   4
   1  -1   4 1584.95 44.1088   3
  -1  -1  -4 1599.86 43.3323   4
   1  -1   4 1608.42 43.9505   5
  -1  -1  -4 1613.72 42.3975   1
   1  -1   5 174.802 6.89824   3
   1  -1   5 166.641 6.84774   6
   1  -1   5 180.847 6.72919   5
  -1  -1  -5 191.730 6.33289   4
  -1  -1  -5 178.050 5.32599   1
   1  -1   6 540.897 16.0617   5
  -1  -1  -6 524.583 15.5343   4
  -1  -1  -6 498.341 14.3714   1
   1  -1   6 509.651 16.3324   3
   1  -1   6 519.211 16.3530   6
  -1  -1  -7 917.310 24.8990   1
   1  -1   7 845.744 27.0782   3
   1  -1   7 930.296 27.0744   6
  -1  -1  -7 911.850 26.2834   4
  -1  -1  -8 521.692 15.8149   4
   1  -1   8 506.088 16.9227   3
  -1  -1  -8 472.609 16.7026   3
  -1  -1  -8 473.229 14.1754   1
   1  -1   8 501.012 16.4315   6
   1  -1   9 250.356 9.96852   5
  -1  -1  -9 235.328 8.00645   1
   1  -1   9 259.156 10.2626   6
   1  -1   9 262.218 10.7860   3
  -1  -1  -9 262.669 9.63072   4
  -1  -1 -10 38.4354 2.35947   1
   1  -1  10 33.7863 3.53632   6
   1  -1  10 35.8742 3.38045   5
   1  -1  10 34.9868 3.90978   3
  -1  -1 -10 36.1544 3.27839   4
  -1  -1 -11 275.953 9.11701   1
   1  -1  11 275.494 11.5117   6
  -1  -1 -11 271.363 8.70544   1
   1  -1  11 307.216 12.7645   3
   1  -1  11 289.537 11.4792   5
   1  -1  12 76.7391 5.50318   5
   1  -1  12 74.4061 6.25928   3
  -1  -1 -12 76.1742 3.32958   1
   1  -1  13 7.03231 3.08950   3
  -1  -1 -14 110.095 6.58026   2
   1  -1  14 102.010 7.98153   3
   1  -1  15 89.0411 7.90406   3
  -1  -1 -15 90.7024 6.04427   2
  -1  -1 -16-0.33830 2.39612   2
   1  -1  16-0.59159 4.15110   3
   1  -1  17 14.2498 5.04696   3
  -1   0  18 11.9802 5.52168   3
   1   0 -18 6.07068 3.27024   2
   1   0 -17 1.22682 2.86958   2
  -1   0  17 0.66042 4.02588   3
   1   0 -16 1.53060 2.41851   2
  -1   0  16-1.21884 3.94031   3
   1   0 -15 5.34462 2.57180   2
  -1   0  15 1.68260 3.10696   3
   1   0 -14 151.286 6.55295   1
  -1   0  14 127.956 9.16580   3
   1   0 -14 141.894 7.91227   2
   1   0 -13 126.126 5.85242   1
  -1   0  13 127.398 8.69401   3
  -1   0  12 26.7132 4.09890   4
   1   0 -12 26.6409 3.68063   3
   1   0 -12 25.6237 2.52301   1
  -1   0  12 29.3291 4.23527   3
   1   0 -11 214.941 9.94801   3
  -1   0  11 223.416 11.0685   3
   1   0 -11 216.924 8.24328   1
  -1   0  11 230.227 10.9291   4
  -1   0  10 635.496 22.7615   3
   1   0 -10 675.291 19.8870   1
   1   0 -10 663.402 21.7275   3
  -1   0  10 644.602 22.3491   4
   1   0  -9 192.924 8.23976   4
   1   0  -9 193.333 7.28104   1
   1   0  -9 196.236 8.62170   3
  -1   0   9 191.820 8.89011   4
  -1   0   9 197.490 9.36396   3
   1   0  -8 91.8715 5.35360   3
  -1   0   8 102.401 6.02871   3
   1   0  -8 119.107 5.52047   4
  -1   0   7 425.403 15.0228   3
   1   0  -7 432.488 13.9812   4
   1   0  -6 3251.97 86.8661   4
  -1   0   6 3187.59 87.8833   3
   1   0  -5 7.07763 1.02594   1
   1   0  -5 9.95903 1.38900   4
  -1   0   5 7.58792 1.63047   3
   1   0  -4 339.835 9.92615   1
  -1   0   4 317.165 10.9236   3
   1   0  -3 676.789 19.0549   1
  -1   0   3 718.308 20.0095   3
   1   0  -2 69.6675 2.54834   1
   1   0  -2 71.7799 2.73484   2
   1   0  -1 2931.34 75.1140   2
   1   0  -1 2770.22 75.0223   1
   1   0   0 725.460 19.5844   1
  -1   0  -1 729.134 20.1073   5
  -1   0  -2-0.05533 0.73905   1
   1   0   2 0.64978 0.96843   3
  -1   0  -2 0.89865 0.68657   5
   1   0   3 3.04406 1.17388   3
  -1   0  -3 2.66638 1.08071   4
   1   0   4 1105.52 30.7761   3
  -1   0  -4 1052.14 30.6525   4
   1   0   4 1094.01 30.5485   5
  -1   0  -5 266.174 9.50681   4
   1   0   5 269.608 9.57929   5
   1   0   5 286.017 9.88358   3
  -1   0  -6 3752.49 100.720   4
   1   0   6 3721.57 101.214   3
  -1   0  -7 4.92878 1.46198   4
   1   0   7 11.3684 2.05782   3
   1   0   8 78.7273 5.17349   3
  -1   0  -8 65.4929 4.51146   3
   1   0   8 72.4486 4.57949   5
  -1   0  -8 79.2506 4.60671   4
   1   0   9 724.143 22.7569   5
  -1   0  -9 702.353 22.2987   4
   1   0   9 709.580 23.5823   3
  -1   0  -9 690.213 22.6486   3
   1   0  10 69.1066 4.93467   5
   1   0  10 68.5434 5.45276   3
  -1   0 -10 62.6897 4.56116   4
  -1   0 -10 66.6270 5.01522   3
  -1   0 -11 74.0387 5.50895   3
   1   0  11 71.4622 5.92861   3
   1   0  11 78.9136 5.46192   5
  -1   0 -11 79.1276 5.25005   4
   1   0  12 6.01842 3.22053   3
  -1   0 -12 11.1593 2.39984   4
   1   0  12 12.1354 2.85756   5
   1   0  13 6.60845 3.22746   3
  -1   0 -13 12.1940 2.69102   4
   1   0  14 70.9408 6.94452   3
  -1   0 -14 76.7858 5.61916   4
   1   0  15 43.5224 5.92680   3
   1   0  16 0.61962 3.96150   3
   1   0  17 84.1291 8.62825   3
  -1   0 -17 75.2921 6.20119   2
  -1   1  17 130.321 10.7179   3
   1   1 -17 116.030 8.06136   2
  -1   1  16 113.285 9.54248   3
  -1   1  15 3.60656 3.70975   3
   1   1 -15 0.25043 1.70692   1
   1   1 -14 9.80771 2.34444   1
  -1   1  14 13.2278 3.76684   3
  -1   1  13 131.934 9.37742   3
   1   1 -13 151.742 8.28264   4
   1   1 -12 33.4541 3.76968   4
  -1   1  12 35.5446 4.84599   3
  -1   1  12 30.9946 4.05112   4
   1   1 -12 31.3275 3.82863   3
  -1   1  11 76.1985 5.67592   4
   1   1 -11 88.9115 5.80069   4
   1   1 -11 75.5269 5.34573   3
  -1   1  11 94.6535 6.91827   3
  -1   1  10 38.7929 4.51422   3
  -1   1  10 45.5219 4.00865   4
   1   1 -10 42.8094 3.91612   4
   1   1 -10 48.3473 4.06742   3
  -1   1   9 477.414 17.6327   3
  -1   1   9 450.788 16.0734   4
   1   1  -9 467.157 15.9364   3
   1   1  -9 497.374 16.4337   4
  -1   1   8 319.205 11.6010   4
   1   1  -8 338.535 11.9621   4
  -1   1   8 327.389 13.0451   3
   1   1  -8 311.692 11.4766   3
   1   1  -7 228.986 8.64587   4
   1   1  -7 203.302 8.18175   3
  -1   1   7 216.230 8.20602   4
  -1   1   7 214.238 9.38625   3
   1   1  -6 480.990 15.1312   4
   1   1  -6 483.379 14.8678   3
  -1   1   6 444.032 14.5168   4
  -1   1   6 474.367 15.9143   3
   1   1  -5 158.504 6.33461   4
  -1   1   5 145.955 6.70267   3
   1   1  -5 160.242 6.11562   3
   1   1  -4 1937.23 52.8340   3
  -1   1   4 1998.46 53.8797   3
  -1   1   4 1913.10 51.9487   1
   1   1  -4 2033.47 53.2966   4
  -1   1   3 1462.25 42.2297   3
  -1   1   3 1551.72 40.7566   1
  -1   1   1 1412.99 38.6100   7
  -1   1   0 8150.70 214.631   7
  -1   1  -1 696.203 19.9104   6
   1   1   2 1383.18 36.4698   4
  -1   1  -2 1401.77 37.4826   6
   1   1   2 1386.33 36.2184   1
   1   1   3 2025.55 54.7072   4
   1   1   3 2090.15 55.8514   3
   1   1   4 1602.00 44.2162   3
   1   1   4 1570.49 43.1686   4
  -1   1  -4 1579.03 44.8160   4
   1   1   5 168.926 7.20107   3
  -1   1  -5 183.914 7.67389   4
   1   1   5 165.282 6.54329   4
   1   1   6 494.801 15.9824   4
   1   1   6 519.382 16.9794   3
  -1   1  -6 520.211 17.2371   4
  -1   1  -6 503.862 15.9935   3
  -1   1  -7 885.700 26.1620   3
   1   1   7 873.193 27.3728   3
   1   1   7 854.410 26.2477   4
  -1   1  -7 896.424 27.1906   4
  -1   1  -8 525.018 16.8426   3
   1   1   8 472.935 16.8732   4
  -1   1  -8 520.953 17.6046   4
   1   1   8 509.042 18.0916   3
   1   1   9 267.899 11.6525   3
  -1   1  -9 250.163 10.2478   3
  -1   1  -9 256.766 10.8549   4
   1   1   9 247.310 10.6205   4
   1   1  10 41.8407 4.61728   3
  -1   1 -10 39.7562 3.83172   3
  -1   1 -10 37.1584 3.99334   4
   1   1  10 44.5517 4.29695   4
   1   1  11 292.567 12.2707   5
   1   1  11 316.816 13.7426   3
  -1   1 -11 272.660 11.7182   3
  -1   1 -11 271.982 12.0236   4
   1   1  11 275.770 12.3641   4
  -1   1 -12 80.5154 5.83844   4
   1   1  12 73.7698 6.51921   3
   1   1  13 10.1398 3.62992   3
  -1   1 -13 6.79686 2.63406   4
   1   1  14 100.595 8.42330   3
  -1   1 -14 104.573 7.21490   4
   1   1  15 78.2723 7.99220   3
  -1   1 -15 84.6064 6.54039   4
  -1   1 -16 1.24817 2.91974   4
   1   1  16 2.61702 3.93832   3
   1   1  17 16.3537 5.45628   3
  -1   2  17 81.4589 8.95986   3
   1   2 -16 23.5236 3.49171   1
  -1   2  16 15.3188 5.05470   3
   1   2 -16 24.2698 4.45050   4
  -1   2  15 24.5287 5.34397   3
   1   2 -15 19.3045 3.78429   4
  -1   2  14 89.0774 8.25054   3
   1   2 -14 99.2023 7.14505   4
  -1   2  13 10.3541 3.79684   3
   1   2 -13 8.38421 2.80989   4
   1   2 -13 12.1021 3.11139   3
   1   2 -12 71.7489 5.31237   3
   1   2 -12 71.6179 5.68240   4
  -1   2  12 67.9802 5.42804   4
  -1   2  12 64.0111 6.64576   3
   1   2 -11 215.904 9.45778   3
   1   2 -11 209.995 10.1593   4
  -1   2  11 221.832 11.6867   3
  -1   2  11 213.010 9.67702   4
  -1   2  10 268.413 12.4982   3
   1   2 -10 251.932 10.1419   3
  -1   2  10 236.823 10.1028   4
   1   2 -10 265.271 11.1475   4
  -1   2   9 235.352 9.52993   4
   1   2  -9 242.125 10.6937   4
   1   2  -9 251.031 9.64734   3
  -1   2   9 261.060 11.7342   3
   1   2  -8 89.2656 4.88621   3
   1   2  -8 107.118 6.01179   4
  -1   2   8 98.7284 5.00243   4
   1   2  -7 407.722 13.2783   3
   1   2  -7 408.922 14.5531   4
  -1   2   7 417.492 13.3753   4
   1   2  -6 851.355 23.9222   3
  -1   2   6 818.487 22.6467   1
  -1   2   5 26.7022 1.42743   1
  -1   2   5 26.1522 2.01806   2
   1   2  -5 30.1297 2.04101   3
  -1   2   4 122.487 4.19279   1
   1   2  -4 124.224 4.56226   3
  -1   2   4 132.938 5.03117   2
   1   2  -3 1563.64 42.8661   3
  -1   2   3 1599.65 43.7332   2
  -1   2   3 1633.55 43.0110   1
  -1   2   2 1568.01 41.2305   3
  -1   2   2 1597.47 42.1691   7
  -1   2   2 1448.89 40.5732   1
   1   2  -2 1403.57 41.1514   4
   1   2  -1 1434.32 39.0410   4
  -1   2   1 1359.14 40.1501   7
   1   2  -1 1436.03 37.9075   5
   1   2   0 41.4479 2.03636   5
  -1   2   0 45.5725 3.21744   7
   1   2   0 38.5685 1.97191   3
   1   2   1 1052.23 29.1612   3
  -1   2  -1 1040.72 30.6145   6
  -1   2  -1 1069.37 30.6677   7
  -1   2  -2 1365.94 39.0562   6
   1   2   2 1389.80 36.5193   2
   1   2   2 1333.96 38.1268   3
  -1   2  -3 1227.74 33.5218   6
   1   2   3 1168.81 30.8459   1
   1   2   3 1132.10 31.2425   4
  -1   2  -3 1178.49 31.9095   5
   1   2   4 464.848 13.5966   4
  -1   2  -4 460.414 15.0727   6
  -1   2  -4 496.845 14.2335   5
  -1   2  -5 570.361 19.1933   4
   1   2   5 558.412 16.3713   4
   1   2   6 452.741 14.0175   4
  -1   2  -6 456.085 16.5766   4
  -1   2  -7 308.601 12.7444   4
   1   2   7 297.513 10.5245   4
   1   2   8 551.924 18.2465   4
  -1   2  -8 602.654 20.5494   4
  -1   2  -9 108.974 6.83609   4
   1   2   9 96.3154 5.65288   4
   1   2   9 93.8802 6.63387   3
  -1   2 -10 219.115 10.6198   4
   1   2  10 219.899 11.1919   3
   1   2  10 214.911 9.67466   4
   1   2  11 31.1106 3.83767   4
   1   2  11 27.4164 4.26011   3
  -1   2 -11 37.5619 4.41559   4
   1   2  12 28.0578 4.83608   3
   1   2  12 26.0062 3.87172   4
  -1   2 -12 30.4450 4.41207   4
   1   2  13 22.4686 4.10343   4
   1   2  13 31.4287 4.92527   3
  -1   2 -13 31.0136 4.37362   4
   1   2  14 65.8099 7.04890   3
  -1   2 -14 53.9716 5.65270   4
   1   2  15 12.8992 4.62375   3
  -1   2 -15 13.9562 3.69888   4
  -1   2 -16 72.5436 6.61793   4
   1   2  16 70.2863 8.23144   3
  -1   3  16 10.4261 5.13466   3
   1   3 -16 11.9023 3.77548   4
   1   3 -15 0.47343 3.02686   4
   1   3 -14 26.8522 4.30586   4
   1   3 -13 22.1798 3.40446   3
   1   3 -13 21.2003 3.83224   4
   1   3 -12 41.2989 3.89287   3
   1   3 -12 41.6581 4.65553   4
  -1   3  12 38.0349 4.03020   4
   1   3 -11 50.2427 4.01109   3
  -1   3  11 46.8216 4.23411   4
   1   3 -11 44.6559 4.83055   4
  -1   3  10 49.2984 5.48862   3
   1   3 -10 59.3809 4.02621   3
  -1   3  10 58.9741 4.21700   4
  -1   3   9 459.737 15.6769   4
   1   3  -9 476.899 15.4266   3
  -1   3   9 508.717 18.7617   3
   1   3  -8 914.150 26.5526   3
  -1   3   8 936.152 29.8501   3
  -1   3   8 905.009 26.9466   4
  -1   3   7 21.2148 3.09755   3
  -1   3   7 20.2408 1.27779   1
   1   3  -7 20.1456 1.92389   3
  -1   3   6 445.563 16.2042   3
  -1   3   6 465.168 12.9398   1
   1   3  -6 445.164 13.5602   3
  -1   3   6 447.971 14.2274   2
   1   3  -5 1163.95 32.1562   3
  -1   3   5 1190.63 35.1381   3
  -1   3   5 1168.49 33.3047   2
   1   3  -5 1215.37 35.3172   4
  -1   3   5 1197.65 32.1661   1
  -1   3   4 1430.67 39.2701   3
  -1   3   4 1361.65 40.0862   7
  -1   3   4 1348.73 36.9781   1
   1   3  -4 1335.68 36.1900   3
   1   3  -4 1393.06 39.5250   4
  -1   3   4 1350.25 37.8553   2
  -1   3   3 135.013 5.98637   3
  -1   3   3 115.213 6.56065   7
  -1   3   3 130.508 5.08758   1
   1   3  -3 129.030 6.10515   4
   1   3  -2 76.9183 4.34674   4
  -1   3   2 83.0542 3.98444   1
  -1   3   2 80.6224 5.18355   7
   1   3  -1 727.361 22.7307   7
   1   3  -1 738.666 20.2093   3
   1   3  -1 754.034 20.3532   5
  -1   3   1 694.130 23.4242   7
  -1   3   0 7.92498 2.12068   7
   1   3   0 7.10801 2.12523   7
   1   3   0 7.76329 1.96059   6
   1   3   0 9.32891 1.04522   3
   1   3   1 334.266 12.5849   7
   1   3   1 358.804 11.0943   3
  -1   3  -1 337.284 12.9787   7
  -1   3  -1 389.044 13.5298   6
  -1   3  -2 650.749 22.1675   6
   1   3   2 723.175 21.9172   7
   1   3   2 686.980 20.3760   3
   1   3   3 21.4592 2.28615   3
  -1   3  -3 20.2056 2.55479   6
   1   3   3 22.1670 1.32929   2
   1   3   4 575.261 15.3127   1
  -1   3  -4 567.070 18.4935   6
  -1   3  -4 513.572 16.2696   5
   1   3   4 572.710 18.1779   3
   1   3   5 145.834 7.06279   3
   1   3   5 137.378 4.95057   4
  -1   3  -5 136.713 6.72664   6
  -1   3  -5 132.996 7.63460   4
   1   3   6 38.4557 2.43731   4
   1   3   6 50.0276 4.12092   3
  -1   3  -6 35.4471 4.29982   4
   1   3   7 127.451 5.45668   4
   1   3   7 143.246 7.67703   3
  -1   3  -7 123.073 7.93508   4
   1   3   8 204.695 10.1973   3
   1   3   8 204.380 8.04629   4
  -1   3  -8 212.621 11.0039   4
   1   3   9 173.906 9.74965   3
  -1   3  -9 189.735 10.1500   4
   1   3   9 181.382 7.83906   4
  -1   3 -10 94.0915 7.00378   4
   1   3  10 95.8401 5.70384   4
  -1   3 -11 63.4482 6.02165   4
   1   3  11 62.3646 4.90895   4
   1   3  12 84.3069 6.07910   4
  -1   3 -12 95.4121 7.44746   4
  -1   3 -13-0.47798 3.32212   4
  -1   3 -14 72.3798 6.86906   4
  -1   3 -15 3.53828 3.34127   4
  -1   3 -16 29.7313 4.93573   4
  -1   4  15 41.8949 6.93561   3
   1   4 -15 48.4896 5.83979   4
  -1   4  14 83.9031 8.46281   3
   1   4 -14 84.4870 7.35051   4
  -1   4  13 65.6088 7.45184   3
  -1   4  12 17.1389 4.58865   3
  -1   4  12 12.7947 2.96159   4
  -1   4  11 62.4785 6.51808   3
  -1   4  11 63.0373 4.69550   4
   1   4 -10 154.781 6.51444   3
  -1   4  10 156.182 7.32565   4
  -1   4  10 161.568 9.84479   3
  -1   4   9 19.2195 3.78028   3
   1   4  -9 17.3759 1.96992   3
  -1   4   9 18.7143 2.44165   4
   1   4  -9 18.7324 3.39031   4
   1   4  -8 20.5175 3.40266   4
  -1   4   8 27.8725 1.48162   1
  -1   4   8 30.3954 4.12394   3
  -1   4   7 246.207 7.46701   1
   1   4  -7 248.797 11.1720   4
  -1   4   7 234.964 11.0307   3
  -1   4   7 240.295 8.99286   2
  -1   4   6 171.759 8.75896   3
  -1   4   6 180.803 9.46912   7
  -1   4   6 175.367 7.11251   2
   1   4  -6 181.482 9.04568   4
  -1   4   6 180.499 6.03047   1
  -1   4   5 117.377 5.34067   2
  -1   4   5 104.890 6.22662   3
  -1   4   5 113.827 7.05799   7
  -1   4   5 105.821 4.37415   1
   1   4  -5 105.440 6.46839   4
  -1   4   4 19.5530 2.30680   2
  -1   4   4 14.8465 3.27510   7
  -1   4   4 15.7744 1.76351   1
  -1   4   4 17.3864 2.59201   3
   1   4  -4 20.3427 2.94043   4
   1   4  -3 110.264 6.13119   4
  -1   4   3 102.217 4.88399   1
  -1   4   3 114.369 5.55566   3
  -1   4   3 99.8853 6.78232   7
  -1   4   2 505.433 16.1329   1
   1   4  -2 494.922 16.8185   4
   1   4  -2 498.191 13.6850   5
  -1   4   2 555.106 18.7154   7
   1   4  -1 239.490 7.46572   5
   1   4  -1 236.789 7.03344   3
  -1   4   1 242.915 10.9343   7
   1   4  -1 227.401 10.2768   6
   1   4  -1 242.099 10.2395   7
  -1   4   0 40.5386 4.12078   7
   1   4   0 36.1487 3.75906   6
   1   4   0 32.3101 3.68308   7
   1   4   0 35.7882 2.08066   3
  -1   4  -1 278.878 11.7519   7
  -1   4  -1 285.915 12.1210   6
   1   4   1 261.165 11.2743   7
   1   4   1 268.996 9.07023   3
   1   4   2 227.330 8.51811   3
  -1   4  -2 244.080 10.8080   6
   1   4   2 235.722 10.5122   7
   1   4   3 66.3421 5.17949   7
   1   4   3 59.5105 3.91479   3
   1   4   3 59.0404 2.82793   2
  -1   4  -3 54.4095 4.76634   6
  -1   4  -4 295.109 12.3413   6
  -1   4  -4 289.231 9.14344   5
   1   4   4 289.260 12.3857   7
   1   4   4 312.656 11.4079   3
   1   4   4 295.672 9.09875   2
   1   4   5 350.356 9.89155   1
   1   4   5 347.097 13.1319   3
   1   4   5 304.735 13.5331   7
  -1   4  -5 316.365 13.3337   6
   1   4   5 348.311 9.78440   1
   1   4   6 309.512 12.5589   3
  -1   4  -6 313.056 12.5081   6
   1   4   6 295.929 9.65025   4
   1   4   7 181.026 9.24512   3
   1   4   7 173.248 6.57983   4
   1   4   8 313.176 13.3254   3
   1   4   8 267.765 9.76911   4
  -1   4  -8 284.984 13.7837   4
   1   4   9 112.914 7.86765   3
   1   4   9 108.148 5.39421   4
  -1   4  -9 107.177 8.19752   4
  -1   4 -10 183.866 10.7836   4
   1   4  10 192.477 10.8601   3
   1   4  10 174.232 7.90744   4
   1   4  11 17.4448 2.91765   4
   1   4  11 16.2738 4.16633   3
  -1   4 -11 18.1613 4.03515   4
  -1   4 -12 58.1187 6.27820   4
   1   4  12 60.5023 6.75094   3
   1   4  13 21.4775 5.29454   3
  -1   4 -13 38.7296 5.56551   4
   1   4  14 55.6734 7.14699   3
  -1   4 -14 41.0775 5.69385   4
  -1   4 -15 9.56827 4.37996   4
   1   4  15 8.18607 5.17768   3
   1   5 -14 35.1345 5.35192   4
  -1   5  14 32.7630 6.53756   3
   1   5 -13 118.535 8.61674   4
  -1   5  13 95.0168 9.11701   3
  -1   5  12 102.329 8.96223   3
   1   5 -12 90.7782 7.54282   4
  -1   5  11 36.9394 5.57498   3
   1   5 -11 42.1907 5.23856   4
  -1   5  11 40.8419 4.00840   4
  -1   5  10 41.4441 5.43429   3
   1   5 -10 31.4009 4.63177   4
  -1   5  10 44.3474 3.79326   4
  -1   5   9 137.834 8.91007   3
  -1   5   9 127.376 6.36889   4
   1   5  -9 119.293 8.24187   4
  -1   5   8 253.852 12.0213   3
  -1   5   8 254.301 9.19276   2
   1   5  -8 238.377 11.5144   4
  -1   5   8 217.856 6.93473   1
  -1   5   7 20.4974 3.56106   3
   1   5  -7 24.9276 3.81791   4
  -1   5   7 22.6579 1.70565   1
  -1   5   7 25.0848 2.56253   2
  -1   5   6 12.5444 2.95573   3
  -1   5   6 10.5780 2.07201   2
   1   5  -6 10.7810 3.03358   4
  -1   5   6 11.4334 1.44442   1
  -1   5   5 54.0267 3.20287   1
  -1   5   5 53.6726 3.75322   2
  -1   5   5 49.7268 4.38730   3
   1   5  -5 56.9961 5.01244   4
   1   5  -4 128.181 7.41889   4
  -1   5   4 131.312 5.82242   1
  -1   5   4 127.422 6.35151   2
  -1   5   3 41.4655 3.33046   1
   1   5  -3 40.6303 4.40037   6
   1   5  -3 48.6194 4.37548   4
   1   5  -2 140.674 8.25011   6
  -1   5   2 145.362 6.89499   1
   1   5  -2 141.883 7.40841   4
   1   5  -1 83.0740 3.50608   5
   1   5  -1 83.6535 5.31188   4
   1   5  -1 83.6990 6.25935   6
   1   5  -1 99.1424 6.61783   7
   1   5   0 457.657 13.3844   3
  -1   5   0 459.650 18.3395   6
   1   5   0 446.255 17.6437   6
   1   5   0 439.324 17.1145   7
   1   5   1 235.838 8.46742   3
  -1   5  -1 244.883 11.8364   6
   1   5   1 267.664 11.7697   7
   1   5   1 217.585 11.2990   6
  -1   5  -2 129.754 8.14714   6
   1   5   2 121.120 8.00602   7
   1   5   2 122.494 5.77090   3
   1   5   3 256.255 10.0382   3
  -1   5  -3 260.193 12.3437   6
   1   5   3 253.467 12.2256   7
   1   5   3 264.674 8.92375   2
  -1   5  -4 228.916 7.39710   5
   1   5   4 249.816 10.0019   3
  -1   5  -4 246.055 11.5413   6
   1   5   4 215.457 11.3345   7
   1   5   4 233.501 7.93223   2
   1   5   5 11.7130 3.51669   7
  -1   5  -5 9.88577 3.58429   4
   1   5   5 13.0774 2.71813   3
   1   5   5 9.74372 1.36431   1
  -1   5  -5 14.9781 2.96969   6
   1   5   5 12.7807 1.45211   2
   1   5   6 145.565 7.86813   3
  -1   5  -6 140.631 9.04682   4
   1   5   6 128.562 3.81196   1
   1   5   6 141.006 5.21298   4
  -1   5  -6 168.746 8.55344   6
   1   5   6 117.620 3.77632   1
   1   5   6 136.120 8.33017   7
  -1   5  -7 143.765 8.20492   6
   1   5   7 131.447 5.45487   4
   1   5   7 132.949 8.10541   3
  -1   5  -7 140.078 9.43667   4
   1   5   8 87.9924 6.82841   3
   1   5   8 90.6670 4.45516   4
   1   5   9 2.79566 2.97982   3
   1   5   9 2.75269 1.69259   4
   1   5  10 19.0454 4.29675   3
   1   5  11 73.2747 7.26780   3
   1   5  12 29.1672 5.33920   3
  -1   5 -12 30.1494 5.14335   4
   1   5  13 75.5526 8.15167   3
  -1   5 -13 75.3492 7.68332   4
   1   5  14 13.8648 5.36869   3
  -1   6  13 3.39008 4.38583   3
   1   6 -13 6.52813 3.96092   4
  -1   6  12 9.44503 4.78421   3
   1   6 -12 8.37770 3.64644   4
  -1   6  11 54.6491 6.67566   3
   1   6 -11 58.0895 6.35119   4
  -1   6  10 37.3387 5.36050   3
   1   6 -10 28.7325 4.65267   4
  -1   6   9 21.8456 4.51274   3
   1   6  -9 29.3467 4.69157   4
  -1   6   8 14.9347 3.67217   3
  -1   6   8 17.9953 2.67774   2
   1   6  -8 21.8706 4.15298   4
   1   6  -7 82.3287 6.71496   4
  -1   6   7 82.5306 6.53157   3
  -1   6   7 85.5750 4.89578   2
  -1   6   7 76.1366 3.62428   1
  -1   6   6 269.115 10.0884   2
  -1   6   6 235.335 8.55434   1
   1   6  -6 247.766 12.0594   4
  -1   6   5 12.8463 2.45780   2
   1   6  -5 13.9523 3.39260   4
  -1   6   5 15.4555 2.17501   1
   1   6  -5 15.6011 3.44766   6
   1   6  -4 186.931 9.96269   6
  -1   6   4 162.956 7.27000   1
   1   6  -4 150.399 8.88037   4
  -1   6   4 174.084 7.94788   2
   1   6  -3 144.481 8.96280   6
   1   6  -3 154.889 8.45935   4
  -1   6   3 141.189 7.03643   1
   1   6  -2 317.285 14.5001   6
   1   6  -2 321.310 13.2076   4
  -1   6   2 312.406 12.3719   1
   1   6  -1 17.8562 4.09556   6
   1   6  -1 18.7917 1.57392   5
   1   6  -1 17.5055 3.18149   4
   1   6  -1 18.9150 3.91421   7
  -1   6   1 14.8469 2.98383   1
   1   6   0 109.164 8.17724   6
   1   6   0 136.846 8.53262   7
   1   6   0 123.584 5.20833   5
  -1   6   0 124.735 9.16755   6
  -1   6  -1 54.1779 6.01922   6
   1   6   1 46.5821 5.67729   6
   1   6   1 47.2194 5.32032   7
   1   6   1 48.8065 2.86435   3
   1   6   2 238.241 8.75455   3
   1   6   2 212.293 12.0010   6
   1   6   2 218.243 11.8654   7
  -1   6  -2 195.947 11.6506   6
   1   6   3 23.6981 2.31862   2
  -1   6  -3 21.6907 4.27002   6
   1   6   3 18.7687 2.65780   3
   1   6   4 129.818 7.11609   3
  -1   6  -4 144.355 9.13004   6
   1   6   4 135.320 6.11883   1
   1   6   4 140.859 5.69468   2
   1   6   5 20.7991 3.39876   3
   1   6   5 23.8206 2.14683   1
  -1   6  -5 18.3085 3.64617   6
  -1   6  -5 23.9692 4.74592   4
   1   6   5 21.3053 1.97997   2
   1   6   6 116.213 7.31059   3
   1   6   6 106.801 3.92309   1
   1   6   6 105.979 3.85982   1
  -1   6  -6 96.7972 7.34963   6
  -1   6  -6 108.950 8.59043   4
   1   6   7 15.9439 3.64056   3
  -1   6  -7 22.4857 3.89233   6
  -1   6  -7 13.9320 4.32156   4
  -1   6  -8 21.0331 4.90229   4
   1   6   8 17.7562 4.12340   3
  -1   6  -9 91.6643 8.29149   4
   1   6   9 101.575 8.03236   3
   1   6  10 34.3215 5.58133   3
  -1   6 -10 29.3160 5.56331   4
   1   6  11 34.7078 5.67981   3
  -1   6 -11 42.2062 6.25722   4
  -1   6 -12 17.2979 4.78347   4
   1   6  12 16.0587 5.01053   3
   1   6  13 35.7096 6.58526   3
  -1   7  12 25.9520 5.69051   3
  -1   7  11 12.5398 4.39816   3
   1   7 -11 2.16134 3.61197   4
   1   7 -10 29.9657 5.07682   4
   1   7  -9 85.0372 7.55986   4
   1   7  -8 18.4546 4.24026   4
   1   7  -7 3.25236 3.44082   4
   1   7  -6 29.2652 4.56845   4
   1   7  -6 26.6339 4.54013   6
   1   7  -5 45.0757 5.54417   6
   1   7  -5 53.8219 5.58012   4
  -1   7   4 149.445 7.64212   2
  -1   7   4 146.355 7.18695   1
   1   7  -4 158.967 9.80902   6
   1   7  -4 154.950 9.23324   4
   1   7  -3 2.49922 3.04720   6
  -1   7   3 2.73650 2.48853   1
   1   7  -3-0.80095 2.75680   4
   1   7  -2 13.1496 3.77704   6
  -1   7   2 11.7801 3.09735   1
   1   7  -2 17.0996 3.54714   4
   1   7  -1 38.7047 4.53410   4
   1   7  -1 43.0250 5.58645   6
   1   7   0 154.306 10.4496   6
   1   7   0 149.433 8.30515   4
   1   7   1 94.0641 8.20116   6
   1   7   1 105.564 6.51671   4
  -1   7  -2 6.25842 3.59881   6
   1   7   2 4.74994 3.71155   6
   1   7   3 21.3137 2.58956   3
   1   7   3 18.8428 4.90014   6
  -1   7  -3 27.7334 5.01938   6
   1   7   4 177.830 8.42697   3
  -1   7  -4 186.898 11.1794   6
  -1   7  -4 203.173 12.0304   4
   1   7   5 61.2567 4.97424   3
  -1   7  -5 57.1313 6.86231   4
  -1   7  -5 53.5347 6.16354   6
  -1   7  -6 27.0140 4.91021   6
   1   7   6 30.1520 4.12244   3
  -1   7  -6 35.8249 5.99229   4
   1   7   7 83.8597 6.59132   3
  -1   7  -7 97.8991 8.80348   4
  -1   7  -7 90.8578 7.47235   6
   1   7   8 30.1198 4.69743   3
  -1   7  -8 32.8731 5.91728   4
   1   7   9 1.49311 3.52512   3
  -1   7  -9-0.65295 3.61531   4
   1   7  10 55.4761 6.51282   3
  -1   7 -10 62.6069 7.46619   4
   1   7  11 3.00057 4.04964   3
   1   8  -9 1.07987 3.60561   4
   1   8  -8 9.36005 3.98564   4
   1   8  -7 58.1608 6.28018   4
   1   8  -6 51.6681 6.02149   6
   1   8  -6 33.2399 5.09240   4
   1   8  -5 6.43124 3.39401   6
   1   8  -5 10.2339 3.67618   4
   1   8  -4 5.42597 3.32351   4
   1   8  -4 6.61695 3.52958   6
  -1   8   4 9.64792 5.45035   6
   1   8  -3 40.8000 5.71685   6
  -1   8   3 57.7601 7.79429   6
   1   8  -3 53.5760 5.86889   4
  -1   8   2 54.1603 7.63966   6
   1   8  -2 64.3884 6.96594   6
   1   8  -2 52.5092 5.56957   4
   1   8  -1 15.7130 3.70207   4
   1   8  -1 23.4531 5.10514   6
   1   8   0 43.6953 4.85739   4
   1   8   0 38.0485 6.08606   6
   1   8   1 84.0475 8.47703   6
   1   8   2 51.5213 7.16274   6
   1   8   3 3.42306 4.66681   6
  -1   8  -3 3.70107 4.07702   4
  -1   8  -4 50.7232 6.92880   4
  -1   8  -4 33.2259 5.57544   6
   1   8   4 56.9296 7.69070   6
  -1   8  -5 0.57999 3.53594   6
   1   8   5 3.51641 4.34071   6
  -1   8  -5 3.25863 4.02255   4
  -1   8  -6 2.24674 3.55163   6
  -1   8  -6 7.28376 4.69111   4
  -1   8  -7 22.0676 5.93581   4
  -1   9  -2 19.7443 5.30593   4
  -1   9  -3 9.87404 5.23828   4
  -1   9  -4 4.67930 4.41877   4
  -2  -8   8 17.5928 5.67084   7
  -2  -8   7 7.05650 5.00132   7
  -2  -8   6 23.5551 5.81548   7
  -2  -8   5 52.7612 7.39435   7
   2  -8   3 16.5641 6.00178   7
   2  -8   4 8.54648 4.80021   7
   2  -8   5 30.1935 6.54600   7
  -2  -7  11 15.7238 5.65140   7
  -2  -7  10 14.3022 5.17138   7
  -2  -7   9 5.53798 4.52757   7
  -2  -7   8 4.02232 4.38362   7
  -2  -7   7 47.2507 6.68771   7
  -2  -7   6 80.9301 8.11224   7
  -2  -7   5 35.5453 5.85650   7
  -2  -7   4 41.2054 5.75382   7
   2  -7   1 74.5881 7.91927   7
   2  -7   2 55.9794 7.04167   7
   2  -7   3 50.6636 6.77043   7
   2  -7   4 136.308 10.7855   7
   2  -7   5 49.0846 7.04018   7
   2  -7   6 23.7091 5.65696   7
   2  -7   7 5.35288 4.36265   7
   2  -7   8 30.0843 6.82763   7
   2  -7   9 20.8242 6.34497   7
  -2  -6  13 53.0387 7.34180   7
  -2  -6  12 94.3468 9.30319   7
  -2  -6  11 17.2438 5.17336   7
  -2  -6  10 47.5688 6.38619   7
  -2  -6   9 75.8272 7.80357   7
  -2  -6   8 14.1063 4.36700   7
  -2  -6   7 25.1616 4.80485   7
  -2  -6   6 57.0947 6.44782   7
  -2  -6   5 12.3420 4.00907   7
  -2  -6   4 44.1084 5.21208   7
  -2  -6   3 1.38258 2.66541   7
   2  -6   0 278.935 14.6438   7
   2  -6   1 28.5865 4.61881   7
   2  -6   2 191.717 11.8802   7
   2  -6   3 120.215 9.35480   7
   2  -6   4 103.715 8.86401   7
   2  -6   5 36.1568 5.74656   7
   2  -6   6 119.147 9.64611   7
   2  -6   7 73.4733 8.02910   7
   2  -6   8 19.8332 5.08958   7
   2  -6   9 37.1103 6.27065   7
   2  -6  10 21.9603 5.73595   7
   2  -6  11 36.4501 7.71746   7
  -2  -5  15 23.5699 6.02995   7
  -2  -5  14 7.83050 4.34422   7
  -2  -5  13 47.1667 7.03462   7
  -2  -5  12 16.6976 4.67582   7
  -2  -5  11 32.2286 5.52765   7
  -2  -5  10 103.761 8.29684   7
  -2  -5   9 2.54195 2.98132   7
   2  -5  -8 47.1569 4.54090   3
  -2  -5   8 50.2887 5.70947   7
   2  -5  -7 263.123 11.3667   3
  -2  -5   7 291.762 13.7455   7
  -2  -5   6 242.998 12.2863   7
   2  -5  -6 233.514 10.0401   3
  -2  -5   5 31.1259 4.26058   7
   2  -5  -5 34.6262 3.37316   3
  -2  -5   4 454.009 17.9145   7
  -2  -5   3 123.496 7.69855   7
  -2  -5   2 404.942 15.9215   7
   2  -5  -2 400.065 13.2675   3
   2  -5  -1 112.194 5.02777   3
   2  -5  -1 108.752 7.92927   7
   2  -5   0 81.5898 3.89340   3
   2  -5   0 87.5257 6.74056   7
   2  -5   1 21.2967 4.02770   7
   2  -5   1 27.9663 1.91658   3
   2  -5   2 114.113 8.28500   7
   2  -5   2 124.741 4.42873   3
   2  -5   3 173.702 5.56387   3
   2  -5   3 166.756 10.3252   7
   2  -5   3 173.797 5.39031   3
   2  -5   4 9.00671 1.06166   3
   2  -5   4 9.88088 0.94916   3
   2  -5   4 6.19516 3.11704   7
   2  -5   5 29.2973 4.48016   7
   2  -5   5 28.7301 1.72045   3
   2  -5   6 160.663 5.62594   3
   2  -5   6 133.604 9.96412   7
   2  -5   7 8.00059 3.44612   7
   2  -5   8 45.0143 5.87476   7
   2  -5   9 178.758 12.2044   7
   2  -5  10 3.43411 3.86104   7
   2  -5  11 7.37323 4.60962   7
   2  -5  12 125.614 11.2950   7
   2  -5  13 49.7866 7.82159   7
   2  -4  -9 146.305 8.07913   3
  -2  -4   8 566.463 21.1607   7
  -2  -4   8 574.401 21.2497   6
   2  -4  -8 561.234 19.7323   3
  -2  -4   7 24.4925 3.82046   6
  -2  -4   7 31.6529 3.95169   7
   2  -4  -7 22.4387 3.18029   3
  -2  -4   6 159.683 8.99555   6
  -2  -4   6 191.292 9.44181   7
   2  -4  -6 187.400 8.51163   3
   2  -4  -5 454.862 15.3301   3
  -2  -4   5 442.168 16.7244   7
  -2  -4   5 406.703 16.4675   6
   2  -4  -2 409.153 13.4482   3
   2  -4  -1 669.678 19.8232   3
   2  -4  -1 627.806 22.8417   7
   2  -4   0 496.109 15.1470   3
   2  -4   0 486.003 18.2965   7
   2  -4   1 36.7867 2.42377   3
   2  -4   1 26.9373 3.76360   7
   2  -4   2 563.190 20.7960   7
   2  -4   3 201.548 10.4803   7
   2  -4   4 57.9499 2.94492   3
   2  -4   4 42.1665 4.76695   7
   2  -4   5 75.8079 3.74682   3
   2  -4   5 82.8388 6.58542   7
   2  -4   6 144.546 9.22114   7
   2  -4   6 162.336 6.38107   3
   2  -4   7 19.4590 3.66112   7
   2  -4   7 15.8608 3.98760   6
   2  -4   7 17.5548 2.19093   3
   2  -4   8 10.0435 3.62063   7
   2  -4   8 15.2493 2.26333   3
   2  -4   9 4.61017 3.29022   7
   2  -4   9 7.15900 2.15302   3
   2  -4  10 58.2132 4.65579   3
   2  -3 -17 1.42847 3.21277   2
   2  -3 -16 39.0671 5.25752   2
   2  -3 -15 128.429 8.35705   2
   2  -3 -14 140.533 8.48791   2
   2  -3 -13 5.39457 2.68870   2
   2  -3 -12 103.120 6.58115   2
   2  -3 -11 274.937 11.8615   2
   2  -3 -11 294.722 9.61780   1
   2  -3 -10 136.378 7.41475   2
  -2  -3  10 154.747 5.91379   5
   2  -3 -10 149.612 5.85462   1
  -2  -3  10 159.545 8.87358   6
   2  -3 -10 133.630 7.95319   3
   2  -3  -9 253.486 11.5972   3
  -2  -3   9 298.234 12.5662   6
   2  -3  -9 281.108 9.47634   1
   2  -3  -8 189.927 7.13424   1
   2  -3  -8 175.908 8.86262   3
  -2  -3   8 201.650 9.58255   6
   2  -3  -7 14.1101 1.74933   1
  -2  -3   7 8.84050 2.35175   6
   2  -3  -7 9.98017 2.22674   3
  -2  -3   6 34.1783 3.53164   6
   2  -3  -6 31.5737 3.25757   3
   2  -3  -6 34.1426 2.64145   1
  -2  -3   5 142.111 7.21285   6
   2  -3  -3 258.109 9.53905   3
  -2  -3   3 250.459 9.98187   7
   2  -3  -2 713.237 21.3508   3
  -2  -3   2 708.264 22.0568   7
  -2  -3   1 243.013 9.36446   7
   2  -3  -1 245.976 8.72541   3
   2  -3   4 362.355 11.5658   3
   2  -3   5 441.834 13.7952   3
   2  -3   5 411.474 16.1464   6
   2  -3   6 49.2238 4.79699   6
   2  -3   6 50.3536 3.35812   3
   2  -3   7 209.537 8.34773   3
  -2  -3  -7 202.061 6.89882   2
   2  -3   7 201.665 10.3072   6
   2  -3   8 777.961 27.6197   6
   2  -3   8 847.769 25.4447   3
  -2  -3  -8 827.412 23.6480   2
  -2  -3  -9 39.6106 2.76174   2
   2  -3   9 39.3001 4.98968   6
   2  -3   9 36.8496 3.77101   3
   2  -3  10 219.720 9.95141   3
  -2  -3 -10 214.412 8.12925   2
  -2  -3 -11 3.99682 1.68225   2
   2  -3  11 2.98878 2.35402   3
   2  -3  12 105.625 7.09368   3
   2  -3  13 46.4301 5.24464   3
   2  -2 -18-0.47208 3.43526   2
   2  -2 -17 117.291 8.32774   2
   2  -2 -16 26.0320 4.41509   2
  -2  -2  16 28.0431 4.83554   3
   2  -2 -15 21.1657 3.78577   2
  -2  -2  15 12.7983 4.02301   3
   2  -2 -14 26.1337 3.89767   2
  -2  -2  14 28.5696 4.38491   3
  -2  -2  13 154.143 9.17423   3
   2  -2 -13 158.915 8.50574   2
  -2  -2  12 87.3445 6.56092   3
   2  -2 -12 83.6651 3.93736   1
   2  -2 -12 89.6047 5.92563   2
  -2  -2  11 34.7358 3.76595   6
   2  -2 -11 23.2936 3.05952   2
   2  -2 -11 35.1421 3.96458   3
   2  -2 -11 26.2161 2.08938   1
  -2  -2  11 36.9823 4.65583   4
  -2  -2  11 31.4971 3.85202   3
  -2  -2  10 348.975 13.6471   3
  -2  -2  10 329.129 13.2765   6
   2  -2 -10 349.349 10.8192   1
   2  -2 -10 335.212 12.7726   2
  -2  -2  10 325.441 14.4256   4
   2  -2 -10 337.490 13.7860   3
  -2  -2   9 194.054 8.71662   6
   2  -2  -9 181.085 6.47876   1
   2  -2  -9 178.818 8.85844   3
   2  -2  -9 182.462 8.06211   2
  -2  -2   9 165.120 9.03648   4
  -2  -2   8 342.215 12.5894   6
   2  -2  -8 307.773 12.6287   3
   2  -2  -8 327.417 10.4194   1
   2  -2  -8 344.273 12.1849   2
  -2  -2   8 328.416 13.3323   4
   2  -2  -7 375.282 11.7940   1
   2  -2  -7 391.578 14.0580   3
   2  -2  -7 367.804 13.3145   2
  -2  -2   7 420.946 13.9198   6
  -2  -2   7 370.812 14.2634   4
   2  -2  -6 373.153 11.6634   1
   2  -2  -6 383.656 13.0673   2
   2  -2  -5 612.495 17.9815   1
   2  -2  -4 216.933 8.61445   3
  -2  -2   4 241.005 8.79881   4
   2  -2  -4 209.249 7.55992   1
  -2  -2   4 220.037 8.32252   6
   2  -2  -3 1386.12 38.5018   3
  -2  -2   3 1311.52 38.1501   6
   2  -2  -3 1359.99 37.6770   1
  -2  -2   3 1326.77 37.9359   7
  -2  -2   3 1400.25 38.1958   4
  -2  -2   2 2518.20 66.8121   7
   2  -2  -2 2431.50 66.9846   1
  -2  -2   2 2453.01 65.6041   5
  -2  -2   2 2473.00 67.2074   6
   2  -2  -2 2488.19 67.2230   3
  -2  -2   2 2466.81 66.6742   4
  -2  -2   1 473.603 13.3513   4
  -2  -2   1 478.510 13.2216   5
   2  -2   3 387.559 13.5988   6
   2  -2   4 548.929 16.5638   3
  -2  -2  -4 544.232 14.9199   2
   2  -2   4 527.299 17.8548   6
   2  -2   5 25.1138 2.36721   3
   2  -2   5 30.3303 3.12966   6
  -2  -2  -5 26.3919 1.46110   2
  -2  -2  -6 495.670 14.4351   2
   2  -2   6 509.092 16.2322   3
   2  -2   6 495.597 17.2597   6
  -2  -2  -7 331.491 10.6217   2
   2  -2   7 357.307 12.4255   3
   2  -2   7 353.394 13.4618   6
  -2  -2  -8 63.8020 3.39796   2
   2  -2   8 63.6046 4.53200   3
   2  -2   8 69.5460 5.34482   6
   2  -2   9 38.1630 4.20991   6
   2  -2   9 39.0981 3.91774   3
  -2  -2  -9 32.9373 2.63798   2
  -2  -2 -10 264.469 9.48755   2
   2  -2  10 242.915 11.6232   6
   2  -2  10 252.464 11.2410   3
   2  -2  11 206.760 10.4324   3
   2  -2  11 221.719 10.9671   6
  -2  -2 -11 224.647 8.82238   2
   2  -2  12 49.0620 5.26354   3
  -2  -2 -12 59.4227 4.14001   2
  -2  -2 -13 6.25989 2.11913   2
   2  -2  13 3.95761 3.20316   3
   2  -2  14 67.4624 6.60758   3
   2  -2  15 6.28423 3.78075   3
   2  -2  16-1.14547 3.98082   3
   2  -1 -18 22.6534 4.36521   2
  -2  -1  18 12.2932 5.01150   3
   2  -1 -17 28.0104 4.59263   2
  -2  -1  17 27.3355 5.38300   3
   2  -1 -16 21.0166 3.95895   2
  -2  -1  16 13.6754 4.31417   3
  -2  -1  15 30.8159 4.92000   3
   2  -1 -15 29.0857 3.98096   2
  -2  -1  14 99.7141 7.76164   3
   2  -1 -14 85.4303 4.44956   1
   2  -1 -14 92.7989 6.41464   2
   2  -1 -13 8.67600 1.59373   1
  -2  -1  13 8.20617 3.11443   3
   2  -1 -13 6.99724 2.38413   2
   2  -1 -12 119.899 6.91820   2
  -2  -1  12 127.404 8.18929   3
   2  -1 -12 132.415 5.49451   1
  -2  -1  11 303.203 13.0968   3
   2  -1 -11 283.156 11.3912   2
   2  -1 -11 284.540 9.65224   1
  -2  -1  10 560.270 20.4261   3
   2  -1 -10 611.068 17.3650   1
  -2  -1  10 515.376 20.4602   4
   2  -1 -10 581.345 19.0596   2
   2  -1  -9 30.6459 3.43461   3
  -2  -1   9 29.6720 3.45675   3
  -2  -1   9 28.6806 3.34752   4
   2  -1  -9 27.2953 2.02494   1
   2  -1  -9 26.6016 2.70046   2
   2  -1  -8 175.192 6.38921   1
   2  -1  -8 188.614 8.44138   3
  -2  -1   8 189.118 8.55972   3
  -2  -1   8 194.975 8.43676   4
   2  -1  -8 171.085 7.46235   2
  -2  -1   7 119.844 6.33859   3
   2  -1  -7 129.219 4.87658   1
   2  -1  -7 136.483 6.00480   2
   2  -1  -6 903.149 25.8037   1
   2  -1  -6 977.247 27.2175   2
  -2  -1   5 238.470 8.67253   4
   2  -1  -5 236.872 8.47314   2
   2  -1  -5 233.355 7.62147   1
  -2  -1   4 211.942 7.73024   4
   2  -1  -4 225.033 7.18412   1
   2  -1  -4 224.976 8.09215   2
   2  -1  -3 1516.19 41.3631   1
  -2  -1   3 1533.70 41.6084   4
  -2  -1   2 4279.88 112.222   6
   2  -1  -2 4241.34 112.511   1
  -2  -1   2 4213.68 112.259   4
  -2  -1   1 788.139 22.4015   1
   2  -1  -1 826.607 22.7409   1
  -2  -1   1 812.303 22.1365   6
  -2  -1   1 778.250 21.6310   7
  -2  -1   1 831.245 21.9319   4
  -2  -1   0 3953.29 107.065   5
  -2  -1   0 4135.54 106.696   1
   2  -1   0 4011.34 107.462   1
  -2  -1   0 4025.11 106.026   2
   2  -1   1 3235.57 86.1760   1
  -2  -1  -1 3098.47 85.8371   5
  -2  -1  -1 3254.07 84.8676   1
   2  -1   2 747.748 20.9354   6
  -2  -1  -2 752.114 21.1687   5
  -2  -1  -2 687.992 19.5132   1
  -2  -1  -3 13.3157 0.96815   1
   2  -1   3 13.4598 1.80287   6
  -2  -1  -3 13.0721 1.21939   4
   2  -1   4 609.007 18.1598   6
   2  -1   4 597.306 18.1284   3
  -2  -1  -4 571.586 17.1117   4
  -2  -1  -4 601.750 16.4581   1
  -2  -1  -5 204.394 6.44801   1
  -2  -1  -5 211.808 7.32914   4
   2  -1   5 226.169 8.36507   3
   2  -1   5 218.916 8.13700   6
   2  -1   6 436.541 14.5993   3
  -2  -1  -6 427.592 12.3323   1
  -2  -1  -6 447.953 13.5756   4
   2  -1   6 410.250 14.1896   6
   2  -1   7 77.0544 4.43578   5
   2  -1   7 70.0887 4.39522   6
  -2  -1  -7 64.9690 2.81832   1
   2  -1   7 75.1665 4.68459   3
  -2  -1  -7 63.9464 3.71312   4
  -2  -1  -8 323.157 11.1010   4
   2  -1   8 308.532 12.2949   3
  -2  -1  -8 315.318 9.64408   1
   2  -1   8 327.731 11.8843   5
   2  -1   8 309.571 11.8183   6
   2  -1   9 200.509 8.82443   5
  -2  -1  -9 202.311 8.07647   4
   2  -1   9 207.547 9.46260   3
  -2  -1  -9 196.422 6.59550   1
   2  -1   9 185.251 8.69390   6
  -2  -1 -10 8.65324 1.26389   1
   2  -1  10 8.35108 2.42663   6
   2  -1  10 10.2193 2.31632   5
   2  -1  10 13.8791 2.90991   3
  -2  -1 -10 8.16536 2.01165   4
   2  -1  11 6.08978 2.69509   6
   2  -1  11 4.69305 2.17811   5
  -2  -1 -11 7.93851 2.10586   4
   2  -1  11 7.26798 2.78870   3
   2  -1  12 65.1043 6.10648   3
  -2  -1 -12 79.1143 5.09101   4
   2  -1  13 36.4276 4.92068   3
   2  -1  14 49.0990 6.09179   3
  -2  -1 -15 17.0285 3.02583   2
   2  -1  15 17.5027 4.55711   3
   2  -1  16 5.35103 3.93117   3
   2   0 -18-2.26088 3.14320   2
  -2   0  18-1.38249 4.56787   3
  -2   0  17 19.5814 4.95655   3
   2   0 -17 29.4798 4.55783   2
  -2   0  16 123.140 9.66426   3
   2   0 -16 108.949 7.51158   2
  -2   0  15 61.2125 6.80013   3
   2   0 -15 62.7803 4.09218   1
   2   0 -15 67.0744 5.62675   2
   2   0 -14 151.143 8.39988   2
  -2   0  14 148.356 9.95341   3
   2   0 -14 153.057 6.75480   1
   2   0 -13 350.737 13.7796   2
  -2   0  13 337.423 15.6234   3
   2   0 -13 332.478 11.7708   1
   2   0 -12 40.8624 3.89748   2
  -2   0  12 44.5702 5.18695   3
   2   0 -12 33.1559 4.13824   3
   2   0 -12 41.8772 3.19415   1
  -2   0  12 36.8839 4.53136   4
   2   0 -11 141.886 7.29583   2
  -2   0  11 149.448 8.78746   3
   2   0 -11 137.250 7.72781   3
   2   0 -11 156.694 6.44638   1
  -2   0  11 147.908 8.26732   4
  -2   0  10 149.663 8.37717   3
   2   0 -10 140.032 6.87021   2
   2   0 -10 142.286 6.06130   1
   2   0 -10 133.017 7.45500   3
  -2   0   9 372.540 14.7126   3
   2   0  -9 392.675 12.3568   1
   2   0  -9 375.708 13.2005   2
   2   0  -9 349.283 13.7470   3
   2   0  -8 124.826 5.46939   1
  -2   0   8 141.740 7.38809   3
   2   0  -8 138.685 6.16166   2
   2   0  -7 19.9540 2.11624   2
  -2   0   7 20.3369 2.78527   3
   2   0  -7 17.9585 1.71775   1
   2   0  -6 899.035 25.9903   2
   2   0  -6 894.467 25.3207   1
  -2   0   6 893.368 27.1979   3
   2   0  -5 387.520 11.6068   1
   2   0  -5 372.119 12.0907   2
   2   0  -4 217.696 7.31689   1
   2   0  -4 241.819 7.81320   2
   2   0  -3 10.5304 1.11318   1
   2   0  -3 7.25477 1.20041   2
   2   0  -2 4246.63 112.250   1
  -2   0   2 4243.22 112.373   2
  -2   0   1 332.707 10.4671   2
  -2   0   1 356.100 9.86077   7
   2   0  -1 368.029 10.4957   1
   2   0   0 7078.71 186.216   1
  -2   0  -1 36.1925 1.90106   1
   2   0   2 40.4862 1.86099   6
  -2   0  -2 38.3746 2.46265   5
  -2   0  -2 38.6416 2.08482   1
  -2   0  -3 190.989 6.29545   1
  -2   0  -3 168.292 6.88643   5
   2   0   4 1116.78 33.3256   3
  -2   0  -4 1170.74 32.3936   1
  -2   0  -4 1216.75 33.4456   4
   2   0   5 6.97043 1.72070   3
  -2   0  -5 6.38136 1.27908   1
  -2   0  -5 8.97360 1.75711   4
  -2   0  -6 22.4187 1.99143   1
   2   0   6 16.2451 2.34059   3
  -2   0  -6 15.7645 2.16168   4
   2   0   7 70.8818 4.80906   3
  -2   0  -7 76.5704 3.89445   1
  -2   0  -7 71.1550 4.45343   4
   2   0   7 71.6679 4.49521   5
   2   0   8 31.3142 3.45853   3
  -2   0  -8 32.3319 3.12168   4
   2   0   8 33.7788 3.23832   5
  -2   0  -8 30.5848 2.53338   1
  -2   0  -9 24.1252 2.88723   4
   2   0   9 22.4806 3.27809   3
   2   0   9 25.6072 3.05083   5
   2   0  10 133.190 7.76748   3
  -2   0 -10 106.606 6.28539   4
   2   0  10 115.164 6.71213   5
  -2   0 -11 545.281 18.4807   4
   2   0  11 529.354 20.1598   3
   2   0  11 519.386 18.8664   5
   2   0  12 14.3282 3.65748   3
  -2   0 -12 15.4057 2.85383   4
  -2   0 -13 20.7541 3.31748   4
   2   0  13 17.5145 4.01122   3
   2   0  14 141.257 9.76961   3
  -2   0 -14 145.667 8.07715   4
  -2   0 -15 176.771 9.32577   4
   2   0  15 181.763 11.5914   3
   2   0  16 27.8468 5.61058   3
  -2   1  17 23.8719 5.73565   3
   2   1 -17 23.5911 4.17182   2
  -2   1  16 23.6464 5.27856   3
   2   1 -16 14.6966 3.52684   2
   2   1 -15 37.7958 3.59524   1
   2   1 -15 29.5181 4.10662   2
  -2   1  15 30.5262 5.36784   3
  -2   1  14 96.0671 8.17865   3
   2   1 -14 83.8533 5.30262   1
   2   1 -13 6.97173 2.11902   1
  -2   1  13 7.29260 3.55490   3
   2   1 -12 119.358 6.16168   1
  -2   1  12 130.225 8.66708   3
   2   1 -12 113.131 6.97465   3
  -2   1  12 115.572 7.28522   4
  -2   1  11 301.298 13.6533   3
   2   1 -11 282.443 10.7741   1
  -2   1  11 279.488 11.8971   4
   2   1 -11 276.217 11.6758   3
  -2   1  10 605.007 21.5085   3
   2   1 -10 572.235 18.5661   1
   2   1 -10 616.360 19.6911   4
   2   1 -10 567.201 19.4761   3
  -2   1  10 551.543 19.3496   4
   2   1  -9 26.9431 2.84177   4
  -2   1   9 25.6159 2.89650   4
  -2   1   9 33.9739 3.99968   3
   2   1  -9 25.3149 2.54564   1
   2   1  -9 31.3667 3.30053   3
  -2   1   8 174.744 8.81574   3
   2   1  -8 165.711 7.68203   3
   2   1  -8 197.055 7.92331   4
  -2   1   7 119.207 6.62456   3
   2   1  -7 122.336 5.77505   4
   2   1  -7 120.559 5.93266   3
  -2   1   6 866.026 26.1716   3
  -2   1   6 854.716 23.7183   1
   2   1  -6 875.686 25.1925   3
   2   1  -6 769.214 24.5244   4
  -2   1   5 234.142 9.14412   3
   2   1  -5 218.188 8.00793   1
  -2   1   5 231.519 7.46041   1
   2   1  -5 226.089 8.56633   3
   2   1  -4 204.536 7.49667   3
   2   1  -4 192.294 7.05819   1
  -2   1   4 191.600 6.40188   1
   2   1  -3 1402.08 38.7279   1
  -2   1   2 4351.33 112.788   7
   2   1  -2 4144.86 112.358   1
   2   1  -1 768.697 21.2794   2
  -2   1   1 800.194 22.4400   7
   2   1   0 4060.03 106.251   6
  -2   1   0 3981.14 107.587   7
  -2   1  -1 3299.59 83.2698   6
   2   1   1 3003.73 82.4042   1
  -2   1  -2 687.948 20.8655   6
   2   1   2 736.784 20.2214   1
   2   1   3 13.0463 1.13585   1
  -2   1  -3 12.7595 1.69440   1
   2   1   3 14.3441 1.94065   3
   2   1   4 647.818 19.1726   3
  -2   1  -4 587.431 18.3979   1
  -2   1  -4 595.074 18.4765   5
  -2   1  -5 235.818 8.78837   1
   2   1   5 233.591 9.39672   3
  -2   1  -5 247.764 9.92630   4
   2   1   6 467.104 15.9085   3
  -2   1  -6 440.568 16.0444   4
  -2   1  -7 75.5285 5.20426   4
   2   1   7 68.5903 4.89789   3
   2   1   7 66.3702 4.47560   5
   2   1   8 337.360 13.4062   3
   2   1   8 332.058 12.7493   5
  -2   1  -8 325.614 13.2065   4
   2   1   9 199.584 9.38760   5
   2   1   9 210.546 10.1437   3
  -2   1  -9 209.740 9.81185   4
   2   1  10 11.0388 3.17149   3
   2   1  10 13.0982 2.64892   5
  -2   1 -10 11.1205 2.61787   4
  -2   1 -11 8.94201 2.95207   4
   2   1  11 5.71934 2.88187   3
  -2   1 -11 6.79364 2.16340   1
   2   1  12 76.3944 6.81640   3
  -2   1 -12 82.1499 6.25790   4
   2   1  13 40.4224 5.49839   3
  -2   1 -13 38.1691 4.49191   4
  -2   1 -14 50.1219 5.21997   4
   2   1  14 60.0582 6.68001   3
  -2   1 -15 21.2673 3.96442   4
   2   1  15 21.3622 5.19202   3
   2   1  16 14.3455 5.07643   3
  -2   1 -16 10.5346 3.64579   4
  -2   1 -17 76.2334 6.78964   4
  -2   2  17 118.679 10.5382   3
   2   2 -16 22.2695 3.48155   1
  -2   2  16 32.2323 6.25956   3
  -2   2  15 7.16633 4.08999   3
   2   2 -15 21.4123 3.36355   1
   2   2 -14 32.4635 3.77729   1
  -2   2  14 25.3750 4.89749   3
   2   2 -14 28.3966 4.13312   4
  -2   2  13 141.061 10.0136   3
   2   2 -13 169.146 8.95744   4
   2   2 -13 138.741 7.99881   3
  -2   2  12 97.7493 7.66637   3
   2   2 -12 95.4982 6.03530   3
   2   2 -12 84.2233 6.13677   4
  -2   2  12 80.1933 5.81380   4
   2   2 -11 31.8922 3.60769   3
  -2   2  11 31.0799 4.44171   3
   2   2 -11 37.2753 3.98989   4
  -2   2  11 31.4706 3.65345   4
  -2   2  10 344.341 14.8835   3
  -2   2  10 315.894 12.4046   4
   2   2 -10 349.654 12.7068   3
   2   2 -10 338.234 13.1823   4
   2   2  -9 182.369 8.00850   3
  -2   2   9 175.015 9.52884   3
  -2   2   9 185.135 7.96285   4
   2   2  -8 307.935 11.2321   3
  -2   2   8 312.191 11.1884   4
   2   2  -7 376.332 12.8185   3
  -2   2   7 382.517 11.5906   1
  -2   2   6 376.389 12.4075   2
   2   2  -6 377.846 12.5224   3
  -2   2   6 382.721 11.4083   1
   2   2  -5 633.808 19.2036   3
  -2   2   5 669.590 18.3104   1
   2   2  -5 596.876 19.4068   4
   2   2  -4 235.440 8.15697   3
   2   2  -4 229.100 8.20242   4
  -2   2   4 228.918 7.47846   1
  -2   2   3 1377.68 38.9835   7
  -2   2   3 1345.93 37.1278   1
   2   2  -3 1357.15 37.4508   4
   2   2  -2 2414.36 66.3551   6
  -2   2   2 2454.60 67.5884   7
   2   2  -2 2488.87 65.7642   4
   2   2  -1 424.900 13.8198   7
  -2   2   1 484.927 15.4211   7
   2   2  -1 408.808 14.3382   6
   2   2  -1 506.319 13.2324   4
   2   2   0 157.777 5.35396   1
   2   2   0 129.907 5.62813   6
  -2   2   0 148.577 6.58417   7
  -2   2   0 136.658 5.90326   1
   2   2   0 156.870 5.79084   7
   2   2   1 93.3483 4.28897   7
  -2   2  -1 97.2523 4.97472   6
   2   2   1 82.1644 3.45131   1
   2   2   1 89.0130 3.96120   5
   2   2   2 1302.96 37.5317   3
   2   2   2 1347.24 35.9242   1
   2   2   2 1329.74 37.3973   5
  -2   2  -2 1342.70 38.1880   6
  -2   2  -3 387.832 13.3209   6
  -2   2  -3 395.661 12.6798   5
   2   2   3 411.941 11.4154   1
   2   2   4 563.033 15.3194   1
  -2   2  -4 562.628 16.9695   5
  -2   2  -4 517.524 17.1885   6
  -2   2  -5 24.6655 2.34486   5
  -2   2  -6 497.173 18.2151   4
   2   2   7 326.806 12.5374   5
  -2   2  -7 319.218 13.6361   4
   2   2   8 68.9106 5.04312   5
  -2   2  -8 69.8315 5.80635   4
   2   2   9 37.8789 3.96667   5
   2   2   9 30.8838 4.07235   3
  -2   2  -9 33.7188 4.36743   4
  -2   2 -10 264.316 12.2780   4
   2   2  10 243.958 12.3772   3
   2   2  11 216.808 11.7893   3
  -2   2 -11 198.656 10.7193   4
   2   2  12 59.2218 6.17994   3
  -2   2 -12 47.6237 5.19705   4
  -2   2 -13 3.08096 2.65039   4
   2   2  13 2.79385 3.27686   3
   2   2  14 50.7675 6.74212   3
  -2   2 -14 57.1751 5.87712   4
  -2   2 -15 4.16618 2.86037   4
   2   2  15 8.39893 4.31656   3
  -2   2 -16 4.77888 3.47974   4
   2   3 -17 0.77821 2.88077   1
   2   3 -16 41.4458 4.80230   1
   2   3 -15 126.893 8.63386   4
   2   3 -14 131.201 8.65083   4
   2   3 -13 4.91922 2.63429   3
  -2   3  12 112.546 6.74611   4
   2   3 -12 116.666 6.60817   3
   2   3 -11 297.298 11.2060   3
  -2   3  11 261.052 11.1232   4
  -2   3  10 116.343 8.48859   3
   2   3 -10 152.747 6.88469   3
  -2   3  10 146.393 7.13107   4
  -2   3   9 279.950 12.7397   3
   2   3  -9 267.505 9.97341   3
   2   3  -9 249.081 11.0577   4
  -2   3   9 262.302 10.2016   4
  -2   3   8 205.372 10.1295   3
   2   3  -8 200.248 7.79007   3
   2   3  -8 180.218 8.76797   4
  -2   3   8 191.606 6.60848   1
  -2   3   7 7.93280 1.11456   1
   2   3  -7 10.7883 1.66294   3
   2   3  -7 7.39197 2.03920   4
  -2   3   7 13.6374 2.05226   2
  -2   3   7 5.24762 2.35587   3
  -2   3   6 26.0395 3.19682   3
  -2   3   6 32.0498 2.04124   1
   2   3  -6 28.9759 2.37578   3
   2   3  -6 33.5300 3.07425   4
  -2   3   6 33.1688 2.77050   2
  -2   3   5 143.984 7.66196   7
   2   3  -5 143.160 5.49588   3
   2   3  -5 136.169 6.45788   4
  -2   3   5 148.311 6.33739   2
  -2   3   5 134.005 5.22358   1
   2   3  -4 70.5605 3.37241   3
   2   3  -4 75.0077 4.35114   6
  -2   3   4 72.3291 3.48955   1
   2   3  -4 70.7946 4.15799   4
  -2   3   4 79.0786 4.38864   2
  -2   3   4 65.0305 4.89650   7
  -2   3   3 214.908 9.91895   7
   2   3  -3 247.259 8.74449   4
  -2   3   3 244.692 8.43944   1
   2   3  -3 240.506 9.21524   6
   2   3  -2 723.339 22.2241   6
   2   3  -2 718.682 20.9986   4
  -2   3   2 720.035 21.4592   1
  -2   3   2 718.963 23.1373   7
   2   3  -1 261.474 9.45326   7
  -2   3   1 244.900 10.2855   7
  -2   3   1 250.706 9.15911   1
   2   3  -1 246.010 9.40541   6
   2   3  -1 229.301 7.93032   4
  -2   3   0 429.298 14.5577   7
   2   3   0 396.501 13.4883   6
   2   3   0 374.942 11.3341   4
   2   3   0 390.644 11.9445   5
   2   3   0 398.708 13.3607   7
   2   3   0 378.068 12.0787   3
   2   3   1 839.856 24.4684   5
   2   3   1 833.053 25.6635   7
   2   3   1 855.555 24.6894   3
  -2   3  -1 839.619 26.6749   6
   2   3   1 853.253 22.8565   4
  -2   3  -2 164.449 8.01473   6
   2   3   2 168.868 7.58529   7
   2   3   2 185.882 7.16071   3
   2   3   2 175.726 6.89413   5
   2   3   2 169.101 5.84524   1
  -2   3  -3 124.502 6.50048   6
   2   3   3 117.744 4.05251   1
   2   3   3 119.616 5.66866   5
   2   3   3 116.325 5.78711   3
   2   3   4 384.441 13.5266   3
   2   3   4 370.163 13.1348   5
  -2   3  -4 369.266 12.1083   5
  -2   3  -4 353.147 13.4282   6
   2   3   4 381.484 10.5766   1
  -2   3  -5 430.239 15.2489   6
   2   3   5 434.396 15.2766   5
  -2   3  -5 442.577 14.1001   5
   2   3   5 452.560 15.7128   3
   2   3   6 57.7319 2.91527   4
   2   3   6 66.3450 4.88445   3
  -2   3  -6 60.1237 3.67648   5
   2   3   6 47.7965 4.13506   5
   2   3   7 217.650 10.1312   3
   2   3   7 199.856 9.44948   5
  -2   3  -7 216.086 10.9194   4
   2   3   7 202.746 7.51816   4
   2   3   8 849.512 27.9489   3
  -2   3  -8 803.254 28.4980   4
  -2   3  -9 47.1636 5.55833   4
   2   3   9 36.4451 4.67183   3
   2   3  10 196.258 11.1787   3
  -2   3 -10 228.531 11.9765   4
  -2   3 -11 5.30180 2.97780   4
  -2   3 -12 79.9026 6.99131   4
  -2   3 -13 43.2661 5.62184   4
  -2   3 -14 34.1784 5.28698   4
  -2   3 -15-1.06310 3.32038   4
  -2   4  15 15.8668 5.26452   3
  -2   4  14 13.4485 4.86269   3
  -2   4  13 173.502 11.5868   3
   2   4 -13 138.563 9.01982   4
  -2   4  12 62.6901 6.95758   3
   2   4 -12 70.1696 4.56740   3
   2   4 -12 70.8910 6.01050   4
   2   4 -11 10.1303 2.98775   4
  -2   4  11 10.5370 3.77148   3
   2   4 -11 7.62694 2.04845   3
  -2   4  11 5.75390 2.29620   4
  -2   4  10 130.872 8.88669   3
   2   4 -10 120.965 5.71640   3
  -2   4  10 124.106 6.62250   4
   2   4 -10 136.288 8.00491   4
  -2   4   9 148.333 9.09655   3
   2   4  -9 144.742 6.04461   3
   2   4  -9 142.274 8.13717   4
  -2   4   9 145.407 5.32724   1
  -2   4   8 557.300 20.9001   3
  -2   4   8 578.031 18.4264   2
   2   4  -8 581.268 17.0618   3
   2   4  -8 590.731 20.1033   4
  -2   4   8 551.688 16.4772   1
  -2   4   7 30.3120 3.82427   3
  -2   4   7 28.4220 2.05107   1
  -2   4   7 28.5299 4.10010   7
   2   4  -7 27.8747 2.01418   3
   2   4  -7 25.9673 3.31361   4
  -2   4   7 29.2476 2.90513   2
   2   4  -6 179.124 6.07381   3
  -2   4   6 173.885 9.58958   7
   2   4  -6 180.873 8.46295   4
  -2   4   6 181.439 6.60569   1
  -2   4   6 183.504 7.82790   2
  -2   4   5 470.248 17.7028   7
   2   4  -5 499.956 16.4000   6
   2   4  -5 450.382 13.1332   3
  -2   4   5 442.613 14.1544   1
  -2   4   5 473.553 15.4777   2
   2   4  -5 442.828 15.7643   4
   2   4  -4 485.329 13.8520   3
   2   4  -4 469.729 16.7795   6
  -2   4   4 488.648 18.3222   7
  -2   4   4 485.854 15.2730   1
  -2   4   4 497.281 16.4072   2
   2   4  -4 495.846 16.4031   4
  -2   4   3 83.8539 4.36647   1
   2   4  -3 75.1436 4.42796   4
   2   4  -3 88.1957 5.24653   6
  -2   4   3 65.3979 5.55599   7
   2   4  -3 73.5731 2.84547   3
   2   4  -3 69.3293 2.94451   3
  -2   4   2 414.322 13.8517   1
   2   4  -2 403.954 13.4323   4
   2   4  -2 429.422 15.0654   6
   2   4  -2 400.812 11.9475   3
  -2   4   2 401.557 15.9350   7
  -2   4   1 649.373 20.7245   1
   2   4  -1 634.687 18.9032   3
   2   4  -1 659.010 21.6994   6
  -2   4   1 634.227 22.4984   7
   2   4  -1 688.924 19.8138   4
   2   4  -1 676.692 21.4816   7
  -2   4   0 507.353 18.1325   7
   2   4   0 492.217 17.0040   7
   2   4   0 459.102 14.8538   4
   2   4   0 492.994 17.2972   6
   2   4   0 492.825 14.7379   5
  -2   4   0 490.259 16.5408   1
   2   4   0 491.085 14.8663   3
   2   4   1 37.7891 3.70078   7
   2   4   1 33.2137 2.55075   3
  -2   4  -1 37.4555 4.27017   6
   2   4   1 32.8302 3.65565   6
   2   4   1 30.7810 2.04905   4
   2   4   1 33.4673 2.56756   5
  -2   4  -1 31.2670 3.26529   1
  -2   4  -2 611.288 21.3688   6
   2   4   2 617.872 20.6933   7
   2   4   2 585.223 16.5960   2
   2   4   2 614.627 18.7770   5
   2   4   2 631.003 19.0217   3
   2   4   2 616.749 16.9831   4
   2   4   3 211.619 8.54564   3
   2   4   3 194.200 9.34485   7
   2   4   3 215.048 8.38101   5
   2   4   3 192.480 5.68399   4
   2   4   3 199.601 5.91972   4
  -2   4  -3 204.637 9.85359   6
   2   4   3 211.863 6.83665   1
   2   4   4 52.3737 4.70783   7
  -2   4  -4 36.2910 4.00048   6
   2   4   4 52.0136 2.26243   1
  -2   4  -4 54.3240 3.13282   5
   2   4   4 49.8670 4.00620   3
   2   4   4 49.0674 3.89106   5
  -2   4  -5 84.5089 4.20611   5
   2   4   5 78.5028 2.76882   4
   2   4   5 82.3155 5.24480   5
  -2   4  -5 74.5936 5.55382   6
   2   4   5 78.7037 2.61140   1
   2   4   5 82.3410 5.61355   3
   2   4   6 167.050 8.63801   3
  -2   4  -6 165.487 8.36054   6
   2   4   6 161.548 8.15805   5
  -2   4  -6 163.704 6.66679   5
   2   4   6 157.415 5.33114   4
   2   4   7 20.2890 3.26031   5
   2   4   7 18.3587 1.71312   4
   2   4   7 12.9638 3.26722   3
  -2   4  -7 21.6104 4.26854   4
   2   4   8 13.0906 3.27054   3
  -2   4  -8 17.6974 4.09279   4
   2   4   8 12.8785 1.79923   4
   2   4   9 1.78969 2.76328   3
  -2   4  -9 6.83513 3.12566   4
   2   4  10 57.2446 6.19966   3
  -2   4 -10 70.1966 7.10403   4
   2   4  11 34.6091 5.50712   3
  -2   4 -11 30.5227 5.13648   4
   2   4  12 5.85892 4.03615   3
  -2   4 -12 6.66741 3.71387   4
   2   4  13 52.6762 7.05623   3
  -2   4 -13 63.4374 7.09093   4
   2   4  14 54.3767 7.29691   3
  -2   4 -14 47.6701 6.30322   4
  -2   5  14 6.21724 4.61652   3
   2   5 -14 7.43285 3.79520   4
   2   5 -13 53.8052 5.95233   4
  -2   5  13 45.0286 6.60295   3
  -2   5  12 26.7789 5.16630   3
   2   5 -12 21.0303 4.26940   4
  -2   5  11 28.5248 5.07545   3
   2   5 -11 30.5547 4.39764   4
  -2   5  10 93.9398 7.74787   3
   2   5 -10 105.235 7.36856   4
  -2   5   9 2.30430 2.77486   3
  -2   5   9 3.32310 1.98252   2
  -2   5   9 2.91991 1.12509   1
   2   5  -9 0.75774 2.53093   4
  -2   5   8 56.5200 3.02899   1
  -2   5   8 64.8885 5.88496   3
   2   5  -8 53.9048 5.09032   4
  -2   5   8 57.2394 4.26094   2
  -2   5   7 270.794 9.15147   1
   2   5  -7 250.319 11.5771   4
  -2   5   7 283.888 10.7636   2
  -2   5   6 243.034 9.97411   2
   2   5  -6 246.625 10.8161   4
  -2   5   6 241.548 8.57688   1
   2   5  -5 36.2662 3.95118   6
  -2   5   5 39.9323 5.15137   7
  -2   5   5 36.4412 2.82075   1
   2   5  -5 33.9920 3.64132   4
  -2   5   5 37.0889 3.62240   2
  -2   5   4 464.489 16.1792   2
  -2   5   4 446.160 15.0263   1
   2   5  -4 466.750 17.2236   6
   2   5  -4 466.531 16.2503   4
  -2   5   4 467.967 18.6996   7
  -2   5   3 125.374 8.44487   7
  -2   5   3 120.271 6.04407   1
   2   5  -3 120.403 7.26105   6
   2   5  -3 135.100 6.63404   4
   2   5  -2 418.388 11.6918   3
  -2   5   2 403.449 17.1588   7
   2   5  -2 422.716 16.2095   6
  -2   5   2 422.579 14.7987   1
   2   5  -2 410.985 14.3593   4
  -2   5   1 102.920 7.49813   7
  -2   5   1 119.320 6.52737   1
   2   5  -1 113.090 7.29774   6
   2   5  -1 132.952 7.48795   7
   2   5  -1 115.445 4.47814   3
   2   5  -1 123.704 5.89006   4
   2   5   0 86.6699 4.14524   3
  -2   5   0 88.4525 5.78674   1
   2   5   0 91.0846 6.45423   6
   2   5   0 91.4446 6.34803   7
  -2   5   0 75.3712 6.54574   7
  -2   5   0 89.6971 7.01994   6
   2   5   0 94.5115 4.68678   4
   2   5   0 88.8988 4.15012   5
   2   5   1 32.1255 2.64661   3
  -2   5  -1 31.8037 3.80455   1
  -2   5  -1 33.1629 4.46560   6
   2   5   1 30.0291 2.64305   5
   2   5   1 28.8374 4.10428   6
   2   5   1 30.0100 3.96314   7
   2   5   1 31.5716 2.48451   4
   2   5   2 132.333 7.85592   7
   2   5   2 118.969 5.79515   3
  -2   5  -2 123.332 8.05279   6
   2   5   2 110.285 4.27243   2
   2   5   2 106.974 4.58921   4
   2   5   2 114.271 5.62130   5
   2   5   3 185.656 8.00444   3
   2   5   3 168.534 5.32964   2
   2   5   3 164.856 5.80875   4
  -2   5  -3 147.177 9.20323   6
   2   5   3 184.424 7.76896   5
   2   5   3 172.984 9.50855   7
   2   5   4 14.2745 2.67666   3
  -2   5  -4 16.0787 3.43541   6
  -2   5  -4 10.9698 1.62408   5
   2   5   4 11.6298 0.86912   4
   2   5   4 16.9211 3.88009   7
   2   5   4 12.7098 1.41849   1
   2   5   4 11.5392 1.09537   4
   2   5   4 8.05327 2.02362   5
   2   5   5 31.5706 1.96517   1
   2   5   5 32.3487 4.47428   7
   2   5   5 31.8144 1.62830   1
  -2   5  -5 26.2823 3.88840   6
  -2   5  -5 34.6693 2.51472   5
   2   5   5 28.9947 3.43463   5
   2   5   5 32.6651 3.75274   3
  -2   5  -6 167.820 9.12633   6
   2   5   6 179.867 8.77977   5
   2   5   6 170.190 8.94626   3
   2   5   6 140.378 8.73973   7
  -2   5  -7 3.37948 2.40395   6
   2   5   7 7.03812 3.04097   3
   2   5   8 58.7928 5.79182   3
   2   5   9 186.213 10.8876   3
  -2   5  -9 174.872 11.3582   4
  -2   5 -10-1.21692 3.36899   4
   2   5  10 2.61418 3.34273   3
   2   5  11 19.1411 4.59485   3
  -2   5 -11 15.7828 4.59233   4
   2   5  12 125.414 9.91716   3
  -2   5 -12 119.559 9.60953   4
   2   5  13 42.5657 6.69466   3
  -2   5 -13 43.3173 6.27091   4
   2   6 -13 58.8961 6.56496   4
   2   6 -12 103.337 7.90464   4
   2   6 -11 14.6206 3.93269   4
   2   6 -10 48.0879 5.54028   4
   2   6  -9 62.2234 5.77954   4
   2   6  -8 10.5843 3.19567   4
  -2   6   7 36.2287 2.71319   1
  -2   6   7 38.2677 3.66561   2
   2   6  -7 32.8441 4.29842   4
   2   6  -6 50.1524 5.10642   6
  -2   6   6 39.2012 3.05262   1
   2   6  -6 39.6651 4.28744   4
  -2   6   6 59.4043 4.54900   2
  -2   6   5 10.5042 2.76890   2
  -2   6   5 9.81717 1.98630   1
   2   6  -5 10.0041 3.06982   6
   2   6  -5 10.9566 2.79092   4
  -2   6   4 30.2060 3.11834   1
  -2   6   4 40.9089 4.10549   2
   2   6  -4 38.2826 4.52172   6
   2   6  -4 42.2989 4.12134   4
   2   6  -3 2.40716 2.47627   6
  -2   6   3 1.48387 1.95147   1
   2   6  -3 0.82564 1.96756   4
  -2   6   2 159.294 8.04601   1
   2   6  -2 173.745 9.64947   6
   2   6  -2 149.683 7.49534   4
   2   6  -1 38.4549 4.80048   6
   2   6  -1 38.9783 4.70686   7
  -2   6   1 41.5851 4.21542   1
  -2   6   1 22.5484 4.59081   6
   2   6  -1 34.3580 3.37032   4
   2   6   0 237.874 8.42482   3
   2   6   0 254.349 12.2550   7
   2   6   0 253.049 12.5050   6
  -2   6   0 254.381 11.4717   1
  -2   6   0 257.123 13.6379   6
   2   6   0 255.943 8.81872   5
   2   6   0 268.072 9.89953   4
   2   6   1 23.2462 2.51136   5
   2   6   1 25.1970 2.45107   3
  -2   6  -1 33.3171 4.83867   6
   2   6   1 29.7257 4.71837   6
   2   6   1 25.2475 4.20596   7
   2   6   1 32.9822 2.87984   4
   2   6   2 174.202 7.69634   3
   2   6   2 201.640 10.8812   7
   2   6   2 209.089 11.3371   6
   2   6   2 183.679 7.87799   5
  -2   6  -2 184.841 11.0109   6
   2   6   2 186.250 6.60409   2
   2   6   2 187.567 7.20125   4
   2   6   3 122.499 6.36450   3
   2   6   3 114.126 8.34760   7
  -2   6  -3 111.750 8.55731   6
   2   6   3 118.937 6.23602   5
   2   6   3 118.339 4.90025   4
   2   6   3 123.574 4.38398   2
   2   6   4 108.505 6.30531   3
   2   6   4 100.393 6.02386   5
  -2   6  -4 99.2923 4.53726   5
  -2   6  -4 107.825 7.98154   6
   2   6   4 106.281 4.00883   4
   2   6   4 109.515 4.72572   1
  -2   6  -5 25.1241 2.12091   5
  -2   6  -5 26.6657 4.42353   6
   2   6   5 28.8754 1.84143   1
   2   6   5 31.6186 3.95048   3
   2   6   5 27.4798 3.56820   5
   2   6   5 27.5535 2.19009   1
  -2   6  -6 128.798 8.58385   6
   2   6   6 126.247 7.79040   3
  -2   6  -6 140.965 10.1371   4
   2   6   7 89.6722 6.88401   3
  -2   6  -7 93.5815 7.18336   6
  -2   6  -7 94.2653 8.44045   4
   2   6   8 22.3213 4.17769   3
  -2   6  -8 18.8648 4.76483   4
   2   6   9 39.2200 5.53568   3
   2   6  10 19.2692 4.71344   3
   2   6  11 45.1152 6.53723   3
   2   6  12 9.81104 4.68231   3
   2   7 -11 21.8394 4.80433   4
   2   7 -10 12.1060 4.07614   4
   2   7  -9 6.18300 3.48801   4
   2   7  -8 2.53279 2.79012   4
   2   7  -7 47.7178 5.13324   4
   2   7  -6 88.2289 7.09378   6
   2   7  -6 86.9450 6.50700   4
   2   7  -5 35.4070 4.75210   6
   2   7  -5 31.4565 4.10858   4
   2   7  -4 51.7052 5.67039   6
  -2   7   4 43.8230 3.91980   1
   2   7  -4 37.5986 4.22368   4
   2   7  -3 98.1460 6.30233   4
   2   7  -3 104.378 7.83027   6
  -2   7   2 7.26722 4.46512   6
   2   7  -2 10.7830 3.81780   6
   2   7  -2 10.6920 2.58619   4
   2   7  -1 12.3143 4.05297   6
  -2   7   1 10.2681 4.24530   6
   2   7  -1 5.41326 2.31277   4
  -2   7   0 229.167 14.2111   6
   2   7   0 262.759 10.4043   4
   2   7   1 63.9107 6.92568   6
  -2   7  -1 58.5633 6.84579   6
   2   7   1 60.2025 4.06854   4
   2   7   2 51.8112 3.55703   3
   2   7   2 56.5642 6.69937   6
   2   7   2 54.9854 3.57290   4
  -2   7  -2 64.7908 6.82100   6
   2   7   3 44.3030 3.83154   3
   2   7   3 57.5110 6.52529   6
  -2   7  -3 54.0923 6.33098   6
   2   7   4 112.771 6.71964   3
  -2   7  -4 123.028 9.22034   6
   2   7   4 140.950 5.83810   1
   2   7   4 121.489 9.77990   6
   2   7   5 51.6945 4.79436   3
  -2   7  -5 55.7786 6.30506   6
  -2   7  -5 57.7388 7.00227   4
  -2   7  -6 27.1641 4.80224   6
   2   7   6 18.3273 3.74330   3
  -2   7  -6 29.1908 5.82190   4
   2   7   7 5.07552 2.91311   3
  -2   7  -7 4.05911 3.24554   6
  -2   7  -7 1.36195 4.15239   4
   2   7   8 25.6498 4.85568   3
  -2   7  -8 30.7892 6.05126   4
   2   7   9 23.6029 4.83260   3
  -2   7  -9 21.4449 5.83573   4
   2   7  10 10.2866 4.34541   3
   2   7  11 11.0754 4.60283   3
   2   8  -9 45.5944 5.78257   4
   2   8  -8 15.1333 4.08903   4
   2   8  -7 8.06523 3.77792   4
   2   8  -6 21.4085 4.40968   6
   2   8  -6 25.4598 4.25771   4
   2   8  -5 54.9969 6.36003   6
   2   8  -5 51.3497 5.36536   4
   2   8  -4 31.8853 5.35786   6
   2   8  -4 25.5915 4.14705   4
   2   8  -3 16.0787 4.18588   6
  -2   8   2 21.6376 5.63312   6
   2   8  -2 13.2565 4.44313   6
   2   8  -1 36.8173 5.95749   6
  -2   8   1 36.1213 6.49001   6
   2   8   0 5.44832 3.91528   6
  -2   8   0 2.10703 4.11884   6
   2   8   1 1.87038 3.75355   6
  -2   8  -1 4.77115 4.55214   6
   2   8   2 15.3977 4.85579   6
  -2   8  -2 24.5812 5.67762   6
  -2   8  -3 22.1840 5.10864   6
   2   8   3 22.9687 5.58146   6
  -2   8  -4 6.69522 3.89734   6
   2   8   4 7.38980 4.53767   6
  -2   8  -4 12.4829 5.39327   4
  -2   8  -5 22.1268 4.93978   6
   2   8   5 32.4394 6.52093   6
  -2   8  -5 28.4833 6.65495   4
   2   8   6 66.3181 8.39628   6
  -2   8  -6 68.7349 8.46508   4
  -2   9  -2 9.08629 5.04686   4
   3  -8   2 13.5034 5.31590   7
   3  -8   3 3.22278 4.66011   7
  -3  -7  11 52.4678 7.57267   7
  -3  -7  10 55.3314 7.35639   7
  -3  -7   9 88.8839 8.74985   7
  -3  -7   8 8.69568 4.44558   7
  -3  -7   7 40.4111 6.06655   7
  -3  -7   6 127.691 9.48290   7
  -3  -7   5 32.5682 5.24858   7
  -3  -6  14 7.25877 4.59168   7
  -3  -6  13 36.7167 6.26599   7
  -3  -6  12 38.9516 6.44408   7
  -3  -6  11 42.1874 6.25712   7
  -3  -6  10 52.3694 6.55271   7
  -3  -6   9 49.4582 6.33050   7
  -3  -6   8 67.2770 7.04115   7
  -3  -6   7 98.9091 8.13740   7
  -3  -6   6 96.5898 7.80121   7
  -3  -6   5 60.9400 6.13962   7
  -3  -6   4 184.852 10.2576   7
  -3  -5  15-2.84613 4.70221   7
  -3  -5  14 25.2958 5.70492   7
  -3  -5  13 67.0334 7.67442   7
  -3  -5  12 8.66017 4.05745   7
  -3  -5  11 57.7428 6.40025   7
  -3  -5  10 151.319 9.86446   7
  -3  -5   9 14.5239 3.92243   7
  -3  -5   8 108.509 7.84900   7
   3  -5  -8 97.1116 6.72676   3
  -3  -5   7 93.3676 7.23821   7
   3  -5  -7 85.5532 6.01272   3
   3  -5  -6 32.7183 3.74254   3
  -3  -5   6 34.8258 4.44916   7
  -3  -5   5 16.1758 3.29841   7
   3  -5  -5 12.4630 2.59732   3
   3  -5  -4 58.9997 4.36505   3
  -3  -5   4 61.2260 5.21228   7
   3  -5  -3 160.828 7.32675   3
  -3  -5   3 149.221 8.32230   7
   3  -5   0 83.4065 4.61261   3
   3  -5   1 173.069 7.08749   3
   3  -5   2 730.285 21.8576   3
   3  -5   4 35.7566 2.59890   3
   3  -5   5 196.662 7.40423   3
   3  -4  -9 105.781 7.02396   3
  -3  -4   9 108.829 7.37938   7
  -3  -4   8 253.406 11.8683   7
   3  -4  -8 263.332 11.5643   3
  -3  -4   8 254.920 12.2368   6
  -3  -4   7 362.630 15.1889   6
   3  -4  -7 340.174 14.0786   3
   3  -4  -6 40.9874 3.88817   3
  -3  -4   6 37.9051 4.10613   7
  -3  -4   6 38.0853 4.30728   6
   3  -4  -5 225.390 9.76868   3
  -3  -4   5 229.873 10.8076   6
   3  -4  -4 496.917 17.0636   3
   3  -4   4 272.196 9.74165   3
   3  -4   5 180.454 7.40245   3
   3  -4   6 73.7763 4.39406   3
   3  -4   7 8.65429 2.16890   3
   3  -4   8 311.223 11.9754   3
   3  -4   9 144.439 7.42664   3
   3  -4  10 14.4327 3.01288   3
   3  -3 -17 59.8951 6.47615   2
   3  -3 -16 1.91279 3.02276   2
   3  -3 -15 56.3596 5.73027   2
   3  -3 -14 6.24959 2.92804   2
   3  -3 -12 18.7099 2.30106   1
   3  -3 -11 66.5038 4.03462   1
   3  -3 -10 154.683 8.56562   3
   3  -3 -10 141.657 6.39510   1
  -3  -3  10 144.615 8.43111   6
  -3  -3  10 143.541 8.85274   4
   3  -3  -9 117.346 7.29486   3
  -3  -3   9 126.061 7.46706   6
   3  -3  -9 126.120 5.86429   1
  -3  -3   9 118.926 7.75320   4
  -3  -3   8 213.587 9.91538   6
   3  -3  -8 217.713 8.39073   1
   3  -3  -8 209.532 9.90519   3
  -3  -3   8 190.093 9.93338   4
  -3  -3   7 41.4414 4.06101   6
   3  -3  -7 44.5776 4.05947   3
   3  -3  -7 43.3288 3.32352   1
  -3  -3   7 45.5180 4.35398   4
   3  -3  -6 513.335 17.9835   3
   3  -3  -6 519.630 16.8037   1
  -3  -3   6 521.497 18.0673   6
  -3  -3   6 519.749 18.1576   4
   3  -3  -5 593.301 19.8187   3
   3  -3  -5 581.512 18.8285   1
  -3  -3   5 607.079 19.8413   6
   3  -3  -4 407.623 13.9242   1
  -3  -3   4 398.683 13.9537   7
  -3  -3   4 400.789 11.8643   5
   3  -3  -3 348.265 12.3500   1
  -3  -3   3 374.040 12.1089   4
  -3  -3   3 376.905 12.2495   7
  -3  -3   2 460.407 15.3066   7
  -3  -3   2 481.078 14.4066   5
   3  -3  -1 95.0415 5.91120   7
   3  -3   0 37.7062 4.04306   7
   3  -3   1 9.46530 2.53812   7
   3  -3   2 568.476 20.1567   7
   3  -3   3 251.132 11.3590   7
   3  -3   4 67.5786 5.48609   7
   3  -3   5 126.623 6.06526   3
   3  -3   5 134.915 7.97719   7
   3  -3   6 587.400 18.9225   3
   3  -3   7 140.678 8.53204   6
   3  -3   7 143.733 7.00261   3
   3  -3   8 26.0749 4.26950   6
   3  -3   8 22.5000 3.01058   3
  -3  -3  -8 21.7817 1.70203   2
   3  -3   9 33.2685 4.86342   6
  -3  -3  -9 28.0882 2.11788   2
   3  -3   9 31.3846 3.67926   3
   3  -3  10 152.903 8.29847   3
   3  -3  11 22.2412 3.82549   3
   3  -3  12 10.5847 3.52045   3
   3  -3  13 1.76684 3.12886   3
   3  -2 -17 21.0373 4.40734   2
   3  -2 -16 32.4324 4.93626   2
   3  -2 -15 47.4509 5.28043   2
   3  -2 -14 25.1419 3.89846   2
   3  -2 -13 60.8524 3.72789   1
   3  -2 -13 65.3484 5.59333   2
   3  -2 -12 160.884 6.67767   1
   3  -2 -12 170.103 8.79318   2
  -3  -2  11 282.411 12.0340   6
   3  -2 -11 275.802 9.70322   1
   3  -2 -11 268.494 11.6414   2
  -3  -2  11 271.580 12.9025   4
   3  -2 -10 21.0440 3.12395   2
   3  -2 -10 24.3954 3.62120   3
   3  -2 -10 27.1709 2.40313   1
  -3  -2  10 26.6294 3.36902   6
  -3  -2  10 30.7955 4.10327   4
   3  -2  -9 304.085 12.9283   3
  -3  -2   9 315.693 12.3911   6
  -3  -2   9 321.992 13.3444   4
   3  -2  -9 308.555 10.5916   1
   3  -2  -9 321.705 12.4859   2
   3  -2  -8 923.837 29.5250   3
  -3  -2   8 947.921 28.7327   6
   3  -2  -8 941.295 27.0850   1
   3  -2  -8 922.558 28.9305   2
  -3  -2   8 949.953 29.5917   4
   3  -2  -7 139.129 7.40803   3
  -3  -2   7 150.995 6.93761   6
  -3  -2   7 137.102 7.06897   4
   3  -2  -7 141.898 5.92560   1
   3  -2  -6 353.622 13.3622   3
   3  -2  -6 347.417 11.5358   1
   3  -2  -5 128.355 5.57033   1
  -3  -2   4 83.2953 4.12722   7
   3  -2  -4 79.9177 4.22062   1
  -3  -2   4 83.6886 4.34304   6
  -3  -2   4 82.7432 4.33572   4
   3  -2  -3 617.103 18.9416   1
  -3  -2   3 582.789 18.2157   7
  -3  -2   3 629.425 18.9053   6
  -3  -2   3 648.232 18.5758   4
   3  -2  -2 1254.66 36.0949   1
  -3  -2   2 1260.17 34.7435   7
  -3  -2   2 1299.73 35.7463   6
  -3  -2   2 1284.86 35.0095   5
  -3  -2   2 1234.28 34.9289   4
   3  -2  -1 557.877 17.5690   1
   3  -2  -1 561.287 17.9453   7
  -3  -2   1 523.648 16.4148   5
  -3  -2   1 563.520 15.8288   4
   3  -2   0 1095.83 32.0361   1
  -3  -2   0 1140.22 31.1784   5
   3  -2   0 1058.22 32.3035   7
  -3  -2   0 1084.52 29.5093   4
   3  -2   1 764.542 24.4315   7
  -3  -2  -1 801.777 23.4380   5
   3  -2   2 54.8087 4.09906   7
  -3  -2  -3 224.078 7.36415   1
   3  -2   3 238.845 9.83957   7
  -3  -2  -4 549.177 15.6813   1
   3  -2   5 229.637 9.01828   3
   3  -2   5 220.908 9.75732   6
  -3  -2  -5 226.601 7.08001   1
   3  -2   6 125.623 6.30888   3
   3  -2   6 112.951 6.56604   6
  -3  -2  -6 120.487 4.12427   1
   3  -2   7 35.4179 3.93615   6
   3  -2   7 29.8135 3.26779   3
  -3  -2  -7 33.9561 1.63299   1
   3  -2   8 433.352 15.6657   3
   3  -2   8 417.879 16.1187   6
   3  -2   9 31.9089 3.64930   3
   3  -2   9 34.6525 4.24885   6
  -3  -2 -10 16.3716 2.08518   2
   3  -2  10 18.2941 3.75403   6
   3  -2  10 16.9584 3.26394   3
  -3  -2 -11 22.4307 2.50730   2
   3  -2  11 20.7968 3.75598   3
   3  -2  12 147.255 9.14816   3
   3  -2  13 45.5605 5.54293   3
   3  -2  14 1.01678 3.46494   3
   3  -2  15 18.2202 4.98642   3
   3  -1 -18 17.0207 4.41826   2
   3  -1 -17 33.9168 5.23238   2
   3  -1 -16 107.937 7.76147   2
   3  -1 -15 21.4429 4.16825   2
   3  -1 -14 40.5475 3.19928   1
   3  -1 -14 42.4295 4.72530   2
   3  -1 -13 112.560 5.41539   1
   3  -1 -13 108.828 7.06682   2
   3  -1 -12 62.3735 3.81808   1
   3  -1 -12 62.1302 5.10804   2
   3  -1 -11 334.469 11.2630   1
  -3  -1  11 323.776 13.9839   4
   3  -1 -11 327.967 13.0442   2
   3  -1 -10 194.211 7.39961   1
  -3  -1  10 210.761 9.74003   4
   3  -1 -10 183.541 8.74594   2
   3  -1  -9 316.953 10.7889   1
   3  -1  -9 313.743 13.0573   3
  -3  -1   9 315.396 12.7593   4
   3  -1  -9 358.191 12.6064   2
   3  -1  -8 53.5883 3.14206   1
   3  -1  -8 53.0401 4.39238   3
  -3  -1   8 56.7949 4.26700   4
   3  -1  -8 58.8700 4.12516   2
  -3  -1   7 256.516 9.99747   4
   3  -1  -7 246.954 9.79386   2
   3  -1  -7 257.234 8.83088   1
   3  -1  -6 1483.04 43.5846   2
   3  -1  -6 1561.33 42.3101   1
   3  -1  -5 591.416 18.6357   2
   3  -1  -5 587.438 17.4826   1
  -3  -1   4 179.408 6.60715   4
   3  -1  -4 166.577 6.36664   1
   3  -1  -3 1127.83 32.0823   1
  -3  -1   3 1157.19 31.8198   4
  -3  -1   2 1387.56 38.0599   6
   3  -1  -2 1449.32 39.1476   1
   3  -1  -1 777.731 22.8852   7
  -3  -1   1 769.069 21.7127   6
   3  -1  -1 822.215 23.1762   1
  -3  -1   1 817.334 22.5950   1
  -3  -1   1 794.151 21.9360   2
  -3  -1   0 80.9247 3.47719   1
  -3  -1   0 81.3560 3.96498   5
   3  -1   0 74.8648 3.99499   1
  -3  -1   0 79.7064 3.08568   2
   3  -1   0 76.3679 3.97778   7
  -3  -1  -1 319.069 9.48453   2
  -3  -1  -1 323.996 9.86368   1
  -3  -1  -1 318.984 10.8377   5
   3  -1   1 333.542 11.0175   7
  -3  -1  -2 363.416 12.0254   5
  -3  -1  -2 344.164 10.5521   1
  -3  -1  -3 143.663 5.06728   1
  -3  -1  -3 147.381 6.55958   5
   3  -1   3 142.504 6.02046   6
  -3  -1  -4 364.586 10.4937   1
   3  -1   4 326.659 11.6762   6
  -3  -1  -4 331.371 11.0166   4
   3  -1   5 110.142 5.59198   6
   3  -1   5 113.143 5.82055   3
  -3  -1  -5 116.540 5.00163   4
  -3  -1  -5 118.737 4.37535   1
   3  -1   6 712.943 22.3959   6
  -3  -1  -6 715.133 21.4131   4
  -3  -1  -6 723.391 20.3906   1
   3  -1   6 739.848 23.0306   3
   3  -1   7 589.620 19.2289   3
   3  -1   7 557.631 18.5239   6
  -3  -1  -7 563.731 17.5296   4
  -3  -1  -7 558.650 16.2794   1
   3  -1   8 46.3684 4.03326   6
   3  -1   8 48.9936 4.30306   3
  -3  -1  -8 49.7245 3.46253   4
  -3  -1  -8 48.4148 2.56512   1
   3  -1   9 74.1957 5.33918   6
  -3  -1  -9 83.5509 4.74786   4
   3  -1   9 81.3279 5.78966   3
  -3  -1  -9 82.1682 3.56170   1
   3  -1  10 43.3341 4.48212   3
   3  -1  10 37.4975 4.07771   6
  -3  -1 -10 35.9621 3.29062   4
   3  -1  11 112.373 7.17361   6
  -3  -1 -11 125.564 6.43793   4
   3  -1  11 128.147 8.08768   3
   3  -1  12 1.78609 2.82222   3
  -3  -1 -12 0.24880 1.84205   4
   3  -1  13 4.91609 3.48430   3
   3  -1  14 44.3062 5.95443   3
   3  -1  15 77.5703 7.74133   3
   3  -1  16 27.1798 5.90669   3
   3   0 -18 32.6464 4.88735   2
   3   0 -17 33.6001 4.77450   2
   3   0 -16 68.3012 6.10529   2
   3   0 -15 11.2825 3.06919   2
  -3   0  15 14.7793 4.15322   3
   3   0 -15 16.0974 2.49118   1
   3   0 -14 5.04718 2.55785   2
  -3   0  14 3.71144 3.58039   3
   3   0 -14 6.87696 2.03413   1
   3   0 -13-0.59316 1.58318   1
  -3   0  13-1.96559 2.99558   3
   3   0 -13-0.99813 2.00278   2
   3   0 -12 51.5736 5.09059   3
   3   0 -12 51.3863 3.59459   1
   3   0 -12 65.1546 4.92457   2
  -3   0  12 50.2062 5.48879   3
   3   0 -11 38.4814 4.29630   3
   3   0 -11 38.6238 3.06853   1
   3   0 -11 38.9165 3.69039   2
   3   0 -10 259.959 11.4569   3
   3   0 -10 259.229 9.43848   1
  -3   0  10 262.657 11.1636   4
   3   0 -10 256.988 10.5499   2
   3   0  -9 241.682 10.7089   3
   3   0  -9 253.228 9.06795   1
  -3   0   9 253.303 10.3926   4
   3   0  -9 253.524 10.0737   2
   3   0  -8 48.0051 4.21644   3
   3   0  -8 51.0948 3.10750   1
  -3   0   8 51.0254 3.80026   4
   3   0  -8 48.7955 3.58709   2
   3   0  -7 131.602 5.40292   1
   3   0  -7 125.989 5.99298   2
   3   0  -6 204.202 7.42508   1
   3   0  -6 216.099 8.20338   2
   3   0  -5 124.824 5.05377   1
  -3   0   4 172.737 6.61123   2
   3   0  -4 186.124 6.55546   1
   3   0  -3 1001.13 27.8027   1
  -3   0   3 974.234 27.8123   2
  -3   0   2 677.655 18.5802   7
  -3   0   2 675.615 19.4573   2
   3   0  -2 656.178 19.4897   1
  -3   0   1 329.745 10.3895   2
   3   0  -1 324.839 10.4183   1
  -3   0   0 2891.01 76.1988   1
   3   0   0 2822.77 75.6806   7
  -3   0  -1 1252.95 34.4253   1
   3   0   2 40.4759 2.65723   1
  -3   0  -2 35.8748 2.83769   5
  -3   0  -2 41.3751 2.38168   1
  -3   0  -3 626.010 19.2895   5
  -3   0  -3 616.931 17.9733   1
   3   0   3 667.062 18.8767   1
   3   0   3 582.784 17.5637   6
   3   0   4 2120.13 56.9682   6
  -3   0  -4 2044.74 58.7177   5
  -3   0  -4 2135.97 57.3095   1
   3   0   5 173.054 7.81390   3
   3   0   5 176.656 6.50048   6
  -3   0  -5 176.031 6.61903   1
  -3   0  -5 169.051 7.60931   4
   3   0   6 158.154 7.65079   3
   3   0   6 149.323 6.22143   6
   3   0   6 166.529 7.40968   5
  -3   0  -6 159.726 7.41999   4
   3   0   7 115.707 5.46309   6
   3   0   7 119.448 6.62652   3
   3   0   7 127.109 6.49070   5
  -3   0  -7 113.607 6.25944   4
   3   0   8 198.655 7.95534   6
   3   0   8 194.800 9.36434   3
   3   0   8 195.722 8.89836   5
  -3   0  -8 173.046 8.29586   4
   3   0   9 345.102 13.2058   5
   3   0   9 319.488 11.8845   6
   3   0   9 317.526 13.5029   3
  -3   0  -9 321.214 12.5087   4
   3   0  10 0.24073 1.73632   6
   3   0  10-0.38607 2.55103   3
   3   0  10 0.64876 2.00195   5
  -3   0 -10 0.27898 1.86294   4
   3   0  11 2.70005 2.08424   6
   3   0  11 4.65247 2.82603   3
  -3   0 -11 4.38788 2.18615   4
   3   0  12 52.3295 4.72200   6
   3   0  12 45.1035 5.51880   3
  -3   0 -12 45.1831 4.21596   4
   3   0  13 1.03505 3.03418   3
  -3   0 -13 0.31872 2.08356   4
  -3   0 -14 7.37624 2.82831   4
   3   0  14 14.8947 4.39169   3
   3   0  15 5.98728 4.28257   3
   3   1 -17 36.2183 4.93107   2
  -3   1  16 103.076 9.09275   3
   3   1 -16 95.9747 5.86561   1
   3   1 -16 98.0774 7.30514   2
   3   1 -15 16.0653 2.79013   1
   3   1 -15 14.5778 3.33691   2
  -3   1  15 18.8323 4.73916   3
   3   1 -14 43.3230 4.62080   2
  -3   1  14 37.2561 5.43844   3
   3   1 -14 41.6619 3.77729   1
  -3   1  13 102.507 8.25276   3
   3   1 -13 103.053 6.74616   2
   3   1 -13 117.528 6.18020   1
  -3   1  12 59.2368 6.08811   3
   3   1 -12 60.8924 4.77064   2
   3   1 -12 50.6474 4.93467   3
   3   1 -12 63.6926 4.37784   1
  -3   1  11 328.783 14.8298   3
   3   1 -11 330.729 13.0073   2
   3   1 -11 319.945 13.3619   3
  -3   1  11 332.595 13.3207   4
   3   1 -11 347.309 12.3529   1
   3   1 -10 171.985 8.23587   2
   3   1 -10 185.093 8.95429   3
   3   1 -10 194.296 7.98779   1
  -3   1  10 174.902 9.80600   3
   3   1  -9 298.262 11.8936   2
   3   1  -9 337.917 12.8784   3
   3   1  -9 354.200 11.9679   1
   3   1  -8 53.8450 4.19898   3
   3   1  -8 54.7468 3.59114   1
  -3   1   7 239.200 8.65030   1
   3   1  -7 251.153 10.0984   3
   3   1  -7 250.530 9.15895   1
   3   1  -6 1553.07 45.5160   3
   3   1  -6 1630.77 44.4259   1
  -3   1   6 1576.71 43.8399   1
   3   1  -5 584.715 19.1319   3
  -3   1   5 595.404 17.6850   1
   3   1  -5 623.867 18.2732   1
   3   1  -4 162.295 6.40288   1
   3   1  -4 178.105 6.48956   2
  -3   1   3 1091.86 31.4171   7
   3   1  -3 1105.06 31.1808   1
   3   1  -3 1134.93 31.1154   2
  -3   1   2 1404.84 39.0665   7
   3   1  -2 1399.21 38.3131   2
  -3   1   1 784.957 22.7484   7
   3   1   0 81.8491 3.64185   1
  -3   1  -1 288.651 9.91402   6
   3   1   1 317.670 9.68102   1
  -3   1  -1 317.444 10.2927   1
  -3   1  -2 343.165 10.7526   6
   3   1   2 335.756 10.5347   1
   3   1   3 146.059 5.52362   1
   3   1   4 368.293 12.6598   3
   3   1   4 330.021 10.9461   1
  -3   1  -5 115.915 5.93072   5
   3   1   5 118.271 6.28594   3
   3   1   5 107.361 5.77691   5
   3   1   6 737.700 23.9258   3
   3   1   6 728.734 23.2738   5
  -3   1  -6 746.170 24.3151   4
   3   1   7 521.779 19.0674   3
  -3   1  -7 550.018 17.7756   1
   3   1   7 551.477 18.5838   5
  -3   1  -7 560.950 19.6374   4
   3   1   8 49.1120 4.66777   3
  -3   1  -8 49.5775 3.84426   1
   3   1   8 47.9761 4.20044   5
  -3   1  -8 45.2826 4.55899   4
   3   1   9 76.5919 6.05183   3
  -3   1  -9 84.4924 5.08428   1
   3   1   9 85.6555 5.75563   5
  -3   1  -9 79.8607 5.90857   4
   3   1  10 36.6585 4.59640   3
  -3   1 -10 35.2879 3.48803   1
  -3   1 -10 41.4547 4.40223   4
  -3   1 -11 122.679 6.71029   1
   3   1  11 124.992 8.52676   3
  -3   1 -11 130.765 7.82497   4
   3   1  12 1.00205 3.09212   3
  -3   1 -12-0.37698 2.62011   4
   3   1  13 10.8810 4.16785   3
  -3   1 -13 7.01714 3.06037   4
   3   1  14 36.0798 5.75094   3
  -3   1 -14 39.3141 4.83725   4
   3   1  15 77.4221 7.99092   3
  -3   1 -15 79.5803 6.68692   4
  -3   2  17 11.6966 4.88821   3
   3   2 -17 7.89937 3.33115   2
   3   2 -17 10.5281 3.14942   1
  -3   2  16 21.3337 5.53047   3
   3   2 -16 30.3982 4.54314   2
   3   2 -16 37.7776 4.22033   1
   3   2 -15 51.9326 5.26256   2
  -3   2  15 48.9584 6.83138   3
   3   2 -15 56.9128 4.88743   1
   3   2 -14 24.1061 3.32477   1
  -3   2  14 25.1093 5.06366   3
  -3   2  13 57.5651 6.50570   3
   3   2 -13 69.4595 5.45492   3
   3   2 -13 78.2779 5.36023   1
  -3   2  12 180.254 10.8098   3
   3   2 -12 173.323 8.26845   1
   3   2 -12 148.794 8.30600   3
  -3   2  11 278.670 13.7719   3
   3   2 -11 282.728 11.4763   1
  -3   2  11 288.372 11.7685   4
   3   2 -11 290.018 11.9564   3
   3   2 -10 30.9705 3.25813   1
  -3   2  10 24.2868 4.03023   3
   3   2 -10 29.2150 3.34200   3
  -3   2  10 28.3691 3.25080   4
   3   2  -9 317.902 11.8844   1
   3   2  -9 289.732 11.7089   3
  -3   2   9 316.969 11.7819   4
   3   2  -8 951.053 28.5028   1
   3   2  -8 941.198 28.5864   3
   3   2  -8 917.642 28.5221   4
  -3   2   8 950.784 27.0484   1
   3   2  -7 152.791 7.09683   3
   3   2  -7 146.176 6.84923   1
  -3   2   7 148.277 5.88109   1
   3   2  -7 165.526 7.09492   4
   3   2  -6 335.559 12.1916   3
   3   2  -6 341.254 12.0809   1
  -3   2   6 348.611 10.9373   1
   3   2  -5 124.279 6.00607   3
   3   2  -5 127.466 5.96429   1
  -3   2   5 138.333 5.31095   1
  -3   2   4 68.5165 4.43908   7
  -3   2   4 66.7493 3.39963   1
   3   2  -4 62.6843 3.76527   1
   3   2  -3 632.019 18.1630   2
  -3   2   3 646.013 20.0345   7
  -3   2   3 602.696 18.3702   1
  -3   2   2 1180.29 35.4358   7
   3   2  -2 1231.31 33.3596   2
  -3   2   1 564.776 17.1244   7
   3   2  -1 502.693 15.0359   6
   3   2  -1 530.020 15.4396   1
   3   2  -1 504.444 14.9682   7
   3   2  -1 506.383 14.5619   2
   3   2   0 1087.00 31.7656   6
   3   2   0 1139.36 31.9469   7
   3   2   1 750.979 21.8384   6
  -3   2  -1 790.281 23.5861   6
   3   2   1 757.798 21.7446   1
   3   2   1 791.653 22.3040   7
   3   2   2 53.5628 3.52817   5
  -3   2  -2 60.7977 3.81369   6
   3   2   2 54.3503 2.65035   1
  -3   2  -3 208.616 8.28738   6
   3   2   3 230.685 8.79788   5
   3   2   3 214.424 7.03363   1
  -3   2  -4 543.746 17.4360   1
  -3   2  -4 552.811 16.7809   6
   3   2   4 503.456 15.2522   1
  -3   2  -4 527.693 16.9141   5
   3   2   5 205.719 6.86773   1
  -3   2  -5 216.418 8.66066   5
  -3   2  -5 192.834 8.59648   1
  -3   2  -6 125.832 6.46559   5
  -3   2  -6 129.510 6.66930   1
  -3   2  -7 28.5663 3.22335   1
  -3   2  -7 29.0271 4.03573   4
  -3   2  -8 429.501 15.5899   1
   3   2   8 402.990 15.8761   5
  -3   2  -8 455.046 17.6203   4
   3   2   9 38.4714 4.51640   3
  -3   2  -9 31.8492 3.63196   1
  -3   2  -9 42.0059 4.91909   4
  -3   2 -10 9.50741 2.71264   1
   3   2  10 15.0818 3.59184   3
  -3   2 -10 15.1108 3.62409   4
   3   2  11 27.4896 4.50299   3
  -3   2 -11 20.1388 3.28569   1
  -3   2 -11 23.0181 4.06869   4
   3   2  12 158.737 10.4003   3
  -3   2 -12 142.681 9.26269   4
   3   2  13 28.3511 5.16949   3
  -3   2 -13 30.7579 4.79533   4
  -3   2 -14-0.94203 3.07907   4
   3   2  14 1.24018 3.58599   3
   3   2  15 24.0980 5.68334   3
  -3   2 -15 16.3249 4.22019   4
   3   3 -17 63.9433 5.87929   1
   3   3 -16 1.15003 2.86213   1
   3   3 -15 53.8090 5.24692   1
   3   3 -14 4.68061 2.57652   1
   3   3 -13 71.9507 5.61005   1
   3   3 -13 58.9771 5.01418   3
   3   3 -12 19.8844 3.14001   3
   3   3 -12 26.6887 3.69070   1
   3   3 -12 26.6159 3.78709   4
   3   3 -11 66.7891 4.81758   3
   3   3 -11 69.0064 5.45107   4
   3   3 -10 150.937 7.34836   3
  -3   3  10 145.695 7.40272   4
   3   3 -10 150.364 7.92242   4
   3   3  -9 123.164 6.84837   4
   3   3  -9 123.506 6.26512   3
  -3   3   9 123.414 5.27053   1
  -3   3   8 217.804 8.75160   2
   3   3  -8 193.904 8.28662   3
  -3   3   8 197.275 7.32050   1
   3   3  -8 215.989 9.17772   4
   3   3  -7 36.5919 3.09106   3
  -3   3   7 39.1221 2.61925   1
   3   3  -7 43.2564 3.60560   4
  -3   3   7 43.6218 3.42968   2
   3   3  -6 535.165 16.7793   3
  -3   3   6 527.170 15.9540   1
  -3   3   6 513.121 18.8822   7
   3   3  -6 520.561 17.1226   4
  -3   3   6 526.713 17.3570   2
   3   3  -5 576.854 18.2619   3
  -3   3   5 563.868 20.1735   7
   3   3  -5 638.801 18.6763   4
  -3   3   5 588.798 18.9836   2
  -3   3   5 586.133 17.7960   1
  -3   3   4 414.159 15.5072   7
   3   3  -4 416.482 13.4264   4
  -3   3   4 417.906 13.3149   1
   3   3  -3 355.502 12.7653   1
  -3   3   3 373.945 14.2159   7
   3   3  -3 396.164 12.8186   6
  -3   3   3 359.357 12.4400   1
   3   3  -3 407.218 12.1082   4
   3   3  -2 514.101 16.0308   1
   3   3  -2 515.953 16.0943   6
  -3   3   2 499.135 16.0906   1
   3   3  -2 504.933 14.8916   4
  -3   3   2 488.061 17.6727   7
   3   3  -1 96.8672 3.53520   2
   3   3  -1 100.186 4.83832   6
  -3   3   1 97.9507 6.03716   7
   3   3  -1 102.229 4.83819   7
   3   3  -1 90.0641 4.49932   1
   3   3   0 32.5013 2.79260   7
   3   3   0 36.6962 2.83554   6
  -3   3   0 38.8106 3.83574   7
   3   3   0 40.2967 2.53156   1
   3   3   0 35.8905 1.49167   2
   3   3   1 9.91080 1.85697   7
   3   3   1 6.99393 1.11695   1
  -3   3  -1 9.49634 1.84129   1
   3   3   1 7.06907 1.57454   6
  -3   3  -1 6.86700 2.07279   6
   3   3   1 5.75451 1.50352   3
  -3   3  -2 565.872 19.1412   1
   3   3   2 613.367 18.8983   7
   3   3   2 594.162 16.8969   1
   3   3   2 583.362 18.7218   3
  -3   3  -2 572.942 19.6923   6
   3   3   2 574.314 18.4175   5
   3   3   3 271.783 8.32812   1
  -3   3  -3 275.183 10.9788   6
  -3   3  -3 261.937 10.6120   1
   3   3   3 265.131 10.4935   3
   3   3   3 250.403 9.93697   5
  -3   3  -4 76.9237 4.91715   6
   3   3   4 84.3711 5.25221   3
   3   3   4 76.6526 4.79527   5
  -3   3  -4 81.4590 4.57025   5
   3   3   4 71.7090 3.09555   1
  -3   3  -4 86.4775 5.34135   1
   3   3   5 118.979 6.80246   3
  -3   3  -5 117.330 6.35068   6
   3   3   5 121.685 4.25623   1
   3   3   5 119.472 6.45772   5
  -3   3  -5 123.256 6.06721   5
  -3   3  -5 125.573 6.86246   1
  -3   3  -6 557.206 19.8578   1
   3   3   6 595.974 20.3875   3
  -3   3  -6 581.960 18.8731   5
   3   3   6 582.400 19.7650   5
  -3   3  -7 152.490 8.07765   1
   3   3   7 145.609 8.34590   3
   3   3   7 146.067 7.88906   5
  -3   3  -7 137.790 9.04043   4
  -3   3  -8 26.3344 3.75099   1
   3   3   8 21.7155 3.55670   3
  -3   3  -8 18.7226 3.91501   4
   3   3   9 35.6509 4.72342   3
  -3   3  -9 36.5566 5.12636   4
   3   3  10 170.449 10.3213   3
  -3   3 -10 156.392 10.3159   4
  -3   3 -11 20.3654 4.36217   4
  -3   3 -12 10.4936 3.58639   4
  -3   3 -13 0.53257 3.51908   4
  -3   3 -14 76.6596 7.44052   4
   3   4 -16 16.5266 4.17209   1
   3   4 -15 31.8372 4.46573   1
   3   4 -14 38.7633 4.84407   1
   3   4 -14 26.9090 4.50954   4
   3   4 -13 9.61798 3.15794   4
   3   4 -12 36.5817 4.53931   4
   3   4 -11 72.6423 4.63554   3
   3   4 -11 76.6414 6.00817   4
   3   4 -10 73.9849 4.53151   3
   3   4 -10 87.4024 6.02440   4
  -3   4  10 74.3218 3.90760   1
  -3   4   9 99.1908 5.87995   2
  -3   4   9 107.189 4.70792   1
   3   4  -9 106.610 5.34810   3
   3   4  -9 103.956 6.48102   4
   3   4  -8 257.208 9.39964   3
  -3   4   8 259.596 8.89684   1
  -3   4   8 241.747 12.0933   7
   3   4  -8 261.995 10.9455   4
  -3   4   8 253.812 10.3833   2
  -3   4   7 362.409 11.8531   1
   3   4  -7 357.058 11.9726   3
  -3   4   7 347.027 15.0728   7
   3   4  -7 372.625 13.5841   4
  -3   4   7 372.732 13.4597   2
   3   4  -6 35.4043 2.75199   3
  -3   4   6 40.0550 4.66585   7
   3   4  -6 39.9517 3.51499   4
  -3   4   6 40.5762 3.63860   2
  -3   4   6 36.8805 2.78118   1
   3   4  -5 209.268 8.03611   3
  -3   4   5 239.732 11.4222   7
   3   4  -5 246.153 9.21384   4
  -3   4   5 226.381 8.47457   1
  -3   4   5 227.850 9.68033   2
  -3   4   4 529.936 19.5059   7
   3   4  -4 540.976 17.6441   6
  -3   4   4 502.014 16.5240   1
   3   4  -4 541.397 16.7182   4
  -3   4   4 500.380 17.6596   2
  -3   4   3 93.7695 6.72735   7
   3   4  -3 110.549 5.81262   6
  -3   4   3 89.3171 4.97534   1
   3   4  -3 96.8122 4.60921   4
  -3   4   2 448.688 17.3859   7
   3   4  -2 448.815 15.7075   6
  -3   4   2 452.327 15.3565   1
   3   4  -2 459.880 13.9172   4
   3   4  -1 459.531 14.0420   1
  -3   4   1 394.322 14.3670   1
   3   4  -1 447.810 14.7482   7
   3   4  -1 419.271 13.2272   3
   3   4  -1 432.094 14.8570   6
  -3   4   1 445.160 16.4467   7
   3   4  -1 370.860 12.2703   4
   3   4   0 223.490 8.27632   1
  -3   4   0 236.824 10.9819   7
   3   4   0 207.813 9.20756   7
  -3   4   0 209.125 9.27809   1
   3   4   0 212.299 9.36521   6
   3   4   0 228.658 8.37529   3
   3   4   1 406.410 15.1589   7
  -3   4  -1 452.862 17.1239   6
   3   4   1 428.473 14.3687   3
   3   4   1 423.060 14.0472   5
   3   4   1 444.862 13.6283   1
   3   4   1 421.962 15.2872   6
   3   4   2 32.2713 3.01507   3
   3   4   2 33.0518 3.48721   6
   3   4   2 33.4358 2.23139   1
   3   4   2 32.5367 2.82952   5
  -3   4  -2 34.2038 4.06190   6
   3   4   2 28.9397 3.50672   7
   3   4   3 123.939 6.91479   7
  -3   4  -3 107.607 6.62355   1
   3   4   3 121.227 4.52719   1
   3   4   3 117.969 6.31431   3
   3   4   3 118.702 6.01547   5
  -3   4  -3 114.239 7.17703   6
  -3   4  -4 270.839 11.6364   1
   3   4   4 248.943 11.2883   7
   3   4   4 276.379 11.1773   3
  -3   4  -4 265.524 11.6753   6
   3   4   4 263.068 10.6606   5
  -3   4  -4 282.747 10.1797   5
   3   4   4 263.816 8.27694   1
  -3   4  -5 186.647 9.10117   1
   3   4   5 162.710 8.45564   3
  -3   4  -5 155.877 8.37944   6
   3   4   5 174.650 8.32229   5
   3   4   5 167.480 5.34461   1
  -3   4  -5 165.798 7.32469   5
   3   4   6 78.1922 5.87940   3
  -3   4  -6 80.2699 5.59984   6
  -3   4  -6 73.1122 4.58420   5
   3   4   6 84.1012 5.61532   5
  -3   4  -6 63.4637 5.46957   1
   3   4   7 9.16440 2.97491   3
  -3   4  -7 6.71363 3.59572   4
   3   4   8 301.208 13.8518   3
  -3   4  -8 300.139 15.1777   4
   3   4   9 158.556 9.78559   3
  -3   4  -9 158.446 10.6090   4
   3   4  10 10.3219 3.77247   3
  -3   4 -10 18.9253 4.71412   4
   3   4  11 18.3071 4.46352   3
  -3   4 -11 15.6392 4.32226   4
   3   4  12 65.4168 7.37468   3
  -3   4 -12 50.1297 6.37483   4
   3   4  13 16.2461 5.09789   3
  -3   4 -13 9.00802 4.14523   4
   3   5 -14 32.9378 4.89722   4
   3   5 -13 77.1460 6.66553   4
   3   5 -12 8.00986 3.15434   4
   3   5 -11 61.6250 5.62554   4
   3   5 -10 154.366 8.69604   4
  -3   5   9 11.1732 1.73793   1
   3   5  -9 9.80446 1.45639   3
   3   5  -9 9.22898 2.66947   4
  -3   5   8 103.281 4.78913   1
   3   5  -8 94.1909 3.88486   3
   3   5  -8 102.957 6.49194   4
   3   5  -7 84.0523 3.45816   3
   3   5  -7 83.9278 5.60478   4
  -3   5   7 98.8239 5.92008   2
  -3   5   7 92.6633 4.64251   1
   3   5  -6 34.3236 1.94790   3
   3   5  -6 31.2020 3.36106   4
  -3   5   6 32.3464 2.77516   1
  -3   5   6 36.5822 3.78434   2
  -3   5   5 15.9129 2.24981   1
  -3   5   5 16.2180 2.94460   2
   3   5  -5 16.3063 1.41754   3
  -3   5   5 12.4629 3.66597   7
   3   5  -5 17.6354 2.60250   4
   3   5  -4 59.8331 2.98098   3
  -3   5   4 57.6831 5.96538   7
   3   5  -4 58.6208 2.75257   3
  -3   5   4 64.7308 4.22037   1
   3   5  -4 65.1368 4.97505   6
  -3   5   4 63.8881 4.90231   2
   3   5  -4 67.4547 4.25334   4
   3   5  -3 144.657 5.56335   3
  -3   5   3 159.188 9.54536   7
  -3   5   3 163.900 7.43981   1
   3   5  -3 165.714 8.28892   6
   3   5  -3 158.038 6.76032   4
  -3   5   2 221.012 11.8824   7
   3   5  -2 254.371 8.47711   3
   3   5  -2 253.221 10.9927   6
  -3   5   2 239.456 10.1815   1
   3   5  -2 252.718 8.92557   4
   3   5  -1 157.362 8.06205   7
  -3   5   1 146.018 8.99630   7
   3   5  -1 141.684 6.00931   3
  -3   5   1 146.675 7.53556   1
   3   5  -1 145.567 5.65497   4
   3   5  -1 154.819 8.13892   6
   3   5   0 85.0340 4.86825   1
   3   5   0 91.4241 6.10270   7
  -3   5   0 94.8373 6.07220   1
   3   5   0 83.0362 5.86324   6
  -3   5   0 93.6584 7.30802   6
   3   5   0 83.8969 4.55023   3
  -3   5   0 84.2931 6.86134   7
   3   5   0 90.7881 3.53395   4
   3   5   1 152.349 8.62828   7
   3   5   1 175.633 7.36684   3
   3   5   1 180.322 9.07598   6
  -3   5  -1 173.444 9.99113   6
   3   5   1 164.505 7.01124   5
  -3   5  -1 152.912 8.40991   1
   3   5   1 179.077 7.10867   1
  -3   5  -2 743.952 25.0260   1
   3   5   2 716.555 25.0904   6
  -3   5  -2 769.996 26.6386   6
   3   5   2 741.591 22.9049   5
   3   5   2 739.627 23.3180   3
   3   5   2 764.761 22.0790   1
   3   5   2 713.372 25.0468   7
   3   5   3 159.092 7.83420   3
   3   5   3 163.172 9.16836   7
  -3   5  -3 171.319 9.66907   6
   3   5   3 156.826 5.95312   1
   3   5   3 153.127 7.27938   5
   3   5   4 37.0163 2.14212   1
   3   5   4 35.2865 3.71231   3
   3   5   4 30.7924 4.50114   7
  -3   5  -4 30.6201 2.91495   5
  -3   5  -4 23.2053 3.88751   6
   3   5   4 40.6702 3.65970   5
   3   5   5 191.990 9.41119   3
   3   5   5 165.796 9.49790   7
  -3   5  -5 191.288 9.88337   6
   3   5   5 181.805 8.71901   5
  -3   5  -5 186.086 7.62681   5
   3   5   5 171.341 5.64059   1
   3   5   6 126.872 7.89152   3
   3   5   6 122.180 8.00344   7
  -3   5  -6 129.018 7.92055   6
  -3   5  -6 127.896 6.20475   5
   3   5   7 63.0700 5.79127   3
  -3   5  -7 78.8488 7.49368   4
   3   5   8 38.3219 5.28757   3
  -3   5  -8 33.5019 5.70968   4
   3   5   9 1.97572 3.26381   3
  -3   5  -9-0.62752 3.47454   4
   3   5  10 27.4014 4.88336   3
  -3   5 -10 11.7124 4.59289   4
   3   5  11 36.7897 6.01331   3
  -3   5 -11 39.8142 6.44143   4
   3   5  12 5.65284 4.45060   3
  -3   5 -12 4.56626 4.26634   4
   3   6 -13 33.8231 5.03801   4
   3   6 -12 28.8083 4.64237   4
   3   6 -11 39.3025 4.79360   4
   3   6 -10 48.4060 5.09064   4
   3   6  -9 55.5135 5.18060   4
   3   6  -8 69.2855 5.59063   4
   3   6  -7 111.577 6.87769   4
  -3   6   7 111.946 5.49184   1
   3   6  -6 89.7803 5.91452   4
  -3   6   6 99.1101 5.15293   1
   3   6  -5 56.2219 5.12720   6
  -3   6   5 52.8327 3.86006   1
   3   6  -5 60.5931 4.54331   4
   3   6  -4 205.850 10.0155   6
  -3   6   4 179.198 8.24136   1
   3   6  -4 192.163 8.46950   4
   3   6  -3 80.0688 6.13114   6
  -3   6   3 84.4101 5.30066   1
   3   6  -3 73.4231 4.58898   4
   3   6  -2 17.4329 1.44418   3
   3   6  -2 20.6863 3.56494   6
  -3   6   2 16.7934 3.00414   1
   3   6  -2 19.8169 2.33778   4
   3   6  -1 44.0533 4.87215   6
  -3   6   1 24.5102 5.03582   6
   3   6  -1 34.7394 2.46465   3
   3   6  -1 39.9469 2.75404   4
   3   6   0 185.478 7.46568   3
   3   6   0 205.622 10.5311   6
  -3   6   0 197.001 11.8059   6
   3   6   0 196.447 10.2021   7
   3   6   0 194.278 6.70076   4
   3   6   1 3.50389 0.76214   2
   3   6   1 1.96362 2.59698   7
   3   6   1 4.22736 1.70746   1
   3   6   1 10.1500 3.48417   6
  -3   6  -1 2.69352 3.15992   6
   3   6   1 5.60072 1.76985   3
   3   6   1 3.78976 0.70035   4
   3   6   2 42.4716 3.58036   3
   3   6   2 41.5623 5.31202   7
  -3   6  -2 47.6856 5.72205   6
   3   6   2 41.6318 4.91949   6
   3   6   2 42.5373 3.55878   5
   3   6   2 50.7294 3.50262   1
   3   6   3 7.95751 3.60992   7
  -3   6  -3 10.2474 3.64834   6
   3   6   3 16.2832 4.07784   6
   3   6   3 16.2525 1.96601   1
   3   6   3 19.2177 2.92287   3
   3   6   3 12.2548 2.36852   5
   3   6   4 129.573 7.31216   3
   3   6   4 126.849 4.96790   1
   3   6   4 118.492 6.64875   5
  -3   6  -4 132.573 8.91559   6
   3   6   4 125.050 8.73955   6
  -3   6  -4 122.188 5.90916   5
   3   6   5 59.2668 5.34620   3
  -3   6  -5 61.4804 6.13484   6
  -3   6  -5 62.1112 3.97726   5
   3   6   5 63.0348 2.76780   1
  -3   6  -6 9.50838 3.27757   6
   3   6   6 13.2924 3.29673   3
  -3   6  -6 10.0652 2.04357   5
  -3   6  -7 56.3200 5.66889   6
   3   6   7 44.3208 5.27551   3
   3   6   8 84.9116 7.28832   3
   3   6   9 35.8027 5.51257   3
   3   6  10 11.2050 4.46427   3
  -3   6 -10 13.6160 5.31506   4
   3   6  11 58.8242 7.08696   3
   3   7 -11 56.9706 6.00943   4
   3   7 -10 50.6323 5.43977   4
   3   7  -9 87.4181 6.69566   4
   3   7  -8 14.2563 3.34464   4
   3   7  -7 32.3842 3.99210   4
   3   7  -6 120.590 7.14995   4
   3   7  -5 36.8975 4.78642   6
   3   7  -5 39.8994 4.03814   4
   3   7  -4 22.3996 4.02446   6
   3   7  -4 18.3586 2.96059   4
   3   7  -3 15.6991 3.84330   6
   3   7  -3 11.3462 2.40541   4
   3   7  -2 65.0103 6.27129   6
  -3   7   2 88.7226 8.73074   6
   3   7  -2 78.7276 4.62963   4
   3   7  -1 35.3784 5.15584   6
  -3   7   1 29.0645 5.44015   6
   3   7  -1 35.7255 2.84279   4
   3   7   0 2.91870 3.18056   6
  -3   7   0 5.09502 4.42694   6
   3   7   0 1.66942 1.93484   1
   3   7   1 18.6411 4.19770   6
  -3   7  -1 24.1597 5.15292   6
   3   7   1 13.0039 2.48099   1
   3   7   2 54.3835 3.93492   3
   3   7   2 56.4946 6.36437   6
  -3   7  -2 55.6046 6.71817   6
   3   7   2 66.9754 4.29495   1
  -3   7  -3 1.17487 3.30267   6
   3   7   3 1.61018 3.39348   6
   3   7   3 2.26414 1.92669   3
   3   7   3 5.46407 1.70480   1
  -3   7  -4 4.46009 3.80032   6
   3   7   4 1.12662 3.60218   6
   3   7   4 2.95802 2.31732   3
   3   7   5 3.48789 3.80107   6
   3   7   5 2.73508 2.35483   3
  -3   7  -5 4.31727 3.37201   6
  -3   7  -6 41.5042 5.58131   6
   3   7   6 32.9113 4.51279   3
   3   7   6 44.7978 6.36584   6
  -3   7  -6 58.7341 7.70032   4
  -3   7  -7 42.6623 5.69802   6
   3   7   7 40.0345 5.03266   3
  -3   7  -7 33.4421 6.50347   4
   3   7   8 6.76976 3.73450   3
  -3   7  -8 10.3687 4.95009   4
   3   7   9 7.43997 4.00520   3
   3   7  10 50.4519 6.72028   3
   3   8  -5 4.35548 3.49238   6
   3   8  -4 35.5299 5.23949   6
  -3   8   4 22.3664 5.91480   6
   3   8  -3 34.8334 5.35522   6
  -3   8   3 35.6883 6.81314   6
   3   8  -2 0.51093 3.26694   6
  -3   8   2 5.39315 5.09117   6
   3   8  -1-2.10899 3.62945   6
  -3   8   1-1.48526 4.90734   6
   3   8   0 104.801 6.48156   1
   3   8   0 95.3382 8.22185   6
  -3   8   0 104.227 9.74309   6
   3   8   1 28.8520 5.54721   6
  -3   8  -1 23.0167 5.46191   6
  -3   8  -2 15.5732 5.27767   6
   3   8   2 16.0244 5.29000   6
  -3   8  -3 8.33967 4.29468   6
   3   8   3 16.5016 5.14444   6
   3   8   4 77.9558 8.20365   6
   3   8   5 24.3259 5.62324   6
   3   8   6 23.7108 5.71165   6
   4  -7   1 41.8883 6.79343   7
   4  -7   2 4.26402 4.27909   7
   4  -7   3 53.4442 7.43330   7
   4  -7   4 138.915 11.3273   7
   4  -7   5 41.6033 6.85189   7
   4  -7   6 9.57491 4.93070   7
  -4  -6  10 31.4836 5.41310   7
  -4  -6   9 25.3944 4.78500   7
  -4  -6   8 5.87217 3.71695   7
  -4  -6   7 95.5840 7.59780   7
  -4  -6   6 87.1033 6.80444   7
  -4  -6   5 34.1795 4.50909   7
   4  -6   0 37.9605 5.68775   7
   4  -6   1 79.1684 7.66464   7
   4  -6   2 138.277 10.2800   7
   4  -6   3 1.28204 3.75831   7
   4  -6   4 27.7830 5.45850   7
   4  -6   5 10.9052 4.70004   7
   4  -6   6 35.2829 6.55327   7
   4  -6   7 1.48793 4.30253   7
   4  -6   8 0.78548 4.14673   7
   4  -6   9 22.3751 6.11104   7
  -4  -5  13 36.3261 5.90554   7
  -4  -5  12 124.611 9.27474   7
  -4  -5  11 24.1814 4.87241   7
  -4  -5  10 117.247 8.41830   7
  -4  -5   9 129.359 8.59925   7
  -4  -5   8 165.275 9.53806   7
   4  -5  -7 107.049 7.01899   3
  -4  -5   7 101.784 7.17073   7
  -4  -5   6-0.35970 2.35140   7
   4  -5  -6 0.33058 2.18436   3
   4  -5  -5 155.733 8.05843   3
  -4  -5   5 137.387 7.87896   7
   4  -5  -4 279.576 11.5976   3
  -4  -5   4 266.511 11.6667   7
   4  -5  -3 26.2905 3.39998   3
   4  -5  -2 151.560 7.59075   3
   4  -5  -1 127.199 6.67394   3
   4  -5  -1 111.991 8.33098   7
   4  -5   0 60.4167 6.12995   7
   4  -5   1 32.1368 4.81516   7
   4  -5   2 21.4363 4.35772   7
   4  -5   3 47.9450 5.97555   7
   4  -5   4 121.758 9.32958   7
   4  -5   4 136.266 6.28141   3
   4  -5   5 24.3258 5.34724   7
   4  -5   5 26.7813 2.96279   3
   4  -5   6 9.95662 4.37424   7
   4  -5   7 98.4220 8.96746   7
   4  -5   8 73.0545 8.30350   7
   4  -5   9 34.8347 6.58746   7
   4  -5  10 35.2595 6.50618   7
   4  -5  11 26.7734 6.62605   7
  -4  -4  11 137.968 8.85105   7
   4  -4 -11 137.738 7.13228   1
  -4  -4  10 215.371 11.1804   7
   4  -4 -10 231.873 9.88588   1
   4  -4  -9 2.73656 2.19207   1
  -4  -4   9 2.60683 2.40884   7
   4  -4  -8 58.1391 5.35882   3
  -4  -4   8 74.6530 5.57359   7
   4  -4  -8 68.0107 4.93903   1
  -4  -4   8 68.5765 5.91636   6
  -4  -4   8 65.1414 2.53302   5
   4  -4  -7 37.0123 3.99157   3
  -4  -4   7 28.7438 3.70596   7
  -4  -4   7 34.1907 4.39088   6
  -4  -4   7 30.6767 1.67726   5
   4  -4  -7 28.5688 3.47909   1
   4  -4  -6 116.616 7.16693   3
  -4  -4   6 101.081 7.19009   6
  -4  -4   6 132.762 4.53638   5
   4  -4  -5 23.2584 3.31849   3
  -4  -4   5 22.4102 3.40876   6
   4  -4  -4 103.667 6.37703   3
   4  -4  -3 82.8657 5.59019   3
   4  -4  -2 420.487 15.3123   3
   4  -4  -1 103.738 7.18691   7
   4  -4   0 15.8514 3.41781   7
   4  -4   1 52.8811 5.56127   7
   4  -4   2 446.884 18.2446   7
   4  -4   3 17.1659 3.71460   7
   4  -4   4 6.75694 2.98386   7
   4  -4   5 130.086 9.14847   7
   4  -4   5 126.744 6.49302   3
   4  -4   6 100.982 8.19019   7
   4  -4   6 103.248 5.96001   3
   4  -4   7 150.046 7.43227   3
   4  -4   7 123.006 9.42634   7
   4  -4   8 138.425 10.2228   7
   4  -4   8 147.299 7.70120   3
   4  -4   9 66.3200 7.81656   7
   4  -4   9 52.9730 4.75572   3
   4  -4  10 136.891 10.9455   7
   4  -4  11 25.7999 5.72369   7
   4  -4  12 10.1328 5.37158   7
   4  -3 -12 40.6377 3.59563   1
   4  -3 -11 165.913 7.63869   1
   4  -3 -10 10.5979 2.20342   1
  -4  -3  10 10.2837 3.09769   6
  -4  -3  10 9.56876 3.19403   4
   4  -3  -9 43.5139 4.65033   3
  -4  -3   9 40.8206 4.39038   6
  -4  -3   9 47.8146 4.89614   4
   4  -3  -9 44.5116 3.77554   1
   4  -3  -8 394.021 15.9747   3
  -4  -3   8 415.723 15.7232   6
   4  -3  -8 433.715 14.7624   1
  -4  -3   8 407.615 16.0201   4
   4  -3  -7 58.4122 5.16133   3
   4  -3  -7 73.0687 4.78615   1
  -4  -3   7 72.0827 5.24159   6
  -4  -3   7 73.3479 5.34427   4
   4  -3  -6 48.2089 4.48649   3
   4  -3  -6 53.9746 4.10801   1
  -4  -3   6 49.8570 4.26534   6
  -4  -3   6 52.9277 4.34085   4
   4  -3  -5 394.231 14.9253   3
  -4  -3   5 394.346 13.3688   7
   4  -3  -5 376.781 13.9221   1
   4  -3  -4 541.541 18.5856   3
  -4  -3   4 527.849 16.6629   7
   4  -3  -4 544.215 18.0039   1
  -4  -3   4 510.403 16.0154   5
   4  -3  -3 14.1895 2.60704   1
  -4  -3   3 16.0645 1.93825   7
   4  -3  -3 10.9750 2.46236   3
  -4  -3   3 12.7636 1.64120   5
  -4  -3   3 11.7573 1.92492   4
  -4  -3   2 103.622 4.95863   5
   4  -3  -2 108.957 6.19354   1
  -4  -3   2 107.686 4.97042   4
   4  -3  -1 380.268 14.8520   7
  -4  -3   1 400.393 13.2758   5
  -4  -3   1 394.663 12.0684   4
   4  -3   0 782.890 25.9066   7
   4  -3   1 236.597 11.0128   7
   4  -3   2 134.094 7.89728   7
   4  -3   3 212.299 10.6151   7
   4  -3   4 260.730 12.2051   7
   4  -3   5 141.243 8.61226   7
   4  -3   5 143.093 7.10771   3
   4  -3   6 94.0543 7.37293   7
   4  -3   6 115.485 6.32719   3
   4  -3   7 7.84194 3.24190   7
   4  -3   7 4.56970 2.20708   3
   4  -3   8 135.652 7.50852   3
   4  -3   9 31.4686 4.81311   6
   4  -3   9 33.1613 4.03106   3
   4  -3  10 4.05582 2.86710   3
   4  -3  11 8.42144 3.17143   3
   4  -3  12 89.9859 7.24155   3
   4  -2 -17 9.07378 3.75274   2
   4  -2 -16 4.52104 3.55988   2
   4  -2 -15 63.4074 6.29544   2
   4  -2 -14 12.2824 3.47555   2
   4  -2 -13 83.7004 4.92437   1
   4  -2 -13 83.3889 6.60121   2
   4  -2 -12 5.58828 1.72447   1
   4  -2 -12 9.19293 2.93526   2
   4  -2 -11 131.890 6.24246   1
   4  -2 -11 130.925 7.83676   2
   4  -2 -10 109.867 7.27906   3
  -4  -2  10 117.943 6.80023   6
   4  -2 -10 98.6412 5.30280   1
   4  -2 -10 109.812 6.85419   2
  -4  -2  10 113.964 7.25517   4
   4  -2  -9 34.7811 4.20621   3
  -4  -2   9 29.2076 3.42975   6
   4  -2  -9 32.1069 2.91848   1
  -4  -2   9 40.3284 4.08804   4
   4  -2  -8 174.502 9.01392   3
  -4  -2   8 179.361 7.97767   6
   4  -2  -8 156.504 6.99330   1
  -4  -2   8 164.096 8.19841   4
   4  -2  -7 41.0585 4.16863   3
  -4  -2   7 44.4825 3.56763   6
   4  -2  -7 40.4995 3.12381   1
  -4  -2   7 45.1712 3.84883   4
   4  -2  -6 488.687 17.7964   3
   4  -2  -6 485.266 16.0272   1
  -4  -2   6 505.857 16.5433   4
  -4  -2   5 9.30528 1.51952   7
   4  -2  -5 9.44194 2.25306   3
   4  -2  -5 9.87932 1.81375   1
  -4  -2   4 269.206 8.83768   7
  -4  -2   4 282.815 9.94556   6
   4  -2  -4 271.782 10.3100   1
  -4  -2   3 609.420 17.2182   7
   4  -2  -3 644.611 19.7135   1
  -4  -2   3 629.070 18.7648   6
  -4  -2   3 591.610 18.3351   4
   4  -2  -2 2055.69 57.1939   1
  -4  -2   2 2046.96 55.7802   6
  -4  -2   2 2026.06 55.2595   4
   4  -2  -1 86.9351 5.12135   1
  -4  -2   1 91.2920 4.62573   5
   4  -2  -1 83.5365 5.06070   7
  -4  -2   1 86.7295 3.55554   4
   4  -2   0 29.1434 3.10876   7
   4  -2   0 29.3179 2.98461   1
  -4  -2   0 29.7117 2.67730   5
  -4  -2   0 28.4434 1.60153   4
   4  -2   1 263.595 10.5206   7
  -4  -2  -1 250.931 9.51713   5
  -4  -2  -1 239.981 7.13678   4
   4  -2   2 616.840 21.0083   7
  -4  -2  -2 649.956 20.4750   5
   4  -2   3 418.396 15.0120   7
  -4  -2  -3 411.994 10.9688   4
  -4  -2  -3 379.408 10.7903   2
  -4  -2  -3 395.735 12.3056   1
   4  -2   4 62.5355 5.09514   7
  -4  -2  -4 66.8132 2.48278   4
  -4  -2  -4 67.3974 3.31152   1
  -4  -2  -5 25.7042 1.51882   4
  -4  -2  -5 22.6768 1.85128   1
   4  -2   6 818.664 24.9463   3
  -4  -2  -6 725.820 21.6190   4
  -4  -2  -6 807.768 21.9081   1
   4  -2   7 114.163 6.81611   3
   4  -2   7 97.3069 6.65977   6
  -4  -2  -7 118.810 4.64613   4
  -4  -2  -7 120.521 4.46307   1
   4  -2   8 49.7781 4.77830   6
   4  -2   8 49.2593 4.58448   3
  -4  -2  -8 42.2342 2.67559   4
   4  -2   9 143.663 8.18460   3
   4  -2   9 139.109 8.37418   6
   4  -2  10 72.5830 5.98261   3
   4  -2  10 79.8759 6.49543   6
   4  -2  11 39.8580 4.94659   3
   4  -2  12 52.0402 5.84614   3
   4  -2  13-0.50498 3.47587   3
   4  -2  14 15.2387 4.21531   3
   4  -1 -17 74.3228 6.90338   2
   4  -1 -16 132.967 8.86183   2
   4  -1 -15 7.38774 3.02658   2
   4  -1 -14 38.9334 4.70791   2
   4  -1 -14 40.1972 3.52159   1
   4  -1 -13 131.130 8.12095   2
   4  -1 -13 147.424 6.85368   1
   4  -1 -12 365.710 14.9110   2
   4  -1 -12 379.254 13.1854   1
   4  -1 -11 8.38935 2.31947   2
   4  -1 -11 10.1774 2.03218   1
  -4  -1  10 131.214 7.70020   4
   4  -1 -10 146.181 7.63867   2
   4  -1 -10 140.004 6.33650   1
   4  -1  -9 166.187 9.15767   3
  -4  -1   9 179.930 8.64063   4
   4  -1  -9 170.550 8.39494   2
   4  -1  -9 183.216 7.38083   1
   4  -1  -8 169.108 8.78636   3
  -4  -1   8 168.654 7.88677   4
   4  -1  -8 176.901 8.30192   2
   4  -1  -8 156.866 6.78291   1
   4  -1  -7 40.5572 4.09616   3
  -4  -1   7 50.7276 3.72150   4
   4  -1  -7 51.2773 4.06111   2
   4  -1  -7 46.3816 3.14018   1
   4  -1  -6 45.7566 3.96703   3
  -4  -1   6 46.1235 3.34162   4
   4  -1  -6 44.9403 3.64462   2
   4  -1  -6 38.1953 2.85631   1
   4  -1  -5 770.418 22.9564   1
   4  -1  -4 196.043 7.65634   1
   4  -1  -3 347.287 11.8430   1
  -4  -1   2 1289.16 35.1890   2
  -4  -1   2 1249.79 34.5113   6
   4  -1  -2 1297.78 36.3526   1
   4  -1  -1 284.280 9.89250   7
   4  -1  -1 300.285 10.5696   1
  -4  -1   1 288.810 8.39850   6
  -4  -1   1 295.383 9.22569   2
   4  -1   0 1663.71 45.0504   7
  -4  -1   0 1624.24 45.4328   5
  -4  -1   0 1577.21 43.7208   2
  -4  -1  -1 724.184 22.6102   5
   4  -1   1 765.511 22.4487   7
  -4  -1  -1 724.095 20.8198   2
   4  -1   2 38.8151 3.24151   1
   4  -1   2 31.9213 3.00141   7
  -4  -1  -2 37.9613 3.26104   5
  -4  -1  -3 138.026 6.83493   5
  -4  -1  -4 441.289 15.1220   5
  -4  -1  -4 392.467 13.2240   4
   4  -1   5 20.7744 2.55894   6
   4  -1   5 17.8119 2.69325   3
  -4  -1  -5 16.9767 2.06476   4
   4  -1   6 129.128 7.06338   3
   4  -1   6 124.961 6.48347   6
  -4  -1  -6 134.230 5.98591   4
   4  -1   7 105.430 6.48994   3
  -4  -1  -7 96.4414 5.01853   4
   4  -1   7 104.104 5.95773   6
   4  -1   8 208.931 9.91885   3
   4  -1   8 198.982 9.12135   6
  -4  -1  -8 201.803 8.23359   4
   4  -1   9 78.6414 6.03282   3
   4  -1   9 66.8645 5.20554   6
  -4  -1  -9 78.3701 4.67920   4
   4  -1  10 74.0689 6.15221   3
   4  -1  10 59.4647 5.21846   6
  -4  -1 -10 65.7380 4.37704   4
   4  -1  11 127.980 8.44756   3
   4  -1  11 105.724 7.18591   6
  -4  -1 -11 124.516 6.34992   4
   4  -1  12 210.553 11.5215   3
   4  -1  13 21.2928 4.51153   3
   4  -1  14 17.6328 4.83272   3
   4  -1  15 22.2297 5.30749   3
   4   0 -17 33.4259 5.13342   2
   4   0 -16 19.3123 3.97132   2
   4   0 -15 53.0389 4.28529   1
   4   0 -15 52.7096 5.42010   2
   4   0 -14 170.450 7.90104   1
   4   0 -14 169.174 9.39423   2
   4   0 -13 158.594 7.30700   1
   4   0 -13 149.426 8.65351   2
   4   0 -12 168.184 7.44542   1
   4   0 -12 157.677 8.61038   2
   4   0 -11 521.899 19.0696   3
   4   0 -11 486.319 16.3541   1
  -4   0  11 485.263 18.2377   4
   4   0 -11 504.504 18.0048   2
   4   0 -10 455.104 17.6924   3
   4   0 -10 477.463 15.5480   1
  -4   0  10 465.808 16.9498   4
   4   0 -10 480.546 16.9434   2
   4   0  -9 297.201 12.6922   3
   4   0  -9 283.466 10.4595   1
  -4   0   9 299.000 11.7227   4
   4   0  -9 291.734 11.5804   2
   4   0  -8-0.64375 2.21554   3
   4   0  -8 0.53146 1.05258   1
  -4   0   8 0.23896 1.34298   4
   4   0  -7 176.623 7.29069   1
  -4   0   7 200.311 8.15212   4
   4   0  -6 603.261 18.4930   1
   4   0  -5 3.38432 1.15189   1
   4   0  -4 7.00800 1.58796   2
   4   0  -4 11.0854 1.51040   1
  -4   0   3 548.406 15.7407   7
   4   0  -3 559.746 16.9851   1
   4   0  -2 710.384 21.2743   1
  -4   0   2 722.983 21.1394   2
  -4   0   1 78.6198 3.94236   2
   4   0   0 45.1628 2.39880   7
  -4   0   0 47.9411 1.79300   6
   4   0   1 84.1450 4.38097   1
   4   0   2 443.660 14.9094   1
  -4   0  -2 483.351 15.7363   5
   4   0   3 0.19430 1.16955   1
  -4   0  -3 0.69789 1.34534   5
   4   0   4 24.7262 2.01107   6
  -4   0  -4 23.1660 2.91006   5
   4   0   5 226.975 8.21057   6
   4   0   5 232.799 10.0031   3
   4   0   6 149.827 7.76961   3
   4   0   6 145.437 6.18502   6
  -4   0  -6 133.580 7.09805   4
   4   0   7-0.18002 1.49258   6
   4   0   7 0.99426 2.04538   3
  -4   0  -7 0.48846 1.17437   1
  -4   0  -7-1.10678 1.92313   4
   4   0   8 169.409 9.10154   3
   4   0   8 170.869 7.54727   6
  -4   0  -8 177.212 7.10848   1
  -4   0  -8 170.257 8.48098   4
   4   0   9 172.434 8.05550   6
   4   0   9 186.132 9.95366   3
  -4   0  -9 200.359 7.68415   1
  -4   0  -9 184.902 8.83569   4
   4   0  10 7.44277 2.41893   6
   4   0  10 14.6488 3.48447   3
  -4   0 -10 17.4499 3.03327   4
   4   0  11 54.9751 5.85418   3
   4   0  11 47.7940 4.41177   6
  -4   0 -11 57.3464 4.70449   4
   4   0  12-0.49360 3.04632   3
  -4   0 -12 0.94559 2.25305   4
   4   0  13 11.3840 4.05728   3
  -4   0 -13 10.7077 3.01330   4
   4   0  14 27.8465 5.40613   3
   4   1 -17 72.7067 6.61659   2
   4   1 -16 150.872 7.72928   1
   4   1 -16 142.555 9.02598   2
   4   1 -15 12.7084 2.60355   1
   4   1 -15 4.49594 2.82297   2
   4   1 -14 37.8037 3.71278   1
   4   1 -14 38.7191 4.42736   2
   4   1 -13 140.515 7.05349   1
   4   1 -13 137.300 8.11435   2
   4   1 -12 356.864 14.8137   3
   4   1 -12 354.419 13.1278   1
   4   1 -11 10.5847 2.25474   1
   4   1 -11 8.77586 2.86259   3
   4   1 -10 125.929 7.47692   3
   4   1 -10 133.747 6.40673   1
   4   1  -9 189.137 9.38184   3
   4   1  -9 191.244 7.94641   1
  -4   1   9 183.375 8.39077   4
  -4   1   8 159.461 6.83826   1
   4   1  -8 169.580 8.34852   3
   4   1  -8 159.485 6.96223   1
   4   1  -8 147.748 7.22031   2
   4   1  -7 48.2634 4.29329   3
  -4   1   7 50.4163 3.59053   2
   4   1  -7 48.4955 3.39732   1
  -4   1   7 50.9780 3.42554   1
   4   1  -7 58.0272 3.87027   2
   4   1  -6 44.8734 3.93439   3
   4   1  -6 44.1832 3.06416   1
  -4   1   6 43.2034 2.93405   1
   4   1  -6 40.9773 3.17505   2
  -4   1   6 45.2898 3.28878   2
   4   1  -5 788.955 23.8094   1
  -4   1   5 782.753 23.4846   1
   4   1  -5 852.584 24.2885   2
  -4   1   5 812.831 24.1688   2
  -4   1   4 198.731 7.93927   7
   4   1  -4 221.486 8.04469   1
   4   1  -4 215.299 7.98919   2
  -4   1   3 375.627 12.1377   7
   4   1  -3 354.410 11.8911   2
  -4   1   2 1348.73 37.6896   7
   4   1   0 1639.39 45.2048   1
  -4   1  -1 752.274 21.5457   6
   4   1   1 741.056 21.8958   1
  -4   1  -2 36.1588 2.26003   6
   4   1   2 37.6595 2.61071   1
   4   1   3 134.579 5.61485   1
  -4   1  -3 115.988 5.60406   1
   4   1   4 435.476 13.6920   1
   4   1   4 399.106 11.8449   6
   4   1   4 418.714 15.1155   3
  -4   1  -4 421.311 13.8688   1
  -4   1  -5 17.2300 2.63329   5
   4   1   5 15.3509 1.45934   6
   4   1   5 22.0236 3.01461   3
  -4   1  -5 19.0924 2.28118   1
  -4   1  -6 127.961 7.17257   5
   4   1   6 127.716 7.35000   3
  -4   1  -6 128.499 6.19048   1
   4   1   7 87.4362 6.09674   3
  -4   1  -7 80.6678 4.88168   1
  -4   1  -7 85.3302 6.27395   4
   4   1   8 218.941 10.6441   3
  -4   1  -8 199.264 8.68632   1
   4   1   8 209.572 9.87280   5
  -4   1  -8 210.815 10.4315   4
   4   1   9 73.3274 6.26613   3
  -4   1  -9 79.1408 4.93130   1
  -4   1  -9 76.3164 6.18490   4
   4   1  10 67.7239 4.43776   6
   4   1  10 59.2219 5.89572   3
  -4   1 -10 62.7304 4.58935   1
  -4   1 -10 59.0813 5.48238   4
   4   1  11 129.079 8.86784   3
   4   1  11 122.425 6.52520   6
  -4   1 -11 120.609 7.81374   4
   4   1  12 207.705 11.9761   3
  -4   1 -12 207.697 10.8231   4
   4   1  13 21.8788 5.04570   3
  -4   1 -13 14.9597 3.74515   4
   4   1  14 16.1225 5.09400   3
  -4   1 -14 19.7503 4.05335   4
   4   2 -17 12.4239 3.77779   2
   4   2 -17 7.62133 2.84921   1
   4   2 -16 4.01867 3.19474   2
   4   2 -16 6.12598 2.50929   1
   4   2 -15 76.7191 5.57941   1
   4   2 -14 12.7362 2.90648   1
   4   2 -13 90.1243 5.96846   1
   4   2 -12 8.08972 2.87775   3
   4   2 -12 8.68858 2.37888   1
   4   2 -11 143.357 7.59409   2
   4   2 -11 124.778 7.47528   3
   4   2 -11 134.807 7.13375   1
   4   2 -10 107.086 6.14365   2
   4   2 -10 98.5987 6.32802   3
  -4   2  10 101.867 6.09876   4
   4   2 -10 91.0891 5.74466   1
   4   2  -9 40.0867 3.56813   2
   4   2  -9 37.9250 3.98351   3
   4   2  -9 33.8758 3.31767   1
  -4   2   9 32.6845 2.91893   1
   4   2  -8 173.713 7.75396   2
   4   2  -8 171.284 8.40730   3
  -4   2   8 173.427 7.12924   1
   4   2  -8 180.206 7.92939   1
   4   2  -7 44.2785 3.45653   2
   4   2  -7 51.2459 4.22017   3
  -4   2   7 42.9516 2.99532   1
   4   2  -7 44.9304 3.52541   1
   4   2  -6 442.569 16.3236   3
  -4   2   6 486.223 17.0329   7
  -4   2   6 480.201 15.0409   1
   4   2  -6 491.145 16.0021   1
  -4   2   6 482.116 16.0582   2
   4   2  -6 490.080 15.6227   2
  -4   2   5 7.31611 1.64077   2
  -4   2   5 5.77426 2.04105   7
   4   2  -5 6.62909 1.63033   1
   4   2  -5 4.87271 1.27211   2
  -4   2   5 6.41571 1.43246   1
  -4   2   4 284.313 9.73452   1
  -4   2   4 271.144 10.7814   7
   4   2  -4 273.749 9.55723   2
  -4   2   3 632.420 20.2225   7
   4   2  -3 617.443 18.4407   2
   4   2  -2 2162.13 57.2558   1
  -4   2   2 2143.74 58.5093   7
   4   2  -2 2009.96 56.4443   2
  -4   2   1 103.435 5.73847   7
   4   2  -1 110.316 4.82296   1
   4   2   0 28.3285 2.16765   1
   4   2   0 24.7873 1.67899   7
   4   2   1 228.813 7.94617   7
   4   2   1 235.064 6.85784   6
  -4   2  -1 219.816 9.06300   6
  -4   2  -1 243.694 9.17982   1
   4   2   1 242.503 8.24116   1
  -4   2  -2 646.071 20.1578   6
   4   2   2 646.772 17.9252   6
  -4   2  -2 620.260 20.2681   1
   4   2   2 662.061 19.0415   1
  -4   2  -3 411.642 13.7011   6
  -4   2  -3 425.796 14.4341   1
   4   2   3 405.939 12.8665   1
  -4   2  -4 64.6115 3.92061   6
   4   2   4 68.2135 3.56388   1
  -4   2  -4 69.4134 4.57195   1
  -4   2  -4 64.9342 4.53607   5
   4   2   5 22.0999 2.09060   1
  -4   2  -5 19.4283 2.72633   1
  -4   2  -5 21.9061 2.86444   5
  -4   2  -6 792.074 25.3311   1
  -4   2  -6 816.365 25.7550   5
  -4   2  -7 113.070 6.52950   1
  -4   2  -7 127.141 7.09174   5
  -4   2  -7 114.753 7.84541   4
  -4   2  -8 39.3111 3.99578   1
  -4   2  -8 38.6282 4.87014   4
   4   2   9 146.160 8.95752   3
  -4   2  -9 147.814 7.78347   1
  -4   2  -9 137.701 9.04539   4
   4   2  10 79.5685 6.92657   3
  -4   2 -10 77.7585 6.86500   4
   4   2  11 33.9637 5.12385   3
  -4   2 -11 29.0369 4.74981   4
   4   2  12 50.2906 6.36685   3
  -4   2 -12 41.3393 5.35198   4
   4   2  13 0.61538 3.97908   3
  -4   2 -13 2.90623 3.49391   4
   4   2  14 13.7610 4.74606   3
  -4   2 -14 19.1274 4.60339   4
  -4   2 -15 7.45256 4.20657   4
   4   3 -17 12.0254 3.75205   1
   4   3 -16 19.7127 4.32941   2
   4   3 -16 15.0221 3.64555   1
   4   3 -15 40.2072 4.95577   2
   4   3 -15 34.4731 4.42567   1
   4   3 -14 15.0835 3.29378   2
   4   3 -14 15.9958 3.49232   1
   4   3 -13 70.6324 5.83261   2
   4   3 -13 73.6204 5.71519   3
   4   3 -13 87.6951 6.13186   1
   4   3 -12 45.4377 4.48824   3
   4   3 -12 49.0090 4.59278   1
   4   3 -11 147.281 7.86426   3
   4   3 -11 168.861 8.52596   1
  -4   3  10 6.55682 1.84102   1
   4   3 -10 6.71066 2.37669   1
   4   3 -10 6.79743 2.30619   3
  -4   3   9 47.2183 4.00248   2
   4   3  -9 40.6399 3.78956   3
  -4   3   9 43.1356 3.16695   1
   4   3  -9 43.4199 4.06764   1
   4   3  -8 407.020 15.1369   3
  -4   3   8 409.982 16.7135   7
  -4   3   8 441.779 14.0183   1
   4   3  -8 437.794 15.5512   1
  -4   3   8 450.442 15.4942   2
   4   3  -7 69.9476 4.86140   3
  -4   3   7 81.2107 4.26079   1
  -4   3   7 74.3500 5.96919   7
  -4   3   7 83.4080 5.12897   2
   4   3  -7 82.1179 5.11728   1
   4   3  -6 43.1136 3.67961   3
  -4   3   6 50.6583 3.31390   1
  -4   3   6 48.1326 4.61842   7
   4   3  -5 377.759 12.5061   2
  -4   3   5 374.757 14.7210   7
  -4   3   5 375.808 12.6539   1
   4   3  -4 534.641 16.3073   2
  -4   3   4 555.098 18.8921   7
   4   3  -4 514.897 17.2139   1
  -4   3   4 527.968 16.8009   1
  -4   3   3 12.6218 2.90329   7
   4   3  -3 18.0263 2.25667   1
  -4   3   3 19.1824 2.30043   1
   4   3  -3 17.7244 1.68362   2
   4   3  -2 111.882 5.27080   1
  -4   3   2 112.332 5.57933   1
  -4   3   2 105.066 6.48483   7
   4   3  -2 108.526 4.34108   2
  -4   3   1 416.475 15.2370   7
   4   3  -1 401.351 13.1470   1
   4   3  -1 411.860 12.8274   6
   4   3  -1 400.893 11.8890   2
   4   3   0 749.249 22.7806   7
   4   3   0 805.962 22.6905   1
   4   3   0 767.792 22.4701   6
   4   3   1 240.864 8.31277   1
   4   3   1 233.027 8.87255   7
   4   3   1 246.255 8.54534   6
  -4   3  -1 233.664 10.4241   6
  -4   3  -1 234.099 9.68998   1
   4   3   2 118.312 5.87348   7
  -4   3  -2 131.706 7.05981   6
   4   3   2 125.954 6.59504   3
   4   3   2 124.037 5.43452   6
  -4   3  -2 124.244 6.50891   1
   4   3   2 135.008 5.23845   1
   4   3   3 222.774 9.67429   3
  -4   3  -3 218.078 9.53347   6
  -4   3  -3 216.939 9.46369   1
   4   3   3 214.949 7.43847   1
   4   3   4 256.349 11.1991   3
  -4   3  -4 245.636 10.7201   1
   4   3   4 260.404 8.65679   1
  -4   3  -4 270.140 10.6816   5
   4   3   4 267.858 10.7928   5
  -4   3  -4 265.845 10.6037   6
   4   3   5 133.650 7.65153   3
  -4   3  -5 134.000 6.76286   6
  -4   3  -5 133.158 7.34623   1
   4   3   5 137.450 5.31992   1
  -4   3  -5 133.463 6.92103   5
   4   3   5 131.714 7.19582   5
   4   3   6 113.473 7.14609   3
  -4   3  -6 99.9656 6.41035   1
  -4   3  -6 107.057 6.22724   5
   4   3   6 98.8146 6.35321   5
  -4   3  -7 5.21657 2.53632   1
  -4   3  -7 4.78899 2.25630   5
   4   3   7 3.55852 2.58743   3
   4   3   8 121.112 8.18127   3
  -4   3  -8 123.230 8.98047   4
   4   3   9 33.7202 4.73322   3
  -4   3  -9 35.1155 5.30931   4
   4   3  10 3.52912 3.03565   3
  -4   3 -10 2.22814 3.83499   4
  -4   3 -11 7.37879 3.83436   4
  -4   3 -12 98.8460 8.48437   4
  -4   3 -13 23.5195 4.95548   4
  -4   3 -14 1.69153 3.72599   4
   4   4 -15 134.887 8.63692   1
   4   4 -14 78.5612 6.53589   1
   4   4 -13 60.0466 5.48440   1
   4   4 -12 19.4798 3.56759   1
  -4   4  11 128.317 5.89263   1
   4   4 -11 118.978 7.64658   1
   4   4 -11 117.908 6.57092   3
   4   4 -10 203.098 10.3345   1
   4   4 -10 214.045 9.12292   3
  -4   4  10 226.636 8.52891   1
  -4   4   9 1.18716 1.42505   1
   4   4  -9-1.11211 1.76783   3
   4   4  -9 1.00116 1.95655   1
   4   4  -8 64.5986 5.05244   1
   4   4  -8 63.8034 4.23578   3
  -4   4   8 55.3833 5.88618   7
  -4   4   8 67.3088 3.91649   1
   4   4  -7 33.8627 3.05537   3
  -4   4   7 30.1689 2.73519   1
  -4   4   7 29.0373 3.49520   2
  -4   4   7 24.6975 4.21939   7
   4   4  -6 137.157 6.45359   3
  -4   4   6 144.957 8.73309   7
  -4   4   6 139.401 7.36569   2
  -4   4   6 129.332 6.14623   1
  -4   4   5 26.7010 4.31135   7
  -4   4   5 31.2584 3.59359   2
  -4   4   5 29.7237 2.86337   1
   4   4  -5 24.9272 2.99718   1
  -4   4   4 90.8226 6.84736   7
  -4   4   4 101.576 6.18567   2
  -4   4   4 85.9611 4.95199   1
   4   4  -4 89.0070 5.37422   1
   4   4  -3 84.7201 3.96302   2
  -4   4   3 79.7733 6.30197   7
  -4   4   3 81.0969 4.90052   1
   4   4  -3 87.7179 5.08468   1
  -4   4   2 397.516 16.4502   7
   4   4  -2 438.224 14.4255   6
  -4   4   2 414.117 14.7671   1
   4   4  -2 442.233 14.5566   1
   4   4  -2 423.657 12.7419   2
   4   4  -1 119.199 5.81576   7
  -4   4   1 114.507 7.42219   7
   4   4  -1 109.152 5.54022   6
  -4   4   1 105.282 5.95355   1
   4   4  -1 105.701 5.31330   1
   4   4  -1 107.693 3.90429   2
   4   4   0 11.1696 1.69240   1
   4   4   0 13.3002 2.05651   6
  -4   4   0 10.2199 2.95106   6
  -4   4   0 11.8223 2.58864   1
   4   4   0 12.3329 2.04234   3
   4   4   0 12.1066 2.25477   7
   4   4   1 46.6847 3.86292   7
   4   4   1 43.6280 3.51562   6
   4   4   1 46.4769 2.92855   1
   4   4   1 49.2996 3.81666   3
  -4   4  -1 48.4285 4.89452   6
   4   4   2 504.568 14.9047   1
   4   4   2 476.873 16.8263   7
   4   4   2 493.861 16.8943   3
  -4   4  -2 472.899 17.1754   1
  -4   4  -2 455.421 17.9927   6
   4   4   2 470.057 16.1841   6
   4   4   3 23.3198 3.08146   7
  -4   4  -3 15.0541 2.86515   1
  -4   4  -3 24.6402 3.59458   6
   4   4   3 13.4476 2.49030   6
   4   4   3 19.3004 2.92682   3
   4   4   3 22.0093 1.86904   1
   4   4   4 12.7379 1.45993   1
   4   4   4 10.2772 2.48986   7
  -4   4  -4 12.3327 2.81778   6
   4   4   4 13.4225 2.79393   3
  -4   4  -4 14.0314 2.49715   5
   4   4   4 14.5171 2.72584   5
  -4   4  -5 129.826 7.34239   6
   4   4   5 131.881 4.89892   1
  -4   4  -5 126.190 6.72448   5
   4   4   5 128.955 7.21695   5
   4   4   5 127.995 7.64491   3
   4   4   6 99.4035 6.92405   3
  -4   4  -6 107.418 6.16998   5
   4   4   7 142.383 8.81931   3
  -4   4  -7 156.775 7.87830   5
   4   4   8 142.287 9.13630   3
  -4   4  -8 144.118 10.2754   4
   4   4   9 59.3669 6.28250   3
  -4   4  -9 57.7855 6.85788   4
   4   4  10 118.569 9.09083   3
  -4   4 -10 132.224 10.0796   4
   4   4  11 20.6493 4.94967   3
  -4   4 -11 17.2642 5.21675   4
   4   4  12 15.7741 4.81375   3
  -4   4 -12 22.7917 5.47999   4
   4   5 -14 0.91099 2.91224   1
   4   5 -13 27.3563 4.35412   1
   4   5 -12 127.774 8.35713   1
   4   5 -11 23.5233 3.83523   1
   4   5 -11 19.5398 3.51839   4
   4   5 -10 117.933 7.63345   1
   4   5 -10 132.215 7.69525   4
  -4   5   9 111.001 5.41748   1
   4   5  -9 119.414 7.03149   4
   4   5  -8 160.014 6.99888   3
  -4   5   8 199.329 7.77241   1
   4   5  -8 193.579 8.87862   4
  -4   5   7 101.414 5.31818   1
   4   5  -7 91.4435 4.72243   3
   4   5  -7 110.144 6.85789   1
   4   5  -7 108.235 6.03192   4
  -4   5   6-0.60941 1.63812   1
   4   5  -6 0.47693 1.45367   3
   4   5  -6-0.97532 2.28123   1
   4   5  -6 3.02835 1.82408   4
   4   5  -5 119.135 5.79629   3
   4   5  -5 160.285 7.93128   1
   4   5  -5 135.766 6.43475   4
  -4   5   5 137.932 6.54029   1
   4   5  -4 290.694 11.6238   1
  -4   5   4 269.612 10.7662   1
  -4   5   3 23.6062 4.25009   7
   4   5  -3 20.3097 2.23184   3
   4   5  -3 22.9440 3.11442   6
   4   5  -3 19.6744 2.84771   1
  -4   5   3 22.3569 2.92453   1
   4   5  -2 138.563 5.20068   2
  -4   5   2 136.592 8.86070   7
   4   5  -2 129.829 7.05742   6
   4   5  -2 146.220 6.22584   3
  -4   5   2 136.878 7.13738   1
   4   5  -2 140.501 6.91624   1
  -4   5   1 124.916 8.46456   7
   4   5  -1 109.594 5.58088   3
   4   5  -1 121.734 6.60372   6
  -4   5   1 114.824 6.67159   1
   4   5  -1 117.333 5.98050   1
   4   5  -1 114.479 4.05175   2
   4   5   0 55.3720 4.47287   7
   4   5   0 54.8487 3.93558   3
   4   5   0 56.3931 4.57135   6
  -4   5   0 54.3576 5.99348   6
   4   5   0 59.4283 3.85269   1
   4   5   1 35.2691 3.78646   7
   4   5   1 34.6246 3.42265   3
   4   5   1 37.7058 3.87234   6
   4   5   1 47.7964 3.18142   1
  -4   5  -1 32.9158 4.83618   6
   4   5   2 23.7606 3.39900   7
  -4   5  -2 24.8576 4.29403   6
   4   5   2 18.6269 3.12257   6
   4   5   2 16.1875 2.71838   3
   4   5   2 15.8255 1.85806   1
   4   5   3 73.9539 5.34000   3
   4   5   3 85.6526 3.96302   1
   4   5   3 76.9777 6.01306   7
  -4   5  -3 83.1463 6.73847   6
   4   5   3 70.9274 5.53820   6
   4   5   4 127.009 7.82802   7
   4   5   4 127.363 7.46047   3
  -4   5  -4 116.483 7.99683   6
   4   5   4 126.601 7.55862   6
  -4   5  -4 130.281 6.76004   5
   4   5   4 132.487 7.09611   5
   4   5   4 124.345 4.94536   1
   4   5   5 27.4113 4.20636   7
  -4   5  -5 26.0540 3.93182   6
   4   5   5 25.6674 1.72041   1
   4   5   5 21.4090 3.60588   3
  -4   5  -5 19.7499 2.84370   5
   4   5   6 6.77073 3.22061   7
  -4   5  -6 19.6370 3.54584   6
   4   5   6 14.2457 3.14105   3
  -4   5  -6 13.3831 2.54026   5
   4   5   7 97.4841 7.35813   3
  -4   5  -7 102.334 6.12461   5
   4   5   8 81.7724 7.16786   3
  -4   5  -8 93.0074 8.78646   4
   4   5   9 46.6591 6.14207   3
  -4   5  -9 37.1835 6.44594   4
   4   5  10 57.5138 6.79602   3
  -4   5 -10 39.3758 6.63136   4
   4   5  11 57.1298 7.13582   3
  -4   5 -11 56.5422 7.54751   4
   4   6 -12 11.3541 3.54194   4
   4   6 -12 7.51120 3.45465   1
   4   6 -11 47.4143 5.42481   1
   4   6 -11 44.3879 5.03676   4
   4   6 -10 37.2668 4.53223   4
   4   6  -9 19.1277 3.96794   1
   4   6  -9 22.6435 3.59576   4
   4   6  -8 10.8806 2.82513   4
   4   6  -7 104.495 6.21588   4
  -4   6   7 94.3644 5.40423   1
   4   6  -6 93.6165 6.66588   1
   4   6  -6 79.4086 5.21116   4
   4   6  -5 41.5325 4.38103   1
   4   6  -5 33.3456 1.86885   3
   4   6  -5 41.0187 3.42506   4
   4   6  -4 1.74484 1.04928   3
   4   6  -4 4.24469 2.29201   1
   4   6  -4 3.41094 1.69500   4
   4   6  -3 132.271 7.31537   1
   4   6  -3 130.133 5.29292   3
   4   6  -3 142.500 7.81287   6
   4   6  -2 192.794 7.53448   3
   4   6  -2 215.334 10.0855   6
   4   6  -2 212.557 9.41588   1
   4   6  -1 42.1423 3.11613   3
   4   6  -1 35.7146 4.18814   6
  -4   6   1 43.3555 5.98725   6
   4   6  -1 40.6613 3.70786   1
   4   6  -1 39.4991 1.99425   2
   4   6   0 37.5220 3.22476   3
   4   6   0 26.2916 4.15324   7
   4   6   0 37.2502 4.32672   6
  -4   6   0 32.0619 5.38968   6
   4   6   0 37.2693 3.36485   1
   4   6   1 95.3253 6.84903   7
   4   6   1 100.930 5.70788   3
   4   6   1 111.849 7.13348   6
  -4   6  -1 99.9468 8.36640   6
   4   6   1 99.2555 5.21644   1
   4   6   2 141.878 8.81812   7
   4   6   2 135.708 7.22663   3
   4   6   2 143.023 6.17807   1
  -4   6  -2 144.037 9.93570   6
   4   6   2 151.098 8.59477   6
   4   6   3 4.23403 3.29140   7
   4   6   3 4.38014 2.60461   6
  -4   6  -3 4.13369 3.55778   6
   4   6   3 3.07256 2.07501   3
   4   6   3 3.16086 1.42864   1
  -4   6  -4 24.8423 4.70883   6
   4   6   4 21.8165 3.93094   6
   4   6   4 27.6303 3.72422   3
  -4   6  -4 36.1941 3.53494   5
   4   6   4 29.6895 2.27274   1
  -4   6  -5 13.2357 3.68159   6
   4   6   5 9.74491 3.34365   6
   4   6   5 8.44990 2.99490   3
  -4   6  -5 8.59600 2.22184   5
  -4   6  -6 43.4981 5.20450   6
  -4   6  -6 39.0436 3.72227   5
   4   6   6 42.5216 5.11621   3
   4   6   7 6.91965 3.30139   3
  -4   6  -7 4.89571 4.31933   4
   4   6   8 1.98989 3.28740   3
  -4   6  -8 0.72232 4.05970   4
   4   6   9 21.4624 4.65286   3
  -4   6  -9 16.3008 5.36782   4
   4   6  10 31.3464 5.84513   3
   4   7 -11 1.63160 2.86248   4
   4   7 -10 9.14499 3.21061   4
   4   7  -9 56.6281 6.13124   1
   4   7  -9 61.1828 5.43881   4
   4   7  -8 41.1373 5.33389   1
   4   7  -8 39.8810 4.37951   4
   4   7  -7 51.7262 5.60606   1
   4   7  -7 50.2660 4.61607   4
   4   7  -6 7.89449 3.26253   1
   4   7  -6 10.2027 2.61208   4
   4   7  -5 54.3620 5.24300   1
   4   7  -5 43.9634 3.87073   4
   4   7  -4 24.6133 4.15786   6
   4   7  -4 16.6432 3.53146   1
   4   7  -3 29.6083 4.05807   1
   4   7  -3 27.9843 4.17757   6
  -4   7   3 35.6178 6.48814   6
   4   7  -2 6.74592 3.04075   6
  -4   7   2 5.58533 4.20599   6
   4   7  -2 6.99119 2.43734   1
  -4   7   1 76.4598 8.27957   6
   4   7  -1 64.7882 5.93737   6
   4   7  -1 71.9111 5.24734   1
   4   7   0 177.711 10.2537   6
  -4   7   0 182.192 12.5512   6
   4   7   1 26.8547 4.59545   6
  -4   7  -1 32.5897 5.96843   6
   4   7   1 29.8188 3.11467   1
   4   7   2 7.35841 1.92167   1
  -4   7  -2 16.5052 4.75606   6
   4   7   2 10.4768 3.65447   6
  -4   7  -3 46.2064 6.39344   6
   4   7   3 46.5260 5.64222   6
  -4   7  -4 149.016 10.3969   6
   4   7   4 158.460 9.90870   6
   4   7   5 43.2275 4.91249   3
  -4   7  -5 51.0058 6.21482   6
   4   7   5 44.6598 5.66288   6
  -4   7  -6 10.3832 3.94998   6
   4   7   6 10.9876 3.65387   3
   4   8  -6 112.796 8.23141   1
   4   8  -5 36.6726 5.10501   1
   4   8  -4 33.4177 4.78531   1
   4   8  -3 38.7463 5.15939   6
  -4   8   3 40.4109 7.41721   6
   4   8  -3 37.2880 4.87807   1
   4   8  -2 46.2751 5.64960   6
  -4   8   2 69.3043 8.45979   6
   4   8  -2 64.1862 5.55161   1
   4   8  -1 3.50882 2.28119   1
   4   8  -1 3.73171 3.24284   6
  -4   8   1-0.75476 4.82596   6
   4   8   0 5.23697 3.53105   6
  -4   8   0 14.5241 5.24222   6
   4   8   1 15.7873 4.43239   6
  -4   8  -1 19.7631 6.13905   6
   4   8   2 31.6171 5.30423   6
   5  -7   2 14.8109 5.30754   7
   5  -7   3-0.73685 4.49175   7
   5  -7   4 66.8603 8.24250   7
   5  -6   0 56.9121 7.00598   7
   5  -6   1 1.88938 3.48740   7
   5  -6   2 43.9120 6.24027   7
   5  -6   3 65.7233 7.81579   7
   5  -6   4 54.5424 7.45726   7
   5  -6   5 6.43304 4.57295   7
   5  -6   6 57.9754 7.92807   7
   5  -6   7 32.5216 6.64588   7
   5  -6   8 43.3506 7.80686   7
  -5  -5   8 79.1243 6.06019   7
  -5  -5   7 166.446 8.61747   7
  -5  -5   6 122.620 6.90330   7
   5  -5  -5 2.26909 2.67921   3
   5  -5  -4 38.5367 4.45196   3
   5  -5  -3 187.548 9.55658   3
   5  -5  -2 149.538 8.26064   3
   5  -5  -1 10.5872 2.79671   3
   5  -5   0 97.2735 8.09505   7
   5  -5   1 98.6641 8.01536   7
   5  -5   2 144.968 10.0140   7
   5  -5   3-0.58241 3.68102   7
   5  -5   4 19.8416 4.80684   7
   5  -5   5 53.7889 6.85838   7
   5  -5   6 22.3997 5.41976   7
   5  -5   7 32.6764 6.23672   7
   5  -5   8 51.9140 7.67824   7
   5  -5   9 6.16935 4.76204   7
   5  -5  10 14.6201 6.60749   7
  -5  -4  11 2.80459 2.67635   7
   5  -4 -11 2.56721 2.33618   1
  -5  -4  10 22.9003 3.70985   7
   5  -4 -10 24.4470 3.53898   1
  -5  -4   9 94.7868 6.24291   7
   5  -4  -9 83.6642 6.00359   1
  -5  -4   8 185.286 9.22665   7
   5  -4  -8 214.831 9.95715   1
  -5  -4   8 200.182 10.5142   6
  -5  -4   8 193.379 10.3806   4
   5  -4  -7 6.09009 2.33384   1
   5  -4  -7 5.25791 2.67689   3
  -5  -4   7 9.08892 2.96928   6
  -5  -4   7 5.43576 1.31867   5
  -5  -4   7 5.09108 2.85155   4
   5  -4  -6 67.9234 5.86086   3
   5  -4  -6 77.4560 5.74104   1
  -5  -4   6 58.5446 5.47400   6
  -5  -4   6 74.3343 3.82151   5
  -5  -4   6 71.8878 5.53265   4
   5  -4  -5 200.931 10.2949   3
  -5  -4   5 205.261 8.47843   7
  -5  -4   5 199.832 7.67315   5
  -5  -4   5 216.361 9.61069   4
   5  -4  -4 521.494 19.6375   3
  -5  -4   4 551.927 17.1066   5
   5  -4  -3 72.3827 5.62219   3
   5  -4  -1 292.780 13.5577   7
   5  -4   0 186.787 10.3144   7
   5  -4   1 89.0462 7.22480   7
   5  -4   2 225.346 12.0265   7
   5  -4   3 163.665 10.1541   7
   5  -4   4 172.845 10.6973   7
   5  -4   5 2.70645 3.17727   7
   5  -4   5 8.04461 2.55778   3
   5  -4   6 83.9595 7.72340   7
   5  -4   6 73.6523 5.51407   3
   5  -4   7 40.3388 5.81045   7
   5  -4   7 39.2120 4.20384   3
   5  -4   8 46.7556 6.58089   7
   5  -4   8 53.2591 4.96480   3
   5  -4   9 7.43529 4.12497   7
   5  -4  10 20.1007 5.97526   7
   5  -4  11 4.55562 4.80029   7
   5  -3 -12 50.8266 4.42301   1
   5  -3 -11 115.247 6.64225   1
   5  -3 -10 167.147 8.25742   1
  -5  -3   9 13.2879 3.03964   6
   5  -3  -9 6.52043 2.30200   1
  -5  -3   9 15.3814 3.54586   4
   5  -3  -8 168.121 9.47419   3
  -5  -3   8 157.967 8.43195   6
   5  -3  -8 168.174 8.22952   1
  -5  -3   8 172.903 9.04655   4
   5  -3  -7 134.872 8.08339   3
  -5  -3   7 116.224 5.89379   7
   5  -3  -7 126.237 6.91534   1
  -5  -3   7 116.792 6.90333   6
  -5  -3   7 125.390 7.18463   4
   5  -3  -6 217.942 10.6824   3
  -5  -3   6 206.096 8.24012   7
   5  -3  -6 222.677 9.84830   1
  -5  -3   6 214.043 9.68422   6
  -5  -3   6 218.161 9.57433   4
   5  -3  -5 130.757 7.68820   3
  -5  -3   5 106.950 4.90744   7
   5  -3  -5 108.476 6.52460   1
  -5  -3   5 121.507 6.23184   4
   5  -3  -4 128.452 7.59797   3
   5  -3  -4 137.526 7.39823   1
  -5  -3   4 131.131 5.98951   5
   5  -3  -3 55.8612 4.71718   1
  -5  -3   3 61.1117 3.87293   5
  -5  -3   3 60.6871 3.89351   4
   5  -3  -2 440.204 16.8099   1
  -5  -3   2 469.323 15.4717   5
  -5  -3   2 468.741 14.7040   4
   5  -3  -1 206.835 9.87950   7
  -5  -3   1 195.363 8.42367   5
  -5  -3   1 201.190 7.07569   4
   5  -3   0 36.9528 4.30158   7
  -5  -3   0 42.7617 3.73371   5
   5  -3   1 68.4788 5.70437   7
   5  -3   2 60.8519 5.40213   7
   5  -3   3 59.5472 5.74206   7
   5  -3   4 59.0764 5.83504   7
   5  -3   5 130.179 8.67946   7
   5  -3   6 209.373 11.8536   7
   5  -3   6 226.006 10.2963   3
   5  -3   7 77.2825 7.33146   7
   5  -3   7 84.1158 6.16629   3
   5  -3   8 61.3030 6.79966   7
   5  -3   8 64.8366 5.59577   3
   5  -3   9 172.124 11.4973   7
   5  -3   9 169.301 9.50337   3
   5  -3  10 78.2683 6.40177   3
   5  -3  11 13.3998 4.07645   3
   5  -2 -16 73.5568 7.04395   2
   5  -2 -15 9.52543 3.65662   2
   5  -2 -14 24.5200 4.45309   2
   5  -2 -14 24.6676 3.16562   1
   5  -2 -13 177.862 8.16039   1
   5  -2 -13 151.264 9.51654   2
   5  -2 -12 74.9182 4.99572   1
   5  -2 -11 3.95248 1.96611   1
  -5  -2  10 174.589 8.75278   6
   5  -2 -10 175.780 8.01061   1
   5  -2  -9 132.507 8.47115   3
  -5  -2   9 154.546 7.61092   6
   5  -2  -9 145.102 7.03554   1
  -5  -2   9 132.584 7.76552   4
   5  -2  -8 461.568 18.0388   3
  -5  -2   8 444.412 16.0591   6
   5  -2  -8 468.020 15.9755   1
  -5  -2   8 490.663 16.9339   4
   5  -2  -7 222.658 10.9228   3
  -5  -2   7 218.610 9.10777   6
   5  -2  -7 231.791 9.41299   1
  -5  -2   7 221.403 9.60749   4
  -5  -2   6 35.2840 2.48712   7
   5  -2  -6 30.7190 3.80598   3
   5  -2  -6 43.1717 3.57553   1
  -5  -2   6 36.2618 3.29234   4
   5  -2  -5 254.659 11.4097   3
  -5  -2   5 251.843 7.95198   7
   5  -2  -5 255.460 10.3799   1
  -5  -2   5 265.358 9.82329   4
  -5  -2   4 316.061 10.9973   6
   5  -2  -4 304.776 11.9488   1
   5  -2  -3 62.8153 4.51293   1
  -5  -2   3 57.3569 3.49174   6
   5  -2  -2 389.473 14.2139   1
  -5  -2   2 393.132 13.4153   5
  -5  -2   2 370.468 11.9900   4
  -5  -2   1 41.5148 3.16042   1
   5  -2  -1 44.4014 3.74868   7
   5  -2  -1 46.9381 4.02917   1
  -5  -2   1 42.8204 3.53083   5
  -5  -2   1 42.1652 2.45664   4
  -5  -2   0 201.976 7.90612   1
   5  -2   0 198.580 9.18616   1
  -5  -2   0 196.665 8.60252   5
   5  -2   0 200.570 8.90416   7
  -5  -2   0 195.995 6.56657   4
   5  -2   1 101.794 6.15181   7
  -5  -2  -1 108.328 5.96402   5
  -5  -2  -1 106.170 5.08018   1
   5  -2   2 347.306 13.3127   7
  -5  -2  -2 327.893 12.7248   5
  -5  -2  -2 319.573 11.0853   1
  -5  -2  -2 324.832 9.49858   2
   5  -2   3 290.829 12.0688   7
  -5  -2  -3 282.451 11.6747   5
  -5  -2  -3 277.955 8.52088   4
  -5  -2  -3 267.881 8.06516   2
   5  -2   4 203.420 9.95829   7
  -5  -2  -4 212.429 6.50261   4
  -5  -2  -4 191.348 6.19909   2
   5  -2   5 47.1046 4.92021   7
  -5  -2  -5 42.7705 2.25499   4
   5  -2   6 342.298 13.6437   3
  -5  -2  -6 327.585 10.1195   4
   5  -2   7 70.3368 5.69076   3
   5  -2   8 92.5122 6.70768   3
   5  -2   9 12.4239 3.31628   3
   5  -2  10 18.6544 4.06168   3
   5  -2  11 19.3636 4.19910   3
   5  -2  12 83.6877 7.35606   3
   5  -2  13 3.22705 3.84542   3
   5  -2  14 11.6798 4.65157   3
   5  -1 -17 1.08866 3.31826   2
   5  -1 -16 11.7328 3.88355   2
   5  -1 -15 29.7224 4.81583   2
   5  -1 -15 28.1909 3.36792   1
   5  -1 -14 71.9893 6.42120   2
   5  -1 -14 73.3031 5.04560   1
   5  -1 -13 41.6365 4.85739   2
   5  -1 -13 44.7284 3.99306   1
   5  -1 -12 1.20430 2.59551   2
   5  -1 -12-0.24329 1.60760   1
   5  -1 -11 373.549 15.5094   2
   5  -1 -11 381.900 13.6163   1
  -5  -1  10 194.572 9.61045   4
   5  -1 -10 194.582 9.88551   2
   5  -1 -10 195.556 8.38533   1
   5  -1  -9 1.69787 1.99203   2
   5  -1  -9 3.00418 1.43456   1
   5  -1  -9 0.39829 2.33608   3
  -5  -1   9 5.11568 2.28480   4
   5  -1  -8 240.321 11.4207   3
  -5  -1   8 250.949 10.2658   4
   5  -1  -8 226.620 9.22420   1
   5  -1  -7 255.979 11.4532   3
  -5  -1   7 249.717 9.92809   4
   5  -1  -7 228.082 9.31640   1
   5  -1  -6 507.364 18.9910   3
  -5  -1   6 558.460 17.4238   4
   5  -1  -6 512.085 17.1345   1
  -5  -1   5 12.9223 2.00764   1
  -5  -1   5 17.4217 2.17889   4
   5  -1  -5 14.8734 2.11513   1
  -5  -1   4 31.1116 2.81643   1
   5  -1  -4 38.3092 3.15429   1
  -5  -1   3 399.847 12.0549   6
   5  -1  -3 396.203 14.0210   1
  -5  -1   3 408.567 13.5690   1
  -5  -1   2 697.507 19.6568   6
   5  -1  -2 729.327 22.3903   1
  -5  -1   2 708.821 21.4353   1
   5  -1  -1 69.8418 3.84493   7
   5  -1  -1 59.3355 4.39986   1
  -5  -1   1 67.8484 3.85549   1
  -5  -1   1 68.1902 3.44321   2
   5  -1   0 312.394 11.0973   7
  -5  -1   0 309.300 10.6646   1
  -5  -1   0 337.525 12.1566   5
  -5  -1   0 310.999 10.1693   2
   5  -1   1 347.386 12.4331   7
  -5  -1  -1 342.359 11.4085   1
  -5  -1  -1 355.069 12.9830   5
  -5  -1  -1 341.834 11.0087   2
   5  -1   2 413.939 14.9442   7
   5  -1   2 414.996 15.4536   1
  -5  -1  -2 443.314 13.7483   1
  -5  -1  -2 448.521 15.7346   5
   5  -1   3 23.6699 3.01457   7
  -5  -1  -3 27.8992 2.27312   1
  -5  -1  -3 27.1534 3.24651   5
  -5  -1  -4 346.978 11.5207   1
  -5  -1  -4 359.631 14.0229   5
  -5  -1  -5 290.386 9.67522   1
  -5  -1  -5 262.184 10.2155   4
  -5  -1  -6 265.517 9.28437   1
   5  -1   6 282.228 12.0667   3
  -5  -1  -6 257.038 10.0652   4
  -5  -1  -7 102.450 4.70634   1
   5  -1   7 113.667 7.24806   3
   5  -1   7 98.5294 5.84339   6
  -5  -1  -7 97.0668 5.26136   4
   5  -1   8 78.6895 6.22597   3
   5  -1   8 73.5319 5.23909   6
  -5  -1  -8 72.1626 4.45083   4
   5  -1   9 100.298 7.17057   3
   5  -1   9 85.3887 5.87552   6
  -5  -1  -9 75.4636 4.85857   4
   5  -1  10-1.35434 3.01482   3
   5  -1  11 3.82181 3.19166   3
   5  -1  12 19.1371 4.51440   3
   5  -1  13 7.20436 3.96576   3
   5   0 -17 54.4970 6.29255   2
   5   0 -16 112.097 6.56256   1
   5   0 -16 98.3538 8.00297   2
   5   0 -15-1.36701 2.77769   2
   5   0 -15 1.40565 2.11630   1
   5   0 -14 97.8862 5.93786   1
   5   0 -14 84.8895 6.73624   2
   5   0 -13 3.99009 2.64017   2
   5   0 -13 6.24834 2.26262   1
   5   0 -12 133.442 6.77566   1
   5   0 -12 124.290 7.79405   2
   5   0 -11 502.014 16.9924   1
   5   0 -10 37.6967 3.32843   1
   5   0 -10 37.0839 4.60136   3
  -5   0  10 29.9742 3.61284   4
   5   0  -9 516.346 16.8996   1
   5   0  -9 489.237 19.0359   3
  -5   0   9 509.760 17.7733   4
   5   0  -8 191.495 10.0945   3
   5   0  -8 214.695 8.58139   1
  -5   0   8 204.004 9.01148   4
   5   0  -7 1.11151 1.67277   2
   5   0  -7 0.41601 1.25225   1
  -5   0   7 1.77200 1.65387   1
   5   0  -6 44.4482 3.84422   2
   5   0  -6 55.3884 3.70648   1
  -5   0   5 1685.35 45.6168   2
  -5   0   5 1694.21 44.3468   7
   5   0  -5 1625.15 45.7235   1
  -5   0   4 330.518 10.3594   7
  -5   0   4 352.202 11.6565   1
   5   0  -4 353.595 11.9704   1
  -5   0   4 328.127 11.5543   2
   5   0  -3 7.31771 1.63263   1
  -5   0   3 9.19255 1.52266   1
  -5   0   2 416.911 13.4540   1
  -5   0   1 229.822 8.41926   1
   5   0   0 4.34268 0.98264   7
  -5   0   0 4.81060 1.35935   1
   5   0   0 4.18570 1.52733   1
  -5   0  -1 43.0424 2.91512   1
   5   0   1 44.5690 2.79701   7
   5   0   1 41.8265 3.45069   1
  -5   0  -2 55.8775 3.46238   1
   5   0   2 56.7514 4.12613   1
  -5   0  -2 58.3657 4.40267   5
   5   0   3 42.2660 3.61305   1
  -5   0  -3 53.7920 4.33621   5
  -5   0  -3 42.8958 3.11750   1
   5   0   4 214.864 9.51632   1
  -5   0  -4 242.382 10.3897   5
  -5   0  -4 229.751 8.62426   1
   5   0   5 224.186 10.2824   3
  -5   0  -5 180.713 9.46241   5
  -5   0  -5 210.270 8.05600   1
   5   0   6 51.4212 4.83670   3
   5   0   6 47.1022 3.24853   6
  -5   0  -6 54.9880 3.59517   1
  -5   0  -6 52.0167 4.59523   4
   5   0   7 18.1355 2.43572   6
   5   0   7 23.9877 3.84238   3
  -5   0  -7 21.6893 2.33785   1
  -5   0  -7 22.9937 3.34909   4
   5   0   8 206.783 10.9167   3
   5   0   8 206.565 8.71415   6
  -5   0  -8 206.882 8.23527   1
  -5   0  -8 219.982 10.1193   4
   5   0   9 63.4415 5.97561   3
   5   0   9 54.5472 4.31279   6
  -5   0  -9 58.2765 4.89164   4
   5   0  10 41.0771 5.35030   3
  -5   0 -10 39.0473 4.24640   4
   5   0  11 56.4738 6.18634   3
  -5   0 -11 63.9723 5.12356   4
   5   0  12 23.7396 4.77807   3
   5   0  13 16.1664 4.67505   3
   5   1 -16 16.8097 3.90974   2
   5   1 -16 7.47861 2.56255   1
   5   1 -15 24.3087 3.33359   1
   5   1 -14 81.0658 5.55821   1
   5   1 -13 47.8740 4.16981   1
   5   1 -12 0.78835 1.75490   1
   5   1 -11 380.121 15.9949   3
   5   1 -11 394.064 14.1422   1
   5   1 -11 389.618 15.3336   2
   5   1 -10 200.682 10.4540   3
   5   1 -10 197.418 8.57849   1
   5   1 -10 193.135 9.45552   2
   5   1  -9 5.83696 2.19859   2
  -5   1   9 3.00251 1.91682   1
   5   1  -9 3.67042 2.57686   3
  -5   1   9 1.66991 1.84098   4
   5   1  -9 3.43865 1.67029   1
   5   1  -8 254.520 11.6372   3
   5   1  -8 256.116 9.98557   1
   5   1  -8 261.274 10.6853   2
  -5   1   8 250.126 9.95379   1
   5   1  -7 222.020 10.6019   3
  -5   1   7 232.869 9.52428   2
   5   1  -7 249.931 9.43319   1
  -5   1   7 226.755 9.13266   1
   5   1  -7 236.666 9.81671   2
   5   1  -6 571.341 17.2950   1
  -5   1   6 529.761 17.1205   7
  -5   1   6 491.697 16.4983   1
   5   1  -6 508.205 17.3592   2
  -5   1   6 516.493 17.1566   2
   5   1  -5 9.06353 1.92061   2
  -5   1   5 13.9895 2.10514   2
  -5   1   5 13.2805 2.11800   7
   5   1  -5 12.2049 2.04106   1
   5   1  -4 30.6115 2.74447   1
  -5   1   4 31.4625 2.83246   7
  -5   1   4 31.7196 2.96164   2
  -5   1   3 415.801 13.0352   7
  -5   1   3 381.282 13.1265   1
  -5   1   3 399.230 13.7199   2
  -5   1   2 719.483 21.3595   1
  -5   1   2 695.926 22.0837   2
   5   1  -1 69.1682 4.04840   1
  -5   1   1 73.9847 4.14607   1
  -5   1   0 306.778 10.2356   6
   5   1   0 315.617 11.0052   1
  -5   1   0 308.512 10.9378   1
  -5   1  -1 339.634 10.7459   6
   5   1   1 329.859 11.7701   1
  -5   1  -1 348.716 11.8428   1
   5   1   2 400.380 13.7156   1
  -5   1  -2 408.817 13.6825   1
   5   1   3 30.9317 2.92908   1
  -5   1  -3 25.5059 2.65471   1
   5   1   4 368.731 12.7891   1
  -5   1  -4 336.195 12.3898   1
   5   1   5 262.914 10.0621   1
   5   1   5 282.356 11.9036   3
   5   1   5 239.901 7.51091   6
  -5   1  -5 256.652 11.1351   5
  -5   1  -5 240.686 9.66999   1
   5   1   6 271.281 12.4215   3
   5   1   6 264.767 8.79314   6
  -5   1  -6 281.845 12.0736   5
  -5   1  -6 269.205 10.4306   1
   5   1   7 105.630 7.48483   3
   5   1   7 99.1284 4.66230   6
  -5   1  -7 108.072 5.77699   1
  -5   1  -7 105.932 7.28662   4
   5   1   8 72.9922 6.22984   3
   5   1   8 70.4745 4.05480   6
  -5   1  -8 76.1344 4.83010   1
  -5   1  -8 63.4718 5.90179   4
   5   1   9 91.5347 7.24479   3
   5   1   9 87.7016 4.94404   6
  -5   1  -9 92.3303 7.11622   4
   5   1  10-2.48422 3.35214   3
  -5   1 -10 2.90888 3.10247   4
   5   1  11 5.83768 3.61846   3
  -5   1 -11 2.89489 2.95801   4
   5   1  12 18.1851 4.84007   3
  -5   1 -12 24.5770 4.21125   4
   5   1  13 4.26681 3.80907   3
   5   2 -17 59.8426 5.24380   1
   5   2 -16 71.0549 5.58575   1
   5   2 -15 12.0025 2.87899   1
   5   2 -15 8.63585 3.44308   2
   5   2 -14 16.8685 3.51855   2
   5   2 -14 20.5243 3.25822   1
   5   2 -13 174.883 8.59797   1
   5   2 -13 162.302 9.11090   2
   5   2 -12 69.5488 5.05139   1
   5   2 -12 62.3759 5.29975   2
   5   2 -11 0.96018 2.11566   2
   5   2 -11 3.63034 2.01502   1
   5   2 -11 1.81377 2.66337   3
  -5   2  10 161.574 7.60063   1
   5   2 -10 167.663 9.09663   3
   5   2 -10 169.226 8.07104   1
   5   2 -10 174.810 8.44343   2
   5   2  -9 134.598 7.87051   3
   5   2  -9 125.941 6.79608   1
  -5   2   9 137.465 6.58041   1
   5   2  -9 149.312 7.37203   2
  -5   2   8 440.501 16.3219   2
   5   2  -8 476.775 17.6328   3
  -5   2   8 516.423 17.8806   7
   5   2  -8 474.016 16.2441   1
  -5   2   8 464.076 15.6212   1
   5   2  -8 476.439 16.4288   2
   5   2  -7 230.199 10.5985   3
  -5   2   7 233.124 10.3673   7
   5   2  -7 230.701 9.55195   1
  -5   2   7 228.994 9.02149   1
   5   2  -7 246.126 9.76595   2
  -5   2   7 252.887 10.0118   2
  -5   2   6 31.3732 3.58413   7
  -5   2   6 30.1040 2.74381   1
   5   2  -6 31.1708 2.88717   1
   5   2  -6 29.5226 2.95446   2
  -5   2   6 27.3215 3.05276   2
  -5   2   5 266.960 9.78093   1
  -5   2   5 279.361 10.9195   7
   5   2  -5 255.739 9.76193   2
  -5   2   5 254.602 10.5115   2
  -5   2   4 307.395 11.1369   1
  -5   2   4 320.533 12.1647   7
   5   2  -4 327.668 11.1593   2
  -5   2   4 310.513 11.9888   2
  -5   2   3 60.8526 4.45255   7
   5   2  -3 64.4105 3.98493   1
  -5   2   3 65.2533 4.59404   2
   5   2  -2 421.856 13.6421   1
  -5   2   2 397.680 14.1463   7
  -5   2   2 389.373 13.5702   1
   5   2  -1 38.4660 2.92551   1
  -5   2   1 36.1561 3.00377   1
  -5   2   0 210.931 8.77781   6
  -5   2   0 193.876 8.34049   1
   5   2   0 211.790 8.00144   1
   5   2   1 87.9872 3.80880   7
  -5   2  -1 102.289 5.25193   6
  -5   2  -1 95.1518 5.26810   1
   5   2   1 95.2767 4.65063   1
  -5   2  -2 343.652 11.9103   6
   5   2   2 350.678 11.7182   1
  -5   2  -2 334.747 12.4709   1
  -5   2  -3 263.482 9.83290   6
   5   2   3 285.713 10.0548   1
  -5   2  -3 284.859 10.9463   1
  -5   2  -3 278.449 11.4446   5
   5   2   4 227.527 8.45122   1
  -5   2  -4 199.620 8.86544   1
  -5   2  -4 185.956 9.16175   5
   5   2   5 33.4517 2.98957   1
   5   2   5 37.3375 1.77342   6
  -5   2  -5 41.6623 3.85160   1
  -5   2  -5 34.7196 3.82005   5
   5   2   6 319.669 9.97037   6
  -5   2  -6 351.734 12.9310   1
  -5   2  -6 346.305 13.7211   5
   5   2   7 61.2107 3.16678   6
  -5   2  -7 60.4557 4.71330   1
  -5   2  -7 68.4899 5.57858   5
   5   2   8 88.7536 4.26114   6
  -5   2  -8 95.9931 7.64117   4
   5   2   9 5.92082 3.49898   3
  -5   2  -9 7.44190 3.51825   4
   5   2  10 20.3852 4.47530   3
  -5   2 -10 16.5247 4.36560   4
   5   2  11 18.0908 4.60529   3
  -5   2 -11 32.7342 4.89881   4
   5   2  12 54.1451 6.76551   3
  -5   2 -12 72.7992 6.88913   4
  -5   2 -13 8.05289 3.70043   4
   5   3 -16-0.46929 3.06832   2
   5   3 -16 5.28562 2.77194   1
   5   3 -15 115.791 7.48558   1
   5   3 -15 119.710 8.18602   2
   5   3 -14 10.2524 3.07059   2
   5   3 -14 7.82844 2.79604   1
   5   3 -13 32.7680 4.22662   2
   5   3 -13 27.2442 3.76848   1
   5   3 -12 55.5280 4.91049   1
   5   3 -12 47.6396 4.78149   2
  -5   3  11 107.410 5.91445   1
   5   3 -11 94.2735 6.55748   3
   5   3 -11 122.162 7.08984   1
   5   3 -11 139.701 7.51777   2
   5   3 -10 167.294 8.77431   3
   5   3 -10 187.607 8.96629   1
  -5   3  10 167.598 7.67050   1
   5   3 -10 172.909 8.61475   2
   5   3  -9 8.47993 2.41890   2
  -5   3   9 9.44565 3.59573   7
   5   3  -9 9.35157 2.97279   3
  -5   3   9 13.7099 2.37768   1
   5   3  -9 12.3527 2.56720   1
   5   3  -8 175.898 8.89132   3
  -5   3   8 164.763 9.43505   7
  -5   3   8 177.203 7.56956   1
   5   3  -8 197.461 8.70338   1
   5   3  -8 180.253 8.22194   2
   5   3  -7 125.721 7.15739   3
  -5   3   7 129.900 8.00927   7
  -5   3   7 128.644 6.09833   1
   5   3  -7 124.747 6.68644   1
   5   3  -7 124.717 6.28010   2
  -5   3   6 221.038 8.61685   1
  -5   3   6 220.384 10.4822   7
  -5   3   6 193.507 9.28755   2
   5   3  -6 202.317 8.44400   2
  -5   3   5 109.266 5.66700   1
  -5   3   5 119.895 7.22061   7
  -5   3   5 104.839 6.31418   2
   5   3  -5 119.873 5.57802   2
  -5   3   4 135.874 7.68702   7
   5   3  -4 138.362 6.54449   1
  -5   3   4 133.584 7.30499   2
   5   3  -4 138.963 5.96912   2
  -5   3   4 137.658 6.52220   1
  -5   3   3 66.4956 5.32494   7
   5   3  -3 68.7122 4.17794   1
  -5   3   3 70.4801 5.01000   2
   5   3  -3 65.7693 3.63878   2
  -5   3   3 66.1426 4.31592   1
  -5   3   2 481.501 17.3349   7
   5   3  -2 479.308 15.6287   1
   5   3  -1 213.377 8.34063   1
   5   3   0 38.1021 2.85695   1
   5   3   0 37.3117 2.38010   7
  -5   3   0 37.1631 4.04659   6
  -5   3   0 40.3178 3.54601   1
   5   3   1 63.1792 3.64341   7
  -5   3  -1 71.2305 5.19414   6
  -5   3  -1 64.3823 4.56685   1
   5   3   1 67.1269 3.78969   1
   5   3   2 62.5155 3.87917   7
   5   3   2 59.0588 2.55254   6
  -5   3  -2 67.0047 4.80142   6
  -5   3  -2 53.5467 4.25311   1
   5   3   2 62.0118 3.51397   1
   5   3   3 56.7600 4.01269   7
  -5   3  -3 50.8635 4.17854   6
   5   3   3 58.1636 2.70303   6
   5   3   3 55.2367 4.79512   3
  -5   3  -3 53.2322 4.35363   1
   5   3   3 61.2352 3.52158   1
  -5   3  -4 50.8980 4.11747   6
   5   3   4 60.7110 5.20802   3
   5   3   4 54.8384 2.91036   6
   5   3   4 60.2712 3.58174   1
  -5   3  -4 58.8170 4.65381   1
  -5   3  -4 64.4244 4.91430   5
   5   3   5 123.097 5.62149   1
   5   3   5 128.851 7.97627   3
  -5   3  -5 125.856 7.24662   5
   5   3   6 224.605 11.4504   3
  -5   3  -6 238.976 10.8192   5
   5   3   7 90.7281 7.19869   3
  -5   3  -7 68.9735 5.65154   5
   5   3   8 66.5589 6.42063   3
  -5   3  -8 58.0966 6.75094   4
   5   3   9 151.079 9.88680   3
  -5   3  -9 157.679 10.8411   4
   5   3  10 85.9003 7.72751   3
  -5   3 -10 60.5283 6.89639   4
   5   3  11 7.10194 4.31067   3
  -5   3 -11 7.20764 4.21871   4
  -5   3 -12 62.0389 7.07398   4
  -5   3 -13 11.0917 4.33158   4
   5   4 -15 1.35038 3.09830   2
   5   4 -15-0.41995 2.89057   1
   5   4 -14-0.84166 2.69057   2
   5   4 -14-0.41134 2.80350   1
   5   4 -13 51.7076 5.25646   2
   5   4 -13 55.9339 5.43623   1
   5   4 -12 2.54244 2.69011   2
   5   4 -12 3.46252 2.57027   1
   5   4 -11 1.10687 2.13370   1
   5   4 -11-1.34220 2.33220   2
   5   4 -10 26.1781 3.63299   1
   5   4 -10 18.3065 3.02596   3
   5   4 -10 22.8026 3.42946   2
  -5   4  10 18.6808 2.60410   1
   5   4  -9 76.9577 5.31705   2
   5   4  -9 74.1500 5.26987   3
  -5   4   9 90.8777 4.98963   1
   5   4  -9 82.6592 6.00323   1
   5   4  -8 202.535 8.77476   2
   5   4  -8 179.262 8.67617   3
  -5   4   8 188.693 8.00125   1
   5   4  -7 7.53861 2.11665   2
  -5   4   7 3.54991 2.99719   7
   5   4  -7 4.89260 2.33285   3
  -5   4   7 4.87184 1.82012   1
  -5   4   6 75.7971 4.58202   1
  -5   4   6 65.2490 6.23233   7
   5   4  -6 66.7237 4.98720   1
   5   4  -6 68.7366 4.26968   2
   5   4  -6 59.9183 4.58777   3
  -5   4   5 193.739 10.3567   7
   5   4  -5 201.439 8.83454   1
  -5   4   5 188.501 8.26392   1
   5   4  -5 182.489 7.55642   2
  -5   4   4 547.439 20.2766   7
   5   4  -4 533.089 18.0217   1
  -5   4   4 543.175 17.8925   1
   5   4  -4 535.750 16.6811   2
  -5   4   3 63.3968 5.88706   7
   5   4  -3 69.0468 4.47710   1
  -5   4   3 63.7679 4.53584   1
   5   4  -3 65.1196 3.47691   2
  -5   4   2 54.3388 5.27318   7
   5   4  -2 42.2451 3.36166   1
  -5   4   2 40.5077 3.68160   1
   5   4  -2 46.5647 2.61655   2
   5   4  -1 276.485 9.97259   1
  -5   4   1 249.689 10.7127   1
   5   4   0 201.142 7.97139   7
   5   4   0 199.245 7.91042   1
   5   4   0 192.169 7.45384   6
  -5   4   0 212.205 10.6897   6
   5   4   1 89.2390 4.57453   1
   5   4   1 81.0127 4.90254   7
   5   4   1 87.5317 4.38726   6
   5   4   1 90.5968 5.77691   3
  -5   4  -1 101.377 6.91640   6
   5   4   2 224.730 9.40091   7
   5   4   2 223.057 10.1891   3
   5   4   2 208.307 8.15135   6
  -5   4  -2 226.651 10.8912   6
   5   4   2 234.232 8.36415   1
   5   4   3 162.118 7.80961   7
   5   4   3 162.750 8.48880   3
  -5   4  -3 155.899 8.43575   6
   5   4   3 144.193 6.40201   6
   5   4   3 149.608 6.12558   1
   5   4   4 186.316 8.71025   7
   5   4   4 183.355 9.47571   3
  -5   4  -4 187.370 9.13138   6
   5   4   4 179.745 7.39923   6
   5   4   4 167.983 6.76021   1
  -5   4  -4 175.606 8.81000   5
   5   4   5 5.25313 2.44258   7
  -5   4  -5 4.26699 2.08274   6
   5   4   5 6.59778 1.97311   6
   5   4   5 5.55518 1.43723   1
  -5   4  -5 5.96608 2.59028   5
   5   4   5 8.93577 3.02281   3
   5   4   6 76.8583 3.67864   1
   5   4   6 75.6401 6.37053   3
  -5   4  -6 85.2062 5.93496   5
  -5   4  -7 39.6693 4.35893   5
   5   4   7 40.4883 5.06971   3
   5   4   8 51.5719 5.94150   3
  -5   4  -8 54.8254 7.11386   4
   5   4   9 12.2136 4.10196   3
  -5   4  -9 6.50573 4.16660   4
   5   4  10 16.5821 4.35874   3
  -5   4 -10 14.4268 5.03340   4
   5   4  11 6.85316 4.53740   3
  -5   4 -11 7.47736 4.81817   4
   5   5 -14 38.7561 5.01423   2
   5   5 -13 24.3954 4.47218   1
   5   5 -13 16.4932 3.59017   2
   5   5 -12 17.2030 3.49821   2
   5   5 -12 12.8355 3.52111   1
   5   5 -11 109.717 6.98265   2
   5   5 -11 98.9078 7.33392   1
   5   5 -10 105.180 6.61739   2
   5   5  -9 33.7829 3.78566   2
   5   5  -8 64.3712 4.77321   2
   5   5  -8 72.7233 5.72715   1
   5   5  -7 163.400 7.59730   2
   5   5  -7 157.524 7.45949   3
   5   5  -7 169.931 8.78248   1
   5   5  -6 123.789 6.09465   2
   5   5  -6 117.565 6.30758   3
   5   5  -6 129.391 7.39312   1
   5   5  -5 4.24618 2.30253   1
   5   5  -5 1.44104 1.41164   2
   5   5  -4 38.2349 3.79696   1
   5   5  -4 36.2494 2.73231   2
   5   5  -3 183.591 8.50123   1
   5   5  -3 189.577 6.92040   2
   5   5  -2 146.103 7.02358   3
   5   5  -2 155.256 7.21516   1
   5   5  -2 146.167 5.31186   2
   5   5  -1 14.3834 2.28493   1
   5   5  -1 16.5588 2.42965   6
  -5   5   1 10.4912 3.80805   6
   5   5  -1 11.2051 2.32763   3
   5   5   0 99.7578 5.81911   7
   5   5   0 97.8895 5.16017   1
   5   5   0 95.4687 5.33719   6
   5   5   0 90.2263 5.60321   3
  -5   5   0 110.011 8.11077   6
   5   5   1 109.835 6.34273   7
   5   5   1 121.979 5.67975   1
   5   5   1 114.954 6.67015   3
   5   5   1 108.067 5.80837   6
  -5   5  -1 115.853 8.33013   6
   5   5   2 122.379 5.61688   1
   5   5   2 137.040 7.42221   7
   5   5   2 134.499 7.39371   3
   5   5   2 120.840 6.41337   6
  -5   5  -2 129.269 8.64053   6
   5   5   3-0.66156 2.57043   7
  -5   5  -3 0.42943 2.51771   6
   5   5   3 1.21317 1.95667   6
   5   5   3 0.90553 1.21714   1
   5   5   3 0.33776 2.20802   3
  -5   5  -4 23.6749 3.91683   6
   5   5   4 13.8475 2.73923   6
   5   5   4 19.2841 3.60694   3
  -5   5  -4 25.2723 3.46267   5
   5   5   4 17.3506 1.91946   1
   5   5   5 52.9606 5.26402   3
  -5   5  -5 55.0061 5.21266   6
   5   5   5 47.7010 4.28260   6
   5   5   5 48.5998 2.85614   1
  -5   5  -5 44.4406 4.42293   5
   5   5   6 24.3932 3.60127   6
   5   5   6 30.6284 4.59652   3
  -5   5  -6 31.7082 3.77731   5
   5   5   7 23.4168 4.57171   3
  -5   5  -7 20.7166 3.40970   5
   5   5   8 42.8500 5.65782   3
  -5   5  -8 45.6661 6.90153   4
   5   5   9 3.29694 3.43348   3
  -5   5  -9 3.60660 4.50651   4
   5   5  10 11.3836 4.62934   3
   5   6 -13 68.5538 6.37351   2
   5   6 -12 85.3687 6.59564   2
   5   6 -11 38.3964 4.55331   2
   5   6 -10 2.95792 2.41503   2
   5   6 -10 6.58552 3.22459   1
   5   6  -9 186.506 9.08418   2
   5   6  -9 194.712 10.5558   1
   5   6  -8 55.3738 4.49250   2
   5   6  -8 46.9045 5.05144   1
   5   6  -7 28.5201 3.28422   2
   5   6  -7 29.2406 4.16446   1
   5   6  -6 7.58413 2.11380   2
   5   6  -6 2.16887 2.44273   1
   5   6  -5 58.6808 5.17113   1
   5   6  -5 62.7120 3.97132   2
   5   6  -4 6.52125 1.64404   2
   5   6  -4 7.52495 1.89497   3
   5   6  -4 6.41446 2.62911   1
   5   6  -3 31.0401 2.99239   3
   5   6  -3 33.5177 3.71848   1
   5   6  -3 30.6344 2.30884   2
   5   6  -2 32.4560 3.20519   3
   5   6  -2 37.9344 3.87858   6
  -5   6   2 26.0991 5.24573   6
   5   6  -2 39.3170 3.78338   1
   5   6  -1 42.4899 3.69573   3
   5   6  -1 39.5508 3.81914   6
   5   6  -1 43.4015 3.70946   1
  -5   6   1 52.8607 6.64803   6
   5   6   0 51.1435 4.30057   3
   5   6   0 56.9338 3.94817   1
   5   6   0 59.8588 4.62512   6
  -5   6   0 56.5860 6.50327   6
   5   6   1 7.98511 2.38250   6
  -5   6  -1 2.73989 3.58353   6
   5   6   1 3.46715 2.02979   3
   5   6   1 2.41643 1.54370   1
   5   6   2 43.2878 3.23326   1
   5   6   2 43.0972 4.26387   3
   5   6   2 43.5524 4.19917   6
  -5   6  -2 41.1445 5.84429   6
   5   6   3 72.6771 5.59521   3
  -5   6  -3 75.3440 6.94203   6
   5   6   3 50.6706 4.73848   6
   5   6   3 66.1686 3.82806   1
   5   6   4 67.4681 5.80910   3
  -5   6  -4 61.6366 6.26580   6
   5   6   4 57.5830 5.05287   6
  -5   6  -4 69.0986 5.17578   5
  -5   6  -5 6.87437 3.42333   6
   5   6   5 2.04919 2.73901   3
  -5   6  -5 4.60788 2.27696   5
   5   6   6 69.1721 6.51757   3
  -5   6  -6 62.4081 6.08959   6
   5   6   7 43.6124 5.87673   3
   5   6   8 34.6507 5.65433   3
   5   6   9 0.56821 3.79435   3
   5   7  -8 31.1462 4.78706   1
   5   7  -7 24.2690 4.13211   1
   5   7  -6 152.651 9.08103   1
   5   7  -5 17.1977 3.67407   1
   5   7  -4 17.1307 3.48584   1
  -5   7   3 67.3109 8.07681   6
   5   7  -3 87.3076 6.08429   1
   5   7  -2 63.1624 5.30427   6
  -5   7   2 58.8845 7.61162   6
   5   7  -2 64.2882 5.04917   1
   5   7  -1 24.4667 3.27353   1
   5   7  -1 21.4476 3.53220   6
  -5   7   1 25.3043 5.59190   6
   5   7   0 70.3862 5.69032   6
   5   7   0 77.2782 4.94406   1
  -5   7   0 79.4591 8.35245   6
   5   7   1 26.2141 3.81938   6
  -5   7  -1 23.8054 5.37383   6
  -5   7  -2 16.3514 4.93693   6
  -5   7  -3 1.14036 3.84705   6
  -5   7  -4 76.7742 7.51962   6
  -5   7  -5 17.2754 4.56346   6
  -5   7  -6 37.9025 5.71518   6
   5   8  -5 1.25395 3.04175   1
   5   8  -4 12.9409 3.58172   1
   5   8  -3 2.86481 2.90926   1
   6  -7   2 40.6529 7.01607   7
   6  -6   1 53.2331 7.21917   7
   6  -6   2 21.8935 5.60384   7
   6  -6   3 4.08662 4.25577   7
   6  -6   4 86.6538 8.96677   7
   6  -6   5 15.6354 5.71053   7
   6  -6   6 12.4001 5.29188   7
   6  -5   0 16.0616 4.32419   7
   6  -5   1 2.77124 3.46280   7
   6  -5   2 188.472 11.7426   7
   6  -5   3 43.4040 6.31049   7
   6  -5   4 9.52233 4.70640   7
   6  -5   5 5.93859 4.07522   7
   6  -5   6 92.8200 9.14393   7
   6  -5   7 34.2229 6.93422   7
   6  -5   8 15.2985 5.91164   7
   6  -4 -11 127.117 8.02034   1
   6  -4 -10 92.8213 6.71314   1
   6  -4  -9 0.38955 2.83467   1
   6  -4  -8 97.6255 6.97998   1
   6  -4  -7 76.3600 6.28721   1
   6  -4  -6 36.3130 4.67053   1
  -6  -4   6 33.7001 2.93971   5
   6  -4  -5 71.7033 6.06072   1
  -6  -4   5 75.9785 4.59637   5
   6  -4  -4 343.172 15.0576   3
  -6  -4   4 346.605 12.5410   5
   6  -4  -3 12.8153 3.34074   3
  -6  -4   3 14.7753 2.50877   5
   6  -4   0 165.971 9.79061   7
   6  -4   1 50.1728 5.67030   7
   6  -4   2 63.6305 6.49417   7
   6  -4   3 71.3506 7.03562   7
   6  -4   4 47.5232 6.06174   7
   6  -4   5 66.4337 7.23224   7
   6  -4   6 14.6210 4.85438   7
   6  -4   6 12.6319 3.33642   3
   6  -4   7 50.5385 7.09671   7
   6  -4   7 66.0219 5.71919   3
   6  -4   8 79.5240 8.62302   7
   6  -4   9 26.1010 6.08163   7
   6  -4  10 16.2912 5.49876   7
   6  -3 -13 174.747 9.14378   1
   6  -3 -12 3.41926 2.33206   1
   6  -3 -11 2.37536 2.42638   1
   6  -3 -10 218.412 10.3942   1
  -6  -3   9 2.47049 2.61426   6
   6  -3  -9 4.05615 2.52501   1
   6  -3  -8 64.9423 5.36369   1
  -6  -3   8 61.3528 5.18858   6
  -6  -3   8 63.2975 5.42179   4
   6  -3  -7 64.3849 5.25225   1
  -6  -3   7 73.8613 5.35497   6
  -6  -3   7 65.5028 5.17408   4
   6  -3  -6 89.7693 6.44410   1
  -6  -3   6 113.795 6.46059   6
  -6  -3   6 106.348 6.18744   4
   6  -3  -5 47.5535 5.11185   3
   6  -3  -5 44.7110 4.57012   1
  -6  -3   5 44.9164 3.70846   5
  -6  -3   5 42.3534 3.74305   4
   6  -3  -4 232.621 10.9846   1
  -6  -3   4 224.247 9.39327   5
   6  -3  -3 28.2938 3.84611   1
  -6  -3   3 31.3648 3.22592   5
   6  -3  -2 193.868 9.82056   1
  -6  -3   2 178.278 8.34453   5
  -6  -3   2 182.034 7.13391   4
   6  -3  -1 213.775 10.4370   7
  -6  -3   1 225.479 9.74946   5
  -6  -3   1 222.055 7.73749   4
   6  -3   0 268.349 11.9896   7
  -6  -3   0 287.892 11.4715   5
  -6  -3   0 258.039 8.17306   4
   6  -3   1 6.22312 2.83732   7
  -6  -3  -1 8.82589 2.58565   5
   6  -3   2 167.999 9.57272   7
   6  -3   3 142.184 8.98678   7
   6  -3   4 131.301 8.93962   7
   6  -3   5 60.3963 6.24492   7
   6  -3   6 153.524 10.0714   7
   6  -3   6 150.478 8.69507   3
   6  -3   7 83.3874 7.69922   7
   6  -3   7 79.4342 6.37223   3
   6  -3   8 8.78229 4.16421   7
   6  -3   8 19.7824 3.97229   3
   6  -3   9 13.7874 5.06966   7
   6  -3   9 16.2957 3.86493   3
   6  -3  10 52.1869 7.20561   7
   6  -3  10 46.1377 5.73586   3
   6  -3  11 6.38379 5.02662   7
   6  -2 -14 7.95605 2.68210   1
   6  -2 -13 13.7021 2.91660   1
   6  -2 -12 75.8377 5.49623   1
   6  -2 -11 86.6858 5.72011   1
  -6  -2  10 94.8986 6.23844   6
   6  -2 -10 93.0818 5.94040   1
  -6  -2   9 46.3040 4.28722   6
   6  -2  -9 55.1115 4.58411   1
  -6  -2   9 51.5411 4.85570   4
  -6  -2   8 270.884 10.9749   6
   6  -2  -8 281.290 11.5116   1
  -6  -2   8 274.952 11.6551   4
  -6  -2   7 120.563 4.69347   7
  -6  -2   7 124.715 6.32852   6
   6  -2  -7 120.188 6.82163   1
  -6  -2   7 121.587 6.64225   4
   6  -2  -6 59.2571 5.55680   3
   6  -2  -6 54.3529 4.54556   1
  -6  -2   6 52.0865 4.00259   4
   6  -2  -5 49.2534 4.39713   1
  -6  -2   5 43.5777 3.47382   4
  -6  -2   4 574.664 18.2566   6
   6  -2  -4 605.860 20.5202   1
  -6  -2   4 595.786 18.5908   4
   6  -2  -3 52.7566 4.69511   1
   6  -2  -2 720.436 24.2619   1
  -6  -2   2 723.023 23.3653   5
  -6  -2   1 104.315 5.70153   1
   6  -2  -1 106.822 6.07140   7
   6  -2  -1 112.071 6.92744   1
  -6  -2   1 109.883 6.26857   5
  -6  -2   1 100.374 4.57245   4
  -6  -2   0 188.135 7.99419   1
   6  -2   0 183.186 8.58795   7
  -6  -2   0 179.793 8.77009   5
   6  -2   1 192.533 9.16677   7
  -6  -2  -1 185.961 9.17594   5
  -6  -2  -1 191.769 8.02614   1
  -6  -2  -2 100.769 3.96027   2
   6  -2   2 106.853 6.75683   7
  -6  -2  -2 116.974 7.00759   5
  -6  -2  -2 117.419 5.67360   1
  -6  -2  -3 9.58501 1.12997   2
  -6  -2  -3 10.4480 1.93731   1
   6  -2   3 12.4844 3.19872   7
  -6  -2  -3 12.1556 2.89461   5
  -6  -2  -3 8.99699 1.47706   4
   6  -2   4 59.9695 5.50635   7
  -6  -2  -4 74.0891 4.14132   1
  -6  -2  -4 60.9963 3.07903   4
   6  -2   5 75.9970 6.45649   7
   6  -2   6 18.5768 3.93232   7
   6  -2   6 15.6702 3.58971   3
   6  -2   7 6.75358 3.39001   7
   6  -2   7 7.39029 2.99342   3
   6  -2   8 69.3824 6.29689   3
   6  -2   9 105.799 7.98511   3
   6  -2  10 4.91024 3.57539   3
   6  -2  11 9.78623 4.16136   3
   6  -2  12 92.8739 8.27352   3
   6  -1 -16 26.6411 5.03801   2
   6  -1 -15 9.98807 3.87249   2
   6  -1 -15 14.0549 3.08725   1
   6  -1 -14 76.6062 7.04154   2
   6  -1 -14 74.0392 5.54366   1
   6  -1 -13 98.3491 7.65199   2
   6  -1 -13 92.3679 5.95724   1
   6  -1 -12 247.735 12.5774   2
   6  -1 -12 265.386 10.9969   1
   6  -1 -11 80.1734 5.31882   1
   6  -1 -10 6.14858 2.09941   1
  -6  -1   9 164.608 8.38731   4
   6  -1  -9 157.289 7.69602   1
  -6  -1   8 170.898 8.25599   4
   6  -1  -8 162.568 7.81719   1
   6  -1  -7 54.7217 5.24383   3
  -6  -1   7 59.8952 4.43400   4
   6  -1  -7 56.6747 4.31076   1
   6  -1  -6 112.576 6.25870   1
  -6  -1   6 112.240 5.96616   4
  -6  -1   5 624.292 21.4300   1
   6  -1  -5 697.138 22.0370   1
  -6  -1   5 698.079 21.2007   4
  -6  -1   4 99.4007 4.35226   6
   6  -1  -4 102.969 5.89431   1
  -6  -1   4 102.356 5.63265   1
  -6  -1   3 334.022 11.5047   2
  -6  -1   3 334.292 10.4004   6
   6  -1  -3 359.662 13.2204   1
  -6  -1   3 341.954 12.3176   1
   6  -1  -2 680.256 23.0424   1
  -6  -1   2 725.743 22.1204   1
  -6  -1   1 137.375 6.36290   1
   6  -1   0 32.3941 2.86195   7
  -6  -1   0 28.5491 2.69512   1
  -6  -1   0 32.1461 3.57457   5
  -6  -1  -1 2.53238 1.46990   1
   6  -1   1 1.94925 1.72214   7
   6  -1   1 2.24176 1.90344   1
  -6  -1  -1 0.92838 1.63447   5
   6  -1   2 101.776 5.87906   7
   6  -1   2 95.8311 6.33469   1
  -6  -1  -2 106.408 5.15193   1
  -6  -1  -2 97.6202 6.39006   5
   6  -1   3 54.4135 4.44897   7
  -6  -1  -3 57.6306 3.63654   1
  -6  -1  -3 58.9969 5.00148   5
   6  -1   4 52.6639 4.76542   7
  -6  -1  -4 73.0814 4.08156   1
  -6  -1  -4 59.1220 5.31352   5
  -6  -1  -5 36.1283 2.95955   1
  -6  -1  -5 32.2476 4.19059   5
  -6  -1  -5 41.0927 3.62800   4
   6  -1   6 277.467 12.8192   3
  -6  -1  -6 272.079 10.6383   4
   6  -1   7 34.9050 4.80111   3
   6  -1   8 34.6603 4.71879   3
   6  -1   9 26.6075 4.56356   3
   6  -1  10 101.131 8.12411   3
   6  -1  11 24.6340 5.07186   3
   6  -1  12 15.3542 4.82634   3
   6   0 -16 17.3424 4.23004   2
   6   0 -16 16.2919 3.34348   1
   6   0 -15 128.606 9.19384   2
   6   0 -15 156.571 8.32654   1
   6   0 -14 119.531 7.11511   1
   6   0 -13 24.5219 3.44160   1
   6   0 -12 5.89898 2.31466   1
   6   0 -11 255.909 12.5910   2
   6   0 -11 292.968 11.6443   1
   6   0 -10 75.7860 6.18249   2
   6   0 -10 89.2711 5.55611   1
   6   0  -9 18.3445 3.42310   2
   6   0  -9 22.9529 3.02445   1
   6   0  -8 69.7232 6.01297   3
  -6   0   8 53.1997 4.40165   1
  -6   0   8 58.2126 4.53700   4
   6   0  -8 64.5050 4.48657   1
   6   0  -7 4.67647 1.77986   1
  -6   0   7 5.07365 1.61379   7
   6   0  -6 1.67742 1.60038   1
  -6   0   6 0.65417 1.41010   2
  -6   0   6 0.77402 1.26214   7
  -6   0   5 176.747 7.57581   2
  -6   0   5 168.496 5.88107   7
  -6   0   5 184.551 7.79913   1
   6   0  -5 169.126 7.81142   1
  -6   0   4 44.7095 3.44503   1
   6   0  -4 42.5335 3.64104   1
  -6   0   4 47.2242 3.49049   2
  -6   0   3 151.519 6.80580   1
  -6   0   3 163.259 6.99069   2
  -6   0   2 101.631 5.10442   1
  -6   0   2 93.7136 5.02728   2
  -6   0   1 171.105 7.26792   1
   6   0  -1 173.096 8.08683   1
  -6   0   1 169.824 7.24981   2
  -6   0   0 788.987 24.0099   1
   6   0   0 800.125 22.2860   7
   6   0   0 814.742 25.3999   1
  -6   0   0 777.620 24.1949   2
  -6   0  -1 497.590 16.2925   1
   6   0   1 509.966 15.4655   7
   6   0   1 512.821 17.6491   1
  -6   0  -1 476.934 17.9995   5
  -6   0  -2 286.435 10.5208   1
   6   0   2 269.053 10.0956   7
   6   0   2 275.697 11.5739   1
  -6   0  -2 311.807 12.3820   5
  -6   0  -3 146.507 6.42957   1
   6   0   3 128.922 6.47434   7
   6   0   3 123.698 7.13225   1
  -6   0  -3 126.112 7.60278   5
  -6   0  -4 554.218 17.5643   1
   6   0   4 523.318 18.9403   1
  -6   0  -4 542.109 19.9457   5
  -6   0  -5 133.176 6.36912   1
  -6   0  -5 120.460 7.84415   5
  -6   0  -6 2.30979 1.85568   1
   6   0   6 2.53188 2.78884   3
  -6   0  -6 1.32810 2.35224   4
   6   0   7 28.9363 4.37738   3
  -6   0  -7 28.7319 3.83355   4
   6   0   8 160.969 9.81986   3
  -6   0  -8 141.251 8.26264   4
   6   0   9 62.6101 6.31149   3
   6   0  10 6.91905 3.73897   3
   6   0  11-0.55853 3.61126   3
   6   0  12 20.7540 4.97919   3
   6   1 -17 21.3845 3.65065   1
   6   1 -16 25.0183 3.79390   1
   6   1 -15 13.3245 3.80765   2
   6   1 -15 19.6335 3.43764   1
   6   1 -14 87.3112 6.12482   1
   6   1 -14 90.4312 7.11345   2
   6   1 -13 92.1460 6.16972   1
   6   1 -13 99.9102 7.30369   2
   6   1 -12 271.618 11.4104   1
   6   1 -12 258.069 12.3391   2
   6   1 -11 94.0095 5.89256   1
   6   1 -11 81.2868 6.20226   2
   6   1 -10 5.53295 2.56577   2
   6   1 -10 7.19540 2.18993   1
   6   1  -9 161.413 9.50868   3
  -6   1   9 153.732 7.75859   1
   6   1  -9 167.546 7.94845   1
   6   1  -9 157.281 8.40473   2
   6   1  -8 168.780 9.49681   3
   6   1  -8 164.743 7.88921   1
  -6   1   8 162.535 7.96597   7
   6   1  -8 175.964 8.73083   2
  -6   1   8 163.795 7.85769   1
  -6   1   7 55.0632 4.23836   2
   6   1  -7 57.9005 4.26009   1
  -6   1   7 59.0705 4.21261   7
  -6   1   7 57.1127 4.12294   1
   6   1  -7 58.6750 4.67409   2
   6   1  -6 120.638 6.37974   1
  -6   1   6 119.555 6.02695   7
  -6   1   6 117.386 5.99391   1
  -6   1   6 121.844 6.34495   2
  -6   1   5 716.229 21.3118   7
  -6   1   5 654.196 21.8704   2
   6   1  -5 697.017 22.1306   1
  -6   1   4 117.109 5.33442   7
  -6   1   4 107.236 5.51335   1
  -6   1   4 121.202 6.25697   2
  -6   1   3 317.469 11.6298   1
  -6   1   3 333.961 12.1977   2
  -6   1   2 708.919 21.6797   1
   6   1  -2 679.093 21.9035   1
  -6   1   2 698.806 22.2992   2
  -6   1   1 147.169 6.68422   1
  -6   1   1 139.883 5.93966   6
   6   1  -1 155.685 7.11692   1
  -6   1   1 143.245 7.22596   2
  -6   1   0 34.7243 3.10598   1
  -6   1   0 34.0349 2.34980   6
   6   1   0 38.1695 3.41757   1
   6   1   1 2.58239 0.77687   7
  -6   1  -1 1.51332 1.69379   1
  -6   1  -1 2.15823 0.87464   6
   6   1   1 1.43170 1.57777   1
   6   1   2 102.295 5.76750   1
  -6   1  -2 94.2128 5.31509   1
   6   1   3 53.0837 4.21397   1
  -6   1  -3 48.7634 3.82146   1
   6   1   4 63.0859 4.71860   1
  -6   1  -4 62.0127 4.32454   1
   6   1   5 30.9898 3.52050   1
  -6   1  -5 38.4501 4.41953   5
   6   1   5 36.3378 4.62602   3
  -6   1  -5 34.8872 3.38815   1
   6   1   6 274.375 13.1957   3
  -6   1  -6 269.749 12.7585   5
  -6   1  -6 284.391 10.9874   1
  -6   1  -7 32.1533 4.33605   5
   6   1   7 41.2003 5.27132   3
  -6   1  -7 26.0893 4.28669   4
   6   1   8 32.6709 4.95369   3
  -6   1  -8 28.6853 4.66963   4
   6   1   9 25.6802 4.60496   3
  -6   1  -9 30.7478 4.86935   4
   6   1  10 105.333 8.61370   3
  -6   1 -10 92.7587 7.29213   4
   6   1  11 36.2873 5.66433   3
   6   2 -16 16.7824 3.50857   1
   6   2 -15 96.7373 6.65774   1
   6   2 -15 105.337 7.93116   2
   6   2 -14 7.56267 3.35713   2
   6   2 -14 10.1265 2.91948   1
   6   2 -13 19.5608 3.98353   2
   6   2 -13 19.5025 3.28057   1
   6   2 -12 84.9762 5.87292   1
   6   2 -12 88.6402 6.60201   2
   6   2 -11 87.7457 5.89126   1
   6   2 -11 95.9473 6.68748   2
  -6   2  10 105.805 7.32970   7
   6   2 -10 94.8605 5.96473   1
   6   2 -10 91.7807 6.38762   2
  -6   2   9 55.4955 5.13643   7
   6   2  -9 57.6165 4.41627   1
   6   2  -9 46.7386 5.06096   3
   6   2  -9 60.1730 4.90200   2
   6   2  -8 279.567 13.0155   3
  -6   2   8 302.727 12.5216   7
   6   2  -8 315.112 11.9482   1
  -6   2   8 280.372 11.2312   1
   6   2  -8 298.390 12.0274   2
   6   2  -7 127.691 6.66708   1
  -6   2   7 120.717 7.12943   7
  -6   2   7 119.420 6.12141   1
   6   2  -7 120.042 6.56536   2
  -6   2   6 47.6581 4.34062   7
  -6   2   6 50.7741 3.77229   1
   6   2  -6 49.1365 4.09133   2
  -6   2   6 55.6391 4.37184   2
  -6   2   5 48.1837 4.27659   7
  -6   2   5 45.2967 3.58059   1
   6   2  -5 40.5060 3.55343   2
  -6   2   5 46.9254 4.09972   2
   6   2  -4 615.100 19.5083   1
  -6   2   4 607.045 19.7908   7
  -6   2   4 564.966 19.8829   2
   6   2  -3 53.0461 3.98431   1
  -6   2   3 55.2440 4.54324   2
  -6   2   2 690.074 23.5312   2
   6   2  -2 766.883 22.7856   1
  -6   2   2 707.801 22.7690   1
   6   2  -1 101.913 5.39374   1
  -6   2   1 96.0501 5.49727   1
  -6   2   0 195.546 8.17701   6
   6   2   0 183.152 7.93964   1
  -6   2   0 191.310 8.35507   1
  -6   2  -1 191.724 7.81227   6
   6   2   1 182.362 7.92555   1
  -6   2  -1 198.238 8.50689   1
   6   2   2 111.099 4.54289   7
  -6   2  -2 106.113 5.12637   6
   6   2   2 106.970 5.64664   1
  -6   2  -2 114.611 6.15416   1
  -6   2  -3 9.12070 2.32455   1
   6   2   3 8.72595 2.06147   1
  -6   2  -3 4.14998 2.21936   5
   6   2   4 66.0606 4.60715   1
  -6   2  -4 67.4048 5.44409   5
   6   2   5 65.6224 4.69344   1
  -6   2  -5 79.5806 6.09530   5
  -6   2  -6 17.8050 3.35699   5
  -6   2  -7 5.50196 2.91669   5
  -6   2  -8 72.0690 7.06474   4
   6   2   9 108.460 8.94154   3
  -6   2  -9 101.987 8.46323   4
   6   2  10 0.58442 3.60696   3
  -6   2 -10 2.19045 3.65694   4
   6   2  11 4.33645 3.91724   3
  -6   2 -11 4.86646 3.68716   4
   6   3 -15 21.6310 3.85521   1
   6   3 -15 17.2766 4.08262   2
   6   3 -14 19.3373 3.65674   1
   6   3 -14 19.9928 3.98513   2
   6   3 -13 175.850 9.26720   1
   6   3 -13 178.970 9.85828   2
   6   3 -12 3.40020 2.60149   2
   6   3 -12 2.38123 2.17610   1
   6   3 -11 2.11588 2.28247   2
   6   3 -11 6.20732 2.46157   1
   6   3 -10 201.548 9.72773   1
   6   3 -10 208.216 9.98008   2
   6   3  -9 2.13606 2.01697   2
   6   3  -9 0.89742 1.80126   1
  -6   3   9 3.41852 3.08249   7
   6   3  -9 2.99670 2.86611   3
   6   3  -8 57.8068 5.34905   3
  -6   3   8 53.3814 5.53162   7
   6   3  -8 48.7508 4.21835   1
   6   3  -8 67.3762 4.79328   2
  -6   3   7 87.2147 6.47767   7
   6   3  -7 59.4464 4.57380   2
  -6   3   6 109.499 5.90432   1
  -6   3   6 103.861 7.02808   7
   6   3  -6 96.6606 5.48621   2
  -6   3   5 44.7660 3.79539   1
   6   3  -5 51.0792 3.97418   1
  -6   3   5 37.9221 4.40826   7
   6   3  -5 41.9549 3.45644   2
  -6   3   4 249.072 10.0609   1
  -6   3   4 242.502 11.0177   7
   6   3  -4 237.346 9.86277   1
  -6   3   3 33.4154 3.85983   2
   6   3  -3 33.7271 3.22347   1
  -6   3   3 30.8646 3.87923   7
  -6   3   3 33.2976 3.50282   1
   6   3  -2 186.877 8.07089   1
  -6   3   1 209.612 10.2869   6
   6   3  -1 231.688 9.16628   1
  -6   3   0 276.235 11.6191   6
   6   3   0 268.397 10.2028   1
   6   3   1 9.01856 1.88847   1
   6   3   1 5.93918 1.17934   7
  -6   3  -1 6.58064 2.53363   6
   6   3   2 168.264 6.49839   7
  -6   3  -2 168.373 7.93439   6
   6   3   2 151.674 6.94967   1
   6   3   3 132.803 6.11317   7
  -6   3  -3 139.023 6.82566   6
   6   3   3 149.154 8.57487   3
   6   3   3 124.758 6.15740   1
  -6   3  -3 130.311 7.68639   5
   6   3   4 150.837 9.03280   3
   6   3   4 149.614 6.92746   1
  -6   3  -4 145.096 8.33127   5
   6   3   5 52.6483 3.92052   1
   6   3   5 67.2705 6.10621   3
  -6   3  -5 51.1729 5.08687   5
   6   3   6 167.759 10.1015   3
  -6   3  -6 166.563 9.36835   5
   6   3   7 90.3367 7.56316   3
  -6   3  -7 82.4181 6.60186   5
   6   3   8 23.8216 5.00364   3
  -6   3  -8 15.6085 4.65666   4
   6   3   9 24.0147 5.03239   3
  -6   3  -9 25.8498 5.66496   4
   6   3  10 49.8907 6.73435   3
  -6   3 -10 39.2780 6.28274   4
  -6   3 -11 8.82731 4.90502   4
   6   4 -14 37.0249 4.87450   2
   6   4 -14 47.3081 5.02013   1
   6   4 -13 0.40187 2.89857   2
   6   4 -13 0.39087 2.47045   1
   6   4 -12 19.8065 3.72794   2
   6   4 -12 29.7676 4.06156   1
   6   4 -11 118.065 7.41188   1
   6   4 -11 108.988 7.06426   2
   6   4 -10 104.626 6.78421   1
   6   4 -10 94.8061 6.40266   2
   6   4  -9 2.96265 2.01999   2
   6   4  -9 1.34500 2.44751   3
   6   4  -8 96.9109 6.65280   3
   6   4  -8 106.753 6.15677   2
   6   4  -7 63.8906 5.28314   3
   6   4  -7 75.2872 5.34477   1
   6   4  -7 66.2060 4.68616   2
  -6   4   6 31.5659 5.12412   7
   6   4  -6 34.3580 3.56080   1
   6   4  -6 31.5159 3.13362   2
  -6   4   5 79.6031 6.58765   7
   6   4  -5 70.9460 4.93257   1
   6   4  -5 66.0870 4.23706   2
  -6   4   4 327.105 14.4487   7
   6   4  -4 334.116 12.6509   1
   6   4  -4 336.991 11.6268   2
  -6   4   3 17.9907 3.82629   7
   6   4  -3 18.9895 2.69916   1
   6   4  -2 46.3528 3.77464   1
   6   4  -1 100.644 5.48115   1
  -6   4   1 92.9254 7.11758   6
   6   4   0 176.613 7.66233   1
  -6   4   0 169.626 9.58721   6
   6   4   1 62.9573 3.57300   7
  -6   4  -1 59.3883 5.41699   6
   6   4   1 53.7769 5.01392   3
   6   4   1 56.2052 3.90371   1
   6   4   2 48.9499 3.70660   7
  -6   4  -2 60.5560 5.17952   6
   6   4   2 41.4860 4.59364   3
   6   4   2 49.3131 3.54132   1
  -6   4  -3 81.8378 5.71537   6
   6   4   3 72.9866 6.13335   3
   6   4   3 70.4108 4.28552   1
   6   4   4 50.7709 5.23285   3
  -6   4  -4 45.7649 4.32617   6
   6   4   4 50.3677 3.59595   1
  -6   4  -4 54.3478 5.08239   5
   6   4   5 83.3000 6.79975   3
   6   4   5 72.3208 4.32275   1
  -6   4  -5 77.9366 6.20953   5
  -6   4  -6 9.44708 3.16328   5
   6   4   6 11.9163 3.82594   3
  -6   4  -7 59.0378 5.60561   5
   6   4   7 44.6711 5.80462   3
   6   4   8 93.3122 8.07752   3
  -6   4  -8 87.9391 8.92230   4
   6   4   9 41.4490 5.86105   3
  -6   4  -9 38.8563 6.53474   4
  -6   4 -10 23.0222 5.77649   4
   6   5 -13 50.8247 5.56306   2
   6   5 -12 48.3184 5.26711   1
   6   5 -12 55.3703 5.34016   2
   6   5 -11 21.5223 3.79569   2
   6   5 -11 20.2576 3.96235   1
   6   5 -10 16.2086 3.16850   2
   6   5  -9 32.4098 3.63277   2
   6   5  -9 31.3545 4.18611   1
   6   5  -8 24.0211 3.10664   2
   6   5  -8 27.8774 3.67690   1
   6   5  -7 16.7312 2.64369   2
   6   5  -7 15.9599 3.21741   1
   6   5  -6 25.2862 2.91095   2
   6   5  -6 31.8766 3.77083   1
   6   5  -5 95.5964 6.05747   1
   6   5  -5 86.7327 4.81095   2
   6   5  -4 65.8494 4.85274   1
   6   5  -4 57.2242 3.60325   2
   6   5  -3 19.3336 2.88242   1
   6   5  -2 107.562 5.98439   1
  -6   5   2 92.8956 7.99072   6
   6   5  -1 117.316 6.20483   1
   6   5  -1 108.656 6.50852   3
  -6   5   1 98.6731 7.99742   6
  -6   5   0 14.4673 4.11227   6
   6   5   0 20.1608 2.57168   1
   6   5   0 23.4910 3.26601   3
   6   5   1 6.19789 1.91540   1
  -6   5  -1 6.01704 3.57163   6
   6   5   1 3.39067 2.63850   3
   6   5   2 178.681 9.47983   3
  -6   5  -2 169.614 9.97915   6
   6   5   2 181.700 7.59271   1
  -6   5  -3 54.3518 5.40012   6
   6   5   3 40.9866 4.64006   3
   6   5   3 43.9684 3.27778   1
  -6   5  -4 15.8323 3.52894   6
   6   5   4 14.9938 3.80353   3
  -6   5  -4 10.7623 3.09718   5
  -6   5  -5 3.67823 2.79444   6
   6   5   5 8.09756 3.52487   3
  -6   5  -5 4.13660 2.73947   5
   6   5   6 90.7084 7.39463   3
  -6   5  -6 92.9380 6.72913   5
   6   5   7 38.8931 5.64419   3
  -6   5  -7 28.5418 4.37147   5
   6   5   8 17.5941 4.67395   3
  -6   5  -8 18.7926 6.08004   4
   6   6 -11 19.7529 3.61766   2
   6   6 -10 28.0590 3.83532   2
   6   6  -9 57.5939 5.72069   1
   6   6  -8 12.6396 3.48406   1
   6   6  -7 94.7672 6.76021   1
   6   6  -6 45.8422 4.67187   1
   6   6  -5 50.9524 4.79096   1
   6   6  -4 42.7975 4.24825   1
   6   6  -3 155.228 7.62633   3
   6   6  -3 164.717 8.19427   1
  -6   6   3 164.352 11.4018   6
   6   6  -2 74.9403 5.11082   1
   6   6  -2 70.2870 5.04729   3
  -6   6   2 82.7726 8.08372   6
   6   6  -1 46.2950 3.99747   1
   6   6  -1 37.0834 4.03694   3
  -6   6   1 39.8994 5.91850   6
   6   6   0 89.3392 5.37397   1
   6   6   0 88.7388 5.97584   3
  -6   6   0 92.1948 8.22933   6
   6   6   1 62.5508 4.24507   1
   6   6   1 46.7749 4.60684   3
  -6   6  -1 54.1693 6.49217   6
  -6   6  -2 19.2450 4.52825   6
   6   6   2 12.4339 3.21485   3
  -6   6  -3 4.37337 3.47367   6
   6   6   3-1.17173 2.89188   3
  -6   6  -3 3.65170 2.65759   5
   6   6   4 102.444 7.48010   3
  -6   6  -4 93.6418 7.56610   6
  -6   6  -4 101.426 6.92375   5
  -6   6  -5 16.3247 3.97838   6
   6   6   5 11.7816 3.94275   3
  -6   6  -5 9.22919 2.97158   5
   6   6   6 3.86236 3.45250   3
   6   6   7 5.20590 3.68970   3
   6   7  -7 64.7630 6.06380   1
   6   7  -6 61.1784 5.65073   1
   6   7  -5 29.8822 4.25081   1
   6   7  -4 32.5349 4.09743   1
  -6   7   4 28.9368 6.36930   6
   6   7  -3 2.50949 2.41968   1
  -6   7   3 2.88767 4.66814   6
  -6   7   2 37.7696 6.66244   6
   6   7  -2 26.8854 3.45308   1
  -6   7   1 32.3772 6.43149   6
   6   7  -1 22.1126 3.26959   1
  -6   7   0 50.8002 7.02385   6
  -6   7  -1 4.29735 4.50770   6
  -6   7  -2 48.7468 6.55122   6
  -6   7  -3 9.33846 4.17607   6
  -6   7  -4 10.0307 4.29556   6
   7  -6   2 71.6533 8.66142   7
   7  -6   3 14.7639 5.55995   7
   7  -6   4 31.8725 6.63903   7
   7  -5   1 58.2756 6.90685   7
   7  -5   2 12.4361 4.46977   7
   7  -5   3 13.6629 4.91258   7
   7  -5   4 134.317 10.6299   7
   7  -5   5 19.9059 5.79099   7
   7  -5   6 12.8737 5.48182   7
   7  -5   7 18.6055 5.97820   7
   7  -4 -11 116.367 8.15826   1
   7  -4 -10 156.802 9.68779   1
   7  -4  -9 36.4433 4.99767   1
   7  -4  -8 15.3001 3.80223   1
   7  -4  -7 59.3559 5.94969   1
   7  -4  -6 72.6775 6.58102   1
   7  -4  -5 58.6550 5.88902   1
  -7  -4   5 55.4827 4.33159   5
  -7  -4   4 44.5021 3.99163   5
  -7  -4   3 14.3830 2.78301   5
  -7  -4   2 118.208 7.01493   5
   7  -4   0 26.8170 4.61074   7
   7  -4   1 27.8091 4.67804   7
   7  -4   2 125.694 9.00163   7
   7  -4   3 9.28382 4.15164   7
   7  -4   4 4.01956 4.03060   7
   7  -4   5 16.2042 4.75372   7
   7  -4   6 51.4389 6.86571   7
   7  -4   7 22.7673 6.08364   7
   7  -4   8 16.1981 5.61347   7
   7  -4   9 2.20660 4.91198   7
   7  -3 -13 23.1194 3.87770   1
   7  -3 -12 4.02053 2.92755   1
   7  -3 -11 13.9805 3.41977   1
   7  -3 -10 13.4881 3.37368   1
   7  -3  -9 21.5389 3.76956   1
   7  -3  -8 189.193 10.2046   1
   7  -3  -7 122.546 8.04056   1
   7  -3  -6 100.817 7.17633   1
  -7  -3   6 98.2089 5.92635   5
   7  -3  -5 28.0033 4.32493   1
  -7  -3   5 27.7506 3.45198   5
   7  -3  -4 624.309 22.9041   1
  -7  -3   4 615.468 20.8210   5
   7  -3  -3 104.034 7.53307   1
  -7  -3   3 100.269 6.22862   5
   7  -3  -2 54.3807 5.67949   1
  -7  -3   2 52.4109 4.69525   5
  -7  -3   1 303.918 12.7871   5
   7  -3   0 174.195 9.45711   7
  -7  -3   0 175.724 9.23715   5
   7  -3   1 10.9252 3.33405   7
  -7  -3  -1 11.2476 3.03724   5
   7  -3   2 3.00614 2.83876   7
   7  -3   3 164.995 9.89223   7
   7  -3   4 102.109 7.95089   7
   7  -3   5 77.2789 7.39814   7
   7  -3   6 20.4157 4.96055   7
   7  -3   6 20.3415 4.12260   3
   7  -3   7 19.2166 5.40552   7
   7  -3   7 18.3438 4.26762   3
   7  -3   8 23.7843 5.35081   7
   7  -3   8 18.8731 4.57897   3
   7  -3   9 58.5105 7.44785   7
   7  -3   9 53.0090 6.33943   3
   7  -3  10 4.75944 4.77251   7
   7  -2 -14 11.2275 3.31900   1
   7  -2 -13 58.3193 5.28602   1
   7  -2 -12 37.6707 4.38899   1
   7  -2 -11 61.7213 5.41240   1
   7  -2 -10 176.014 9.16286   1
   7  -2  -9 11.7666 2.90504   1
   7  -2  -8 4.54058 2.58853   1
   7  -2  -7 128.092 7.72596   1
  -7  -2   7 127.981 7.09056   4
   7  -2  -6 107.460 7.12344   1
  -7  -2   6 114.230 6.30464   4
   7  -2  -5 32.6021 4.09377   1
  -7  -2   5 35.3945 3.34204   4
   7  -2  -4 14.3425 3.03532   1
  -7  -2   4 19.8783 2.45502   4
   7  -2  -3 78.0534 6.30499   1
  -7  -2   3 84.9461 5.77414   5
  -7  -2   3 73.4244 4.36643   4
  -7  -2   2 115.147 6.57997   1
   7  -2  -2 128.827 8.00524   1
  -7  -2   2 127.544 7.46029   5
  -7  -2   1 27.1349 3.67171   5
  -7  -2   1 24.2319 3.17381   1
  -7  -2   0 3.23383 1.88929   1
   7  -2   0 2.48670 2.14828   7
  -7  -2   0 2.52178 2.22454   5
   7  -2   1 85.3514 6.66600   1
   7  -2   1 79.7424 5.67992   7
  -7  -2  -1 77.6099 6.09914   5
  -7  -2  -1 86.1755 5.25376   1
   7  -2   2 340.946 13.9532   7
  -7  -2  -2 329.767 14.4557   5
  -7  -2  -2 340.467 12.5619   1
   7  -2   3 71.6303 6.04035   7
  -7  -2  -3 80.9606 6.48909   5
  -7  -2  -3 76.2931 4.89365   1
   7  -2   4 70.5450 6.14626   7
   7  -2   5 74.1161 6.61603   7
   7  -2   6 231.746 12.3459   7
   7  -2   6 256.080 12.6695   3
   7  -2   7 112.380 8.66774   7
   7  -2   7 133.348 8.94323   3
   7  -2   8 3.21231 3.61731   7
   7  -2   8 13.1776 4.26303   3
   7  -2   9 29.3746 5.63814   7
   7  -2   9 32.7930 5.44131   3
   7  -2  10 36.3434 6.26939   7
   7  -2  10 35.6778 5.62764   3
   7  -2  11 1.31186 4.19374   7
   7  -1 -15 88.1461 6.50212   1
   7  -1 -14 4.24091 2.68440   1
   7  -1 -13 171.484 9.01605   1
   7  -1 -12 63.0138 5.20391   1
   7  -1 -11 41.3920 4.22449   1
   7  -1 -10 61.7351 5.04117   1
   7  -1  -9 112.686 6.81004   1
   7  -1  -8 242.534 10.7996   1
   7  -1  -7 75.7143 5.48667   1
  -7  -1   7 73.4640 5.12997   4
   7  -1  -6 44.4343 4.23916   1
  -7  -1   6 39.5596 3.60746   4
  -7  -1   5 87.9169 4.30478   6
   7  -1  -5 87.1609 5.96234   1
  -7  -1   4 74.5323 3.59396   6
   7  -1  -4 80.0943 5.83356   1
  -7  -1   3 45.2798 3.35225   2
   7  -1  -3 51.2456 4.62788   1
  -7  -1   3 42.2776 3.81001   1
  -7  -1   2 14.6382 2.47436   1
  -7  -1   2 15.0127 2.06290   2
  -7  -1   1 6.47288 1.66593   2
  -7  -1   1 9.79502 2.66188   5
  -7  -1   1 7.33106 2.17095   1
   7  -1   0 299.069 13.1186   1
  -7  -1   0 294.865 11.2931   1
  -7  -1   0 320.512 13.2649   5
  -7  -1   0 288.431 10.3583   2
   7  -1   1 73.3918 4.63954   7
   7  -1   1 71.1331 5.86713   1
  -7  -1  -1 70.0809 4.49488   1
  -7  -1  -1 79.0913 6.07804   5
  -7  -1  -1 74.1303 4.08066   2
   7  -1   2 5.49018 2.75462   1
   7  -1   2 5.57459 2.43334   7
  -7  -1  -2 4.09152 1.72876   1
  -7  -1  -2 5.20281 2.50312   5
   7  -1   3 149.831 7.86753   7
  -7  -1  -3 147.624 6.92624   1
  -7  -1  -3 150.862 8.95267   5
   7  -1   4 320.286 13.4137   7
  -7  -1  -4 343.835 12.1266   1
  -7  -1  -4 322.279 14.6827   5
   7  -1   5 41.0178 4.57499   7
  -7  -1  -5 34.1959 4.60445   5
   7  -1   6 6.78021 3.26620   7
   7  -1   6 6.11097 3.36433   3
   7  -1   7 12.3248 3.64263   7
   7  -1   7 15.7333 4.22733   3
   7  -1   8 58.2418 6.41798   3
   7  -1   9 44.2646 5.95363   3
   7  -1  10 5.11432 3.95184   3
   7   0 -16 0.73656 2.63254   1
   7   0 -15 9.85993 4.19627   2
   7   0 -15 7.56489 3.05453   1
   7   0 -14 24.9979 4.79831   2
   7   0 -14 33.2864 4.27516   1
   7   0 -13 3.95322 3.05057   2
   7   0 -13 2.03899 2.47397   1
   7   0 -12 92.6669 7.37621   2
   7   0 -12 97.0425 6.47075   1
   7   0 -11 269.631 11.6926   1
   7   0 -10 62.4196 5.00128   1
   7   0  -9 213.320 9.75759   1
   7   0  -8 104.307 6.34887   1
   7   0  -7 173.755 8.56616   1
  -7   0   6 206.378 9.05941   2
   7   0  -6 224.164 9.78756   1
  -7   0   5 641.765 20.8049   2
   7   0  -5 651.638 21.8371   1
  -7   0   4 58.2533 4.12208   2
  -7   0   3 92.8811 5.32110   1
  -7   0   3 91.5784 5.19986   2
  -7   0   2 275.654 10.8201   1
   7   0  -2 274.154 11.8067   1
  -7   0   2 298.663 10.9717   2
  -7   0   1 59.4380 4.13792   1
   7   0  -1 64.1717 5.08164   1
  -7   0   1 65.0944 4.28211   2
  -7   0   0 121.593 6.19787   1
   7   0   0 129.263 7.46310   1
  -7   0   0 124.829 6.25291   2
   7   0   1 30.4192 2.24066   7
  -7   0  -1 30.9451 3.07689   1
   7   0   1 29.3563 3.77704   1
  -7   0  -1 25.3854 3.84229   5
  -7   0  -1 33.4017 3.20266   2
   7   0   2 48.6346 3.41487   7
  -7   0  -2 52.0464 3.96808   1
   7   0   2 52.7667 4.87005   1
  -7   0  -2 51.6470 5.06306   5
   7   0   3 11.5239 3.13910   1
   7   0   3 12.1157 2.36099   7
  -7   0  -3 11.0845 3.10583   5
  -7   0  -3 12.0888 2.29493   1
   7   0   4 32.9550 3.58698   7
  -7   0  -4 39.9317 4.77271   5
  -7   0  -5 43.9023 5.06694   5
   7   0   6 370.860 16.3187   3
  -7   0  -6 339.140 14.5009   4
   7   0   7 6.10135 3.46890   3
   7   0   8 2.16774 3.76705   3
   7   0   9 51.6192 6.51685   3
   7   0  10 44.4669 6.28941   3
   7   1 -16 24.7681 4.23511   1
   7   1 -15 75.2037 6.12823   1
   7   1 -15 78.2837 7.29552   2
   7   1 -14 5.47293 3.45896   2
   7   1 -14 1.81736 2.57558   1
   7   1 -13 172.023 9.08722   1
   7   1 -13 161.182 10.0050   2
   7   1 -12 71.9765 5.66313   1
   7   1 -12 74.5101 6.56081   2
   7   1 -11 39.0082 4.12564   1
   7   1 -11 28.1699 4.24729   2
   7   1 -10 61.5421 5.01607   1
   7   1 -10 55.3304 5.47560   2
   7   1  -9 125.817 7.81400   2
   7   1  -9 125.963 7.34172   1
   7   1  -8 254.401 11.0052   1
   7   1  -7 84.0215 5.53118   1
   7   1  -6 42.7116 4.00285   1
  -7   1   5 92.7057 5.72291   2
  -7   1   4 73.5448 5.02420   2
   7   1  -3 47.8809 4.12137   1
  -7   1   3 42.9886 3.94651   2
  -7   1   2 18.9619 2.84565   2
   7   1  -2 16.4692 2.71641   1
  -7   1   1 8.15482 2.49374   2
  -7   1   1 7.69339 1.37230   6
   7   1  -1 10.7037 2.31412   1
   7   1   0 323.563 12.5634   1
  -7   1   0 296.516 12.2280   2
   7   1   1 74.7448 5.29725   1
   7   1   2 3.05833 1.10422   7
   7   1   2 3.70907 2.32801   1
  -7   1  -2 1.56734 2.23558   5
   7   1   3 146.159 6.15383   7
   7   1   3 150.880 8.10181   1
   7   1   4 301.400 12.7595   1
   7   1   5 38.6446 5.19885   3
  -7   1  -6 4.20062 3.05440   5
   7   1   6 7.05642 3.47224   3
   7   1   7 12.8586 4.32870   3
  -7   1  -7 8.32502 3.63128   4
   7   1   8 51.0138 6.46317   3
   7   1   9 41.0885 6.13521   3
   7   1  10 6.24348 4.04008   3
   7   2 -15 2.96770 3.26829   2
   7   2 -15-1.15729 3.02062   1
   7   2 -14 11.1670 3.82085   2
   7   2 -14 14.6224 3.29038   1
   7   2 -13 60.9457 5.35292   1
   7   2 -13 53.4527 5.57994   2
   7   2 -12 42.7482 5.10982   2
   7   2 -12 44.6089 4.59747   1
   7   2 -11 58.1420 5.00184   1
   7   2 -11 53.6465 5.28785   2
   7   2 -10 203.407 9.65886   1
   7   2 -10 187.558 10.0087   2
   7   2  -9 13.5783 3.31935   2
   7   2  -9 11.7579 2.58313   1
   7   2  -8 1.32576 2.21536   2
   7   2  -8 6.13278 2.23346   1
   7   2  -5 32.3723 3.60245   1
   7   2  -4 15.7935 2.72854   1
   7   2  -3 75.5521 5.06746   1
   7   2  -2 119.830 6.50850   1
   7   2  -1 22.7393 2.83271   1
  -7   2   1 21.8162 3.49487   2
  -7   2   1 27.2328 3.03796   6
  -7   2   0 4.11836 1.74498   6
   7   2   0 6.49981 2.17418   1
  -7   2  -1 75.4790 4.04678   6
   7   2   1 80.3095 5.22627   1
   7   2   2 332.556 12.8003   1
  -7   2  -2 316.422 14.0340   5
   7   2   3 79.7952 5.46719   1
  -7   2  -3 76.7453 6.24311   5
   7   2   4 77.2558 5.43397   1
  -7   2  -4 68.0866 6.01971   5
   7   2   5 89.1333 5.99158   1
  -7   2  -5 86.3250 7.01135   5
  -7   2  -6 245.286 12.5400   5
  -7   2  -7 131.047 8.94428   5
  -7   2  -8 10.0137 4.26400   4
  -7   2  -9 25.8015 5.11604   4
   7   3 -14 13.1273 4.02756   2
   7   3 -14 10.2405 3.51277   1
   7   3 -13 29.4854 4.61855   2
   7   3 -13 23.5880 3.83587   1
   7   3 -12 7.79723 3.04374   2
   7   3 -12 6.25120 3.05435   1
   7   3 -11 11.4262 3.28245   2
   7   3 -11 15.9908 3.28680   1
   7   3 -10 18.9078 3.52775   2
   7   3 -10 19.9558 3.37130   1
   7   3  -9 21.5699 3.47778   2
   7   3  -9 15.9769 2.92658   1
   7   3  -8 182.896 9.07705   2
   7   3  -7 124.050 6.98065   2
   7   3  -6 99.0444 6.18417   1
   7   3  -5 32.1809 3.65534   1
   7   3  -4 598.339 20.1984   1
   7   3  -3 118.826 6.62173   1
   7   3  -2 51.5934 4.17092   1
  -7   3   1 304.024 12.5658   6
   7   3  -1 285.334 11.3385   1
  -7   3   0 194.191 9.20819   6
   7   3   0 186.959 8.41479   1
  -7   3  -1 11.7788 2.61413   6
   7   3   1 9.30767 2.16761   1
   7   3   2 2.48337 1.80827   1
   7   3   3 152.928 9.53002   3
   7   3   3 158.440 7.71271   1
  -7   3  -3 168.199 9.50200   5
   7   3   4 100.250 6.05915   1
   7   3   4 92.5683 7.58407   3
  -7   3  -4 99.1640 7.22382   5
   7   3   5 67.2759 4.95267   1
   7   3   5 70.1102 6.77851   3
  -7   3  -5 59.6904 5.89207   5
  -7   3  -6 23.7569 4.31113   5
   7   3   6 21.9640 4.71387   3
  -7   3  -7 9.08674 3.55534   5
   7   3   7 18.5672 4.89131   3
   7   3   8 22.1833 5.21905   3
  -7   3  -8 12.1878 4.72871   4
  -7   3  -9 35.1126 6.27164   4
  -7   3 -10 1.28538 4.15552   4
   7   4 -13 86.6426 7.13022   2
   7   4 -12 17.4962 3.52771   1
   7   4 -12 19.1739 3.94123   2
   7   4 -11 101.323 6.96550   1
   7   4 -11 101.908 7.15813   2
   7   4 -10 153.470 8.61420   2
   7   4  -9 35.4005 4.14752   2
   7   4  -8 11.8673 2.75495   2
   7   4  -8 8.08509 2.65050   1
   7   4  -7 55.1798 4.76817   1
   7   4  -7 48.0504 4.30559   2
   7   4  -6 77.5023 5.60383   1
   7   4  -6 70.6715 4.85896   2
   7   4  -5 58.8698 4.91926   1
   7   4  -4 60.5584 4.77300   1
   7   4  -3 10.7436 2.37658   1
   7   4  -2 121.613 6.62356   1
  -7   4   2 107.809 7.93366   6
   7   4  -1 20.3188 2.87865   1
  -7   4   1 21.9925 4.00183   6
   7   4   0 18.4838 2.76971   1
  -7   4   0 20.8713 3.95695   6
   7   4   1 23.6326 2.88476   1
  -7   4  -1 23.4097 3.82097   6
   7   4   1 23.8968 4.05509   3
   7   4   2 105.812 7.48931   3
   7   4   2 105.469 5.84487   1
  -7   4  -3 8.45800 3.11249   5
   7   4   3 10.6579 3.40483   3
   7   4   3 7.91545 2.25286   1
   7   4   4 4.11885 2.09177   1
  -7   4  -4 8.05868 3.42217   5
   7   4   4 1.92650 3.01055   3
  -7   4  -5 12.3967 3.61243   5
   7   4   5 14.5863 4.29559   3
   7   4   6 58.0717 6.43212   3
  -7   4  -6 46.9006 5.55917   5
  -7   4  -7 24.0653 4.54427   5
   7   4   7 22.9233 5.24722   3
  -7   4  -8 18.0748 5.59472   4
   7   5 -13 41.7192 5.29729   2
   7   5 -12 20.8617 4.22633   2
   7   5 -11 68.3134 5.96710   2
   7   5 -10 16.7532 3.67170   1
   7   5 -10 7.66705 2.90417   2
   7   5  -9 92.6882 6.65437   1
   7   5  -9 86.1811 5.92925   2
   7   5  -8 167.604 8.91517   1
   7   5  -8 142.471 7.58779   2
   7   5  -7 66.7814 5.34564   1
   7   5  -7 57.9734 4.63656   2
   7   5  -6 21.5158 3.48185   1
   7   5  -5 64.3890 5.25873   1
   7   5  -4 29.6659 3.63286   1
   7   5  -3 42.9662 4.16181   1
  -7   5   3 41.4590 5.62800   6
   7   5  -2 2.78084 1.95270   1
  -7   5   2 3.09791 3.44861   6
   7   5  -1 1.66223 1.98141   1
  -7   5   1 4.90512 3.53855   6
   7   5  -1 2.84794 2.45128   3
   7   5   0 64.2318 5.57862   3
  -7   5   0 71.3777 6.56544   6
   7   5   0 59.5281 4.51255   1
   7   5   1 60.5379 5.55961   3
  -7   5  -1 64.3390 6.13005   6
   7   5   1 55.0136 4.20419   1
   7   5   2 9.19858 2.22435   1
   7   5   2 4.24915 3.04358   3
  -7   5  -3 14.5599 3.86925   5
   7   5   3 15.0720 3.91175   3
   7   5   4 112.532 8.33824   3
  -7   5  -4 122.911 8.15130   5
  -7   5  -5 18.5175 3.96492   5
   7   5   5 14.5750 4.30042   3
   7   5   6 14.3795 4.27719   3
  -7   5  -6 11.6581 3.88009   5
  -7   5  -7 18.4145 4.35147   5
   7   6  -8 20.1255 3.94757   1
   7   6  -7 28.7629 4.21244   1
   7   6  -6 27.2685 4.04379   1
   7   6  -5 49.9645 4.85776   1
   7   6  -4 6.87484 2.84548   1
   7   6  -3 48.0663 4.68461   1
  -7   6   3 41.1046 6.40789   6
   7   6  -2 173.905 8.55700   1
  -7   6   2 144.204 10.6399   6
   7   6  -1 21.9843 3.28967   1
  -7   6   1 20.4716 5.02289   6
   7   6  -1 19.6055 3.59649   3
   7   6   0 13.2866 2.67860   1
  -7   6   0 21.8106 5.08195   6
   7   6   0 12.8147 3.19795   3
   7   6   1 35.6121 4.61815   3
   7   6   2 81.4251 6.85989   3
   7   6   3 12.8458 3.66567   3
  -7   6  -3 14.9056 3.75705   5
   7   6   4 21.9313 4.53289   3
  -7   6  -4 21.3923 4.23936   5
   7   6   5 1.48631 3.44368   3
   7   7  -4 17.4796 3.48278   1
   7   7  -3 6.39609 2.87044   1
  -7   7   2 2.67077 4.68562   6
   8  -5   2 37.7005 6.40842   7
   8  -5   3 10.6371 4.60135   7
   8  -5   4 11.0647 4.94803   7
   8  -5   5 9.66781 5.20451   7
   8  -4 -11 19.9153 4.77486   1
   8  -4 -10 0.51033 3.47811   1
   8  -4  -9 35.1790 5.37178   1
   8  -4  -8 46.6284 6.09052   1
   8  -4  -7 23.2969 4.72031   1
   8  -4  -6 29.1861 5.13029   1
  -8  -4   3 2.10001 2.31336   5
  -8  -4   2 20.9675 3.63973   5
   8  -4   1 30.6113 5.05470   7
   8  -4   2 1.52763 3.40057   7
   8  -4   3 70.0916 7.17098   7
   8  -4   4 104.983 8.87569   7
   8  -4   5 14.7055 4.88509   7
   8  -4   6 40.5336 6.61867   7
   8  -3 -12 18.7436 4.42924   1
   8  -3 -11 82.8189 7.20703   1
   8  -3 -10 229.423 12.0762   1
   8  -3  -9 1.84827 3.30321   1
   8  -3  -8 63.6311 6.24791   1
   8  -3  -7 111.955 8.26418   1
  -8  -3   7 125.580 7.28350   5
   8  -3  -6 77.3150 6.84552   1
  -8  -3   6 71.3102 5.48454   5
   8  -3  -5 48.0503 5.57460   1
  -8  -3   5 52.5250 4.77022   5
   8  -3  -4 1.97876 3.16319   1
  -8  -3   4 2.07314 2.40209   5
   8  -3  -3 64.8035 6.36526   1
  -8  -3   3 53.8805 5.12961   5
   8  -3  -2 97.8443 7.94937   1
  -8  -3   2 96.0078 6.76486   5
  -8  -3   1 1.98159 2.41645   5
  -8  -3   0 13.7914 3.31676   5
   8  -3   1 22.4986 4.16662   7
  -8  -3  -1 27.6708 4.28348   5
   8  -3   2 93.7632 7.18140   7
   8  -3   3 11.4710 3.89225   7
   8  -3   4-0.99086 3.66793   7
   8  -3   5 49.5810 6.21584   7
   8  -3   6 22.5132 5.26008   7
   8  -3   6 19.7513 4.71394   3
   8  -3   7 10.1834 4.74660   7
   8  -3   7 23.9551 4.83465   3
   8  -2 -14 44.8371 5.48573   1
   8  -2 -13 113.725 8.03756   1
   8  -2 -12 71.9390 6.45195   1
   8  -2 -11 51.7554 5.49085   1
   8  -2 -10 31.0116 4.44027   1
   8  -2  -9 5.77887 2.78903   1
   8  -2  -8 94.9208 7.07855   1
   8  -2  -7 61.0727 5.73961   1
   8  -2  -6 101.247 7.26116   1
   8  -2  -5 67.1871 6.10712   1
   8  -2  -4 493.508 19.8670   1
  -8  -2   4 496.500 18.6286   5
   8  -2  -3 28.6208 4.40828   1
  -8  -2   3 31.7575 4.13309   5
  -8  -2   2 5.80687 2.69492   5
  -8  -2   1 161.629 9.28424   5
   8  -2   0 100.343 7.82803   1
  -8  -2   0 86.7538 6.94121   5
   8  -2   1 2.35213 2.21410   7
  -8  -2  -1 2.21875 2.30402   5
   8  -2   2 3.87640 2.66185   7
  -8  -2  -2 3.26341 2.94804   5
   8  -2   3 37.2937 4.54310   7
  -8  -2  -3 46.0001 5.52269   5
   8  -2   4 13.8350 3.67597   7
   8  -2   5 0.89729 3.37739   7
   8  -2   6 32.5212 5.25275   7
   8  -2   6 20.3676 4.66200   3
   8  -2   7 34.0805 5.49118   3
   8  -2   8 9.70329 4.67497   3
   8  -1 -15 25.5155 4.50267   1
   8  -1 -14 59.4056 5.82290   1
   8  -1 -13 6.79852 3.34282   1
   8  -1 -12 33.9674 4.44558   1
   8  -1 -11 104.926 7.16798   1
   8  -1 -10 87.1065 6.46692   1
   8  -1  -9 6.37170 2.87217   1
   8  -1  -8 6.34527 2.69725   1
   8  -1  -7 124.178 7.76197   1
   8  -1  -6 44.9359 4.85565   1
   8  -1  -5 1.57780 2.25262   1
  -8  -1   5 8.29196 2.31363   4
   8  -1  -4 63.7580 5.68711   1
  -8  -1   2 261.504 12.3499   5
   8  -1  -1 128.152 8.41566   1
  -8  -1   1 121.725 8.16408   5
   8  -1   0 40.4837 4.96175   1
  -8  -1   0 26.8482 4.15082   5
   8  -1   1 90.9690 7.33677   1
  -8  -1  -1 111.724 7.77667   5
   8  -1   2 178.581 10.4019   1
   8  -1   2 185.951 8.18005   7
  -8  -1  -2 192.667 10.8107   5
   8  -1   3 36.9835 3.99355   7
  -8  -1  -3 44.9135 5.34752   5
   8  -1   4 59.2220 5.07724   7
  -8  -1  -4 61.5700 6.36165   5
   8  -1   5 4.77206 3.14717   7
   8  -1   6 133.120 9.56480   3
   8  -1   7 1.11065 3.50993   3
   8  -1   8 20.0201 5.07138   3
   8   0 -14 0.79007 2.87467   1
   8   0 -13 97.8412 7.03850   1
   8   0 -12 57.4302 5.34414   1
   8   0 -11 3.31534 2.48686   1
   8   0 -10 1.80504 2.25548   1
   8   0  -9 39.5735 4.37434   1
   8   0  -8 62.1714 5.20992   1
   8   0  -7 6.37241 2.46620   1
   8   0  -6 34.4823 4.15295   1
   8   0  -5 349.297 14.4803   1
  -8   0   4 97.6418 5.76266   2
  -8   0   3 1.68693 1.97120   2
   8   0  -3 0.73889 2.19531   1
   8   0  -2 235.115 11.2447   1
  -8   0   2 224.188 9.52147   2
   8   0  -1 38.5447 4.58329   1
  -8   0   1 42.0812 3.68308   2
   8   0   0 264.863 12.3791   1
  -8   0   0 254.958 12.5085   5
   8   0   1 24.7438 3.93128   1
  -8   0  -1 28.2960 4.23129   5
   8   0   2-0.22331 1.31803   7
   8   0   2-0.41370 2.45799   1
  -8   0  -2-0.45392 2.43595   5
   8   0   3 23.6379 4.15252   1
   8   0   3 23.4946 2.72954   7
  -8   0  -3 21.0889 4.17530   5
  -8   0  -4 171.877 10.3856   5
  -8   0  -5 18.7167 4.37463   5
   8   0   5 24.0244 4.80726   3
   8   0   6 26.2283 5.23208   3
   8   0   7 9.15398 4.17010   3
   8   0   8 25.4213 5.19491   3
   8   1 -14 61.8914 6.65892   2
   8   1 -14 62.3174 5.87106   1
   8   1 -13 6.26693 2.90439   1
   8   1 -12 31.3172 4.21219   1
   8   1 -11 108.368 7.23420   1
   8   1 -10 103.254 6.94031   1
   8   1  -9 4.95901 2.41757   1
   8   1  -8 3.45716 2.26177   1
   8   1  -7 136.640 7.83167   1
   8   1  -4 66.9959 5.31303   1
   8   1  -3 102.080 6.63690   1
   8   1  -2 241.967 11.1024   1
   8   1  -1 108.381 6.93409   1
   8   1   0 35.6553 4.29713   1
   8   1   1 96.3552 6.60830   1
  -8   1  -1 104.697 7.62292   5
   8   1   2 170.773 9.30606   1
  -8   1  -2 170.379 10.0735   5
   8   1   3 36.6567 4.45867   1
   8   1   4 48.7359 5.03442   1
   8   1   5 1.06156 3.19498   3
   8   1   6 123.185 9.34896   3
  -8   1  -6 118.284 8.94877   5
   8   1   7 0.59405 3.57570   3
   8   2 -14 41.7047 5.96825   2
   8   2 -13 128.360 8.24205   1
   8   2 -13 115.332 8.71607   2
   8   2 -12 69.4600 6.07447   1
   8   2 -12 73.7922 6.82436   2
   8   2 -11 56.6342 5.45745   1
   8   2 -11 47.0771 5.33307   2
   8   2 -10 29.0857 4.12807   1
   8   2  -9 11.0644 3.07155   1
   8   2  -8 79.6564 6.03763   1
   8   2  -6 86.4167 6.07076   1
   8   2  -5 75.3021 5.63980   1
   8   2  -4 486.949 17.7348   1
   8   2  -3 25.3422 3.53043   1
   8   2  -2 2.83087 2.26989   1
   8   2  -1 136.828 7.62944   1
   8   2   0 84.4412 5.85842   1
   8   2   1 2.93950 2.47992   1
   8   2   2 2.00032 2.42820   1
  -8   2  -2 7.38014 3.20756   5
   8   2   3 47.1278 4.69830   1
  -8   2  -3 44.3227 5.21342   5
   8   2   4 19.8595 3.51406   1
  -8   2  -4 23.8525 4.28551   5
   8   2   4 21.5298 4.66868   3
   8   2   5 2.48707 2.69653   1
  -8   2  -5-0.50509 2.96133   5
  -8   2  -6 28.3250 4.95720   5
  -8   2  -7 33.9649 5.48277   5
   8   3 -13 66.0862 6.97186   2
   8   3 -12 12.7925 3.82234   2
   8   3 -12 8.05308 3.06678   1
   8   3 -11 95.5500 6.95868   1
   8   3 -11 86.9101 7.01972   2
   8   3 -10 207.981 10.5688   1
   8   3 -10 215.737 10.9374   2
   8   3  -7 134.634 7.91597   1
   8   3  -6 71.6586 5.62630   1
   8   3  -5 50.7117 4.67071   1
   8   3  -4 6.74880 2.67039   1
   8   3  -3 48.9586 4.41768   1
   8   3  -2 98.1262 6.19312   1
   8   3  -1 4.20467 2.33639   1
   8   3   0 7.46944 2.46817   1
   8   3   1 26.1755 3.35134   1
   8   3   2 104.602 6.49928   1
  -8   3  -2 96.1222 7.56444   5
   8   3   3 11.1375 2.79725   1
  -8   3  -3 17.1074 4.03289   5
   8   3   3 11.8237 3.92975   3
   8   3   4-1.30118 2.50825   1
  -8   3  -4 0.48792 2.78218   5
   8   3   4 3.13713 3.52763   3
  -8   3  -5 53.0686 6.17149   5
   8   3   5 56.7070 6.63077   3
  -8   3  -6 24.0225 4.87414   5
   8   3   6 27.6742 5.45507   3
  -8   3  -7 15.8357 4.42282   5
   8   4 -13 53.5346 6.13100   2
   8   4 -12 30.4292 4.87421   2
   8   4 -11 15.7941 3.65101   2
   8   4 -10 2.70855 2.69026   2
   8   4  -9 26.3138 3.93873   2
   8   4  -9 40.7217 4.62521   1
   8   4  -8 49.6351 5.03575   1
   8   4  -7 28.0564 3.91421   1
   8   4  -6 28.1464 3.88883   1
   8   4  -5 74.6717 5.74598   1
   8   4  -4 165.639 8.72052   1
   8   4  -3 4.44445 2.52585   1
   8   4  -2 24.2271 3.44998   1
   8   4  -1 52.5416 4.56897   1
   8   4   0 137.473 7.38251   1
   8   4   1 30.5407 4.85374   3
   8   4   1 25.6886 3.50786   1
  -8   4  -2 0.47800 3.02119   5
   8   4   2-1.41732 3.25196   3
   8   4   2 2.05319 2.17162   1
   8   4   3 70.4522 6.73801   3
  -8   4  -3 73.8634 6.75813   5
   8   4   4 108.242 8.63886   3
  -8   4  -4 104.161 8.10919   5
  -8   4  -5 16.3668 4.23258   5
   8   4   5 15.5965 4.31525   3
  -8   4  -6 30.6413 5.14285   5
   8   5  -8 1.99637 2.77557   1
   8   5  -7 40.4243 4.57997   1
   8   5  -6 42.6333 4.69962   1
   8   5  -5 49.9083 4.89815   1
   8   5  -4 59.3823 5.31660   1
   8   5  -3 158.463 8.52556   1
   8   5  -2 184.202 9.17880   1
   8   5  -1 5.12931 2.45291   1
   8   5  -1 2.88504 2.97474   3
   8   5   0 63.5189 6.10774   3
   8   5   0 66.4900 5.08991   1
   8   5   1 45.2230 5.51814   3
  -8   5  -2 34.6670 5.13725   5
   8   5   2 32.2138 5.10919   3
  -8   5  -3 10.6702 3.62967   5
   8   5   3 8.47866 3.70089   3
  -8   5  -4 8.80558 3.83634   5
   8   5   4 7.30346 3.90045   3
   8   6  -5 41.6681 4.69330   1
   8   6  -4 3.18612 2.66625   1
   8   6  -3 10.1637 3.07040   1
   8   6  -2 9.98498 3.15396   1
   9  -4  -8 1.15210 3.64092   1
   9  -4  -7 107.802 8.87516   1
   9  -4  -6 59.5646 6.99935   1
   9  -3 -10 50.1167 6.21975   1
   9  -3  -9 29.0402 5.12010   1
   9  -3  -8 22.3353 4.62148   1
   9  -3  -7 16.1587 4.33295   1
   9  -3  -6 39.9278 5.70022   1
   9  -3  -5 28.9407 5.28756   1
  -9  -3   5 30.9866 4.28301   5
   9  -3  -4 193.065 11.9446   1
  -9  -3   4 206.060 10.6912   5
   9  -3  -3 10.4084 4.47410   1
  -9  -3   3 17.1806 3.96653   5
  -9  -3   2 29.6566 4.50084   5
  -9  -3   1 82.9726 7.15587   5
  -9  -3   0 66.8882 6.60136   5
   9  -2 -12 2.94389 3.53973   1
   9  -2 -11 88.0520 7.47377   1
   9  -2 -10 60.7698 6.31702   1
   9  -2  -9 20.6228 4.27076   1
   9  -2  -8 102.600 7.98480   1
   9  -2  -7 158.692 10.0046   1
   9  -2  -6 71.0334 6.89444   1
   9  -2  -5 81.7408 7.41767   1
  -9  -2   5 91.7682 6.94094   5
   9  -2  -4 24.1522 4.80051   1
  -9  -2   4 29.8888 4.37717   5
   9  -2  -3 47.8456 6.07004   1
  -9  -2   3 50.9441 5.57562   5
  -9  -2   2 40.9173 5.18390   5
   9  -2  -1 14.9538 4.47613   1
  -9  -2   1 9.06820 3.63438   5
   9  -2   0 25.6217 4.99532   1
  -9  -2   0 41.8881 5.46322   5
  -9  -2  -1 74.0441 6.96022   5
  -9  -2  -2 121.645 9.11247   5
   9  -2   5 54.1777 6.61044   3
   9  -1 -12 37.1092 5.10430   1
   9  -1 -11 35.2642 4.78293   1
   9  -1 -10 32.0149 4.63191   1
   9  -1  -9 68.8687 6.21549   1
   9  -1  -8 116.338 8.23565   1
   9  -1  -7 34.9776 4.97962   1
   9  -1  -6 28.1038 4.54446   1
   9  -1  -5 132.220 8.76780   1
  -9  -1   3 17.0172 3.71452   5
   9  -1  -2 123.218 8.83459   1
  -9  -1   2 119.044 8.38614   5
   9  -1  -1 25.4120 4.60931   1
  -9  -1   1 21.5934 4.04179   5
   9  -1   0 7.70180 3.57483   1
  -9  -1   0 8.35897 3.52097   5
   9  -1   1 65.7926 6.67777   1
  -9  -1  -1 55.2236 6.11134   5
  -9  -1  -2 50.3946 6.06323   5
  -9  -1  -3 18.8048 4.32583   5
  -9  -1  -4 63.4915 6.85631   5
   9  -1   5 23.6379 5.19007   3
   9   0 -12 27.0269 4.38298   1
   9   0 -11 70.7339 6.21160   1
   9   0 -10 45.4518 5.31320   1
   9   0  -9 21.9481 4.02698   1
   9   0  -8 7.57842 2.84747   1
   9   0  -7 69.9246 6.13375   1
   9   0  -6 25.4209 4.03522   1
   9   0  -4 3.49578 2.82677   1
   9   0  -3 7.11122 3.18236   1
   9   0  -2 34.9504 4.85684   1
   9   0  -1 15.6025 3.77074   1
  -9   0   1 12.4565 3.62495   5
   9   0   0 90.5273 7.23517   1
  -9   0   0 88.9214 7.42771   5
   9   0   1 102.887 7.79374   1
  -9   0  -1 109.133 8.31260   5
   9   0   2 16.5563 4.34294   1
  -9   0  -2 31.5337 4.99939   5
   9   0   3 4.77546 3.56628   1
  -9   0  -3 2.16784 2.95612   5
  -9   0  -4 298.510 15.2327   5
  -9   0  -5-0.58833 3.49586   5
   9   0   5 5.19282 3.85315   3
   9   1 -11 34.2361 4.62234   1
   9   1 -10 28.2232 4.47966   1
   9   1  -9 68.2856 5.99628   1
   9   1  -8 100.038 7.16430   1
   9   1  -5 143.740 8.74356   1
   9   1  -4 142.243 8.59504   1
   9   1  -3 13.7048 3.47163   1
   9   1  -2 132.650 8.36926   1
   9   1  -1 18.2363 3.84041   1
   9   1   0 12.5297 3.46940   1
  -9   1   0 4.95579 2.95214   5
   9   1   1 58.0666 5.81419   1
  -9   1  -1 49.3736 5.77310   5
   9   1   2 42.1372 5.18307   1
  -9   1  -2 44.2703 5.52846   5
   9   1   3 24.1256 4.43868   1
   9   1   4 54.5646 6.33476   3
   9   2 -10 57.0549 5.52983   1
   9   2  -9 20.7524 3.97862   1
   9   2  -7 162.189 9.15772   1
   9   2  -6 67.4987 5.83137   1
   9   2  -5 85.2201 6.45324   1
   9   2  -4 31.5349 4.25582   1
   9   2  -3 55.9231 5.20292   1
   9   2  -2 38.2603 4.51043   1
   9   2  -1 11.3253 3.12285   1
   9   2   0 32.6295 4.38265   1
   9   2   1 78.7983 6.27466   1
   9   2   2 115.190 7.66106   1
  -9   2  -2 117.424 8.79876   5
   9   2   3 2.84970 3.23591   1
  -9   2  -3 0.53687 3.43267   5
   9   2   4 34.1949 4.86772   1
  -9   2  -4 38.5639 5.82340   5
   9   2   4 32.6496 5.38473   3
   9   3  -8 32.5564 4.41511   1
   9   3  -7 15.4441 3.43763   1
   9   3  -6 32.8681 4.38082   1
   9   3  -5 33.4103 4.24791   1
   9   3  -4 189.706 9.79845   1
   9   3  -3 12.0435 3.25826   1
   9   3  -2 37.0694 4.46649   1
   9   3  -1 68.3917 5.61086   1
   9   3   0 53.7399 5.19480   1
   9   3   1 10.2965 3.18081   1
  -9   3  -1 9.52200 3.65049   5
   9   3   2 17.8728 3.80077   1
  -9   3  -2 18.7641 4.53551   5
   9   3   2 25.3627 4.74427   3
   9   3   3 65.9983 6.74902   3
  -9   3  -3 58.8696 6.60084   5
   9   4  -7 121.447 7.98179   1
   9   4  -6 71.8677 6.08701   1
   9   4  -5 1.89386 2.42213   1
   9   4  -4 41.6099 4.80497   1
   9   4  -3 97.9165 6.77572   1
   9   4  -2 53.6455 5.07605   1
   9   4  -1 25.3080 3.84504   1
   9   4   0 64.3475 5.55777   1
  -9   4  -1 19.8638 4.59991   5
   9   4   1 20.2395 4.26132   3
   9   4   2 28.9181 5.22735   3
   9   5  -4 10.1801 3.34128   1
   9   5  -3 5.44118 2.94944   1
   9   5  -2 17.5283 3.62866   1
   9   5  -1-0.46532 3.38603   3
   9   5   0 11.5752 3.90102   3
 -10  -3   2 16.7494 4.34263   5
 -10  -3   1 15.9137 4.50562   5
 -10  -2   7 23.7049 4.45891   5
 -10  -2   6 15.4511 4.10644   5
  10  -2  -5 2.96400 3.52564   1
 -10  -2   5 9.54326 3.76780   5
  10  -2  -4 27.1715 5.58906   1
 -10  -2   4 38.8504 5.36201   5
 -10  -2   3 28.5639 4.88730   5
  10  -2  -2 101.017 9.16434   1
 -10  -2   2 124.716 9.13473   5
 -10  -2   1 25.3643 4.86897   5
 -10  -2   0 10.0467 4.07002   5
  10  -1  -7 30.8702 5.16758   1
  10  -1  -6 32.8897 5.29289   1
 -10  -1   4 79.9326 7.05720   5
  10  -1  -3 56.7831 6.79373   1
 -10  -1   3 62.1554 6.52870   5
  10  -1  -2 21.8302 4.97189   1
 -10  -1   2 13.3750 4.11212   5
  10  -1  -1-0.57727 3.38468   1
 -10  -1   1 3.77104 3.36529   5
  10  -1   0 86.7730 8.13116   1
 -10  -1   0 92.6371 8.09463   5
  10  -1   1 40.8673 5.96753   1
  10   0  -7 47.8294 5.69748   1
  10   0  -5 32.7681 5.10488   1
  10   0  -4 39.5201 5.42705   1
  10   0  -3 45.6065 5.88778   1
 -10   0   3 39.7140 5.53522   5
  10   0  -2 129.785 9.19247   1
 -10   0   2 114.306 8.91308   5
  10   0  -1 31.1354 5.19114   1
 -10   0   1 38.6722 5.57697   5
  10   0   0 35.0730 5.52831   1
 -10   0   0 27.4960 5.12060   5
  10   0   1 1.58949 3.27015   1
  10   0   2 12.2529 4.27721   1
  10   1  -6 54.2734 5.87329   1
  10   1  -5 54.8150 5.98859   1
  10   1  -4 85.2137 7.33482   1
  10   1  -3 64.6188 6.49812   1
  10   1  -2 17.6678 4.09085   1
  10   1  -1 5.29614 3.41171   1
 -10   1   1 2.76013 3.36669   5
  10   1   0 91.6443 7.66631   1
 -10   1   0 74.7711 7.39781   5
  10   1   1 35.3871 5.20673   1
  10   1   2 21.6752 4.66233   1
  10   1   3 13.3839 4.34053   1
  10   2  -6 16.7214 3.94454   1
  10   2  -5 9.42538 3.46952   1
  10   2  -4 23.0332 4.09465   1
  10   2  -3 35.3431 4.94202   1
  10   2  -2 107.233 7.81497   1
  10   2  -1 30.9891 4.77143   1
  10   2   0 7.65105 3.68622   1
  10   2   1 53.6863 6.03259   1
  10   2   2 28.2601 4.82443   1
  10   3  -4 65.4729 6.07858   1
  10   3  -3 14.4049 3.67176   1
  10   3  -2 19.0016 3.89280   1
  10   3  -1 12.4140 3.68149   1
  10   3   0 37.8270 5.00076   1
   0   0   0    0.00    0.00   0

TITL MB7_100_A1_180209_EphCl in P2(1)
REM P2(1) (#4 in standard setting)
CELL 0.71073   7.256542   6.123189  12.557009  90.0000 102.2561  90.0000
ZERR    2.00   0.000339   0.000268   0.000585   0.0000   0.0046   0.0000
LATT -1
SYMM -x, y+1/2,-z
SFAC C H N O
UNIT 22.00 20.00 2.00 2.00
TREF
HKLF 4
END
;
_shelx_hkl_checksum              73071
_olex2_submission_special_instructions 'No special instructions were received'
_oxdiff_exptl_absorpt_empirical_details
;
Empirical correction (ABSPACK) includes:
- Absorption correction using spherical harmonics
- Frame scaling
;
_oxdiff_exptl_absorpt_empirical_full_max 1.408
_oxdiff_exptl_absorpt_empirical_full_min 0.623
loop_
_space_group_symop_operation_xyz
'x, y, z'
'-x, y+1/2, -z'
loop_
_atom_site_label
_atom_site_type_symbol
_atom_site_fract_x
_atom_site_fract_y
_atom_site_fract_z
_atom_site_U_iso_or_equiv
_atom_site_adp_type
_atom_site_occupancy
_atom_site_site_symmetry_order
_atom_site_calc_flag
_atom_site_refinement_flags_posn
C1 C 0.6360(2) 0.5687(3) 0.23272(13) 0.0228(3) Uani 1 1 d .
H1 H 0.5100 0.6422 0.2156 0.027 Uiso 1 1 calc R
C2 C 0.7806(2) 0.7190(3) 0.19656(12) 0.0209(3) Uani 1 1 d .
H2 H 0.8054 0.8461 0.2476 0.025 Uiso 1 1 calc R
C3 C 0.9675(2) 0.6051(3) 0.19615(14) 0.0259(3) Uani 1 1 d .
H3A H 0.9471 0.4887 0.1413 0.039 Uiso 1 1 calc GR
H3B H 1.0177 0.5421 0.2682 0.039 Uiso 1 1 calc GR
H3C H 1.0576 0.7114 0.1787 0.039 Uiso 1 1 calc GR
C4 C 0.8017(2) 0.9822(3) 0.04500(14) 0.0287(4) Uani 1 1 d .
H4A H 0.9280 0.9301 0.0415 0.043 Uiso 1 1 calc GR
H4B H 0.8126 1.1060 0.0954 0.043 Uiso 1 1 calc GR
H4C H 0.7351 1.0286 -0.0277 0.043 Uiso 1 1 calc GR
C5 C 0.68921(18) 0.5280(4) 0.35430(11) 0.0220(3) Uani 1 1 d .
C6 C 0.7837(2) 0.3407(3) 0.39852(14) 0.0278(4) Uani 1 1 d .
H6 H 0.8142 0.2307 0.3518 0.033 Uiso 1 1 calc R
C7 C 0.8336(3) 0.3137(3) 0.51051(15) 0.0345(4) Uani 1 1 d .
H7 H 0.8984 0.1854 0.5402 0.041 Uiso 1 1 calc R
C8 C 0.7895(3) 0.4731(4) 0.57930(14) 0.0353(5) Uani 1 1 d .
H8 H 0.8240 0.4539 0.6560 0.042 Uiso 1 1 calc R
C9 C 0.6955(3) 0.6598(4) 0.53647(15) 0.0346(4) Uani 1 1 d .
H9 H 0.6651 0.7689 0.5837 0.042 Uiso 1 1 calc R
C10 C 0.6454(2) 0.6877(3) 0.42426(14) 0.0284(4) Uani 1 1 d .
H10 H 0.5810 0.8165 0.3949 0.034 Uiso 1 1 calc R
N1 N 0.69461(19) 0.8025(2) 0.08424(11) 0.0228(3) Uani 1 1 d .
H1A H 0.6846 0.6893 0.0364 0.027 Uiso 1 1 calc R
H1B H 0.5759 0.8508 0.0839 0.027 Uiso 1 1 calc R
O1 O 0.62683(18) 0.3776(2) 0.16754(10) 0.0319(3) Uani 1 1 d .
H1C H 0.5315 0.3041 0.1729 0.048 Uiso 1 1 calc GR
Cl1 Cl 0.32072(5) 0.02128(6) 0.12626(3) 0.02512(10) Uani 1 1 d .
loop_
_atom_site_aniso_label
_atom_site_aniso_U_11
_atom_site_aniso_U_22
_atom_site_aniso_U_33
_atom_site_aniso_U_23
_atom_site_aniso_U_13
_atom_site_aniso_U_12
C1 0.0191(7) 0.0255(9) 0.0244(7) -0.0009(6) 0.0059(5) -0.0032(5)
C2 0.0215(7) 0.0219(7) 0.0194(7) -0.0022(6) 0.0050(6) -0.0043(6)
C3 0.0201(7) 0.0300(8) 0.0285(8) -0.0013(7) 0.0069(6) -0.0038(6)
C4 0.0299(8) 0.0251(10) 0.0330(8) 0.0045(6) 0.0113(6) -0.0041(6)
C5 0.0177(6) 0.0248(7) 0.0253(6) 0.0024(8) 0.0084(5) -0.0028(7)
C6 0.0276(8) 0.0249(9) 0.0327(9) 0.0018(7) 0.0105(7) 0.0016(7)
C7 0.0309(9) 0.0361(10) 0.0369(9) 0.0129(8) 0.0085(7) 0.0036(7)
C8 0.0283(8) 0.0536(14) 0.0248(8) 0.0071(8) 0.0074(6) -0.0039(8)
C9 0.0334(9) 0.0439(11) 0.0309(9) -0.0069(8) 0.0169(8) -0.0022(8)
C10 0.0266(8) 0.0302(9) 0.0311(9) 0.0007(7) 0.0121(7) 0.0051(7)
N1 0.0206(6) 0.0249(7) 0.0239(6) -0.0011(5) 0.0069(5) -0.0024(5)
O1 0.0350(6) 0.0302(7) 0.0328(6) -0.0093(5) 0.0126(5) -0.0149(5)
Cl1 0.02102(16) 0.02743(18) 0.02765(17) 0.00220(17) 0.00685(12) -0.00432(16)
loop_
_atom_type_symbol
_atom_type_description
_atom_type_scat_dispersion_real
_atom_type_scat_dispersion_imag
_atom_type_scat_source
C C 0.0033 0.0016 'International Tables Vol C Tables 4.2.6.8 and 6.1.1.4'
H H 0.0000 0.0000 'International Tables Vol C Tables 4.2.6.8 and 6.1.1.4'
N N 0.0061 0.0033 'International Tables Vol C Tables 4.2.6.8 and 6.1.1.4'
O O 0.0106 0.0060 'International Tables Vol C Tables 4.2.6.8 and 6.1.1.4'
Cl Cl 0.1484 0.1585 'International Tables Vol C Tables 4.2.6.8 and 6.1.1.4'
loop_
_geom_angle_atom_site_label_1
_geom_angle_atom_site_label_2
_geom_angle_atom_site_label_3
_geom_angle
C2 C1 H1 108.5
C5 C1 H1 108.5
C5 C1 C2 110.65(13)
O1 C1 H1 108.5
O1 C1 C2 105.91(12)
O1 C1 C5 114.58(14)
C1 C2 H2 108.6
C3 C2 C1 113.03(14)
C3 C2 H2 108.6
N1 C2 C1 107.91(12)
N1 C2 H2 108.6
N1 C2 C3 110.12(12)
C2 C3 H3A 109.5
C2 C3 H3B 109.5
C2 C3 H3C 109.5
H3A C3 H3B 109.5
H3A C3 H3C 109.5
H3B C3 H3C 109.5
H4A C4 H4B 109.5
H4A C4 H4C 109.5
H4B C4 H4C 109.5
N1 C4 H4A 109.5
N1 C4 H4B 109.5
N1 C4 H4C 109.5
C6 C5 C1 122.49(16)
C6 C5 C10 119.05(14)
C10 C5 C1 118.43(17)
C5 C6 H6 119.9
C7 C6 C5 120.28(16)
C7 C6 H6 119.9
C6 C7 H7 119.9
C8 C7 C6 120.24(17)
C8 C7 H7 119.9
C7 C8 H8 120.0
C9 C8 C7 120.08(16)
C9 C8 H8 120.0
C8 C9 H9 120.0
C8 C9 C10 119.90(17)
C10 C9 H9 120.0
C5 C10 H10 119.8
C9 C10 C5 120.45(16)
C9 C10 H10 119.8
C2 N1 H1A 108.6
C2 N1 H1B 108.6
C4 N1 C2 114.79(12)
C4 N1 H1A 108.6
C4 N1 H1B 108.6
H1A N1 H1B 107.5
C1 O1 H1C 109.5
loop_
_geom_bond_atom_site_label_1
_geom_bond_atom_site_label_2
_geom_bond_distance
C1 H1 1.0000
C1 C2 1.535(2)
C1 C5 1.514(2)
C1 O1 1.4214(19)
C2 H2 1.0000
C2 C3 1.526(2)
C2 N1 1.506(2)
C3 H3A 0.9800
C3 H3B 0.9800
C3 H3C 0.9800
C4 H4A 0.9800
C4 H4B 0.9800
C4 H4C 0.9800
C4 N1 1.490(2)
C5 C6 1.390(3)
C5 C10 1.395(3)
C6 H6 0.9500
C6 C7 1.386(3)
C7 H7 0.9500
C7 C8 1.385(3)
C8 H8 0.9500
C8 C9 1.380(3)
C9 H9 0.9500
C9 C10 1.389(2)
C10 H10 0.9500
N1 H1A 0.9100
N1 H1B 0.9100
O1 H1C 0.8400
loop_
_geom_hbond_atom_site_label_D
_geom_hbond_atom_site_label_H
_geom_hbond_atom_site_label_A
_geom_hbond_distance_DH
_geom_hbond_distance_HA
_geom_hbond_distance_DA
_geom_hbond_angle_DHA
_geom_hbond_site_symmetry_A
N1 H1A Cl1 0.91 2.28 3.1370(14) 156.8 2_655
N1 H1B Cl1 0.91 2.28 3.1688(14) 163.9 1_565
O1 H1C Cl1 0.84 2.30 3.0782(12) 153.7 .
loop_
_geom_torsion_atom_site_label_1
_geom_torsion_atom_site_label_2
_geom_torsion_atom_site_label_3
_geom_torsion_atom_site_label_4
_geom_torsion
C1 C2 N1 C4 169.31(13)
C1 C5 C6 C7 178.33(15)
C1 C5 C10 C9 -178.51(15)
C2 C1 C5 C6 -98.24(19)
C2 C1 C5 C10 80.18(17)
C3 C2 N1 C4 -66.90(18)
C5 C1 C2 C3 73.37(17)
C5 C1 C2 N1 -164.62(13)
C5 C6 C7 C8 0.1(3)
C6 C5 C10 C9 0.0(3)
C6 C7 C8 C9 0.0(3)
C7 C8 C9 C10 -0.1(3)
C8 C9 C10 C5 0.1(3)
C10 C5 C6 C7 -0.1(2)
O1 C1 C2 C3 -51.37(17)
O1 C1 C2 N1 70.65(16)
O1 C1 C5 C6 21.4(2)
O1 C1 C5 C10 -160.17(15)
