#------------------------------------------------------------------------------
#$Date: 2018-04-30 20:04:13 +0300 (Mon, 30 Apr 2018) $
#$Revision: 207574 $
#$URL: file:///home/coder/svn-repositories/cod/cif/1/54/93/1549343.cif $
#------------------------------------------------------------------------------
#
# This file is available in the Crystallography Open Database (COD),
# http://www.crystallography.net/. The original data for this entry
# were provided by IUCr Journals, http://journals.iucr.org/.
#
# The file may be used within the scientific community so long as
# proper attribution is given to the journal article from which the
# data were obtained.
#
data_1549343
loop_
_publ_author_name
'Brieger, Lukas'
'Unkelbach, Christian'
'Strohmann, Carsten'
_publ_section_title
;
 1,2-Bis(3,5-dimethylphenyl)ethane
;
_journal_coeditor_code           HB4226
_journal_issue                   4
_journal_name_full               IUCrData
_journal_page_first              x180636
_journal_paper_doi               10.1107/S2414314618006363
_journal_volume                  3
_journal_year                    2018
_chemical_formula_iupac          'C18 H22'
_chemical_formula_moiety         'C18 H22'
_chemical_formula_sum            'C18 H22'
_chemical_formula_weight         238.35
_chemical_name_systematic
;
1,2-Bis(3,5-dimethylphenyl)ethane
;
_space_group_crystal_system      triclinic
_space_group_IT_number           2
_space_group_name_Hall           '-P 1'
_space_group_name_H-M_alt        'P -1'
_symmetry_space_group_name_Hall  '-P 1'
_symmetry_space_group_name_H-M   'P -1'
_atom_sites_solution_hydrogens   geom
_atom_sites_solution_primary     dual
_audit_creation_method
;
Olex2 1.2
(compiled 2017.03.02 svn.r3394 for OlexSys, GUI svn.r5324)
;
_cell_angle_alpha                108.513(6)
_cell_angle_beta                 98.090(5)
_cell_angle_gamma                103.805(5)
_cell_formula_units_Z            2
_cell_length_a                   7.9315(5)
_cell_length_b                   8.2047(5)
_cell_length_c                   12.3474(8)
_cell_measurement_reflns_used    4159
_cell_measurement_temperature    150
_cell_measurement_theta_max      29.5320
_cell_measurement_theta_min      2.6560
_cell_volume                     719.18(9)
_computing_cell_refinement
;
CrysAlis PRO (Agilent, 2014)
;
_computing_data_collection
;
CrysAlis PRO (Agilent, 2014)
;
_computing_data_reduction
;
CrysAlis PRO (Agilent, 2014)
;
_computing_molecular_graphics
;
<i>OLEX2</i> (Dolomanov <i>et al.</i>,  2009)
;
_computing_publication_material
;
<i>OLEX2</i> (Dolomanov <i>et al.</i>,  2009)
;
_computing_structure_refinement
;
SHELXL2014 (Sheldrick, 2015b)
;
_computing_structure_solution
;
SHELXT (Sheldrick, 2015a)
;
_diffrn_ambient_temperature      150
_diffrn_detector_area_resol_mean 16.0560
_diffrn_measured_fraction_theta_full 1.000
_diffrn_measured_fraction_theta_max 0.996
_diffrn_measurement_device_type  'Agilent Xcalibur, Sapphire3'
_diffrn_measurement_method       '\w scans'
_diffrn_radiation_monochromator  graphite
_diffrn_radiation_type           MoK\a
_diffrn_radiation_wavelength     0.71073
_diffrn_reflns_av_R_equivalents  0.0373
_diffrn_reflns_limit_h_max       10
_diffrn_reflns_limit_h_min       -10
_diffrn_reflns_limit_k_max       10
_diffrn_reflns_limit_k_min       -10
_diffrn_reflns_limit_l_max       16
_diffrn_reflns_limit_l_min       -16
_diffrn_reflns_number            22466
_diffrn_reflns_theta_full        25.242
_diffrn_reflns_theta_max         27.997
_diffrn_reflns_theta_min         2.675
_exptl_absorpt_coefficient_mu    0.061
_exptl_absorpt_correction_T_max  1.00000
_exptl_absorpt_correction_T_min  0.98410
_exptl_absorpt_correction_type   multi-scan
_exptl_absorpt_process_details
;
(CrysAlis PRO; Agilent, 2014)
;
_exptl_crystal_colour            colourless
_exptl_crystal_density_diffrn    1.101
_exptl_crystal_description       plate
_exptl_crystal_F_000             260
_exptl_crystal_size_max          0.3
_exptl_crystal_size_mid          0.3
_exptl_crystal_size_min          0.1
_refine_diff_density_max         0.279
_refine_diff_density_min         -0.233
_refine_ls_extinction_method     none
_refine_ls_goodness_of_fit_ref   1.048
_refine_ls_hydrogen_treatment    refall
_refine_ls_matrix_type           full
_refine_ls_number_parameters     167
_refine_ls_number_reflns         3471
_refine_ls_number_restraints     0
_refine_ls_restrained_S_all      1.048
_refine_ls_R_factor_all          0.0777
_refine_ls_R_factor_gt           0.0569
_refine_ls_shift/su_max          0.000
_refine_ls_shift/su_mean         0.000
_refine_ls_structure_factor_coef Fsqd
_refine_ls_weighting_details
'w=1/[\s^2^(Fo^2^)+(0.0690P)^2^+0.3054P] where P=(Fo^2^+2Fc^2^)/3'
_refine_ls_weighting_scheme      calc
_refine_ls_wR_factor_gt          0.1463
_refine_ls_wR_factor_ref         0.1605
_reflns_number_gt                2598
_reflns_number_total             3471
_reflns_threshold_expression     'I > 2\s(I)'
_cod_data_source_file            hb4226sup1.cif
_cod_data_source_block           I
_cod_original_cell_volume        719.18(8)
_cod_database_code               1549343
_shelx_space_group_comment
;
The symmetry employed for this shelxl refinement is uniquely defined
by the following loop, which should always be used as a source of
symmetry information in preference to the above space-group names.
They are only intended as comments.
;
_shelx_hkl_file
;
   0   0  -2  917.46    5.38
   0   0  -2  973.08    7.11
   0   0   2  888.34    7.34
   0   0   2  915.47    7.85
   0   0   2  890.70    8.01
   0   0  -2  936.91    7.40
   0   0  -2  912.40    7.97
   0   0   2  949.94    8.28
   0   0  -2  938.38    8.23
   0   0  -2  955.95    7.98
   0   0   2  900.64    5.45
   0   0   2  948.05    7.52
   0   0   2  942.56    8.01
   0   0   2  920.28    7.39
   0   0  -2  946.38    8.16
   0   0  -2  941.66    7.63
   0   0  -2  895.86    7.32
   0   0  -3    1.88    0.58
   0   0   3    1.59    0.86
   0   0  -3    1.53    0.76
   0   0  -3    2.47    1.00
   0   0  -3    3.31    1.26
   0   0  -3    0.91    0.76
   0   0   3    1.20    0.94
   0   0  -3    2.02    0.87
   0   0   3    1.07    0.96
   0   0   3    0.56    0.48
   0   0  -3    1.12    0.86
   0   0  -3    0.66    0.71
   0   0   3    2.41    1.12
   0   0  -3    0.51    0.93
   0   0  -3    0.70    0.51
   0   0   3    4.70    1.35
   0   0   3    0.62    0.82
   0   0  -4    0.37    0.52
   0   0   4    2.66    1.11
   0   0   4    0.92    0.94
   0   0   4    1.24    0.56
   0   0  -4   -0.35    1.16
   0   0  -4    0.84    0.76
   0   0   4    0.57    0.96
   0   0   4    0.86    0.96
   0   0  -4   -0.03    0.88
   0   0  -4    0.02    0.55
   0   0  -4    0.67    0.97
   0   0   4   -0.27    0.85
   0   0  -4   -0.20    1.12
   0   0  -4    1.38    0.93
   0   0  -4    0.69    0.76
   0   0   5    0.70    1.06
   0   0   5    0.26    0.96
   0   0  -5   -0.08    0.56
   0   0  -5    0.47    1.02
   0   0  -5    2.22    1.24
   0   0   5    0.37    1.04
   0   0   5    0.80    1.02
   0   0  -5    0.07    1.13
   0   0  -5    0.77    0.76
   0   0  -5    1.26    0.63
   0   0   5    1.24    0.55
   0   0  -5    0.42    0.80
   0   0  -6    1.36    1.29
   0   0   6   -0.31    0.93
   0   0  -6   -0.21    1.16
   0   0   6   -0.69    0.58
   0   0  -6   -0.22    0.55
   0   0  -6    0.03    0.50
   0   0   6   -0.35    1.36
   0   0  -6    1.44    1.09
   0   0  -6    0.41    0.89
   0   0   6   -1.58    1.23
   0   0   6    0.10    0.95
   0   0   7    0.35    1.40
   0   0  -7    0.99    0.65
   0   0   7   -1.12    1.22
   0   0  -7    0.38    0.93
   0   0  -7   -1.23    1.48
   0   0  -7   -0.32    1.08
   0   0   7   -0.04    1.13
   0   0   7    0.45    1.11
   0   0  -7    0.90    0.64
   0   0  -7   -1.02    1.76
   0   0   8   15.27    2.38
   0   0  -8   18.34    1.42
   0   0  -8   16.66    1.55
   0   0  -8   15.19    2.16
   0   0  -8   15.52    2.44
   0   0   8   15.52    2.31
   0   0   8   13.38    2.10
   0   0  -8   17.88    2.22
   0   0  -8   20.60    2.54
   0   0  -8   20.30    2.72
   0   0   8   16.28    2.78
   0   0   9  257.49    8.83
   0   0  -9  248.29    8.46
   0   0  -9  244.86    8.65
   0   0  -9  230.61    4.77
   0   0  -9  251.80    9.43
   0   0  -9  250.42    7.90
   0   0   9  244.55    9.20
   0   0   9  236.68    8.56
   0   0   9  251.86    9.40
   0   0  -9  252.27    9.48
   0   0  -9  250.44    5.66
   0   0  10  143.19    7.05
   0   0 -10  135.36    4.29
   0   0 -10  137.78    6.25
   0   0  10  156.47    7.93
   0   0 -10  145.59    7.70
   0   0 -10  138.94    6.85
   0   0 -10  139.97    7.69
   0   0 -10  145.77    7.08
   0   0  10  134.68    7.34
   0   0  11  173.29    8.83
   0   0 -11  167.66    7.91
   0   0  11  169.51    8.64
   0   0 -11  166.95    7.30
   0   0 -11  185.96    9.34
   0   0 -11  178.06    8.26
   0   0 -11  173.79    8.88
   0   0  11  168.18    8.16
   0   0 -12   13.02    2.86
   0   0  12    9.13    2.37
   0   0  12   11.42    3.09
   0   0 -12   13.78    2.73
   0   0 -12   14.83    3.32
   0   0  12   10.48    2.70
   0   0 -12   12.87    2.99
   0   0 -12    9.10    2.08
   0   0 -13    9.91    2.70
   0   0  13   14.36    2.92
   0   0 -13   10.32    2.55
   0   0 -13   15.04    3.37
   0   0  13   12.94    3.21
   0   0 -13   14.44    3.13
   0   0  13   13.51    3.15
   0   0 -14   -2.28    1.87
   0   0 -14   -1.09    2.17
   0   0  14    0.11    2.16
   0   0 -14    0.16    1.73
   0   0  14   -2.71    1.69
   0   0 -14    4.08    2.23
   0   0  14    0.55    1.47
   0   0 -15    0.69    2.09
   0   0  15    1.77    2.26
   0   0 -15   -1.26    1.88
   0   1 -16    3.75    2.53
   0   1 -16    0.55    2.04
   0  -1  15    0.83    1.53
   0  -1  15    2.69    2.06
   0   1 -15   -1.30    1.65
   0  -1  15   -0.46    1.36
   0   1 -15   -1.75    2.21
   0   1 -15    1.35    1.94
   0   1 -15   -2.62    2.12
   0   1 -14    4.80    2.55
   0  -1  14    2.85    2.37
   0   1 -14    3.94    2.12
   0   1 -14    2.91    2.04
   0   1 -14    3.43    2.44
   0   1 -14    0.93    1.39
   0  -1  14    2.40    1.85
   0  -1  14    6.63    2.69
   0  -1  13   10.63    2.92
   0   1 -13   10.04    2.51
   0   1 -13    5.55    2.56
   0  -1  13    7.81    2.19
   0   1 -13    6.72    2.10
   0  -1  13    6.96    1.94
   0   1 -13    6.75    2.50
   0   1 -13    5.21    2.19
   0   1 -12   39.84    4.24
   0  -1  12   38.56    4.05
   0  -1  12   39.98    4.57
   0   1 -12   33.78    3.78
   0   1 -12   41.53    4.31
   0   1 -12   40.60    4.70
   0   1 -12   42.70    4.68
   0  -1  12   38.40    4.42
   0   1 -11  159.88    7.37
   0  -1  11  164.88    7.41
   0   1 -11  155.35    7.52
   0   1 -11  167.03    7.68
   0  -1  11  157.02    8.14
   0  -1  11  161.35    7.25
   0  -1  11  164.21    8.17
   0   1 -11  166.01    8.54
   0   1 -11  159.16    8.29
   0   1 -10  126.58    4.37
   0  -1  10  135.55    7.19
   0  -1  10  127.46    6.24
   0  -1  10  127.08    6.10
   0   1 -10  127.29    6.55
   0   1 -10  123.89    3.82
   0   1 -10  127.12    6.98
   0   1 -10  137.67    6.59
   0   1 -10  144.66    7.59
   0   1 -10  130.77    6.37
   0  -1  10  132.70    6.94
   0   1  -9   47.91    3.72
   0  -1   9   42.58    3.49
   0  -1   9   46.72    2.18
   0  -1   9   47.84    4.09
   0  -1   9   45.11    3.97
   0   1  -9   43.49    3.65
   0   1  -9   44.25    3.92
   0   1  -9   52.71    4.56
   0  -1   9   46.74    3.66
   0   1  -9   47.04    2.64
   0   1  -9   46.66    2.37
   0   1  -9   44.18    3.90
   0   1  -8    1.56    1.20
   0   1  -8    3.24    1.33
   0  -1   8   -0.51    0.57
   0  -1   8    2.45    1.32
   0   1  -8   -0.44    1.14
   0   1  -8    1.12    1.63
   0   1  -8    0.77    0.69
   0  -1   8    0.26    1.09
   0   1  -8   -0.23    1.17
   0  -1   8    0.20    0.91
   0   1  -8   -0.58    0.67
   0  -1   8   -1.26    1.50
   0   1  -7   34.94    1.95
   0  -1   7   33.05    2.59
   0   1  -7   36.42    2.93
   0   1  -7   40.10    3.46
   0  -1   7   35.21    3.07
   0  -1   7   37.23    3.09
   0   1  -7   33.51    2.84
   0   1  -7   31.84    2.99
   0   1  -7   34.53    1.98
   0  -1   7   35.81    1.71
   0   1  -7   32.54    2.68
   0  -1   7   33.25    2.64
   0   1  -6   55.42    3.48
   0  -1   6   57.29    1.95
   0  -1   6   61.57    2.44
   0   1  -6   53.53    3.27
   0   1  -6   51.60    3.27
   0  -1   6   59.82    3.48
   0  -1   6   59.66    3.04
   0   1  -6   55.20    2.24
   0  -1   6   55.74    2.93
   0   1  -6   54.07    3.08
   0  -1   6   54.22    3.52
   0   1  -6   58.68    3.69
   0   1  -6   62.18    2.93
   0   1  -6   55.13    2.28
   0  -1   5   21.99    1.16
   0   1  -5   22.49    1.36
   0  -1   5   20.10    1.96
   0  -1   5   21.76    2.10
   0  -1   5   19.71    1.69
   0   1  -5   22.30    1.71
   0   1  -5   18.23    1.73
   0  -1   5   21.42    1.39
   0   1  -5   21.47    1.40
   0   1  -5   20.89    1.90
   0   1  -5   23.70    1.71
   0   1  -5   21.25    2.01
   0   1  -5   23.15    2.14
   0   1  -5   21.12    1.98
   0  -1   5   22.03    1.78
   0   1  -5   25.30    2.45
   0  -1   4  388.58    7.25
   0  -1   4  360.08    4.01
   0  -1   4  363.30    6.87
   0  -1   4  363.49    5.41
   0   1  -4  354.85    6.96
   0  -1   4  377.99    6.73
   0   1  -4  366.91    5.04
   0   1  -4  354.97    6.65
   0   1  -4  351.17    5.93
   0  -1   4  365.03    5.46
   0  -1   4  368.43    5.13
   0  -1   4  361.07    6.38
   0  -1   4  386.75    6.88
   0   1  -4  355.83    6.62
   0   1  -4  355.69    6.31
   0   1  -4  372.29    5.44
   0   1  -4  357.30    6.80
   0   1  -4  364.15    4.62
   0   1  -4  367.07    5.60
   0   1  -3 1640.78   12.77
   0  -1   3 1657.62   10.09
   0   1  -3 1605.62    9.40
   0   1  -3 1639.55   11.22
   0   1  -3 1659.02   10.02
   0   1  -3 1619.02   12.28
   0  -1   3 1638.12    9.40
   0  -1   3 1702.52   12.67
   0   1  -3 1648.59   10.65
   0  -1   3 1763.49   13.16
   0   1  -3 1670.34    9.35
   0   1  -3 1666.88    8.90
   0   1  -3 1665.90   11.93
   0  -1   3 1627.57   10.55
   0  -1   3 1653.35   11.93
   0  -1   3 1649.34   11.09
   0   1  -3 1672.43   12.80
   0  -1   3 1674.04    9.33
   0  -1   3 1650.39    8.85
   0   1  -2 1551.84   10.38
   0  -1   2 1642.18   10.54
   0  -1   2 1660.17   10.53
   0   1  -2 1572.69    8.46
   0  -1   2 1574.29   10.57
   0  -1   2 1631.31    8.28
   0  -1   2 1627.34    9.42
   0   1  -2 1565.19    8.44
   0   1  -2 1552.16    9.05
   0  -1   2 1569.54    8.40
   0   1  -2 1598.43    8.23
   0  -1   2 1614.71   10.56
   0  -1   2 1585.29    9.22
   0  -1   2 1581.74    7.33
   0   1  -2 1591.80    9.30
   0   1  -2 1580.52   10.41
   0  -1   2 1570.32    8.52
   0  -1   1   55.13    1.58
   0   1  -1   54.13    1.74
   0  -1   1   53.50    1.70
   0   1  -1   52.85    1.71
   0  -1   1   53.71    1.43
   0  -1   0  876.25    6.43
   0  -1   0  948.66    6.30
   0   1   0  920.31    6.45
   0   1   0  944.50    6.06
   0  -1   0  918.58    6.95
   0   1   0  934.24    6.12
   0   1   0  904.31    5.56
   0  -1  -1   12.56    1.08
   0   1   1   11.14    0.98
   0   1   1   10.03    1.05
   0   1   1   12.92    1.00
   0  -1  -1   11.66    1.10
   0   1   1   11.64    0.98
   0   1   1   11.49    0.84
   0  -1  -1   12.27    0.96
   0   1   1   12.50    1.07
   0  -1  -1   12.48    1.04
   0  -1  -1   11.31    1.10
   0  -1  -1   11.10    1.06
   0  -1  -1   11.50    0.85
   0   1   2  103.51    3.20
   0   1   2  101.46    3.48
   0   1   2  110.96    3.36
   0  -1  -2  102.81    3.01
   0  -1  -2  103.76    3.36
   0  -1  -2  105.42    2.97
   0  -1  -2  105.85    3.45
   0  -1  -2  106.07    3.45
   0  -1  -2   99.81    1.85
   0  -1  -2  100.72    3.17
   0   1   2   97.89    3.25
   0   1   2  104.36    3.06
   0   1   2   98.54    2.88
   0   1   3   27.75    2.24
   0  -1  -3   23.53    1.27
   0   1   3   29.46    2.05
   0  -1  -3   23.43    1.63
   0  -1  -3   25.90    2.19
   0  -1  -3   23.64    2.01
   0  -1  -3   25.25    1.81
   0   1   3   22.72    1.82
   0   1   3   24.39    2.01
   0  -1  -3   26.24    2.01
   0   1   3   26.11    2.07
   0   1   3   25.77    1.84
   0   1   3   28.30    2.06
   0  -1  -3   24.03    2.02
   0  -1  -4   60.80    1.73
   0   1   4   67.25    3.66
   0  -1  -4   65.60    2.39
   0   1   4   61.18    3.12
   0  -1  -4   66.17    2.76
   0  -1  -4   64.04    3.44
   0  -1  -4   73.73    3.74
   0   1   4   67.62    3.44
   0   1   4   61.33    3.41
   0  -1  -5  334.83    8.33
   0   1   5  319.51    7.78
   0  -1  -5  330.14    6.44
   0  -1  -5  339.59    6.08
   0  -1  -5  332.61    7.45
   0  -1  -5  342.00    8.53
   0   1   5  336.68    8.28
   0   1   5  329.77    8.21
   0   1   5  340.39    8.63
   0  -1  -6  207.95    6.50
   0   1   6  205.77    6.91
   0  -1  -6  223.75    7.53
   0   1   6  219.67    7.55
   0   1   6  206.93    7.12
   0  -1  -6  216.35    5.46
   0  -1  -6  215.50    5.49
   0  -1  -6  203.66    7.24
   0  -1  -7    0.48    0.80
   0  -1  -7    1.58    1.46
   0   1   7    0.72    1.25
   0  -1  -7    2.86    1.53
   0  -1  -7    2.79    0.97
   0   1   7   -1.28    1.26
   0  -1  -7    0.40    1.25
   0  -1  -7    1.12    0.94
   0   1   7    2.32    1.82
   0  -1  -8    0.58    1.45
   0   1   8   -1.36    1.50
   0  -1  -8    0.49    0.91
   0  -1  -8    0.62    0.76
   0   1   8    1.65    1.85
   0  -1  -8    1.35    1.36
   0  -1  -8   -0.08    0.89
   0   1   8   -0.93    1.42
   0  -1  -8   -1.48    1.97
   0  -1  -9   44.87    4.42
   0   1   9   42.94    4.03
   0  -1  -9   45.57    2.96
   0   1   9   46.14    4.26
   0  -1  -9   44.27    4.32
   0  -1  -9   45.77    3.32
   0  -1  -9   38.38    2.11
   0   1   9   45.73    4.58
   0  -1  -9   39.62    3.64
   0  -1 -10   34.16    3.96
   0  -1 -10   46.88    4.69
   0   1  10   44.93    4.33
   0  -1 -10   33.15    3.56
   0  -1 -10   42.13    4.45
   0   1  10   38.89    4.09
   0   1  10   48.08    4.82
   0  -1 -11   23.00    3.68
   0   1  11   23.45    3.50
   0  -1 -11   16.87    3.24
   0  -1 -11   24.98    3.26
   0   1  11   24.92    3.87
   0   1  11   26.87    3.67
   0  -1 -11   30.70    3.87
   0   1  12   33.33    4.23
   0  -1 -12   35.45    4.87
   0   1  12   31.96    4.66
   0  -1 -12   36.67    4.35
   0   1  12   39.78    4.65
   0  -1 -12   44.99    5.14
   0  -1 -12   41.03    4.39
   0  -1 -13    4.00    1.98
   0   1  13    4.20    2.15
   0  -1 -13    2.52    2.23
   0  -1 -13    8.98    2.98
   0  -1 -13    3.73    1.97
   0   1  13    4.49    1.90
   0   1  13    7.87    3.01
   0  -1 -14    4.26    2.21
   0   1  14    4.00    2.55
   0   1  14    3.09    1.95
   0  -1 -14    3.46    2.42
   0  -1 -14    8.48    3.04
   0   1  14    2.49    1.77
   0   2 -16   10.35    2.73
   0  -2  16    7.62    3.12
   0   2 -15   -0.74    1.79
   0   2 -15    4.91    2.18
   0  -2  15    3.77    2.24
   0   2 -15    2.85    2.32
   0   2 -15    4.65    2.56
   0  -2  15    5.89    2.44
   0   2 -15    2.26    1.94
   0   2 -14    8.21    2.68
   0  -2  14    3.95    1.91
   0   2 -14    5.90    2.10
   0  -2  14    4.71    2.23
   0   2 -14    7.57    3.00
   0  -2  14    5.06    2.26
   0   2 -14    0.82    1.66
   0   2 -14    2.47    1.81
   0  -2  13    4.64    2.15
   0   2 -13    0.79    1.56
   0   2 -13    3.88    1.79
   0   2 -13    3.90    1.86
   0  -2  13    0.84    1.49
   0   2 -13    0.32    1.82
   0   2 -13   -0.92    1.67
   0  -2  13    0.87    1.34
   0  -2  12   -1.32    1.50
   0   2 -12   -0.12    1.39
   0   2 -12    0.51    1.47
   0  -2  12    0.41    1.62
   0   2 -12    3.03    1.66
   0  -2  12    0.04    1.17
   0  -2  12    1.53    1.67
   0   2 -12    0.45    1.80
   0   2 -12    0.94    1.45
   0   2 -11    3.23    1.63
   0  -2  11    1.85    1.27
   0   2 -11   -3.23    1.88
   0   2 -11   -0.83    1.71
   0  -2  11   -0.20    0.99
   0   2 -11   -1.62    1.34
   0  -2  11   -0.63    1.57
   0  -2  11   -1.50    1.52
   0   2 -11    0.51    1.83
   0   2 -10    0.08    1.42
   0   2 -10    1.20    1.36
   0   2 -10    2.02    1.82
   0   2 -10    1.54    1.00
   0  -2  10    0.00    1.06
   0   2 -10    1.84    1.44
   0  -2  10    1.31    1.80
   0  -2  10    1.67    1.27
   0   2 -10   -1.71    1.72
   0   2 -10    0.30    0.72
   0  -2  10    0.48    1.30
   0  -2   9   -0.31    0.43
   0   2  -9   -0.07    1.26
   0   2  -9    1.27    0.93
   0  -2   9    0.55    1.12
   0   2  -9   -0.07    0.59
   0   2  -9   -0.77    1.38
   0  -2   9    1.38    1.21
   0  -2   9    0.51    0.45
   0   2  -9   -1.02    1.61
   0  -2   9    2.12    1.40
   0   2  -9    0.61    1.31
   0  -2   9    0.03    0.87
   0   2  -9   -0.72    1.37
   0  -2   8  128.77    3.40
   0   2  -8  128.94    5.93
   0  -2   8  142.03    3.29
   0   2  -8  128.48    5.79
   0  -2   8  153.43    4.65
   0  -2   8  138.03    4.90
   0   2  -8  135.40    4.41
   0   2  -8  138.09    6.02
   0  -2   8  129.29    5.72
   0  -2   8  131.44    6.04
   0   2  -8  132.92    3.88
   0   2  -8  129.45    5.34
   0   2  -8  137.68    6.34
   0  -2   8  134.36    4.82
   0   2  -7  208.64    5.27
   0   2  -7  202.54    4.57
   0  -2   7  203.89    5.28
   0   2  -7  200.10    5.99
   0   2  -7  195.51    6.65
   0  -2   7  218.47    5.37
   0   2  -7  200.98    7.05
   0   2  -7  200.21    5.21
   0   2  -7  207.86    5.29
   0  -2   7  210.66    3.95
   0   2  -7  189.21    6.52
   0   2  -7  197.61    6.85
   0  -2   7  203.40    6.33
   0  -2   7  197.22    5.25
   0  -2   7  187.18    6.66
   0  -2   6  862.52    9.39
   0  -2   6  872.10    7.95
   0   2  -6  888.09    9.89
   0   2  -6  881.74    9.65
   0   2  -6  864.40   10.36
   0   2  -6  861.97   13.30
   0   2  -6  838.60   13.08
   0   2  -6  868.88    9.00
   0  -2   6  849.09   12.88
   0   2  -6  861.61   12.39
   0   2  -6  840.13   12.67
   0  -2   6  851.11   11.48
   0  -2   6  871.21    9.64
   0  -2   6  933.14   10.54
   0   2  -6  859.47   11.12
   0  -2   6  889.66   11.07
   0   2  -5  118.56    3.26
   0  -2   5  115.15    2.93
   0   2  -5  112.57    3.70
   0   2  -5  106.11    4.04
   0   2  -5  109.86    4.38
   0   2  -5  114.21    2.96
   0  -2   5  116.36    3.77
   0  -2   5  114.95    3.60
   0  -2   5  120.00    4.17
   0   2  -5  114.16    3.17
   0  -2   5  126.04    3.87
   0   2  -5  116.56    3.81
   0  -2   5  115.49    3.15
   0  -2   5  113.95    3.18
   0   2  -5  113.04    4.57
   0   2  -5  106.25    4.42
   0   2  -5  109.57    3.64
   0  -2   4    0.50    0.44
   0  -2   4    0.91    0.62
   0  -2   4    2.47    1.09
   0   2  -4    0.20    1.05
   0  -2   4    1.33    1.00
   0  -2   4    0.29    0.61
   0  -2   4    1.17    0.81
   0  -2   4    0.58    0.72
   0  -2   4    1.46    0.89
   0  -2   4    1.46    0.60
   0   2  -4    0.36    1.11
   0   2  -4    1.24    0.63
   0   2  -4    1.50    0.71
   0  -2   4    1.24    0.75
   0   2  -4    1.15    0.78
   0   2  -4    0.95    1.15
   0  -2   4    0.99    0.92
   0  -2   4    0.87    0.73
   0   2  -4    0.84    0.88
   0  -2   3   23.68    1.39
   0  -2   3   24.13    1.61
   0   2  -3   23.97    1.49
   0  -2   3   22.30    1.43
   0   2  -3   25.67    1.57
   0  -2   3   25.82    1.51
   0   2  -3   22.55    1.89
   0   2  -3   23.45    1.86
   0  -2   3   26.16    1.78
   0  -2   3   26.86    1.92
   0  -2   3   28.33    1.87
   0  -2   3   28.89    2.05
   0   2  -3   25.98    1.49
   0  -2   3   23.99    1.08
   0   2  -3   23.45    1.91
   0  -2   3   25.72    1.86
   0   2  -3   25.77    1.83
   0  -2   2    0.14    0.62
   0  -2   2   -0.40    0.87
   0  -2   2   -1.36    0.94
   0  -2   2    0.28    0.36
   0   2  -2    0.31    0.77
   0   2  -2    0.42    0.86
   0  -2   2    0.22    0.72
   0  -2   2    0.12    0.48
   0  -2   2    0.60    0.85
   0   2  -2   -0.48    0.66
   0  -2   2   -0.86    1.01
   0   2  -2    0.74    0.36
   0  -2   2   -0.25    0.92
   0   2  -2    1.31    0.83
   0   2  -2    0.57    0.95
   0  -2   2   -0.62    0.78
   0  -2   2    0.33    0.71
   0   2  -2    0.63    0.93
   0  -2   1   61.03    2.49
   0   2  -1   56.63    2.24
   0  -2   1   61.97    1.85
   0  -2   1   56.18    2.43
   0   2  -1   57.92    2.20
   0   2  -1   60.19    2.02
   0   2  -1   59.95    2.43
   0  -2   1   58.13    2.22
   0  -2   1   58.15    2.19
   0  -2   1   56.97    2.22
   0   2  -1   62.27    1.83
   0  -2   1   63.41    2.66
   0   2  -1   57.65    2.41
   0   2  -1   59.12    2.51
   0  -2   1   57.59    2.18
   0   2  -1   61.07    2.29
   0  -2   1   58.36    2.63
   0   2  -1   60.85    1.83
   0   2  -1   58.29    2.22
   0  -2   1   62.56    2.30
   0   2   0   10.51    1.25
   0   2   0   12.04    1.19
   0  -2   0   11.58    1.30
   0   2   0    8.90    0.96
   0  -2   0   10.97    1.18
   0  -2   0   10.62    1.25
   0   2   0   10.49    1.11
   0   2   0   12.16    0.76
   0   2   0   11.21    1.19
   0  -2   0   11.78    1.15
   0   2   0   10.56    0.95
   0  -2   0   10.34    1.12
   0   2   0   10.88    1.23
   0  -2   0   10.91    0.91
   0  -2  -1   22.56    1.79
   0  -2  -1   22.43    1.40
   0   2   1   25.27    1.87
   0   2   1   26.32    1.79
   0   2   1   20.37    1.69
   0   2   1   21.05    1.37
   0  -2  -1   24.05    1.78
   0  -2  -1   22.56    1.63
   0  -2  -1   24.26    1.87
   0   2   1   22.21    1.57
   0  -2  -1   20.22    1.76
   0  -2  -1   26.75    1.81
   0  -2  -2   -0.29    0.98
   0   2   2    0.03    0.68
   0   2   2    0.70    0.89
   0  -2  -2    2.05    1.07
   0   2   2    0.82    1.04
   0  -2  -2    0.00    0.92
   0   2   2    0.23    0.78
   0   2   2    1.17    0.82
   0  -2  -2    0.57    1.01
   0  -2  -2    1.77    1.02
   0   2   2   -0.35    0.93
   0  -2  -2    0.68    0.78
   0  -2  -2    0.10    0.91
   0  -2  -2   -0.02    0.59
   0  -2  -3 2218.14   18.90
   0   2   3 2277.43   20.17
   0   2   3 2207.44   19.90
   0   2   3 2206.69   17.18
   0  -2  -3 2196.01   18.47
   0   2   4    2.56    1.37
   0   2   4    0.73    0.84
   0   2   4    1.34    1.45
   0  -2  -4    0.67    1.01
   0  -2  -4    2.36    1.10
   0  -2  -5  185.06    5.76
   0  -2  -5  178.01    6.56
   0   2   5  187.43    6.87
   0   2   5  183.39    6.17
   0   2   5  183.50    7.00
   0  -2  -5  182.15    4.16
   0   2   6   15.69    2.72
   0  -2  -6   12.94    1.13
   0  -2  -6   15.63    2.05
   0  -2  -6   20.40    3.00
   0   2   6   15.77    2.44
   0  -2  -6   13.40    2.16
   0   2   6   14.76    2.11
   0  -2  -7    6.59    1.78
   0  -2  -7    6.27    1.54
   0  -2  -7    5.92    0.80
   0   2   7    5.57    2.13
   0   2   7    3.22    1.88
   0  -2  -7   10.42    2.20
   0   2   7    6.74    1.60
   0  -2  -7   10.00    2.54
   0   2   8   -2.26    1.72
   0  -2  -8    0.64    1.08
   0  -2  -8    2.23    1.82
   0  -2  -8    0.62    1.58
   0   2   8    1.94    2.03
   0  -2  -8    1.76    2.29
   0   2   8    1.20    1.30
   0   2   9    2.96    1.57
   0   2   9    3.98    1.96
   0  -2  -9    2.30    1.64
   0  -2  -9    1.18    1.73
   0  -2  -9    1.92    1.16
   0   2   9    2.49    1.52
   0  -2  -9   -0.11    1.49
   0   2  10    0.63    1.65
   0  -2 -10   -1.22    1.44
   0  -2 -10   -4.40    2.25
   0   2  10    0.78    1.57
   0  -2 -10   -1.23    1.58
   0   2  10   -1.83    1.58
   0  -2 -11    3.33    1.95
   0   2  11    3.01    2.25
   0   2  11    0.71    1.56
   0  -2 -11   -0.94    1.73
   0   2  11    2.99    1.75
   0  -2 -11   -0.26    2.47
   0   2  12   -2.04    1.61
   0  -2 -12    1.52    1.54
   0   2  12   -0.73    1.92
   0  -2 -12   -1.44    1.75
   0  -2 -12   -2.79    2.45
   0   2  12   -0.65    1.70
   0  -2 -12   -0.53    1.65
   0   2  13   10.44    3.44
   0   2  13    9.72    2.63
   0  -2 -13    6.79    2.72
   0  -2 -13    4.78    2.61
   0  -2 -13    4.16    2.21
   0   2  13    4.09    2.24
   0  -2 -13    5.19    2.41
   0   3 -16    5.05    2.15
   0  -3  16    4.12    2.15
   0   3 -16    9.93    3.29
   0  -3  16    1.78    2.13
   0   3 -16    4.07    2.12
   0  -3  16    6.50    2.66
   0   3 -15    2.36    1.94
   0  -3  15    4.40    2.40
   0   3 -15    2.39    2.12
   0  -3  15    0.99    1.92
   0   3 -15    1.42    2.05
   0   3 -15    2.87    2.09
   0  -3  14    5.49    2.41
   0   3 -14    2.20    1.92
   0   3 -14   -2.10    1.81
   0  -3  14    2.83    1.83
   0   3 -14    3.00    1.81
   0   3 -14    6.21    2.46
   0   3 -14    2.74    1.99
   0   3 -13    6.57    2.32
   0   3 -13    5.52    1.93
   0  -3  13    3.36    1.82
   0   3 -13    8.47    2.56
   0   3 -13    6.00    2.21
   0  -3  13    6.26    2.33
   0  -3  13    9.86    2.04
   0   3 -13    9.60    2.34
   0   3 -12   28.26    3.20
   0   3 -12   28.04    3.68
   0   3 -12   25.14    3.52
   0  -3  12   23.91    2.81
   0  -3  12   23.78    2.72
   0  -3  12   25.29    3.36
   0  -3  12   21.97    3.31
   0   3 -12   23.92    3.49
   0   3 -12   25.20    3.61
   0  -3  11    2.74    1.52
   0   3 -11    2.36    1.75
   0  -3  11    3.28    1.26
   0   3 -11    3.13    1.79
   0   3 -11    2.01    1.28
   0   3 -11    1.80    1.59
   0  -3  11   -0.80    1.51
   0   3 -11    0.87    0.95
   0   3 -11    1.21    1.44
   0  -3  11    2.58    1.15
   0  -3  10    6.19    1.95
   0   3 -10    8.19    1.21
   0   3 -10    6.86    2.21
   0   3 -10    6.59    2.01
   0   3 -10    8.34    2.31
   0  -3  10    7.48    2.08
   0   3 -10    9.14    1.63
   0  -3  10   11.38    1.87
   0   3 -10    8.73    1.96
   0  -3  10    7.38    1.15
   0   3 -10   10.28    2.10
   0  -3  10    8.77    1.51
   0   3  -9    3.49    1.63
   0   3  -9    7.01    2.26
   0   3  -9    4.11    0.96
   0   3  -9    2.75    1.14
   0   3  -9    1.67    1.12
   0  -3   9    3.40    0.84
   0  -3   9    5.03    1.35
   0   3  -9    2.73    1.27
   0  -3   9    3.75    1.53
   0  -3   9    1.80    1.07
   0  -3   9    2.21    0.89
   0   3  -9    5.52    1.81
   0   3  -8  239.10    8.12
   0   3  -8  245.44    8.39
   0   3  -8  237.62    8.37
   0  -3   8  247.16    7.17
   0   3  -8  242.88    6.70
   0   3  -8  248.49    5.60
   0  -3   8  252.07    5.92
   0  -3   8  241.47    5.50
   0  -3   8  235.04    4.95
   0   3  -8  252.25    7.82
   0   3  -8  242.29    6.86
   0   3  -8  243.28    5.70
   0  -3   8  233.57    7.94
   0  -3   7   59.20    3.27
   0   3  -7   54.20    3.82
   0   3  -7   57.27    3.53
   0   3  -7   52.63    3.70
   0  -3   7   56.88    2.62
   0   3  -7   59.60    3.32
   0  -3   7   59.63    2.36
   0   3  -7   53.22    3.92
   0  -3   7   55.01    2.69
   0   3  -7   58.14    2.80
   0  -3   7   57.94    2.77
   0   3  -7   59.20    3.18
   0  -3   6    2.86    0.54
   0   3  -6    2.92    1.08
   0   3  -6    3.87    1.14
   0   3  -6    2.61    1.26
   0   3  -6    4.22    0.96
   0   3  -6    3.62    1.06
   0  -3   6    3.26    0.88
   0  -3   6    3.97    0.81
   0  -3   6    5.33    1.03
   0   3  -6    2.23    1.39
   0  -3   6    3.89    1.13
   0  -3   6    3.99    0.95
   0  -3   5    5.33    0.52
   0  -3   5    5.39    1.01
   0  -3   5    7.65    1.17
   0   3  -5    5.42    0.97
   0   3  -5    7.61    1.43
   0  -3   5    6.72    0.96
   0   3  -5    5.35    1.02
   0   3  -5    5.95    1.48
   0  -3   5    5.79    0.98
   0   3  -5    5.75    1.44
   0  -3   5    6.58    1.15
   0   3  -5    5.38    1.10
   0  -3   5    6.25    0.78
   0   3  -4    4.26    1.29
   0   3  -4    0.89    1.08
   0  -3   4    0.92    0.40
   0  -3   4    1.17    1.03
   0  -3   4    0.92    0.63
   0  -3   4    2.33    0.89
   0   3  -4    0.89    0.65
   0  -3   4    1.70    0.74
   0   3  -4    1.54    0.97
   0   3  -4    1.41    1.08
   0   3  -4    1.34    0.92
   0  -3   4    1.49    1.08
   0  -3   4    0.78    0.61
   0  -3   3  168.51    5.02
   0  -3   3  174.82    2.93
   0  -3   3  179.04    4.92
   0   3  -3  170.88    4.83
   0   3  -3  165.93    4.90
   0   3  -3  180.52    4.40
   0  -3   3  172.81    3.74
   0  -3   3  174.15    4.40
   0  -3   3  169.34    4.59
   0  -3   3  176.33    4.91
   0   3  -3  177.25    5.40
   0  -3   3  166.10    4.98
   0   3  -3  166.10    2.83
   0   3  -3  168.41    5.20
   0  -3   3  173.27    2.63
   0  -3   2  577.88    6.12
   0   3  -2  538.05    7.83
   0   3  -2  560.46    9.08
   0  -3   2  571.87    8.13
   0   3  -2  575.12    8.47
   0   3  -2  557.16    8.11
   0  -3   2  537.35    8.35
   0  -3   2  546.65    8.39
   0   3  -2  550.26    6.03
   0   3  -2  544.48    9.22
   0  -3   2  593.82    9.15
   0   3  -2  549.97    8.91
   0  -3   2  588.73    9.15
   0   3  -2  580.07    8.49
   0  -3   2  552.45    8.06
   0  -3   2  567.00    8.33
   0  -3   1    8.01    1.02
   0  -3   1    7.67    0.93
   0  -3   1    7.17    1.31
   0  -3   1    8.91    1.39
   0   3  -1    6.53    1.10
   0   3  -1    6.24    1.09
   0   3  -1    7.71    1.05
   0  -3   1    6.57    1.18
   0   3  -1    7.42    0.98
   0   3  -1    6.69    1.35
   0   3  -1    6.58    1.02
   0   3  -1    8.46    1.31
   0   3  -1    5.72    1.03
   0   3  -1    7.45    1.11
   0   3  -1    7.78    1.31
   0  -3   1    6.88    1.22
   0  -3   0    9.46    1.38
   0  -3   0   11.92    1.37
   0   3   0   10.31    1.22
   0   3   0   11.11    1.42
   0  -3   0   11.00    1.37
   0   3   0   10.31    1.57
   0   3   0    9.78    1.13
   0  -3   0   10.58    1.13
   0  -3   0   10.05    1.04
   0   3   0   10.89    1.39
   0   3   0   10.97    1.40
   0   3   0   10.30    0.83
   0   3   0   10.56    1.40
   0  -3   0   11.15    1.38
   0   3   1    4.76    0.95
   0  -3  -1    5.35    1.26
   0  -3  -1    4.79    1.07
   0  -3  -1    4.68    0.85
   0   3   1    5.01    1.27
   0   3   1    3.50    1.03
   0   3   1    4.93    0.92
   0  -3  -1    3.67    1.22
   0   3   1    5.04    1.07
   0   3   2   29.20    2.50
   0  -3  -2   28.37    1.96
   0  -3  -2   29.97    2.36
   0   3   2   26.34    2.38
   0  -3  -2   27.19    2.52
   0  -3  -2   28.08    2.51
   0  -3  -2   24.70    2.13
   0   3   2   30.18    2.06
   0   3   3  124.02    4.43
   0  -3  -3  127.17    5.02
   0  -3  -3  131.79    5.39
   0   3   3  128.38    5.45
   0   3   3  120.79    5.33
   0  -3  -3  114.88    5.14
   0   3   4   10.00    2.06
   0  -3  -4   11.72    1.93
   0   3   4    8.78    1.50
   0   3   4    9.40    1.88
   0  -3  -4    7.98    1.71
   0   3   5    0.65    1.29
   0  -3  -5   -0.77    1.34
   0   3   5   -1.25    1.62
   0  -3  -5    0.99    1.37
   0   3   5    1.23    1.10
   0  -3  -6    0.09    1.33
   0  -3  -6   -0.06    0.85
   0   3   6    1.31    1.63
   0   3   6   -0.65    1.63
   0  -3  -6    0.33    1.25
   0   3   6    1.91    1.19
   0   3   7   20.86    2.82
   0  -3  -7   21.89    3.03
   0  -3  -7   24.94    2.80
   0  -3  -7   19.80    1.74
   0   3   7   22.01    3.25
   0   3   7   18.34    3.13
   0  -3  -7   30.65    4.16
   0   3   8    6.04    2.20
   0  -3  -8    3.12    1.77
   0  -3  -8    6.99    1.84
   0   3   8    4.53    1.88
   0  -3  -8    7.78    2.40
   0   3   8    6.92    2.07
   0  -3  -8    7.73    2.53
   0   3   9   17.49    3.60
   0  -3  -9   18.11    3.25
   0  -3  -9   23.26    2.91
   0   3   9   25.90    3.42
   0   3   9   21.69    3.51
   0  -3  -9   24.76    3.29
   0  -3  -9   20.43    3.35
   0  -3 -10    3.11    2.10
   0   3  10    0.52    1.78
   0  -3 -10   -1.74    2.20
   0  -3 -10    0.13    1.47
   0   3  10   -0.50    1.40
   0   3  10    0.36    1.48
   0  -3 -11   -1.91    1.50
   0   3  11    2.33    1.90
   0   3  11   -3.50    2.25
   0   3  11   -0.25    1.65
   0  -3 -11   -1.01    2.45
   0  -3 -11   -0.01    1.99
   0  -3 -12   -1.18    2.62
   0   3  12    4.60    2.29
   0   3  12    1.87    1.93
   0  -3 -12    4.28    2.58
   0   3  12   -0.51    2.29
   0  -3 -12    3.88    2.21
   0   3  13    5.46    2.51
   0   4 -16    4.61    2.35
   0  -4  16    0.03    1.88
   0   4 -16    4.12    2.40
   0   4 -16    3.48    2.32
   0   4 -15    6.42    2.63
   0   4 -15    6.31    2.40
   0  -4  15    4.71    2.19
   0  -4  15    1.29    1.85
   0  -4  15    4.82    2.52
   0   4 -15    8.66    2.83
   0  -4  15    5.82    2.49
   0   4 -14   21.30    3.56
   0  -4  14   21.09    3.65
   0  -4  14   19.70    3.59
   0  -4  14   17.40    3.39
   0   4 -14   16.59    3.19
   0  -4  14   27.04    3.70
   0   4 -14   21.16    3.80
   0   4 -13    2.65    1.93
   0   4 -13    6.13    2.02
   0   4 -13    6.27    2.66
   0  -4  13    2.80    1.69
   0  -4  13    6.66    2.40
   0   4 -13    6.50    1.95
   0  -4  12   46.88    4.31
   0   4 -12   43.11    3.79
   0   4 -12   45.59    4.70
   0   4 -12   44.61    4.42
   0  -4  12   48.74    4.82
   0   4 -12   45.52    4.69
   0   4 -11   36.67    4.10
   0  -4  11   43.38    2.96
   0  -4  11   38.19    4.04
   0  -4  11   42.21    3.08
   0   4 -11   45.37    4.15
   0   4 -11   42.20    3.60
   0   4 -11   42.80    4.40
   0   4 -11   40.37    3.39
   0  -4  11   37.08    3.70
   0  -4  11   38.58    2.66
   0  -4  10   11.17    1.38
   0  -4  10   11.18    1.68
   0   4 -10    9.41    1.80
   0   4 -10   12.60    1.56
   0  -4  10    9.34    1.95
   0   4 -10    9.53    2.43
   0   4 -10   11.39    2.20
   0   4 -10   11.16    2.03
   0  -4  10   12.63    2.34
   0   4 -10   12.81    2.55
   0  -4   9    1.60    1.24
   0  -4   9    0.64    0.82
   0   4  -9    2.98    1.19
   0   4  -9    1.93    0.85
   0   4  -9    2.59    1.41
   0   4  -9    2.87    1.68
   0  -4   9    1.96    0.67
   0   4  -9    4.27    1.47
   0  -4   9    2.83    1.26
   0   4  -9    0.61    1.73
   0   4  -8   -0.11    0.80
   0  -4   8   -0.37    1.70
   0  -4   8   -0.26    0.38
   0   4  -8    3.31    1.55
   0  -4   8   -0.07    0.51
   0   4  -8   -0.05    0.85
   0   4  -8    0.66    1.35
   0   4  -8   -0.02    1.09
   0  -4   8   -0.89    1.55
   0  -4   8   -0.71    0.86
   0  -4   8    2.49    1.33
   0   4  -7   12.28    2.07
   0   4  -7   12.29    2.01
   0  -4   7    8.28    1.78
   0  -4   7    9.53    1.80
   0  -4   7   12.88    1.17
   0   4  -7   11.22    1.69
   0  -4   7   11.62    1.53
   0   4  -7   14.07    1.71
   0  -4   7   13.70    1.46
   0   4  -7   12.63    1.60
   0  -4   7    8.42    0.71
   0  -4   6   21.97    1.29
   0   4  -6   23.68    2.59
   0   4  -6   23.89    2.12
   0   4  -6   23.79    2.05
   0  -4   6   22.18    2.53
   0  -4   6   23.26    1.78
   0   4  -6   21.66    2.55
   0  -4   6   19.56    2.41
   0   4  -6   24.18    2.80
   0  -4   6   21.98    1.80
   0  -4   5  146.37    5.81
   0   4  -5  142.08    5.80
   0   4  -5  142.36    5.09
   0   4  -5  145.33    5.88
   0   4  -5  143.26    4.60
   0  -4   5  139.97    5.68
   0  -4   5  146.48    4.64
   0  -4   5  144.48    4.11
   0  -4   5  138.83    5.03
   0  -4   5  146.91    2.97
   0  -4   5  154.77    4.45
   0   4  -5  139.45    5.60
   0  -4   4  292.19    3.67
   0   4  -4  303.20    8.18
   0   4  -4  286.76    4.18
   0   4  -4  285.90    7.49
   0   4  -4  289.57    8.01
   0   4  -4  311.33    6.65
   0  -4   4  296.33    7.76
   0  -4   4  301.71    7.81
   0   4  -4  296.33    7.38
   0  -4   4  314.47    5.80
   0  -4   4  304.47    6.64
   0  -4   4  297.10    7.06
   0  -4   4  310.08    7.58
   0   4  -3 1297.33   10.06
   0  -4   3 1304.69   14.40
   0  -4   3 1363.28    9.97
   0   4  -3 1315.23   16.47
   0  -4   3 1309.84   15.27
   0  -4   3 1288.63   14.77
   0   4  -3 1311.04   15.76
   0   4  -3 1303.18   16.52
   0   4  -3 1254.80   14.16
   0  -4   3 1302.08   15.26
   0  -4   2  131.70    3.69
   0   4  -2  123.93    4.96
   0  -4   2  122.25    4.45
   0   4  -2  117.68    5.04
   0  -4   2  124.89    4.56
   0   4  -2  114.79    3.50
   0   4  -2  118.96    4.95
   0  -4   2  123.78    4.50
   0   4  -2  117.14    3.91
   0   4  -1  230.04    5.72
   0  -4   1  243.09    6.08
   0  -4   1  255.90    5.90
   0  -4   1  243.00    6.45
   0  -4   1  257.90    5.08
   0   4  -1  232.65    4.76
   0   4  -1  235.46    7.12
   0  -4   1  241.34    6.17
   0   4  -1  234.68    5.63
   0   4  -1  252.54    6.04
   0   4  -1  241.21    7.09
   0  -4   1  253.37    6.07
   0   4  -1  246.99    6.85
   0   4  -1  246.53    5.93
   0  -4   0   14.07    1.88
   0   4   0   14.98    1.61
   0  -4   0   12.94    1.48
   0   4   0   14.67    1.52
   0   4   0   14.24    1.82
   0   4   0   15.50    1.92
   0  -4   0   11.60    1.53
   0   4   0   13.62    1.00
   0  -4   0   12.93    1.24
   0   4   0   16.69    2.14
   0   4   1   -0.99    0.84
   0  -4  -1    1.93    1.19
   0  -4  -1    1.16    1.26
   0   4   1    0.08    0.66
   0  -4  -1    0.92    0.87
   0   4   1    1.46    1.18
   0  -4  -1    0.47    0.63
   0   4   1    1.49    1.02
   0  -4  -2    2.80    1.16
   0   4   2    5.93    1.60
   0   4   2    4.31    0.97
   0  -4  -2    4.73    1.36
   0   4   2    3.49    1.34
   0  -4  -2    3.79    1.49
   0  -4  -2    3.73    1.38
   0   4   2    5.21    1.10
   0   4   3    2.31    1.10
   0   4   3    4.55    1.25
   0  -4  -3    0.72    1.12
   0  -4  -3   -0.37    1.22
   0  -4  -3    1.35    1.33
   0  -4  -3    2.30    1.49
   0   4   3    1.65    1.26
   0   4   4   17.29    2.66
   0  -4  -4   20.38    2.52
   0   4   4   22.42    2.84
   0   4   4   24.73    2.48
   0  -4  -4   19.54    2.64
   0  -4  -5    1.25    1.50
   0   4   5    0.41    1.66
   0   4   5    1.94    1.10
   0  -4  -5    1.91    1.36
   0   4   5   -0.35    1.92
   0  -4  -6   18.62    2.11
   0  -4  -6   16.99    2.68
   0   4   6   13.47    2.52
   0   4   6   10.04    2.31
   0   4   6   16.39    2.35
   0  -4  -6   16.39    2.59
   0   4   7  135.12    6.69
   0  -4  -7  134.86    7.51
   0  -4  -7  141.19    7.51
   0  -4  -7  131.99    6.83
   0   4   7  134.18    7.75
   0   4   7  136.25    7.90
   0   4   8    1.58    1.72
   0   4   8    5.54    1.74
   0  -4  -8    4.16    2.43
   0   4   8    1.81    1.95
   0  -4  -8    8.65    2.64
   0  -4  -8    4.17    1.69
   0  -4  -8    3.80    1.99
   0   4   9   -0.17    1.78
   0  -4  -9    4.40    2.23
   0  -4  -9    0.13    1.40
   0   4   9   -1.62    1.95
   0  -4  -9    0.28    1.66
   0  -4  -9    3.23    2.34
   0   4   9    0.46    1.28
   0   4  10   -0.79    2.12
   0   4  10    1.16    1.46
   0  -4 -10    3.11    2.29
   0  -4 -10    1.20    1.57
   0  -4 -10   -1.07    1.83
   0   4  10   -0.57    1.63
   0   4  11   -5.07    2.96
   0  -4 -11   -1.07    1.62
   0   4  11   -1.83    1.78
   0   4  11    1.29    1.85
   0  -4 -11   -1.48    2.35
   0   4  12   -1.01    1.56
   0  -4 -12   -1.55    2.43
   0   5 -16    7.58    2.52
   0   5 -15    1.59    1.96
   0  -5  15    0.81    2.25
   0  -5  15   -0.20    2.16
   0  -5  15    1.03    1.96
   0   5 -15    4.55    1.90
   0   5 -14   13.41    2.93
   0  -5  14    9.19    2.53
   0  -5  14    7.79    2.58
   0   5 -14    4.97    2.30
   0  -5  14    9.22    2.67
   0  -5  13    7.73    2.46
   0   5 -13    7.35    2.10
   0  -5  13    7.13    2.05
   0  -5  13   10.18    2.26
   0  -5  13    7.25    2.70
   0   5 -13    6.99    2.37
   0  -5  12   12.90    2.84
   0   5 -12   11.66    2.40
   0  -5  12   14.84    2.54
   0  -5  12   12.45    2.61
   0   5 -12   13.35    2.28
   0   5 -12   15.60    3.13
   0  -5  12   10.42    2.67
   0  -5  11    6.86    2.06
   0   5 -11    8.03    2.03
   0  -5  11    7.81    1.71
   0  -5  11    5.59    1.98
   0  -5  11    3.57    1.72
   0  -5  11    9.80    2.03
   0   5 -11    7.27    2.29
   0   5 -11    8.24    1.80
   0  -5  10   49.21    2.85
   0   5 -10   49.39    3.58
   0  -5  10   47.74    3.50
   0  -5  10   52.59    4.87
   0   5 -10   49.07    3.97
   0   5 -10   47.36    3.29
   0   5 -10   43.20    4.43
   0  -5  10   46.19    4.18
   0  -5  10   46.39    4.46
   0   5  -9  182.29    6.34
   0  -5   9  191.38    5.35
   0  -5   9  177.60    8.22
   0   5  -9  182.85    6.49
   0  -5   9  177.46    8.22
   0   5  -9  165.19    7.79
   0  -5   9  185.36    6.14
   0  -5   8    5.59    2.04
   0  -5   8    3.90    1.14
   0  -5   8    5.23    0.80
   0   5  -8    4.40    1.81
   0   5  -8    7.52    1.53
   0   5  -8    6.11    1.41
   0  -5   8    6.75    1.24
   0  -5   8    6.70    2.16
   0  -5   7    4.00    1.02
   0  -5   7    4.33    0.64
   0  -5   7    2.98    1.25
   0   5  -7    7.30    1.58
   0   5  -7    5.77    1.99
   0   5  -7    4.45    1.63
   0  -5   7    2.68    0.95
   0  -5   7    4.83    1.97
   0  -5   7    2.71    1.54
   0   5  -7    2.92    1.05
   0  -5   6   91.01    4.63
   0  -5   6   76.57    4.85
   0  -5   6   82.33    2.26
   0  -5   6   94.13    4.95
   0  -5   6   84.71    5.04
   0   5  -6   89.32    4.06
   0   5  -6   88.45    4.52
   0  -5   6   84.46    3.47
   0   5  -6   80.03    5.03
   0   5  -6   79.13    5.01
   0   5  -6   87.82    4.90
   0   5  -5   76.49    4.24
   0  -5   5   65.35    1.79
   0  -5   5   76.99    4.57
   0   5  -5   69.88    4.54
   0   5  -5   71.83    4.28
   0  -5   5   71.41    4.40
   0   5  -5   68.46    4.55
   0  -5   5   80.14    4.19
   0  -5   5   77.09    3.20
   0   5  -5   71.33    2.23
   0  -5   5   78.53    4.36
   0  -5   4    7.98    1.57
   0  -5   4   11.41    1.03
   0  -5   4    9.60    1.87
   0   5  -4   11.30    1.93
   0   5  -4   10.11    1.01
   0  -5   4    8.55    1.91
   0   5  -4    7.92    1.62
   0  -5   4    8.75    1.57
   0   5  -4    9.28    1.88
   0  -5   4    9.62    1.13
   0   5  -4   10.73    1.98
   0  -5   3   18.05    2.09
   0   5  -3   21.47    2.50
   0   5  -3   21.04    2.41
   0   5  -3   19.65    1.59
   0  -5   3   18.93    2.13
   0  -5   3   24.52    1.73
   0   5  -3   21.65    2.69
   0  -5   3   18.93    2.20
   0   5  -3   22.42    2.17
   0   5  -2   13.39    2.10
   0   5  -2   15.65    2.19
   0  -5   2   16.70    2.05
   0   5  -2   12.18    1.42
   0  -5   2   16.39    1.49
   0  -5   2   15.16    2.23
   0   5  -2   13.17    1.98
   0   5  -2   12.56    1.53
   0  -5   2   13.69    1.94
   0  -5   1    0.04    0.59
   0  -5   1   -0.54    0.72
   0   5  -1   -0.12    1.25
   0   5  -1    0.65    0.92
   0  -5   1    0.62    1.11
   0   5  -1   -0.82    1.17
   0   5  -1    0.02    0.58
   0  -5   1    1.13    1.09
   0   5  -1    0.80    0.84
   0   5   0   11.51    2.14
   0  -5   0    8.45    1.18
   0   5   0    8.99    1.71
   0  -5   0    7.06    1.50
   0  -5   0    9.21    1.42
   0   5   0    8.44    1.57
   0  -5   0    9.15    1.74
   0  -5  -1  383.97    8.72
   0   5   1  397.63   10.08
   0  -5  -1  393.37    9.26
   0  -5  -1  393.12   10.22
   0   5   1  407.75   10.88
   0   5   1  410.63   10.24
   0  -5  -2  168.79    7.05
   0  -5  -2  170.26    6.33
   0   5   2  176.04    6.94
   0   5   2  171.22    5.67
   0  -5  -2  167.62    6.36
   0  -5  -2  177.84    7.73
   0   5   2  174.99    7.18
   0  -5  -3  147.58    7.03
   0   5   3  156.12    7.25
   0   5   3  167.19    5.95
   0  -5  -3  158.23    6.57
   0  -5  -3  162.09    7.64
   0   5   3  156.20    6.71
   0  -5  -3  148.27    6.32
   0   5   4   22.30    2.52
   0  -5  -4   19.55    2.89
   0   5   4   21.40    3.07
   0   5   4   19.69    2.72
   0  -5  -4   18.49    2.67
   0  -5  -5    3.26    1.74
   0   5   5    1.88    1.26
   0  -5  -5   -0.35    1.27
   0  -5  -5   -0.85    1.17
   0   5   5    1.16    1.56
   0  -5  -6    4.11    1.84
   0  -5  -6    0.75    1.09
   0  -5  -6    0.57    1.26
   0   5   6    0.79    1.42
   0   5   6    2.09    1.18
   0  -5  -7    1.87    1.66
   0  -5  -7    1.36    1.66
   0   5   7    3.16    1.85
   0  -5  -7    3.29    2.31
   0   5   7    1.21    1.29
   0   5   8    8.22    2.81
   0  -5  -8    9.71    2.95
   0  -5  -8   10.80    2.74
   0   5   8    8.89    2.24
   0  -5  -8    6.69    2.07
   0  -5  -9   14.35    3.00
   0  -5  -9   15.31    3.43
   0  -5  -9   17.02    3.24
   0   5   9   16.02    3.72
   0   5   9   11.39    2.59
   0  -5  -9   16.50    3.36
   0  -5 -10    8.70    2.60
   0   5  10   10.28    3.15
   0  -5 -10    7.34    2.83
   0  -5 -11   -0.91    2.46
   0   6 -15   -1.67    1.94
   0  -6  15    2.63    2.10
   0   6 -15    0.48    1.39
   0  -6  15    1.88    2.11
   0  -6  15   -2.19    2.33
   0  -6  14   -1.33    2.02
   0   6 -14   -1.47    2.11
   0  -6  14   -1.22    1.36
   0   6 -14    0.45    1.22
   0  -6  14    0.98    2.18
   0   6 -13    8.65    2.81
   0  -6  13    1.89    2.08
   0  -6  13    9.80    2.54
   0  -6  13    2.26    2.02
   0  -6  12    6.27    2.26
   0  -6  12    7.50    2.40
   0  -6  12   10.00    2.37
   0   6 -12    8.87    2.30
   0  -6  12    8.34    1.94
   0  -6  11  114.65    6.75
   0  -6  11  112.63    7.48
   0   6 -11  129.08    5.88
   0   6 -11  125.32    5.92
   0  -6  11  115.88    5.48
   0  -6  11  114.44    7.64
   0   6 -11  112.37    7.36
   0   6 -10   35.31    3.10
   0  -6  10   30.68    3.95
   0  -6  10   34.22    3.57
   0  -6  10   39.41    3.02
   0   6 -10   31.83    3.97
   0   6 -10   39.06    3.24
   0  -6  10   29.62    3.83
   0  -6   9  703.41   16.90
   0   6  -9  740.44   13.27
   0  -6   9  700.35   16.92
   0  -6   9  781.75   11.43
   0  -6   9  736.57   15.36
   0   6  -9  741.16   14.20
   0   6  -9  683.57   16.28
   0  -6   9  729.78   11.71
   0  -6   8   46.66    4.21
   0  -6   8   51.99    3.09
   0   6  -8   50.72    4.74
   0  -6   8   43.23    2.84
   0  -6   8   46.66    3.78
   0   6  -8   47.44    3.34
   0   6  -8   48.38    3.75
   0  -6   8   38.65    4.02
   0  -6   8   45.46    4.41
   0   6  -8   43.20    4.08
   0  -6   7    4.83    2.02
   0   6  -7    5.56    1.68
   0  -6   7    6.65    1.24
   0   6  -7    7.28    2.26
   0  -6   7    9.77    2.17
   0  -6   7    6.63    1.70
   0  -6   7    9.24    2.62
   0   6  -7    6.68    1.64
   0   6  -6    8.06    2.19
   0  -6   6   11.37    2.36
   0  -6   6    8.76    2.15
   0  -6   6    5.28    1.49
   0   6  -6    8.36    1.99
   0  -6   6    7.91    1.89
   0   6  -6    7.23    2.00
   0   6  -6    7.24    0.75
   0   6  -6    6.36    1.66
   0   6  -5    0.08    1.39
   0  -6   5   -2.41    1.95
   0  -6   5    1.88    1.69
   0  -6   5   -0.41    1.32
   0  -6   5   -0.20    0.56
   0   6  -5    0.01    1.16
   0   6  -5    0.73    1.13
   0   6  -5   -0.78    1.13
   0  -6   5   -1.09    1.32
   0  -6   5   -0.05    0.39
   0   6  -5   -0.39    0.47
   0  -6   4    1.10    0.63
   0  -6   4    1.22    0.59
   0  -6   4    0.74    1.41
   0   6  -4   -0.43    1.13
   0   6  -4    1.45    0.67
   0  -6   4    0.92    1.07
   0   6  -4    0.99    1.07
   0   6  -4    0.52    1.07
   0   6  -4    0.88    1.40
   0  -6   4    3.06    1.47
   0  -6   3    9.92    2.09
   0  -6   3    7.23    1.73
   0   6  -3    6.24    1.21
   0   6  -3    7.20    2.02
   0  -6   3    9.32    2.18
   0   6  -3    8.41    1.86
   0   6  -3    6.36    1.27
   0   6  -3    8.36    2.04
   0   6  -2   41.68    2.68
   0  -6   2   42.79    3.37
   0  -6   2   45.00    3.58
   0   6  -2   38.53    3.55
   0  -6   2   40.09    3.31
   0   6  -2   41.96    2.88
   0   6  -2   40.34    3.72
   0  -6   1   99.00    4.19
   0   6  -1  101.14    5.58
   0   6  -1  100.36    4.74
   0   6  -1  100.35    4.89
   0  -6   1   96.30    4.94
   0  -6   1   97.84    5.28
   0   6  -1   97.65    5.85
   0   6  -1   98.50    3.46
   0   6   0  719.10   14.81
   0   6   0  718.30   13.63
   0  -6   0  718.40   14.58
   0   6   0  712.38   15.72
   0   6   0  699.13   13.77
   0  -6   0  743.64   12.21
   0  -6   0  727.38   13.40
   0  -6  -1  336.16    8.82
   0  -6  -1  320.90   10.15
   0   6   1  337.28   10.32
   0  -6  -1  326.31    9.33
   0   6   1  328.58   10.89
   0   6   1  325.83   10.06
   0  -6  -1  349.44   11.57
   0  -6  -2  175.66    8.44
   0   6   2  179.79    7.65
   0   6   2  178.69    7.89
   0  -6  -2  178.80    6.93
   0  -6  -2  166.61    7.73
   0   6   2  182.30    8.32
   0  -6  -2  165.06    6.92
   0  -6  -3   -2.17    1.63
   0  -6  -3   -2.23    1.59
   0  -6  -3   -1.33    1.73
   0   6   3   -0.34    1.13
   0  -6  -3   -0.61    1.18
   0   6   3    1.21    1.13
   0   6   3    0.26    1.23
   0   6   4   -0.33    1.12
   0   6   4    0.36    1.05
   0  -6  -4   -0.09    1.19
   0  -6  -4    1.88    1.88
   0   6   4   -0.10    1.36
   0   6   5   -0.08    1.50
   0   6   5    0.11    1.31
   0   6   5    0.71    1.23
   0  -6  -5    3.61    1.58
   0  -6  -5   -0.20    1.24
   0  -6  -5    2.17    1.72
   0   6   6    0.69    1.44
   0   6   6    1.67    1.62
   0  -6  -6    0.53    1.55
   0  -6  -6    1.97    1.40
   0   6   7    1.00    1.85
   0  -6  -7    3.70    2.66
   0  -6  -7    1.19    1.65
   0   6   7    0.16    1.57
   0  -6  -7    1.44    1.41
   0   6   8    4.80    2.22
   0  -6  -8    3.55    1.68
   0  -6  -8    8.42    3.16
   0  -6  -8    0.61    1.69
   0   6   8    4.37    2.32
   0  -6  -9    1.61    2.54
   0  -6  -9    7.59    2.76
   0  -6 -10   51.75    6.08
   0  -7  15   -0.25    1.46
   0  -7  14    1.94    2.50
   0  -7  14   -0.76    1.84
   0  -7  14    2.71    1.84
   0   7 -14    0.00    2.04
   0  -7  13    5.79    2.22
   0   7 -13    5.87    2.54
   0  -7  13    6.94    2.42
   0  -7  13    8.84    3.17
   0  -7  13    4.76    2.23
   0  -7  12    1.08    1.48
   0  -7  12   -0.12    1.38
   0  -7  12    0.65    1.53
   0  -7  12   -1.29    1.82
   0   7 -12    1.22    2.03
   0  -7  12    2.28    1.88
   0  -7  11   98.79    7.32
   0  -7  11   99.00    6.29
   0  -7  11  112.73    6.83
   0   7 -11   94.61    6.99
   0  -7  11  101.97    7.12
   0  -7  11  106.98    7.62
   0  -7  10   12.28    3.17
   0   7 -10    8.25    1.92
   0   7 -10    7.75    2.46
   0  -7  10    8.71    2.51
   0  -7  10    6.56    2.13
   0  -7  10   11.92    2.77
   0  -7   9    4.80    1.70
   0  -7   9    7.43    2.17
   0   7  -9    5.24    1.56
   0   7  -9    4.51    1.90
   0  -7   9    6.73    2.52
   0  -7   9    4.47    2.33
   0   7  -8   13.96    2.40
   0  -7   8   13.62    2.44
   0  -7   8   14.59    2.90
   0   7  -8   10.66    2.35
   0   7  -8   11.63    2.69
   0  -7   8   17.55    2.78
   0  -7   8   12.32    2.63
   0   7  -7    9.13    2.24
   0   7  -7    8.05    2.11
   0  -7   7   11.43    2.47
   0  -7   7   11.11    2.11
   0   7  -7    9.72    2.48
   0  -7   7   10.27    1.53
   0  -7   7    5.39    1.79
   0  -7   7   10.57    2.33
   0   7  -7    9.87    2.13
   0  -7   6   18.28    2.70
   0   7  -6   13.76    2.59
   0  -7   6   20.19    2.69
   0   7  -6   17.42    3.02
   0   7  -6   19.58    2.84
   0   7  -6   18.31    2.58
   0  -7   6   16.69    2.71
   0  -7   5    3.75    1.54
   0  -7   5    1.06    1.67
   0   7  -5    2.29    1.31
   0   7  -5    1.39    1.47
   0   7  -5    2.71    1.39
   0  -7   5    1.23    1.79
   0   7  -5    1.51    1.43
   0   7  -4   21.66    3.16
   0   7  -4   19.31    3.04
   0  -7   4   21.50    3.03
   0   7  -4   23.87    2.02
   0  -7   4   25.44    3.12
   0  -7   4   22.57    2.80
   0   7  -4   20.92    2.30
   0   7  -3   48.89    3.22
   0   7  -3   47.14    4.47
   0  -7   3   50.51    4.07
   0   7  -3   51.26    3.25
   0   7  -3   53.23    4.59
   0  -7   3   52.61    4.05
   0  -7   3   55.01    4.13
   0   7  -2   33.99    2.47
   0   7  -2   38.15    3.09
   0   7  -2   34.74    3.75
   0   7  -2   35.04    3.95
   0  -7   2   40.63    2.77
   0  -7   2   36.11    3.49
   0  -7   2   38.70    3.59
   0   7  -1   19.48    3.05
   0   7  -1   21.85    2.98
   0  -7   1   19.38    2.81
   0   7  -1   21.55    2.64
   0  -7   1   20.10    2.15
   0  -7   1   23.43    2.79
   0   7   0   24.47    3.46
   0   7   0   28.51    3.19
   0   7   0   28.30    3.45
   0  -7   0   25.79    2.53
   0  -7   0   31.94    3.30
   0  -7   0   27.92    3.70
   0   7   0   28.15    3.18
   0  -7   0   24.41    3.19
   0   7   1   -0.69    1.23
   0  -7  -1   -0.38    1.02
   0   7   1    1.33    1.30
   0   7   1    0.19    1.48
   0  -7  -1    2.48    1.62
   0  -7  -1   -1.13    2.09
   0   7   1    0.40    1.69
   0  -7  -1    2.44    1.35
   0   7   2    2.95    1.59
   0  -7  -2   -0.49    1.40
   0  -7  -2    1.54    1.85
   0   7   2    4.20    1.78
   0   7   2    1.87    1.80
   0  -7  -2    1.88    1.41
   0  -7  -2    1.24    1.12
   0   7   2    1.84    1.17
   0   7   3   11.35    2.66
   0  -7  -3   11.09    2.89
   0   7   3   12.13    2.46
   0  -7  -3   10.23    2.21
   0   7   3   10.48    2.45
   0  -7  -3    8.57    2.41
   0   7   3    8.06    2.32
   0  -7  -4   29.59    3.54
   0  -7  -4   30.02    4.26
   0   7   4   35.02    4.07
   0   7   4   35.62    4.40
   0   7   4   31.53    4.44
   0  -7  -4   28.58    3.48
   0  -7  -5   24.11    3.49
   0  -7  -5   23.89    3.99
   0   7   5   18.25    3.09
   0   7   5   18.84    3.37
   0  -7  -6   40.13    4.93
   0   7   6   43.90    5.40
   0  -7  -6   49.49    5.09
   0   7   6   44.18    4.68
   0  -7  -7    4.38    2.05
   0  -7  -7    2.16    2.27
   0   7   7    1.76    1.76
   0  -7  -8   -0.12    1.69
   0  -7  -8    0.33    1.67
   0  -8  15    4.87    1.91
   0  -8  14   -0.67    1.47
   0  -8  14    4.32    2.21
   0  -8  14   -1.55    2.12
   0   8 -13   -1.80    2.06
   0  -8  13    1.15    1.81
   0  -8  13    3.74    2.77
   0  -8  13   -0.89    1.89
   0  -8  13    2.60    2.53
   0  -8  13   -0.59    1.20
   0  -8  13    1.64    1.82
   0  -8  12    0.87    2.10
   0   8 -12    3.49    2.14
   0  -8  12    1.97    2.11
   0  -8  12    4.46    2.25
   0  -8  12    1.12    1.23
   0  -8  12    4.69    2.63
   0  -8  12    0.96    2.39
   0  -8  11   -0.88    1.44
   0   8 -11    0.17    1.53
   0  -8  11    2.27    1.57
   0  -8  11    5.72    2.85
   0  -8  11   -2.02    1.55
   0  -8  11    1.17    2.24
   0   8 -10    2.89    1.60
   0  -8  10    6.92    2.89
   0  -8  10    3.68    1.79
   0  -8  10    5.50    2.77
   0   8 -10    4.74    2.06
   0  -8  10    4.96    2.23
   0  -8   9    1.83    1.63
   0   8  -9    1.34    1.65
   0  -8   9    2.55    2.11
   0  -8   9   -1.08    2.69
   0   8  -9    1.69    1.47
   0  -8   9    2.45    1.70
   0   8  -9    0.34    1.39
   0   8  -8    0.67    1.35
   0  -8   8   -0.80    1.69
   0   8  -8    1.10    1.38
   0  -8   8   -0.97    1.51
   0  -8   8    1.29    1.57
   0   8  -8    1.53    1.96
   0   8  -7    7.13    2.00
   0   8  -7    8.20    2.69
   0  -8   7   11.52    2.56
   0  -8   7    8.15    2.27
   0   8  -7    6.46    2.15
   0  -8   7    8.79    2.13
   0  -8   6  188.80    8.78
   0   8  -6  185.85    9.40
   0  -8   6  197.18    8.60
   0   8  -6  185.11    9.43
   0  -8   6  187.92    8.05
   0   8  -6  174.36    7.65
   0  -8   5   -0.68    1.33
   0  -8   5    2.26    1.77
   0  -8   5    3.40    1.69
   0   8  -5    3.52    1.93
   0   8  -5    2.48    1.82
   0   8  -5    2.69    1.37
   0  -8   4    2.00    1.30
   0   8  -4    0.77    1.18
   0  -8   4    1.14    1.45
   0  -8   4    2.05    1.66
   0   8  -4    1.87    1.67
   0   8  -4    2.38    1.68
   0  -8   3    0.33    1.21
   0   8  -3    2.20    1.89
   0  -8   3    3.07    1.59
   0   8  -3    1.41    1.48
   0  -8   2   -0.47    1.30
   0  -8   2   -0.78    1.49
   0   8  -2   -1.66    1.90
   0   8  -2    0.08    1.26
   0  -8   2   -2.33    2.00
   0   8  -1    9.27    2.60
   0  -8   1    4.25    2.19
   0   8  -1    4.35    1.61
   0  -8   1    6.43    2.11
   0  -8   1    3.80    1.82
   0   8  -1    5.08    1.87
   0   8   0    0.71    1.32
   0   8   0   -0.52    1.46
   0  -8   0    1.64    1.53
   0  -8   0    1.69    1.53
   0   8   0   -1.67    1.91
   0  -8   0    2.07    1.79
   0  -8  -1    1.71    1.53
   0   8   1    0.28    1.46
   0   8   1    0.47    1.30
   0  -8  -1    2.16    1.74
   0  -8  -1    1.25    2.08
   0   8   1    1.65    1.49
   0  -8  -2   -0.20    2.00
   0   8   2    0.64    1.63
   0   8   2   -1.10    2.04
   0  -8  -2    2.07    1.98
   0   8   2    3.67    2.06
   0  -8  -2    1.47    1.28
   0  -8  -3   27.94    4.36
   0  -8  -3   35.80    4.32
   0   8   3   33.19    4.23
   0   8   3   33.22    4.51
   0   8   3   38.93    4.68
   0   8   3   30.80    4.28
   0   8   4   43.72    5.34
   0   8   4   28.21    3.98
   0   8   4   37.66    4.98
   0  -8  -4   31.91    4.86
   0   8   4   29.24    4.25
   0  -8  -5    9.85    3.31
   0   8   5   17.72    3.58
   0   8   5   11.29    3.16
   0   8   5   12.76    3.18
   0  -9  13    2.81    2.07
   0  -9  13    3.85    2.68
   0  -9  12   13.79    3.28
   0  -9  12   17.63    3.49
   0  -9  12   22.42    4.04
   0   9 -12   13.43    3.28
   0  -9  12   26.73    4.99
   0  -9  11   -2.61    2.67
   0  -9  11    7.55    2.93
   0   9 -11    5.88    2.54
   0  -9  11    0.58    1.96
   0  -9  10    5.63    2.14
   0  -9  10    6.38    2.20
   0  -9  10    0.13    1.95
   0   9 -10    3.71    1.97
   0   9  -9    1.15    2.61
   0  -9   9   -1.51    1.88
   0  -9   9    1.54    1.60
   0   9  -9    0.65    1.89
   0  -9   9   -0.91    2.19
   0  -9   8    9.76    2.74
   0  -9   8    6.57    1.98
   0  -9   8    6.00    2.44
   0   9  -8    5.76    2.18
   0   9  -8    7.29    2.52
   0  -9   7   14.12    2.67
   0   9  -7   14.30    3.22
   0  -9   7   11.89    2.91
   0  -9   7   19.44    3.19
   0   9  -7   13.55    3.01
   0   9  -7   14.60    2.68
   0  -9   6    3.32    1.68
   0   9  -6    5.07    2.36
   0   9  -6    4.29    2.37
   0  -9   6   11.06    2.64
   0  -9   6    7.41    2.08
   0  -9   5    3.29    2.24
   0   9  -5    0.82    1.40
   0  -9   5    0.87    1.30
   0   9  -5   -0.65    1.82
   0  -9   5   -0.62    1.39
   0   9  -4   -0.54    1.50
   0  -9   4    1.42    1.60
   0  -9   4    1.45    2.08
   0  -9   4    0.28    1.30
   0   9  -4    2.01    1.92
   0  -9   3    4.72    2.04
   0  -9   3    3.26    1.64
   0   9  -3    3.41    2.13
   0   9  -3   -1.07    1.54
   0  -9   3   -0.60    1.91
   0  -9   2   57.05    5.14
   0   9  -2   72.06    6.11
   0   9  -2   57.88    5.80
   0  -9   2   64.64    5.12
   0  -9   2   63.83    6.27
   0   9  -1    0.04    1.39
   0  -9   1   -1.67    1.73
   0   9  -1    1.96    2.17
   0  -9   1    0.74    1.90
   0   9   0    4.50    1.94
   0  -9   0    9.55    2.94
   0   9   0    7.49    2.66
   0  -9   0    2.50    1.73
   0  -9  -1   -0.41    2.06
   0  -9  -1    1.25    1.56
   0   9   1   -2.12    2.05
   0  -9  -1   -2.97    1.97
   0   9   1    0.06    1.73
   0   9   2    7.87    2.99
   0  -9  -2    6.85    2.38
   0   9   2    5.50    2.32
   0  -9  -2    5.56    2.42
   0  -9  -2    3.99    2.72
   0   9   3    1.57    2.16
   0  -9  -3    0.63    1.61
   0   9   3    0.48    1.50
   0   9   4    0.10    1.90
   0 -10  12   35.83    4.94
   0 -10  11    8.39    2.91
   0  10 -11    2.12    1.82
   0 -10  10   10.78    2.97
   0 -10  10    6.30    2.63
   0 -10  10    7.38    2.75
   0  10 -10    8.23    2.84
   0 -10   9    4.67    2.11
   0 -10   9    8.44    3.03
   0  10  -9    5.80    2.41
   0 -10   9    6.09    2.49
   0 -10   8    2.52    2.14
   0 -10   8    1.52    2.03
   0 -10   8   -0.84    1.76
   0  10  -8    5.78    2.91
   0  10  -7    6.41    2.53
   0 -10   7    8.49    2.78
   0  10  -7   10.20    2.95
   0 -10   7    7.72    2.79
   0 -10   6    1.83    1.87
   0  10  -6    3.08    2.68
   0  10  -6   -0.75    1.51
   0  10  -5   14.70    3.18
   0 -10   5   17.10    3.85
   0  10  -5   15.27    3.54
   0  10  -4   34.62    4.92
   0 -10   4   41.59    5.49
   0  10  -4   39.03    4.87
   0  10  -3   13.66    3.41
   0  10  -3    8.51    2.65
   0 -10   3   10.90    3.41
   0  10  -2   66.15    6.70
   0  10  -2   72.93    6.62
   0  10  -1   28.39    4.42
   0 -10   1   17.95    3.81
   0  10   0    1.61    1.64
   0  10   1    0.37    1.44
   1 -11   9   45.03    5.72
   1 -11   9   47.41    5.67
   1 -10  -1    1.63    1.91
  -1  10   0   11.68    2.74
   1 -10   0    8.13    2.91
  -1  10  -1   18.74    3.39
  -1  10  -1   12.25    3.59
   1 -10   1    9.32    2.83
   1 -10   2   -0.15    2.23
  -1  10  -2    1.15    1.48
   1 -10   2    0.16    1.90
  -1  10  -2   -2.21    2.25
  -1  10  -3    3.73    2.21
  -1  10  -3    7.05    2.99
   1 -10   3    6.22    2.67
   1 -10   3    4.73    2.73
  -1  10  -4    9.24    3.04
  -1  10  -4    6.05    2.08
   1 -10   4    9.63    3.11
   1 -10   4    7.44    3.05
   1 -10   5    8.48    2.88
  -1  10  -5    3.49    2.03
   1 -10   5    9.51    3.03
  -1  10  -5    6.13    2.66
   1 -10   6    4.11    2.39
  -1  10  -6    6.58    2.98
   1 -10   6    4.67    2.66
  -1  10  -7    6.30    2.71
   1 -10   7    5.04    2.34
   1 -10   7    6.58    2.54
   1 -10   7   11.02    2.83
   1 -10   8    1.97    1.87
   1 -10   8   -1.17    1.80
   1 -10   8   -5.62    2.46
  -1  10  -8    0.52    2.06
   1 -10   9    3.09    2.19
   1 -10   9    1.60    1.91
   1 -10   9    4.64    2.33
  -1  10  -9   -0.04    1.74
   1 -10  10    3.09    2.32
   1 -10  10   -2.70    2.68
  -1  10 -10    1.54    2.20
   1 -10  11    5.13    2.06
   1 -10  11    6.71    2.71
   1 -10  11    4.74    1.81
   1 -10  12    8.43    2.59
  -1   9   4   -1.64    1.92
  -1   9   4    1.63    2.01
  -1   9   3    9.62    2.71
  -1   9   3    8.59    2.80
  -1   9   3    5.13    2.19
   1  -9  -3    3.92    2.02
   1  -9  -2    0.63    2.79
  -1   9   2   -1.93    1.62
   1  -9  -2    0.18    1.73
  -1   9   2    1.21    1.66
  -1   9   2   -0.57    1.42
  -1   9   2    1.73    2.01
  -1   9   1   -0.79    1.63
  -1   9   1    1.56    1.54
   1  -9  -1    0.68    1.36
  -1   9   1   -1.96    1.46
   1  -9  -1    0.72    1.94
   1  -9  -1    1.89    2.20
  -1   9   1   -0.91    1.78
   1  -9   0   -0.56    1.35
  -1   9   0    2.59    1.93
   1  -9   0    5.50    2.39
  -1   9   0    0.25    1.16
   1  -9   0   -0.92    2.18
   1  -9   1   23.03    4.28
   1  -9   1   26.18    3.47
  -1   9  -1   25.62    4.07
   1  -9   1   26.60    4.12
  -1   9  -1   30.81    3.88
  -1   9  -2    3.97    1.56
   1  -9   2    1.85    2.12
   1  -9   2    2.23    1.90
  -1   9  -2    5.39    2.37
   1  -9   2    3.44    1.65
   1  -9   3    1.22    1.79
   1  -9   3    2.93    1.95
  -1   9  -3    1.06    1.59
  -1   9  -3    1.87    1.90
   1  -9   3    1.80    1.35
   1  -9   4    1.29    1.28
  -1   9  -4   -0.97    2.16
  -1   9  -4    1.23    1.24
   1  -9   4   -3.26    2.51
   1  -9   4    2.74    1.78
   1  -9   4    0.33    1.76
   1  -9   5   16.00    2.59
   1  -9   5   10.59    2.70
   1  -9   5   12.73    2.31
  -1   9  -5   17.08    3.27
  -1   9  -5   13.59    3.04
   1  -9   5   14.60    3.17
   1  -9   5   15.05    2.83
   1  -9   6   33.38    3.74
   1  -9   6   30.71    3.71
  -1   9  -6   29.70    4.22
   1  -9   6   32.55    4.19
   1  -9   6   29.24    4.12
   1  -9   7    2.10    1.89
   1  -9   7    4.93    2.43
  -1   9  -7    5.02    2.45
   1  -9   7    1.59    1.40
   1  -9   7    3.56    2.12
   1  -9   8   -0.58    1.59
   1  -9   8    0.89    1.84
   1  -9   8    1.05    1.98
   1  -9   8   -2.73    2.30
  -1   9  -8   -2.01    1.93
   1  -9   9   -0.28    1.68
  -1   9  -9   -0.34    1.61
   1  -9   9    0.44    1.62
   1  -9   9   -3.54    2.57
   1  -9   9   -1.95    2.08
   1  -9   9    1.81    1.54
   1  -9  10   20.57    3.85
  -1   9 -10   23.04    4.03
   1  -9  10   16.91    3.26
   1  -9  10   22.40    3.53
   1  -9  10   21.91    4.21
  -1   9 -10   24.20    3.91
   1  -9  11   -0.26    1.63
   1  -9  11    0.68    1.72
  -1   9 -11    1.96    2.11
   1  -9  11    1.95    1.94
   1  -9  11   -2.89    2.11
   1  -9  12   37.96    5.35
   1  -9  12   37.34    5.15
   1  -9  12   29.88    4.44
   1  -9  12   42.15    4.98
  -1   9 -12   34.15    4.97
   1  -9  13    2.43    2.10
   1  -8  -6   15.23    3.99
  -1   8   6   10.02    3.12
  -1   8   6   18.66    3.76
  -1   8   5    7.64    2.69
  -1   8   5   11.63    3.19
  -1   8   5   10.39    3.14
   1  -8  -5    8.26    3.02
  -1   8   4    0.71    1.60
  -1   8   4    1.33    2.22
   1  -8  -4   -1.29    1.80
  -1   8   4    0.14    1.52
   1  -8  -4   -1.10    1.69
   1  -8  -3    1.77    2.07
   1  -8  -3    2.26    1.60
  -1   8   3    1.49    1.62
  -1   8   3   -1.09    1.74
  -1   8   3    0.41    1.20
  -1   8   3    0.17    1.82
  -1   8   2    1.96    1.77
   1  -8  -2    2.22    2.07
  -1   8   2    1.29    1.57
  -1   8   2    1.03    1.22
  -1   8   2    2.47    1.92
   1  -8  -2   -2.91    1.94
   1  -8  -1   -0.23    1.81
   1  -8  -1   -0.68    1.26
  -1   8   1    3.04    1.86
   1  -8  -1    2.26    1.88
  -1   8   1   -1.06    1.33
  -1   8   1   -0.07    1.18
  -1   8   1    0.33    1.58
   1  -8   0   32.55    3.17
  -1   8   0   33.92    3.72
  -1   8   0   33.04    3.63
  -1   8   0   33.17    3.74
   1  -8   0   33.54    3.74
   1  -8   0   36.52    4.46
  -1   8   0   34.06    4.25
   1  -8   0   29.87    4.09
   1  -8   1   -1.86    2.11
   1  -8   1   -0.03    2.11
  -1   8  -1    0.55    1.25
  -1   8  -1   -0.85    1.15
  -1   8  -1    3.44    1.69
  -1   8  -1    1.55    1.68
   1  -8   1    2.93    1.51
   1  -8   1    0.14    1.18
  -1   8  -2    7.78    1.98
   1  -8   2    5.20    1.57
   1  -8   2    5.22    1.89
  -1   8  -2    6.62    1.97
  -1   8  -2    6.12    1.66
   1  -8   2    7.39    1.84
  -1   8  -3    1.02    1.27
   1  -8   3    1.97    1.47
   1  -8   3   -1.54    1.26
   1  -8   3    0.69    1.66
  -1   8  -3    1.21    2.02
  -1   8  -3    0.22    1.50
   1  -8   3    5.89    2.03
   1  -8   4    3.09    1.59
  -1   8  -4    2.73    1.71
  -1   8  -4    5.87    2.25
   1  -8   4    5.95    2.01
   1  -8   4    3.69    1.46
   1  -8   4    4.32    2.14
   1  -8   5    2.13    1.35
   1  -8   5   -0.04    1.55
   1  -8   5    2.01    1.65
   1  -8   5   -0.24    1.69
  -1   8  -5    0.28    1.50
  -1   8  -5    1.45    1.55
   1  -8   6    4.79    2.01
   1  -8   6    1.82    1.12
   1  -8   6    1.28    1.64
  -1   8  -6    3.68    2.00
   1  -8   6    2.40    1.49
  -1   8  -7    0.64    1.39
   1  -8   7    2.81    1.71
  -1   8  -7    3.63    2.10
   1  -8   7   -0.43    1.49
   1  -8   7    2.57    1.54
   1  -8   7    3.01    1.78
   1  -8   7    1.46    1.50
   1  -8   8    5.51    2.00
   1  -8   8    8.66    2.59
  -1   8  -8    6.74    2.01
   1  -8   8    9.12    2.57
   1  -8   8    6.23    2.00
   1  -8   8   10.44    2.16
  -1   8  -8    9.33    2.62
   1  -8   8    7.39    2.13
   1  -8   9    9.57    2.21
  -1   8  -9   11.27    2.85
  -1   8  -9   13.80    2.86
   1  -8   9   11.33    2.54
   1  -8   9   13.28    2.11
   1  -8   9   13.16    2.97
   1  -8   9   12.62    2.33
   1  -8   9    6.33    1.98
   1  -8   9   11.60    2.85
   1  -8  10   -0.16    1.43
   1  -8  10    0.10    1.19
   1  -8  10   -0.73    1.23
  -1   8 -10   -0.64    1.55
   1  -8  10    1.12    1.58
   1  -8  10   -1.07    1.55
   1  -8  10    0.44    0.90
   1  -8  10    3.45    2.34
  -1   8 -11   10.23    2.74
   1  -8  11    9.39    2.79
   1  -8  11   11.10    2.24
   1  -8  11   14.31    2.88
   1  -8  11   11.60    2.93
   1  -8  11   12.49    2.41
   1  -8  11   14.35    2.98
   1  -8  12    2.95    2.18
   1  -8  12    4.23    1.83
   1  -8  12    1.74    1.58
   1  -8  12    1.74    2.28
   1  -8  12    0.45    1.81
  -1   8 -12   -0.37    2.05
  -1   8 -13    4.82    2.28
   1  -8  13    0.28    1.16
   1  -8  13    1.44    2.00
   1  -8  13    2.52    2.78
   1  -8  14    1.68    1.70
   1  -8  15   -0.12    1.92
   1  -7  -8    4.02    2.41
  -1   7   7    2.55    1.89
   1  -7  -7    2.47    1.63
  -1   7   7    2.13    1.80
   1  -7  -7   -0.26    2.00
   1  -7  -6    2.07    2.37
  -1   7   6    5.36    2.11
  -1   7   6    4.79    2.29
   1  -7  -6    6.84    2.22
   1  -7  -5    4.19    1.87
  -1   7   5    4.99    1.83
  -1   7   5    3.16    2.24
   1  -7  -5    0.29    1.85
  -1   7   5    2.73    2.11
   1  -7  -5    0.48    1.45
   1  -7  -4   11.16    2.26
  -1   7   4   15.33    3.01
   1  -7  -4   11.39    2.22
  -1   7   4   10.35    2.16
   1  -7  -4   11.61    2.81
  -1   7   4   12.02    2.94
  -1   7   3   31.57    3.45
  -1   7   3   35.23    4.23
   1  -7  -3   33.72    4.37
  -1   7   3   30.82    3.84
   1  -7  -3   38.67    3.50
   1  -7  -3   35.82    3.94
   1  -7  -2   25.42    2.69
  -1   7   2   25.75    3.28
   1  -7  -2   25.91    2.72
  -1   7   2   26.83    3.40
   1  -7  -2   28.67    3.55
   1  -7  -2   31.39    4.01
  -1   7   2   31.65    4.19
  -1   7   2   32.83    3.50
   1  -7  -2   26.48    3.40
   1  -7  -1   49.37    3.25
  -1   7   1   44.76    4.16
  -1   7   1   45.98    3.99
  -1   7   1   43.18    3.92
   1  -7  -1   44.74    4.13
  -1   7   1   45.20    4.69
   1  -7  -1   45.45    4.33
   1  -7  -1   50.31    4.81
   1  -7  -1   45.03    3.41
   1  -7   0   31.64    3.34
  -1   7   0   35.90    3.35
  -1   7   0   39.45    3.70
   1  -7   0   36.77    2.54
   1  -7   0   37.47    3.20
  -1   7   0   36.34    4.11
  -1   7   0   37.67    3.59
   1  -7   0   36.21    4.06
   1  -7   1    4.83    1.34
  -1   7  -1    6.43    1.59
  -1   7  -1    6.61    1.62
   1  -7   1    6.56    1.15
  -1   7  -1    2.61    1.64
   1  -7   1    2.35    2.05
  -1   7  -1    3.83    1.49
   1  -7   1    4.36    1.50
   1  -7   2    0.37    1.11
  -1   7  -2   -0.59    0.88
   1  -7   2    1.40    1.85
  -1   7  -2    0.07    1.51
   1  -7   2    0.70    0.57
   1  -7   2   -0.48    1.15
  -1   7  -2    1.48    1.46
  -1   7  -2    1.10    1.15
   1  -7   2    4.32    1.89
   1  -7   3    4.13    0.65
   1  -7   3    3.96    1.49
   1  -7   3    6.56    1.86
  -1   7  -3    2.82    0.94
  -1   7  -3    5.74    2.06
   1  -7   3    3.16    1.72
   1  -7   3    1.73    1.44
  -1   7  -3    2.24    1.46
  -1   7  -4   42.74    4.26
  -1   7  -4   38.52    2.82
   1  -7   4   47.53    4.49
   1  -7   4   46.49    3.52
  -1   7  -4   44.07    4.08
   1  -7   4   40.22    3.26
   1  -7   4   39.01    3.47
  -1   7  -5   27.70    2.93
   1  -7   5   29.10    3.33
  -1   7  -5   27.10    2.16
  -1   7  -5   23.37    3.09
   1  -7   5   31.06    3.55
   1  -7   5   33.28    3.55
   1  -7   5   29.28    3.01
  -1   7  -5   25.33    3.33
   1  -7   5   26.27    2.73
   1  -7   6   57.86    4.25
  -1   7  -6   60.30    5.03
   1  -7   6   54.54    3.81
   1  -7   6   61.44    4.75
  -1   7  -6   59.06    2.95
  -1   7  -6   52.35    4.14
   1  -7   6   59.86    4.72
   1  -7   7   38.33    3.58
   1  -7   7   36.69    4.00
   1  -7   7   38.27    3.01
  -1   7  -7   39.37    3.84
  -1   7  -7   31.09    3.71
   1  -7   7   41.48    4.14
   1  -7   7   43.52    3.50
  -1   7  -8   52.75    4.63
   1  -7   8   50.25    3.68
  -1   7  -8   53.26    4.92
   1  -7   8   54.37    3.72
   1  -7   8   51.23    4.68
   1  -7   8   56.66    3.82
   1  -7   8   55.37    4.02
   1  -7   8   45.19    4.39
   1  -7   8   52.51    4.39
   1  -7   8   47.84    4.56
   1  -7   9   59.80    3.95
   1  -7   9   51.84    4.63
  -1   7  -9   52.60    4.81
   1  -7   9   61.28    4.41
   1  -7   9   56.63    3.89
   1  -7   9   49.56    4.79
   1  -7   9   53.75    4.16
   1  -7   9   57.75    5.16
   1  -7   9   57.57    4.77
   1  -7   9   55.20    4.13
   1  -7  10    8.31    2.40
   1  -7  10    9.96    1.90
   1  -7  10   11.11    2.28
   1  -7  10    7.72    2.30
  -1   7 -10    7.20    2.35
   1  -7  10    7.44    2.48
   1  -7  10    7.50    1.65
   1  -7  10    6.72    1.87
   1  -7  11    4.40    2.07
   1  -7  11    9.19    2.09
   1  -7  11    4.57    1.69
   1  -7  11    7.59    2.59
  -1   7 -11    7.87    2.54
   1  -7  11   10.77    2.48
   1  -7  12    2.63    2.17
   1  -7  12    0.86    1.53
   1  -7  12   -0.27    1.32
   1  -7  12   -1.02    2.01
  -1   7 -12    1.83    2.22
   1  -7  13    5.29    2.39
   1  -7  13    5.07    1.96
   1  -7  13    5.80    2.50
  -1   7 -13    3.15    2.46
   1  -7  14   32.59    4.29
   1  -7  14   37.04    5.31
  -1   7 -14   32.29    4.77
   1  -7  14   41.12    5.37
   1  -7  15    8.11    2.63
   1  -6 -10    3.04    2.03
   1  -6 -10    4.35    2.78
   1  -6  -9    4.71    2.12
   1  -6  -9    7.59    3.31
   1  -6  -9    3.46    2.08
  -1   6   9    4.27    2.68
  -1   6   8   -3.21    2.17
   1  -6  -8    0.17    1.64
   1  -6  -8    2.22    2.12
  -1   6   7    1.38    1.24
   1  -6  -7    3.52    2.11
  -1   6   7    2.58    1.99
   1  -6  -7    0.86    1.43
   1  -6  -6   -1.43    1.41
  -1   6   6    0.64    1.05
   1  -6  -6    2.29    2.01
  -1   6   6   -1.36    1.38
   1  -6  -5   14.68    2.45
  -1   6   5   13.86    2.76
  -1   6   5   16.55    2.49
   1  -6  -5   10.76    2.17
   1  -6  -5   14.08    2.90
   1  -6  -4    6.06    2.19
   1  -6  -4    5.24    1.77
  -1   6   4    6.92    1.76
  -1   6   4    3.04    1.46
   1  -6  -4    1.80    1.31
  -1   6   4    6.48    2.22
  -1   6   3  185.53    5.81
   1  -6  -3  178.17    6.81
  -1   6   3  181.69    8.21
   1  -6  -3  172.33    7.54
  -1   6   3  167.42    7.79
   1  -6  -3  170.70    8.38
  -1   6   3  178.53    7.20
   1  -6  -2  110.83    5.88
  -1   6   2  114.91    6.24
  -1   6   2  111.71    6.07
   1  -6  -2  106.90    6.50
   1  -6  -2  113.81    6.17
   1  -6  -2  109.34    4.97
  -1   6   2  116.28    5.71
   1  -6  -2  115.59    5.05
   1  -6  -1    2.97    1.39
  -1   6   1    0.39    0.95
  -1   6   1    1.19    1.81
   1  -6  -1    2.97    1.20
   1  -6  -1    2.24    1.88
  -1   6   1    1.08    1.20
   1  -6  -1    1.03    0.80
  -1   6   1    1.39    1.17
  -1   6   0   11.11    1.97
   1  -6   0   12.80    1.51
  -1   6   0   10.98    2.38
  -1   6   0   10.52    1.84
   1  -6   0   10.84    1.07
   1  -6   0   10.33    1.87
  -1   6   0    9.89    1.71
   1  -6   0    9.65    2.11
   1  -6   0   11.65    1.83
   1  -6   1   28.82    3.39
   1  -6   1   36.74    2.87
  -1   6  -1   32.71    3.47
   1  -6   1   30.56    2.75
   1  -6   1   30.84    1.60
   1  -6   1   30.06    2.52
  -1   6  -1   29.08    2.80
   1  -6   1   30.87    1.89
  -1   6  -1   29.98    2.95
  -1   6  -1   30.27    2.60
   1  -6   2    2.64    1.17
   1  -6   2    2.72    0.61
   1  -6   2    2.49    1.64
   1  -6   2    1.24    0.46
  -1   6  -2    2.63    1.19
   1  -6   2    1.25    1.11
  -1   6  -2    2.14    1.42
  -1   6  -2    1.78    1.53
   1  -6   2    1.90    1.13
  -1   6  -2    0.71    0.81
   1  -6   3    9.22    0.84
   1  -6   3    4.89    1.22
   1  -6   3    9.86    1.15
  -1   6  -3    9.85    1.26
  -1   6  -3    9.28    1.88
  -1   6  -3    7.82    1.37
   1  -6   3    9.92    1.69
  -1   6  -3    8.78    2.04
   1  -6   3    7.51    2.00
   1  -6   3    9.71    1.18
   1  -6   3    6.85    0.75
   1  -6   3   11.14    1.80
  -1   6  -4    0.38    1.09
  -1   6  -4    1.27    1.48
   1  -6   4   -2.23    1.33
   1  -6   4    1.39    1.55
   1  -6   4    0.87    0.55
  -1   6  -4    0.52    0.78
  -1   6  -4    1.25    1.27
   1  -6   4    0.89    0.98
   1  -6   4   -0.07    0.34
   1  -6   4    3.70    1.70
   1  -6   5   23.91    1.41
  -1   6  -5   22.51    2.90
   1  -6   5   24.52    2.82
  -1   6  -5   24.64    3.06
   1  -6   5   24.28    2.41
  -1   6  -5   22.86    2.62
   1  -6   5   24.84    2.90
   1  -6   5   23.41    2.57
  -1   6  -5   23.59    1.92
  -1   6  -6    4.21    2.00
  -1   6  -6    2.54    1.65
  -1   6  -6    1.29    0.78
   1  -6   6   -1.27    1.15
   1  -6   6   -0.22    1.45
   1  -6   6    0.98    0.64
   1  -6   6    0.53    1.63
  -1   6  -6    0.80    1.39
   1  -6   6    0.53    0.59
   1  -6   6   -0.01    1.39
  -1   6  -7    1.91    1.63
   1  -6   7    2.75    1.52
   1  -6   7    4.76    1.74
   1  -6   7    2.43    1.06
   1  -6   7    1.78    1.20
   1  -6   7    3.66    1.29
  -1   6  -7    3.61    1.87
  -1   6  -7    3.29    1.66
   1  -6   7    2.30    0.85
   1  -6   8   34.54    2.91
   1  -6   8   34.48    3.11
  -1   6  -8   36.76    3.89
  -1   6  -8   40.43    2.69
   1  -6   8   43.39    3.24
   1  -6   8   39.81    3.35
   1  -6   8   35.65    3.91
   1  -6   8   38.65    3.65
  -1   6  -8   41.26    4.22
  -1   6  -8   39.27    3.96
   1  -6   8   36.46    3.85
  -1   6  -9   62.94    4.86
   1  -6   9   49.58    4.58
   1  -6   9   59.04    4.86
   1  -6   9   61.43    4.10
   1  -6   9   57.40    3.67
  -1   6  -9   52.83    4.71
   1  -6   9   55.84    4.18
  -1   6  -9   63.06    3.43
   1  -6   9   59.22    4.56
   1  -6  10  148.35    8.21
   1  -6  10  155.96    7.28
   1  -6  10  160.11    6.75
  -1   6 -10  143.47    7.99
   1  -6  10  153.55    8.25
   1  -6  10  163.28    7.32
   1  -6  10  158.33    5.78
  -1   6 -10  158.67    7.70
   1  -6  10  162.86    6.19
   1  -6  11    6.70    1.91
   1  -6  11    1.19    1.64
  -1   6 -11    4.27    1.98
   1  -6  11   10.17    2.28
  -1   6 -11    7.97    2.11
   1  -6  11    2.96    1.64
   1  -6  11    3.53    1.45
  -1   6 -11    5.69    1.74
   1  -6  12   13.68    2.71
  -1   6 -12   16.44    2.77
  -1   6 -12   16.74    2.85
  -1   6 -12   18.72    3.56
   1  -6  12   14.38    2.43
   1  -6  12   13.57    2.48
   1  -6  12   10.29    2.67
   1  -6  12   13.11    2.98
   1  -6  13    2.15    1.76
   1  -6  13   -0.70    1.27
   1  -6  13    0.70    1.86
  -1   6 -13   -0.51    1.19
   1  -6  13   -2.78    2.34
  -1   6 -13    1.81    1.93
  -1   6 -13    2.87    1.77
   1  -6  14    1.01    1.85
   1  -6  14   -0.15    1.23
  -1   6 -14    0.52    1.74
   1  -6  14   -1.91    2.38
  -1   6 -15    3.06    2.42
   1  -6  15    6.71    2.89
   1  -6  15    1.65    2.01
   1  -6  15    3.76    1.90
   1  -5 -11    6.82    3.31
   1  -5 -11    0.52    1.84
   1  -5 -10    1.72    2.36
  -1   5  10    0.64    1.63
   1  -5 -10    1.69    1.85
   1  -5  -9   25.73    4.32
   1  -5  -9   15.47    3.09
  -1   5   9   15.26    2.73
  -1   5   9   12.64    3.02
   1  -5  -9   17.75    3.30
  -1   5   8    9.41    2.63
   1  -5  -8   10.97    2.86
   1  -5  -8   14.74    2.72
   1  -5  -8   13.36    2.82
  -1   5   8   10.04    2.17
   1  -5  -7    1.94    1.59
  -1   5   7    4.41    2.08
  -1   5   7    1.26    1.03
   1  -5  -7    3.93    1.85
   1  -5  -6    2.37    1.60
  -1   5   6    1.99    1.08
  -1   5   6    5.02    1.63
   1  -5  -6    3.55    1.33
   1  -5  -6    0.79    1.12
  -1   5   6    3.61    1.85
   1  -5  -5    3.27    1.39
   1  -5  -5    7.66    1.96
   1  -5  -5    5.60    1.91
  -1   5   5    6.25    1.72
  -1   5   5    5.47    1.37
  -1   5   5    3.94    1.72
   1  -5  -4    3.03    1.43
   1  -5  -4    3.23    1.45
   1  -5  -4    1.78    1.81
  -1   5   4    3.53    1.56
  -1   5   4    1.87    0.94
  -1   5   4    2.43    1.23
   1  -5  -3   24.44    2.77
  -1   5   3   23.72    1.56
  -1   5   3   24.38    1.58
   1  -5  -3   24.19    3.18
  -1   5   3   24.87    2.09
  -1   5   3   23.05    2.95
  -1   5   3   27.45    2.68
   1  -5  -3   26.28    2.57
   1  -5  -2  244.29    6.75
  -1   5   2  237.95    4.80
   1  -5  -2  236.80    6.58
  -1   5   2  236.26    8.17
   1  -5  -2  235.45    7.87
  -1   5   2  230.69    7.90
   1  -5  -2  232.00    7.64
  -1   5   2  247.51    7.38
  -1   5   2  239.72    5.53
  -1   5   2  235.94    4.84
   1  -5  -2  240.90    5.46
   1  -5  -2  251.18    8.98
  -1   5   1    2.10    1.28
  -1   5   1    3.55    1.17
   1  -5  -1    2.22    0.84
   1  -5  -1    4.69    1.21
  -1   5   1    3.05    1.39
   1  -5  -1    2.01    0.62
   1  -5  -1    2.97    1.70
   1  -5  -1    1.91    1.11
  -1   5   0   -0.23    0.92
  -1   5   0    0.09    0.81
   1  -5   0   -0.11    0.41
  -1   5   0    0.76    0.90
  -1   5   0    0.69    1.31
   1  -5   0   -0.04    1.35
   1  -5   0    0.23    0.60
   1  -5   0    0.38    0.95
   1  -5   0    0.61    0.86
   1  -5   1   92.33    3.82
  -1   5  -1   89.98    4.21
   1  -5   1   90.74    2.38
   1  -5   1   92.68    2.78
   1  -5   1   94.59    5.23
  -1   5  -1   91.65    3.69
   1  -5   1   95.22    3.80
  -1   5  -1   92.31    4.50
  -1   5  -1   92.16    3.91
  -1   5  -1   89.50    4.99
   1  -5   1   94.68    4.07
   1  -5   2   41.44    2.82
  -1   5  -2   41.63    3.47
  -1   5  -2   41.41    3.10
   1  -5   2   41.57    2.39
   1  -5   2   39.15    2.53
   1  -5   2   40.06    2.65
   1  -5   2   41.76    2.72
  -1   5  -2   41.76    2.74
   1  -5   2   40.53    1.57
   1  -5   2   39.79    1.74
  -1   5  -2   42.13    2.34
   1  -5   2   46.43    3.59
  -1   5  -3    5.03    0.79
   1  -5   3    2.83    0.47
   1  -5   3    3.50    1.11
  -1   5  -3    4.20    0.99
   1  -5   3    3.99    1.28
   1  -5   3    5.91    1.39
  -1   5  -3    3.12    1.63
   1  -5   3    3.46    0.72
  -1   5  -3    3.52    1.21
  -1   5  -3    3.15    1.28
  -1   5  -3    1.61    1.20
   1  -5   3    3.69    1.06
   1  -5   4    7.09    1.32
  -1   5  -4    7.71    1.17
  -1   5  -4    5.85    1.59
  -1   5  -4    9.42    1.79
  -1   5  -4    7.58    1.46
   1  -5   4    8.65    1.70
  -1   5  -4    8.62    1.97
   1  -5   4    7.29    1.38
   1  -5   4    8.51    1.26
   1  -5   4    8.62    1.68
   1  -5   4   10.25    1.29
   1  -5   4   10.02    0.86
  -1   5  -5    4.14    1.42
   1  -5   5    4.01    1.05
   1  -5   5    5.32    1.54
  -1   5  -5    5.19    1.82
  -1   5  -5    3.38    1.41
  -1   5  -5    5.88    1.00
   1  -5   5    5.83    1.04
   1  -5   5    5.37    1.36
   1  -5   5    5.66    1.46
   1  -5   5    7.33    0.96
   1  -5   5    5.18    0.84
  -1   5  -6    1.13    1.34
   1  -5   6    0.40    0.97
   1  -5   6    1.57    0.78
  -1   5  -6   -0.02    1.34
  -1   5  -6    2.69    1.66
  -1   5  -6    1.31    0.95
   1  -5   6    0.05    0.79
   1  -5   6   -1.50    1.68
   1  -5   6    1.15    0.70
   1  -5   6    0.06    0.86
   1  -5   6   -0.90    1.63
   1  -5   6   -0.14    0.56
  -1   5  -6    1.07    0.74
  -1   5  -7  153.20    5.41
   1  -5   7  157.08    5.91
   1  -5   7  156.23    6.48
  -1   5  -7  157.68    5.11
   1  -5   7  135.22    4.33
  -1   5  -7  144.70    6.63
   1  -5   7  155.21    5.74
   1  -5   7  162.92    5.63
  -1   5  -7  149.99    6.78
  -1   5  -7  161.12    4.72
  -1   5  -7  155.52    6.71
   1  -5   7  160.88    4.68
   1  -5   8  264.05    8.30
   1  -5   8  265.80    8.35
  -1   5  -8  272.12    7.43
   1  -5   8  254.71    7.82
  -1   5  -8  263.25    8.83
  -1   5  -8  272.62    7.05
  -1   5  -8  259.95    9.37
  -1   5  -8  284.69    6.60
   1  -5   8  282.18    7.47
  -1   5  -9  363.08    7.84
  -1   5  -9  355.53    7.83
  -1   5  -9  354.18    9.26
  -1   5  -9  346.35   10.28
   1  -5   9  330.85   10.01
   1  -5   9  360.35    9.67
   1  -5   9  361.98    8.72
  -1   5  -9  335.02   11.10
   1  -5   9  355.72    9.50
   1  -5  10    2.72    1.26
  -1   5 -10    4.06    1.58
   1  -5  10    4.82    1.68
  -1   5 -10    5.58    1.86
   1  -5  10    4.34    1.79
  -1   5 -10    2.63    1.96
   1  -5  10    1.91    1.26
  -1   5 -10    3.98    1.19
  -1   5 -10    4.59    1.87
  -1   5 -11    0.87    1.38
  -1   5 -11    2.09    1.41
   1  -5  11    2.24    1.28
  -1   5 -11    2.38    1.85
   1  -5  11    0.97    1.11
   1  -5  11    0.94    1.20
  -1   5 -11    2.58    1.67
   1  -5  11    2.35    1.44
  -1   5 -12    6.20    2.50
  -1   5 -12    9.76    2.21
   1  -5  12    7.24    2.12
  -1   5 -12    6.34    2.45
  -1   5 -12    7.73    2.01
   1  -5  12    5.61    2.04
  -1   5 -13    0.16    1.44
   1  -5  13   -0.77    1.48
  -1   5 -13    1.01    1.87
   1  -5  13    0.41    1.61
  -1   5 -13   -0.16    1.73
  -1   5 -14    8.99    3.14
  -1   5 -14   10.40    3.06
  -1   5 -14    4.59    2.07
   1  -5  14    8.58    2.64
   1  -5  14    6.73    2.40
  -1   5 -15    3.78    2.30
   1  -5  15    2.91    1.89
  -1   5 -15    2.23    1.97
   1  -5  15    1.35    1.54
  -1   5 -16    0.73    1.67
   1  -4 -12    0.01    2.28
   1  -4 -12    2.96    2.24
  -1   4  12    1.65    1.46
  -1   4  11   11.99    2.68
  -1   4  11   11.02    3.28
   1  -4 -11    9.51    2.97
   1  -4 -11   14.95    3.40
  -1   4  10   23.38    3.83
  -1   4  10   24.17    3.44
   1  -4 -10   22.18    3.24
   1  -4 -10   25.27    3.89
   1  -4 -10   26.11    4.31
  -1   4   9    6.70    1.89
   1  -4  -9    5.64    1.89
   1  -4  -9    9.70    2.31
  -1   4   9    6.81    2.30
   1  -4  -9    9.00    2.44
   1  -4  -8   35.23    3.47
  -1   4   8   36.36    3.67
   1  -4  -8   32.94    3.61
  -1   4   8   37.26    4.40
   1  -4  -8   40.66    4.29
  -1   4   7    1.47    1.47
   1  -4  -7    3.06    1.10
   1  -4  -7    2.62    1.55
   1  -4  -7    2.57    1.45
  -1   4   7    2.13    1.31
   1  -4  -6    2.61    1.47
   1  -4  -6   -1.20    1.14
  -1   4   6    1.19    1.15
   1  -4  -6    1.08    1.61
  -1   4   6    1.49    1.58
   1  -4  -5    2.40    1.58
  -1   4   5    0.33    1.38
  -1   4   5    2.00    1.12
   1  -4  -5   -0.48    1.25
   1  -4  -5    1.00    1.26
   1  -4  -4    3.27    1.52
  -1   4   4    6.27    0.91
   1  -4  -4    2.76    1.18
  -1   4   4    4.45    1.11
   1  -4  -4    3.50    1.17
  -1   4   4    4.79    1.65
   1  -4  -3  156.52    4.67
  -1   4   3  147.86    5.23
   1  -4  -3  150.30    6.40
  -1   4   3  153.15    4.59
   1  -4  -3  156.42    5.53
   1  -4  -3  149.70    5.58
  -1   4   3  147.56    6.16
  -1   4   3  149.51    3.34
  -1   4   2    9.95    1.61
   1  -4  -2    6.28    1.07
  -1   4   2    6.61    0.80
   1  -4  -2   12.00    2.17
  -1   4   2    8.71    1.09
   1  -4  -2    8.69    1.60
   1  -4  -2    8.40    1.02
  -1   4   2   10.32    1.72
  -1   4   2    8.97    1.26
   1  -4  -2    6.17    1.44
  -1   4   2    8.60    0.87
   1  -4  -2    8.90    1.40
  -1   4   1   25.76    2.16
   1  -4  -1   26.62    1.41
  -1   4   1   24.37    1.41
  -1   4   1   27.83    1.93
   1  -4  -1   23.75    2.57
   1  -4  -1   24.96    1.87
  -1   4   1   24.96    1.43
   1  -4  -1   24.07    1.77
   1  -4  -1   22.18    2.07
  -1   4   1   26.23    1.45
  -1   4   1   26.89    2.50
  -1   4   1   25.99    2.33
  -1   4   0  253.77    6.01
  -1   4   0  236.91    6.18
   1  -4   0  235.91    5.82
   1  -4   0  245.21    5.21
   1  -4   0  247.27    3.48
  -1   4   0  228.95    5.91
  -1   4   0  233.98    6.37
  -1   4   0  249.89    5.30
   1  -4   0  243.75    7.40
   1  -4   0  243.23    4.90
   1  -4   0  236.08    4.49
   1  -4   1   62.07    2.78
   1  -4   1   58.56    2.68
   1  -4   1   62.38    3.68
  -1   4  -1   63.14    3.33
   1  -4   1   59.55    1.64
  -1   4  -1   58.36    3.02
   1  -4   1   61.03    1.82
  -1   4  -1   64.70    3.77
  -1   4  -1   56.11    2.67
   1  -4   1   69.62    2.95
  -1   4  -1   63.37    2.88
  -1   4  -1   57.53    3.63
   1  -4   1   61.57    2.84
  -1   4  -1   64.23    2.70
   1  -4   1   64.02    2.69
   1  -4   2    1.90    1.04
  -1   4  -2    0.95    1.13
  -1   4  -2    1.68    0.93
  -1   4  -2    2.06    0.85
   1  -4   2    1.56    0.60
  -1   4  -2    1.46    0.78
   1  -4   2    1.65    0.76
   1  -4   2    1.52    0.72
   1  -4   2    0.93    0.77
   1  -4   2    2.40    0.90
  -1   4  -2    1.02    0.65
  -1   4  -2    1.61    0.62
   1  -4   2    1.25    0.30
  -1   4  -2    3.08    1.29
   1  -4   2    2.11    0.86
   1  -4   2    1.40    0.87
   1  -4   3  121.20    3.74
   1  -4   3  116.48    4.01
  -1   4  -3  117.31    5.02
   1  -4   3  117.22    4.38
  -1   4  -3  107.46    4.26
   1  -4   3  117.16    4.33
  -1   4  -3  108.52    2.32
   1  -4   3  113.69    3.71
   1  -4   3  108.06    2.41
  -1   4  -3  110.76    3.62
   1  -4   3  113.02    2.19
  -1   4  -3  118.73    4.98
   1  -4   3  124.59    3.64
  -1   4  -3  115.55    4.73
  -1   4  -4  147.75    5.41
   1  -4   4  168.45    4.31
   1  -4   4  157.33    4.50
   1  -4   4  160.10    3.93
  -1   4  -4  162.65    5.97
  -1   4  -4  160.14    4.25
   1  -4   4  167.93    3.44
  -1   4  -4  159.90    5.75
  -1   4  -5    4.37    0.95
  -1   4  -5    3.85    0.78
  -1   4  -5    4.43    1.37
   1  -4   5    4.68    1.02
   1  -4   5    3.40    1.04
  -1   4  -5    1.08    1.12
   1  -4   5    4.52    0.79
  -1   4  -5    4.46    1.10
   1  -4   5    3.36    0.79
  -1   4  -5    3.69    0.87
   1  -4   5    4.14    0.85
  -1   4  -5    5.12    1.65
  -1   4  -6    8.25    1.80
   1  -4   6    7.05    1.15
   1  -4   6    7.92    1.75
  -1   4  -6    6.67    1.80
  -1   4  -6    8.40    1.75
   1  -4   6    7.05    1.05
  -1   4  -6    8.31    1.27
   1  -4   6    6.93    1.37
  -1   4  -6    6.10    1.61
   1  -4   6    7.93    1.20
  -1   4  -6    8.31    1.05
   1  -4   6    5.99    1.22
   1  -4   6    6.99    0.96
  -1   4  -6    6.44    1.17
   1  -4   6    6.80    1.40
   1  -4   7   29.12    2.57
   1  -4   7   31.44    2.00
   1  -4   7   27.33    2.57
  -1   4  -7   28.60    1.99
   1  -4   7   29.37    2.36
  -1   4  -7   25.17    2.95
  -1   4  -7   31.09    2.53
   1  -4   7   26.73    1.93
  -1   4  -7   32.40    3.24
  -1   4  -7   28.50    1.98
   1  -4   7   30.04    2.64
  -1   4  -7   29.43    2.83
   1  -4   8   48.09    3.61
  -1   4  -8   44.45    3.96
   1  -4   8   49.95    3.28
   1  -4   8   48.44    3.66
   1  -4   8   52.44    3.31
  -1   4  -8   51.09    2.55
  -1   4  -8   51.19    3.74
  -1   4  -8   45.49    2.69
  -1   4  -8   48.19    3.36
  -1   4  -8   47.67    4.04
  -1   4  -8   42.63    1.87
   1  -4   8   45.87    2.41
  -1   4  -9    1.95    0.99
  -1   4  -9    1.73    1.63
  -1   4  -9    3.88    1.40
   1  -4   9    2.72    1.12
   1  -4   9    3.41    1.57
  -1   4  -9    2.97    0.74
   1  -4   9    3.10    1.33
  -1   4  -9    1.72    1.56
   1  -4   9    1.26    0.56
  -1   4  -9    4.03    1.58
   1  -4   9    1.57    1.25
  -1   4 -10    1.10    1.14
  -1   4 -10    3.44    1.55
   1  -4  10    0.97    1.04
  -1   4 -10   -0.17    1.47
   1  -4  10    1.97    1.32
  -1   4 -10    1.01    1.08
  -1   4 -10   -0.66    1.64
   1  -4  10    1.04    1.21
   1  -4  10    0.94    1.35
   1  -4  11   18.29    2.87
  -1   4 -11   20.03    3.22
  -1   4 -11   19.01    3.12
  -1   4 -11   20.39    2.47
  -1   4 -11   20.40    2.70
   1  -4  11   20.17    3.02
  -1   4 -11   22.76    3.06
   1  -4  11   22.35    2.66
   1  -4  11   21.84    2.10
   1  -4  12   11.18    2.21
  -1   4 -12    9.32    2.52
  -1   4 -12   10.98    2.45
   1  -4  12   15.22    2.82
   1  -4  12   14.87    2.88
  -1   4 -12    9.65    2.02
  -1   4 -12    7.75    2.44
  -1   4 -12    7.95    1.96
   1  -4  13   38.41    4.55
  -1   4 -13   35.38    4.45
   1  -4  13   37.37    4.26
  -1   4 -13   35.40    4.31
  -1   4 -13   34.96    4.37
   1  -4  14    0.48    1.43
  -1   4 -14    0.84    1.83
  -1   4 -14   -0.61    1.75
  -1   4 -14    0.70    1.54
   1  -4  14   -0.87    1.58
   1  -4  15   17.66    3.42
  -1   4 -15   14.55    3.06
  -1   4 -15   16.66    3.44
   1  -4  15   15.51    3.50
   1  -4  16    2.48    2.19
  -1   4 -16    4.82    2.81
  -1   3  13   -1.93    1.59
   1  -3 -13   -3.12    2.76
  -1   3  12    1.50    2.18
  -1   3  12    2.82    1.87
   1  -3 -12   -0.19    1.71
   1  -3 -12    3.19    2.20
   1  -3 -12    2.20    2.30
  -1   3  11   -0.57    1.70
  -1   3  11   -0.23    1.24
   1  -3 -11    0.15    2.05
   1  -3 -11    0.34    1.90
   1  -3 -11    1.18    1.86
  -1   3  11    0.07    1.81
   1  -3 -10    3.55    1.67
   1  -3 -10    0.65    1.98
   1  -3 -10   -0.12    1.44
  -1   3  10    3.00    1.66
   1  -3 -10    2.70    1.94
  -1   3  10    1.17    1.76
  -1   3  10    0.36    1.50
   1  -3  -9   13.11    2.89
   1  -3  -9   11.92    3.05
   1  -3  -9    8.94    1.96
  -1   3   9    8.62    2.54
  -1   3   9    5.15    1.96
   1  -3  -9   11.62    2.13
  -1   3   9   10.90    2.22
   1  -3  -8   22.53    3.89
  -1   3   8   18.52    2.58
   1  -3  -8   17.51    2.59
   1  -3  -8   19.56    2.63
  -1   3   8   13.85    2.75
  -1   3   8   15.65    2.91
   1  -3  -8   16.53    2.78
   1  -3  -7    4.41    1.77
   1  -3  -7    5.68    1.81
   1  -3  -7    5.57    1.17
  -1   3   7    1.94    1.07
   1  -3  -7    2.26    1.64
  -1   3   7    0.56    1.43
   1  -3  -7    3.91    0.82
  -1   3   7    0.48    1.75
   1  -3  -6   -0.07    1.18
   1  -3  -6    0.85    0.53
   1  -3  -6    0.61    0.74
   1  -3  -6    1.02    0.92
   1  -3  -6    2.01    1.54
  -1   3   6   -2.66    2.10
  -1   3   6   -0.59    1.34
  -1   3   6   -0.18    0.88
   1  -3  -5   31.54    1.47
   1  -3  -5   37.38    3.19
  -1   3   5   34.89    3.29
   1  -3  -5   35.19    2.39
   1  -3  -5   43.63    2.44
   1  -3  -5   35.03    3.07
  -1   3   5   38.18    2.84
   1  -3  -4  204.03    5.18
   1  -3  -4  182.91    6.13
  -1   3   4  174.96    5.29
  -1   3   4  181.43    6.71
   1  -3  -4  179.38    5.25
   1  -3  -4  189.36    6.56
   1  -3  -3   31.42    2.30
   1  -3  -3   36.08    2.25
  -1   3   3   32.98    2.05
   1  -3  -3   29.02    2.66
  -1   3   3   30.16    2.67
   1  -3  -3   33.29    2.46
  -1   3   3   35.12    2.22
   1  -3  -2    8.02    1.37
   1  -3  -2    7.30    1.17
   1  -3  -2    7.44    0.92
  -1   3   2    6.13    0.86
  -1   3   2    7.35    1.20
  -1   3   2    7.55    1.45
  -1   3   2    5.65    0.60
   1  -3  -2    8.00    1.23
  -1   3   2    8.68    1.19
  -1   3   2    8.11    1.06
   1  -3  -2    5.67    1.50
   1  -3  -1    0.54    0.90
  -1   3   1    0.41    0.51
  -1   3   1    0.93    0.80
   1  -3  -1    0.16    0.34
  -1   3   1    1.02    0.74
  -1   3   1    0.41    0.36
  -1   3   1   -0.88    0.85
   1  -3  -1    0.18    0.99
  -1   3   1   -0.22    0.42
   1  -3  -1    0.21    0.74
   1  -3  -1    1.52    0.69
   1  -3  -1    0.49    0.57
   1  -3  -1    1.54    0.90
   1  -3  -1    0.12    0.79
  -1   3   1    2.74    1.31
  -1   3   1    0.68    0.61
   1  -3  -1    0.57    0.39
  -1   3   1    0.07    0.38
   1  -3   0    3.29    0.68
   1  -3   0    1.59    0.57
   1  -3   0    3.45    0.61
   1  -3   0    3.48    0.79
   1  -3   0    2.73    1.28
  -1   3   0    2.87    1.03
   1  -3   0    4.45    0.93
  -1   3   0    1.89    0.73
   1  -3   0    2.73    0.95
   1  -3   0    2.40    0.83
   1  -3   0    2.02    0.74
  -1   3   0    2.05    1.21
  -1   3   0    2.14    0.80
  -1   3   0    2.64    0.92
  -1   3   0    2.30    0.60
   1  -3   1  743.45    9.28
  -1   3  -1  712.94    8.90
  -1   3  -1  722.23   10.20
  -1   3  -1  727.13    7.56
  -1   3  -1  714.58   10.38
   1  -3   1  776.45   10.53
  -1   3  -1  727.98    9.29
  -1   3  -1  701.61    7.40
   1  -3   1  748.64    7.59
   1  -3   1  788.54    8.39
   1  -3   1  723.82    7.34
   1  -3   1  725.90    8.01
   1  -3   1  744.73    8.93
   1  -3   1  708.57    7.43
   1  -3   1  717.24    7.96
   1  -3   1  728.77   10.09
   1  -3   1  723.57   10.38
   1  -3   2    0.45    0.92
   1  -3   2    0.74    0.78
   1  -3   2    0.95    0.71
   1  -3   2    0.66    0.60
  -1   3  -2    1.50    0.94
   1  -3   2    0.84    0.76
  -1   3  -2    0.34    1.12
  -1   3  -2    0.35    0.62
   1  -3   2    2.14    0.73
  -1   3  -2   -0.21    0.74
   1  -3   2    2.06    1.03
   1  -3   2    0.31    0.73
  -1   3  -2   -0.14    1.00
  -1   3  -2    0.76    0.37
   1  -3   2    0.34    0.40
   1  -3   2    1.85    0.91
   1  -3   3    1.71    0.73
   1  -3   3    1.25    0.64
  -1   3  -3    1.35    1.11
  -1   3  -3    2.33    1.07
   1  -3   3    1.90    0.67
   1  -3   3    2.38    0.54
   1  -3   3    2.01    0.56
  -1   3  -3    2.91    1.04
  -1   3  -3    0.94    0.42
   1  -3   3    1.17    0.72
  -1   3  -3    1.88    0.76
  -1   3  -4   10.67    1.67
  -1   3  -4    9.91    1.14
   1  -3   4   11.61    1.34
  -1   3  -4   11.38    1.64
   1  -3   4   11.47    1.51
  -1   3  -4   10.30    1.68
   1  -3   4   10.40    0.89
   1  -3   4   12.72    1.26
   1  -3   4   11.18    1.21
  -1   3  -4   10.69    1.20
  -1   3  -4    9.35    1.07
  -1   3  -4   11.19    0.92
   1  -3   4   13.04    1.14
   1  -3   4   10.89    1.37
  -1   3  -4   10.81    1.52
  -1   3  -5   61.47    3.43
  -1   3  -5   55.61    3.54
  -1   3  -5   53.67    1.48
   1  -3   5   55.74    3.01
   1  -3   5   58.71    3.08
  -1   3  -5   57.50    2.75
  -1   3  -5   57.62    3.58
   1  -3   5   64.46    2.48
  -1   3  -5   58.81    2.40
  -1   3  -5   58.36    3.28
   1  -3   5   60.60    2.20
  -1   3  -5   62.24    2.25
   1  -3   5   59.99    2.77
   1  -3   5   61.58    3.22
   1  -3   5   62.48    2.82
   1  -3   5   56.90    2.87
  -1   3  -6   16.70    2.29
  -1   3  -6   17.48    1.43
   1  -3   6   16.39    1.76
   1  -3   6   17.56    1.28
  -1   3  -6   18.33    2.03
   1  -3   6   17.42    2.04
  -1   3  -6   15.19    1.74
  -1   3  -6   16.19    2.25
   1  -3   6   17.34    1.98
  -1   3  -6   18.27    1.20
  -1   3  -6   16.63    1.27
   1  -3   6   14.82    1.60
   1  -3   6   16.57    1.88
  -1   3  -7   37.70    2.33
  -1   3  -7   34.67    1.68
  -1   3  -7   36.97    1.96
  -1   3  -7   35.88    2.78
   1  -3   7   36.96    1.73
   1  -3   7   34.55    1.98
   1  -3   7   37.80    2.70
   1  -3   7   34.96    2.94
   1  -3   7   35.26    2.37
  -1   3  -7   34.46    3.18
  -1   3  -7   33.58    3.14
  -1   3  -7   33.46    2.68
   1  -3   7   33.23    2.91
   1  -3   8   -0.39    1.05
   1  -3   8    2.43    1.41
  -1   3  -8    1.26    1.50
  -1   3  -8    1.24    1.05
   1  -3   8   -1.06    1.06
   1  -3   8   -1.13    0.90
  -1   3  -8    0.14    0.61
  -1   3  -8    0.78    0.89
  -1   3  -8   -0.83    1.02
  -1   3  -8    1.00    1.49
  -1   3  -8    0.28    0.37
   1  -3   8   -0.15    0.63
  -1   3  -9    2.42    1.10
  -1   3  -9    0.11    1.68
   1  -3   9    3.30    1.40
  -1   3  -9   -0.57    1.86
   1  -3   9    4.03    1.75
   1  -3   9    2.83    1.06
  -1   3  -9    0.90    1.43
   1  -3   9    1.76    0.95
  -1   3  -9    2.60    0.48
   1  -3   9    4.12    1.65
  -1   3  -9    3.00    1.20
  -1   3  -9    4.55    1.58
   1  -3  10    0.26    0.84
  -1   3 -10   -0.57    1.78
   1  -3  10    1.87    1.49
   1  -3  10    1.38    1.58
  -1   3 -10    0.12    1.66
   1  -3  10    2.03    1.46
  -1   3 -10   -0.77    1.13
  -1   3 -10    0.51    1.35
  -1   3 -10   -0.54    1.45
   1  -3  10    0.74    1.01
  -1   3 -10    1.94    1.22
  -1   3 -11   43.73    4.45
  -1   3 -11   47.00    3.48
   1  -3  11   47.50    4.58
   1  -3  11   38.87    3.27
  -1   3 -11   40.66    3.59
  -1   3 -11   44.05    4.48
   1  -3  11   43.27    4.34
   1  -3  11   44.63    3.90
  -1   3 -11   47.79    4.54
  -1   3 -11   42.18    4.26
   1  -3  12   31.37    3.14
   1  -3  12   36.29    4.28
   1  -3  12   32.87    3.92
  -1   3 -12   34.30    4.06
  -1   3 -12   34.70    4.11
  -1   3 -12   35.48    4.20
  -1   3 -12   37.37    3.56
   1  -3  12   40.98    3.86
  -1   3 -12   30.60    4.04
   1  -3  13    2.87    1.54
   1  -3  13    5.37    2.31
  -1   3 -13    7.42    2.25
   1  -3  13    9.33    2.26
  -1   3 -13    2.59    1.80
  -1   3 -13    4.94    2.16
  -1   3 -13    1.70    1.61
  -1   3 -13    6.27    1.90
  -1   3 -14    0.29    1.70
   1  -3  14    4.71    2.29
   1  -3  14    0.90    1.80
  -1   3 -14    0.47    1.78
  -1   3 -14   -0.54    2.35
  -1   3 -15    5.20    2.70
   1  -3  15   -1.85    1.89
  -1   3 -15    1.71    1.77
  -1   3 -15    1.96    1.86
   1  -3  15    2.09    2.34
  -1   3 -16    5.78    2.58
   1  -3  16    5.89    3.07
  -1   2  14   14.31    3.51
  -1   2  14   16.66    3.58
   1  -2 -13   -0.83    1.85
   1  -2 -13    1.65    1.83
  -1   2  13   -0.91    2.55
  -1   2  13   -0.41    1.48
  -1   2  13    2.07    1.97
   1  -2 -13   -1.88    2.82
   1  -2 -12    3.14    2.00
  -1   2  12    0.61    1.44
   1  -2 -12    1.85    1.82
   1  -2 -12   -0.15    2.07
  -1   2  12    0.49    1.52
   1  -2 -12   -1.12    1.34
  -1   2  12   -1.80    1.99
  -1   2  11   11.64    2.91
   1  -2 -11   10.66    2.86
   1  -2 -11   14.76    3.19
  -1   2  11   10.00    2.33
   1  -2 -11    9.43    2.56
  -1   2  11    9.26    2.64
   1  -2 -11    9.31    2.13
   1  -2 -10    3.26    1.85
   1  -2 -10    3.15    2.12
   1  -2 -10    6.43    1.83
  -1   2  10    4.53    1.91
   1  -2 -10    2.43    1.49
   1  -2 -10    5.69    1.42
  -1   2  10    3.51    1.58
   1  -2 -10    1.20    1.41
  -1   2  10    3.59    2.01
  -1   2   9   27.84    3.31
   1  -2  -9   27.46    3.60
   1  -2  -9   25.60    2.81
  -1   2   9   30.60    3.89
   1  -2  -9   30.65    2.59
   1  -2  -9   30.57    4.11
   1  -2  -9   29.86    2.93
  -1   2   9   26.58    3.73
   1  -2  -8    0.57    1.39
   1  -2  -8    2.12    0.58
  -1   2   8   -0.76    1.12
  -1   2   8   -1.22    1.36
   1  -2  -8   -0.37    0.95
   1  -2  -8   -0.20    1.09
  -1   2   8   -1.35    1.86
   1  -2  -8    0.89    1.21
   1  -2  -8    3.48    2.46
   1  -2  -7   11.69    1.85
   1  -2  -7   10.94    2.25
   1  -2  -7   12.56    1.48
   1  -2  -7   11.43    1.89
  -1   2   7   10.35    1.88
   1  -2  -7   13.35    1.22
  -1   2   7    6.66    2.08
  -1   2   7   11.38    2.33
   1  -2  -7   12.27    1.03
   1  -2  -6  174.83    6.74
  -1   2   6  168.52    6.75
   1  -2  -6  185.96    4.70
   1  -2  -6  172.02    5.61
  -1   2   6  162.30    6.09
   1  -2  -6  170.73    5.94
   1  -2  -6  166.48    4.01
   1  -2  -6  187.29    3.78
  -1   2   6  171.97    7.15
   1  -2  -5    8.88    1.62
   1  -2  -5   11.25    1.25
  -1   2   5   12.31    2.05
  -1   2   5   10.02    1.85
  -1   2   5   10.70    1.58
   1  -2  -5   11.89    1.72
   1  -2  -5    9.31    1.63
   1  -2  -5   13.01    1.09
   1  -2  -4    2.13    0.79
   1  -2  -4    2.31    1.16
  -1   2   4    3.73    0.85
   1  -2  -4    3.73    0.73
  -1   2   4   -0.98    1.37
  -1   2   4    2.66    0.97
   1  -2  -4    2.54    1.11
  -1   2   4    3.53    1.25
   1  -2  -3    1.12    1.00
   1  -2  -3    0.55    1.00
  -1   2   3   -0.08    0.75
  -1   2   3    2.53    0.86
   1  -2  -3    0.03    0.69
  -1   2   3    0.73    1.10
   1  -2  -3    1.07    0.61
  -1   2   3    0.24    0.60
  -1   2   3    0.97    0.68
   1  -2  -2   48.12    2.81
  -1   2   2   49.89    2.46
  -1   2   2   44.71    1.84
  -1   2   2   41.39    2.50
  -1   2   2   45.20    1.90
   1  -2  -2   46.91    2.57
   1  -2  -2   45.09    2.04
  -1   2   2   42.94    2.19
   1  -2  -2   42.33    2.22
   1  -2  -2   43.08    2.60
   1  -2  -2   44.74    2.23
  -1   2   2   49.17    2.75
  -1   2   1   15.99    0.94
  -1   2   1   16.31    1.25
   1  -2  -1   13.16    1.36
  -1   2   1   14.67    0.80
   1  -2  -1   16.09    1.41
  -1   2   1   15.43    1.11
  -1   2   1   15.75    1.12
   1  -2  -1   15.67    1.11
   1  -2  -1   14.19    0.86
  -1   2   1   15.51    1.49
   1  -2  -1   14.30    1.53
  -1   2   1   15.64    1.55
  -1   2   1   15.56    1.69
  -1   2   1   13.88    1.35
   1  -2  -1   15.57    1.35
  -1   2   0 1471.33   10.51
   1  -2   0 1535.23   11.86
   1  -2   0 1500.66    6.87
   1  -2   0 1485.45    6.72
  -1   2   0 1519.02    9.98
   1  -2   0 1532.00   10.72
  -1   2   0 1527.32   11.96
   1  -2   0 1455.89   12.28
   1  -2   0 1559.10   11.99
  -1   2   0 1493.18   11.74
   1  -2   0 1505.00    9.82
  -1   2   0 1537.81   12.93
  -1   2   0 1532.09    8.81
   1  -2   0 1550.60    8.81
   1  -2   0 1489.96   12.48
  -1   2  -1    0.49    0.44
  -1   2  -1    0.48    0.67
   1  -2   1    0.63    0.67
  -1   2  -1    0.83    0.88
   1  -2   1    0.00    0.91
   1  -2   1    1.24    0.78
   1  -2   1    0.14    0.59
  -1   2  -1   -0.48    0.92
   1  -2   1    1.06    0.94
  -1   2  -1    0.07    0.63
  -1   2  -1    0.24    0.36
   1  -2   1    1.43    0.74
   1  -2   1   -0.04    0.95
   1  -2   1    0.80    0.44
   1  -2   2   31.71    1.92
  -1   2  -2   30.08    1.09
   1  -2   2   37.15    1.50
  -1   2  -2   31.94    1.68
  -1   2  -2   31.00    1.95
   1  -2   2   29.32    1.92
   1  -2   2   32.72    1.67
  -1   2  -2   32.16    2.03
   1  -2   2   34.70    2.04
   1  -2   2   32.42    1.88
   1  -2   2   32.24    1.92
   1  -2   2   32.37    1.88
  -1   2  -2   29.55    1.81
   1  -2   2   30.27    1.55
   1  -2   2   30.00    1.66
   1  -2   2   31.01    1.10
   1  -2   3    9.58    1.29
  -1   2  -3    9.62    0.97
   1  -2   3    9.71    0.67
  -1   2  -3    9.58    0.66
   1  -2   3   10.31    1.16
   1  -2   3    9.04    0.90
  -1   2  -3   10.37    1.40
   1  -2   3   10.52    1.18
   1  -2   3   11.89    1.33
   1  -2   3    8.61    1.12
  -1   2  -3   11.01    1.51
   1  -2   3   10.02    1.47
  -1   2  -3    9.18    0.68
  -1   2  -3   10.77    1.32
  -1   2  -3    8.71    1.34
  -1   2  -3    8.95    1.11
   1  -2   3    9.54    1.27
   1  -2   3    9.99    1.28
   1  -2   3   10.58    1.05
   1  -2   3    9.72    0.95
  -1   2  -4   -0.36    0.97
   1  -2   4   -0.07    0.38
   1  -2   4   -0.60    0.84
   1  -2   4    0.04    0.84
   1  -2   4    0.22    0.65
   1  -2   4   -0.82    0.97
   1  -2   4    0.59    0.82
  -1   2  -4   -0.10    0.67
   1  -2   4    0.05    0.75
  -1   2  -4   -1.20    1.12
  -1   2  -4   -0.15    0.41
  -1   2  -4   -0.82    1.10
  -1   2  -4   -0.89    0.81
   1  -2   4   -0.08    0.73
   1  -2   4    0.04    0.39
  -1   2  -4    0.17    0.49
   1  -2   4    0.79    0.82
  -1   2  -4   -0.32    0.41
  -1   2  -5   20.51    1.48
   1  -2   5   20.02    1.51
  -1   2  -5   20.82    2.21
   1  -2   5   20.40    2.04
   1  -2   5   20.53    1.48
   1  -2   5   19.55    0.93
  -1   2  -5   17.35    0.89
   1  -2   5   21.41    1.89
   1  -2   5   20.91    2.01
  -1   2  -5   22.95    1.49
   1  -2   5   19.69    1.92
  -1   2  -5   20.90    1.90
  -1   2  -5   20.09    1.81
   1  -2   5   23.28    1.78
  -1   2  -5   19.69    2.26
  -1   2  -5   20.36    2.16
  -1   2  -5   23.11    1.90
   1  -2   5   22.03    1.92
   1  -2   6   -0.16    0.95
   1  -2   6    0.22    0.62
  -1   2  -6    0.96    0.64
  -1   2  -6   -0.57    1.19
  -1   2  -6    0.40    0.67
  -1   2  -6    0.59    1.02
   1  -2   6   -0.34    1.06
  -1   2  -6    0.22    0.22
  -1   2  -6    1.00    0.92
  -1   2  -6    0.00    1.21
   1  -2   6    1.21    0.73
  -1   2  -6   -0.51    0.97
   1  -2   6    0.08    0.88
  -1   2  -7  214.98    7.21
   1  -2   7  216.31    5.85
  -1   2  -7  220.38    7.59
   1  -2   7  215.82    7.25
   1  -2   7  219.47    7.25
  -1   2  -7  219.55    5.99
  -1   2  -7  216.42    7.05
   1  -2   7  224.13    6.52
  -1   2  -7  218.47    5.95
  -1   2  -7  210.65    7.29
   1  -2   7  238.98    4.59
   1  -2   8   19.46    2.71
  -1   2  -8   19.11    2.47
  -1   2  -8   15.80    2.46
  -1   2  -8   21.41    2.77
   1  -2   8   21.46    1.39
  -1   2  -8   15.78    2.45
  -1   2  -8   21.65    2.25
  -1   2  -8   18.95    2.00
   1  -2   8   21.38    2.44
   1  -2   8   20.77    2.77
   1  -2   8   19.07    2.07
  -1   2  -9    1.37    1.02
   1  -2   9    0.75    1.42
   1  -2   9    0.95    1.52
  -1   2  -9   -1.11    1.08
  -1   2  -9   -1.90    1.83
  -1   2  -9    1.71    1.65
  -1   2  -9    1.54    1.50
  -1   2  -9   -0.48    1.14
  -1   2  -9    0.06    0.16
   1  -2   9    1.43    1.65
   1  -2   9   -0.10    1.05
  -1   2 -10   24.06    3.16
  -1   2 -10   26.59    3.48
  -1   2 -10   24.14    3.04
   1  -2  10   23.92    3.23
   1  -2  10   24.55    3.40
   1  -2  10   25.54    3.23
  -1   2 -10   25.13    2.82
   1  -2  10   25.79    2.79
  -1   2 -10   22.15    2.25
  -1   2 -10   24.39    3.33
   1  -2  11   37.72    3.60
  -1   2 -11   34.89    4.03
   1  -2  11   32.33    3.88
  -1   2 -11   32.70    3.89
  -1   2 -11   34.34    3.55
   1  -2  11   32.72    3.61
  -1   2 -11   36.70    2.92
   1  -2  11   34.47    4.06
  -1   2 -11   34.60    3.91
  -1   2 -11   35.11    3.75
   1  -2  12    7.85    2.51
   1  -2  12    7.57    2.08
   1  -2  12    8.01    2.33
  -1   2 -12    5.86    2.17
  -1   2 -12    6.77    1.84
  -1   2 -12    9.60    2.45
  -1   2 -12    9.15    2.41
   1  -2  12   10.96    2.42
  -1   2 -13    0.06    1.47
  -1   2 -13    2.37    2.03
  -1   2 -13   -0.89    2.17
   1  -2  13    1.96    1.90
   1  -2  13    2.43    1.48
   1  -2  13    0.34    1.47
  -1   2 -13    1.28    1.59
   1  -2  13    0.52    1.50
  -1   2 -14    3.45    2.00
   1  -2  14   -0.76    1.32
  -1   2 -14   -0.91    1.66
   1  -2  14    0.89    1.64
   1  -2  14   -3.69    2.16
   1  -2  14   -0.96    1.82
  -1   2 -14    0.70    1.50
  -1   2 -14   -1.58    1.75
  -1   2 -15    6.98    3.04
  -1   2 -15   11.93    3.36
  -1   2 -15    4.84    2.23
   1  -2  15   11.83    3.30
  -1   1  15    5.73    2.65
   1  -1 -14   -2.61    1.98
  -1   1  14    2.53    1.83
  -1   1  14    1.06    1.94
  -1   1  14    1.85    2.15
   1  -1 -14   -0.03    1.87
   1  -1 -14    5.69    2.98
   1  -1 -13   -5.19    2.81
   1  -1 -13    2.25    1.57
  -1   1  13   -0.27    1.61
   1  -1 -13   -0.30    1.94
  -1   1  13   -0.67    1.62
  -1   1  13    1.79    1.93
   1  -1 -13    2.24    2.11
   1  -1 -12   72.46    6.13
  -1   1  12   69.53    5.87
   1  -1 -12   83.32    5.18
   1  -1 -12   72.60    5.32
   1  -1 -12   67.16    6.11
  -1   1  12   65.98    5.83
   1  -1 -12   67.72    6.28
  -1   1  12   70.73    6.36
   1  -1 -11   95.81    6.62
  -1   1  11   87.70    6.32
   1  -1 -11   85.30    6.56
   1  -1 -11   90.51    6.65
  -1   1  11   86.36    6.45
   1  -1 -11   90.09    5.19
  -1   1  11   84.33    6.11
   1  -1 -11   81.74    5.37
   1  -1 -10   84.51    5.07
   1  -1 -10   85.78    6.13
  -1   1  10   82.38    5.73
   1  -1 -10   78.63    5.99
  -1   1  10   78.28    5.72
   1  -1 -10   80.13    4.28
  -1   1  10   85.17    6.06
   1  -1 -10   90.05    4.87
   1  -1 -10   79.93    5.84
   1  -1  -9    5.44    1.85
   1  -1  -9    1.07    1.09
   1  -1  -9    1.36    1.15
  -1   1   9    1.57    1.51
   1  -1  -9    3.91    1.99
   1  -1  -9    1.35    1.48
  -1   1   9   -0.68    1.23
   1  -1  -9    1.83    1.95
  -1   1   9    0.55    1.54
   1  -1  -8    1.94    1.58
  -1   1   8    1.98    1.40
   1  -1  -8    2.65    2.09
   1  -1  -8    3.28    1.24
   1  -1  -8    2.31    1.21
  -1   1   8    1.62    1.33
   1  -1  -8    2.08    1.39
   1  -1  -8    2.75    1.28
  -1   1   8    2.59    1.31
   1  -1  -7    8.60    1.50
   1  -1  -7    7.14    1.86
   1  -1  -7    9.35    1.57
  -1   1   7    8.49    1.72
   1  -1  -7    5.33    1.29
   1  -1  -7    7.43    1.77
  -1   1   7    8.47    1.82
  -1   1   7    7.61    1.93
   1  -1  -7   10.96    2.74
  -1   1   6   67.78    4.24
   1  -1  -6   68.81    3.38
   1  -1  -6   62.51    3.91
   1  -1  -6   64.14    3.27
  -1   1   6   63.13    3.71
  -1   1   6   65.84    4.09
   1  -1  -6   73.83    4.70
   1  -1  -5    0.05    0.80
  -1   1   5    1.57    1.09
  -1   1   5    0.20    0.75
  -1   1   5    0.99    0.77
   1  -1  -5    0.33    1.08
   1  -1  -5    1.07    0.80
  -1   1   5   -1.62    1.34
   1  -1  -5    2.15    0.62
   1  -1  -4   -0.08    0.80
   1  -1  -4    0.17    0.69
   1  -1  -4    0.82    1.04
   1  -1  -4   -1.21    0.88
  -1   1   4    1.29    1.16
  -1   1   4   -0.07    0.47
   1  -1  -4    0.14    0.54
  -1   1   4    0.26    1.02
  -1   1   4    0.60    0.94
  -1   1   4    0.61    0.78
  -1   1   3  279.46    5.56
   1  -1  -3  258.88    5.56
   1  -1  -3  264.85    4.17
  -1   1   3  277.76    5.80
   1  -1  -3  292.54    6.18
  -1   1   3  275.24    6.11
   1  -1  -3  255.33    4.16
  -1   1   3  268.59    6.00
  -1   1   3  263.72    5.23
   1  -1  -3  272.93    5.46
  -1   1   3  279.60    4.25
   1  -1  -3  279.30    5.98
  -1   1   2  799.31    7.15
  -1   1   2  800.04    8.22
   1  -1  -2  826.86    8.97
  -1   1   2  800.75    8.67
   1  -1  -2  772.90    9.11
   1  -1  -2  806.07    8.21
   1  -1  -2  786.75    5.37
   1  -1  -2  775.64    7.15
  -1   1   2  782.59    5.55
  -1   1   2  781.20    8.77
   1  -1  -2  783.35    8.41
   1  -1  -1 2799.12   13.24
   1  -1  -1 2807.50   14.43
   1  -1  -1 2905.98   14.49
  -1   1   1 2756.30   13.83
   1  -1  -1 2765.86   12.01
  -1   1   1 2790.01   13.28
  -1   1   1 2837.88   14.68
  -1   1   1 2730.72   11.98
   1  -1  -1 2817.57   14.61
   1  -1  -1 2817.19   11.14
  -1   1   1 2794.13   14.60
  -1   1   1 2826.25   11.30
   1  -1   0   39.43    1.63
   1  -1   0   42.30    1.62
   1  -1   0   41.85    1.18
  -1   1   0   39.30    1.11
   1  -1   0   41.75    1.65
  -1   1   0   38.27    1.60
   1  -1   0   41.76    1.57
  -1   1   0   40.26    1.52
  -1   1   0   39.73    1.61
  -1   1   0   38.11    1.61
  -1   1  -1   99.09    2.53
   1  -1   1   99.31    2.50
  -1   1  -1   98.64    2.39
   1  -1   1   97.02    2.51
   1  -1   1  101.40    2.08
  -1   1  -1   97.52    2.07
   1  -1   1  100.01    2.05
  -1   1  -1   97.15    2.59
   1  -1   1  102.24    2.40
  -1   1  -1  100.61    2.54
  -1   1  -1   91.23    2.07
   1  -1   1   98.34    2.59
   1  -1   1   97.51    2.05
  -1   1  -1   95.87    2.03
   1  -1   1   97.15    2.56
   1  -1   2    7.14    1.00
   1  -1   2    9.40    1.00
   1  -1   2    8.72    1.19
  -1   1  -2    8.56    0.96
  -1   1  -2   10.68    1.25
   1  -1   2    7.82    0.98
  -1   1  -2    9.86    1.06
   1  -1   2    8.83    0.93
   1  -1   2    9.61    0.86
   1  -1   2    9.66    1.10
   1  -1   2    8.68    0.95
  -1   1  -2    9.10    0.92
   1  -1   2    8.76    1.08
   1  -1   2    8.63    1.03
  -1   1  -2    8.43    1.08
   1  -1   2    9.67    1.12
  -1   1  -2    9.84    1.00
  -1   1  -2    9.18    0.95
  -1   1  -2    7.25    1.10
   1  -1   3   44.66    2.36
  -1   1  -3   42.50    2.22
   1  -1   3   41.90    2.20
   1  -1   3   43.81    2.25
  -1   1  -3   45.43    2.28
  -1   1  -3   40.15    1.66
   1  -1   3   42.03    2.22
   1  -1   3   38.57    2.42
   1  -1   3   45.95    2.50
   1  -1   3   44.14    2.37
  -1   1  -3   48.13    2.26
  -1   1  -3   42.76    2.37
  -1   1  -3   42.91    1.87
  -1   1  -3   42.31    2.22
   1  -1   3   40.83    1.65
   1  -1   3   42.16    1.90
  -1   1  -3   42.97    2.37
   1  -1   3   42.62    2.30
  -1   1  -3   36.56    2.23
   1  -1   3   45.61    2.19
   1  -1   4   10.77    1.48
   1  -1   4   11.44    1.58
   1  -1   4   11.74    1.38
  -1   1  -4   12.14    1.50
   1  -1   4   11.81    0.96
   1  -1   4   10.62    1.56
   1  -1   4   10.79    1.59
  -1   1  -4   11.65    1.51
  -1   1  -4   11.27    0.91
  -1   1  -4   10.22    1.58
  -1   1  -4   12.57    1.56
  -1   1  -4   11.85    1.54
  -1   1  -4   13.51    1.47
   1  -1   4   12.42    1.45
  -1   1  -4   12.25    1.41
  -1   1  -4   11.58    1.21
  -1   1  -4   12.18    1.64
   1  -1   4   14.18    1.49
   1  -1   4   11.65    1.51
  -1   1  -5  576.49    8.62
   1  -1   5  533.31    8.58
  -1   1  -5  518.08    9.11
  -1   1  -5  549.50    9.99
   1  -1   5  547.56    9.95
  -1   1  -5  535.48    9.83
   1  -1   5  536.94    9.99
  -1   1  -5  530.43    7.95
   1  -1   5  544.65    9.16
   1  -1   5  546.20    5.56
  -1   1  -5  544.92    9.67
   1  -1   6  271.36    6.78
  -1   1  -6  275.92    6.04
   1  -1   6  271.37    7.21
   1  -1   6  268.49    7.73
  -1   1  -6  271.76    7.78
  -1   1  -6  267.59    7.58
   1  -1   6  279.82    7.84
  -1   1  -6  258.65    7.07
  -1   1  -6  276.25    7.67
   1  -1   7    7.13    1.82
  -1   1  -7    4.02    1.28
   1  -1   7    6.53    1.81
  -1   1  -7    6.68    1.26
  -1   1  -7    7.66    1.92
  -1   1  -7    5.07    0.58
   1  -1   7    8.13    1.59
  -1   1  -7    8.79    2.02
  -1   1  -7    5.30    1.53
   1  -1   7    5.33    1.45
  -1   1  -8    2.61    1.60
   1  -1   8    3.98    1.82
  -1   1  -8    0.05    0.27
   1  -1   8   -1.16    1.30
  -1   1  -8    1.11    1.21
  -1   1  -8   -0.06    1.28
  -1   1  -8    1.01    0.91
  -1   1  -8    2.63    1.27
   1  -1   8   -0.79    1.03
   1  -1   8    1.15    1.53
  -1   1  -8    0.89    0.43
   1  -1   9    0.86    1.46
  -1   1  -9    3.91    1.83
  -1   1  -9    2.86    1.93
  -1   1  -9    3.97    2.01
  -1   1  -9    2.06    1.13
  -1   1  -9    2.82    1.59
  -1   1  -9    3.66    1.51
   1  -1   9    1.77    1.23
   1  -1   9   -0.45    1.60
  -1   1  -9    1.93    0.54
   1  -1   9    5.59    1.99
  -1   1 -10   32.75    3.86
   1  -1  10   32.77    3.65
   1  -1  10   30.99    3.74
   1  -1  10   32.07    3.74
  -1   1 -10   35.59    4.04
  -1   1 -10   32.04    3.39
  -1   1 -10   29.60    3.73
  -1   1 -10   32.27    2.53
   1  -1  10   29.56    3.20
   1  -1  11    9.69    2.54
  -1   1 -11    8.72    2.50
  -1   1 -11   11.87    2.69
   1  -1  11   10.00    2.75
   1  -1  11    9.44    2.28
   1  -1  11    9.83    2.47
  -1   1 -11   10.55    2.77
  -1   1 -11   10.55    2.34
  -1   1 -12    3.45    1.82
   1  -1  12    1.46    1.49
  -1   1 -12    0.44    1.60
   1  -1  12    0.12    1.51
  -1   1 -12    2.39    1.82
  -1   1 -12   -0.46    1.30
   1  -1  12   -0.49    1.34
   1  -1  12    1.06    1.61
   1  -1  13   13.47    2.98
  -1   1 -13   10.63    2.85
  -1   1 -13   10.63    2.77
   1  -1  13   11.64    2.58
  -1   1 -13   10.74    2.86
   1  -1  13   14.74    3.10
  -1   1 -13   15.22    3.27
   1  -1  13   11.40    2.77
   1  -1  14    6.18    2.61
   1  -1  14    8.69    2.65
  -1   1 -14    6.57    2.41
  -1   1 -14    9.40    3.01
  -1   1 -14    1.48    2.05
   1  -1  14   10.55    3.09
  -1   1 -14    5.49    2.40
   1  -1  15    7.01    3.05
  -1   1 -15    6.60    2.76
   1  -1  15    6.67    2.39
  -1   0  16    1.27    1.98
  -1   0  15    1.25    1.77
  -1   0  15   -3.04    2.47
   1   0 -15   -5.27    2.68
   1   0 -15    1.50    2.59
  -1   0  15   -2.54    2.24
  -1   0  14   13.70    3.13
  -1   0  14    7.59    2.74
   1   0 -14    6.94    2.31
  -1   0  14    8.08    2.60
   1   0 -14    8.08    2.44
   1   0 -14    5.50    2.52
   1   0 -14   13.65    3.56
   1   0 -13   42.81    5.02
   1   0 -13   45.73    5.32
  -1   0  13   39.80    4.73
   1   0 -13   38.19    3.98
  -1   0  13   35.47    4.56
   1   0 -13   39.29    4.58
   1   0 -13   35.48    4.06
  -1   0  13   36.88    4.50
  -1   0  12  189.79    9.07
  -1   0  12  191.29    9.37
   1   0 -12  176.68    8.05
   1   0 -12  196.16    9.90
   1   0 -12  182.21    9.04
   1   0 -12  186.04    9.71
  -1   0  12  182.49    9.25
   1   0 -12  190.92    8.22
   1   0 -11  121.80    6.21
  -1   0  11  109.22    6.86
  -1   0  11  106.96    6.52
   1   0 -11  104.03    5.84
   1   0 -11  118.10    6.88
  -1   0  11  118.05    7.08
   1   0 -11  113.25    7.14
   1   0 -11  117.14    7.42
   1   0 -10   -2.16    1.45
   1   0 -10    0.36    0.92
  -1   0  10    0.48    1.30
   1   0 -10   -1.37    1.51
   1   0 -10   -1.01    1.44
   1   0 -10   -2.49    2.24
  -1   0  10    2.29    1.68
   1   0 -10    0.71    1.46
  -1   0  10    1.92    1.58
  -1   0   9   15.79    2.41
   1   0  -9   14.23    2.53
  -1   0   9   18.70    2.81
   1   0  -9   19.46    1.99
   1   0  -9   16.20    2.57
   1   0  -9   16.93    2.30
   1   0  -9   14.08    2.43
   1   0  -9   16.69    2.42
  -1   0   9   17.74    2.64
  -1   0   8    5.53    1.54
  -1   0   8    4.88    1.82
   1   0  -8    3.78    1.60
   1   0  -8    3.96    1.35
   1   0  -8    4.44    1.14
   1   0  -8    5.50    1.46
  -1   0   8    4.25    1.58
   1   0  -8    1.07    1.53
   1   0  -8    3.09    1.44
  -1   0   7    1.14    0.75
  -1   0   7    1.16    1.21
  -1   0   7    0.71    0.97
   1   0  -7    0.61    1.26
   1   0  -7    2.39    0.98
   1   0  -7    1.22    1.56
   1   0  -7    1.97    1.37
  -1   0   7    1.77    1.07
   1   0  -7    2.03    1.04
   1   0  -6    1.59    1.27
  -1   0   6    0.69    0.75
   1   0  -6    0.84    1.55
  -1   0   6    0.27    0.85
   1   0  -6    0.90    0.79
  -1   0   6    1.27    0.42
  -1   0   6    0.43    0.92
   1   0  -6    2.32    0.97
   1   0  -6    0.58    0.85
   1   0  -6    0.48    1.24
  -1   0   6    0.80    1.13
  -1   0   5    1.93    1.13
   1   0  -5    2.40    1.15
   1   0  -5    1.12    0.79
  -1   0   5    1.19    0.49
   1   0  -5    0.95    0.95
   1   0  -5    1.48    0.82
  -1   0   5    3.18    0.95
   1   0  -5    2.87    0.85
   1   0  -5    1.75    1.73
  -1   0   5    2.25    0.84
  -1   0   5    0.50    0.95
   1   0  -4   16.25    1.34
   1   0  -4   14.03    1.35
   1   0  -4   14.25    1.75
   1   0  -4   16.45    1.57
  -1   0   4   15.86    1.65
   1   0  -4   15.52    1.56
  -1   0   4   15.83    1.34
  -1   0   4   12.35    1.50
  -1   0   4   16.67    1.44
   1   0  -4   13.83    1.57
   1   0  -4   17.22    2.06
  -1   0   4   15.55    1.12
  -1   0   4   15.26    1.68
   1   0  -4   13.92    1.30
  -1   0   3 1684.56   11.28
   1   0  -3 1679.86   10.17
  -1   0   3 1681.90   11.20
   1   0  -3 1660.83   11.56
   1   0  -3 1724.89   12.33
  -1   0   3 1732.16   11.84
  -1   0   3 1685.63   13.04
  -1   0   3 1672.33   12.18
   1   0  -3 1748.66   13.07
   1   0  -3 1697.91   13.46
  -1   0   3 1671.92   12.58
  -1   0   3 1763.96   10.53
   1   0  -3 1689.24   13.24
  -1   0   3 1736.65   13.55
   1   0  -2   22.88    1.36
  -1   0   2   22.01    1.37
  -1   0   2   20.89    1.20
  -1   0   2   20.06    1.36
  -1   0   2   21.43    1.01
   1   0  -2   20.05    1.18
   1   0  -2   20.61    1.17
  -1   0   2   22.58    1.00
   1   0  -2   21.97    1.21
   1   0  -2   20.07    1.37
   1   0  -2   21.83    1.42
  -1   0   2   19.12    1.34
  -1   0   2   22.03    1.23
  -1   0   2   20.40    1.33
  -1   0   2   21.98    1.23
  -1   0   1    7.54    0.54
   1   0  -1    6.83    0.73
   1   0  -1    6.53    0.73
   1   0  -1    6.97    0.52
   1   0  -1    7.09    0.67
  -1   0   1    8.26    0.80
   1   0  -1    7.57    0.67
  -1   0   1    7.71    0.78
  -1   0   0  178.19    2.82
   1   0   0  175.36    2.94
   1   0   0  179.59    3.04
  -1   0   0  180.34    2.93
   1   0   0  178.38    2.79
   1   0   0  182.48    2.92
  -1   0   0  175.14    2.84
   1   0   1  435.13    5.42
  -1   0  -1  445.37    5.47
  -1   0  -1  436.59    4.07
  -1   0  -1  437.08    4.54
   1   0   1  450.93    5.18
  -1   0  -1  437.73    5.52
   1   0   1  438.73    4.50
   1   0   1  447.86    5.55
   1   0   1  444.04    5.56
  -1   0  -1  441.51    5.14
   1   0   1  443.64    5.50
   1   0   1  434.87    5.55
  -1   0  -1  455.14    5.56
   1   0   1  431.70    4.04
  -1   0  -1  429.42    5.56
  -1   0  -2    0.90    0.77
   1   0   2    2.35    0.90
   1   0   2    0.05    0.75
   1   0   2    1.52    0.83
   1   0   2    0.47    0.39
  -1   0  -2    0.68    0.63
   1   0   2   -0.48    0.93
   1   0   2    0.46    0.97
  -1   0  -2    0.39    0.81
  -1   0  -2    1.22    0.90
   1   0   2    0.75    0.84
  -1   0  -2   -0.18    0.87
  -1   0  -2    0.70    0.66
  -1   0  -2    0.63    0.42
   1   0   2    1.45    0.98
  -1   0  -3  101.29    3.59
  -1   0  -3  109.14    3.66
   1   0   3  103.18    3.94
  -1   0  -3  111.87    3.77
  -1   0  -3  110.77    3.92
   1   0   3  107.50    3.77
   1   0   3  107.04    3.62
  -1   0  -3  100.12    3.79
   1   0   3  116.38    3.94
  -1   0  -3   97.55    3.73
   1   0   3   99.91    3.71
   1   0   3  112.11    3.78
   1   0   3  106.19    3.64
  -1   0  -3  100.58    2.20
   1   0   3  107.36    3.26
  -1   0  -3  108.00    3.76
  -1   0  -4  131.86    4.77
  -1   0  -4  133.40    3.85
  -1   0  -4  137.85    2.87
   1   0   4  131.39    4.59
  -1   0  -4  128.22    2.46
   1   0   4  129.28    4.72
  -1   0  -4  137.95    4.78
   1   0   4  143.26    4.17
   1   0   4  119.85    4.84
  -1   0  -4  129.84    4.55
  -1   0  -4  124.13    2.71
   1   0   4  134.08    4.72
   1   0   5   -0.34    1.04
  -1   0  -5    0.19    0.27
  -1   0  -5    0.54    1.05
  -1   0  -5    0.34    1.20
   1   0   5   -0.83    0.97
   1   0   5    1.29    1.40
  -1   0  -5    0.48    1.12
  -1   0  -5    3.00    1.07
  -1   0  -5    0.96    0.51
  -1   0  -5    0.80    0.45
   1   0   5    0.68    1.18
   1   0   6   14.75    2.14
  -1   0  -6   14.91    1.18
   1   0   6   16.52    2.17
   1   0   6   13.89    1.99
  -1   0  -6   13.19    2.02
  -1   0  -6   14.98    2.05
  -1   0  -6   20.11    2.45
   1   0   6   16.28    2.43
  -1   0  -6   16.02    1.71
  -1   0  -6   16.60    1.21
   1   0   7    3.32    1.36
  -1   0  -7    0.46    1.26
  -1   0  -7    0.84    1.43
  -1   0  -7    3.38    0.71
   1   0   7    2.39    1.66
   1   0   7    3.32    1.40
  -1   0  -7    0.90    0.90
  -1   0  -7    2.39    0.64
  -1   0  -7    6.61    2.19
   1   0   7    3.83    1.51
   1   0   8   24.23    2.92
  -1   0  -8   21.07    1.92
   1   0   8   25.15    2.90
   1   0   8   22.07    3.04
  -1   0  -8   23.27    2.81
  -1   0  -8   31.30    3.58
  -1   0  -8   24.06    1.56
  -1   0  -8   24.16    2.99
   1   0   8   25.74    3.38
  -1   0  -8   22.42    1.67
   1   0   9   11.48    2.38
   1   0   9   10.72    2.35
  -1   0  -9    6.66    1.91
  -1   0  -9   10.27    2.45
   1   0   9   17.99    2.79
  -1   0  -9   11.14    1.14
   1   0   9    8.53    2.63
  -1   0  -9   14.34    1.72
  -1   0  -9   12.88    2.76
  -1   0 -10  465.78   13.06
   1   0  10  455.47   13.27
   1   0  10  467.94   14.01
  -1   0 -10  488.23   14.10
  -1   0 -10  457.18   13.80
   1   0  10  467.05   13.80
   1   0  10  469.12   13.11
  -1   0 -11    0.88    1.68
   1   0  11    0.87    1.40
  -1   0 -11    2.78    1.93
   1   0  11    3.38    2.43
   1   0  11    1.62    1.51
   1   0  11   -1.75    2.00
  -1   0 -11    1.29    1.83
  -1   0 -11    0.84    1.56
  -1   0 -12   13.96    3.00
   1   0  12   12.56    2.94
   1   0  12    8.97    2.29
  -1   0 -12    9.11    2.42
  -1   0 -12   15.73    3.18
  -1   0 -12   14.02    3.27
   1   0  12   10.54    2.85
   1   0  13    0.92    1.71
   1   0  13   -2.26    1.95
  -1   0 -13    3.36    2.24
  -1   0 -13    1.14    1.64
  -1   0 -13   -0.48    1.49
   1   0  13    3.71    2.43
  -1   0 -13    0.36    2.23
   1   0  14    2.29    1.98
   1   0  14   -0.84    1.52
  -1   0 -14   -1.43    1.73
  -1   0 -14   -0.29    1.90
   1   0  14    1.08    2.35
  -1   0 -14    0.17    1.73
  -1   0 -14    0.80    1.91
  -1   0 -15   -0.04    2.28
   1   0  15    0.18    1.59
  -1   0 -15   -1.67    2.05
  -1  -1  16    1.46    1.41
   1   1 -16    1.46    2.13
  -1  -1  16   -0.31    2.18
  -1  -1  15    9.11    2.90
   1   1 -15    5.96    2.21
  -1  -1  15    4.59    1.96
   1   1 -15    8.04    2.94
  -1  -1  15    2.66    1.69
  -1  -1  15    4.46    1.96
  -1  -1  15    1.56    1.94
   1   1 -15    7.20    2.69
   1   1 -15   10.08    2.67
   1   1 -15    3.37    2.43
  -1  -1  14   -0.03    1.44
   1   1 -14    0.83    1.49
   1   1 -14    2.08    1.77
  -1  -1  14    3.65    1.83
  -1  -1  14   -2.82    1.98
   1   1 -14    4.09    2.24
  -1  -1  14   -0.75    1.41
  -1  -1  14    2.27    1.58
   1   1 -14    2.23    2.23
   1   1 -14    2.04    1.97
  -1  -1  13    9.15    2.66
   1   1 -13   13.01    2.76
   1   1 -13    8.07    2.22
  -1  -1  13    9.22    2.31
   1   1 -13    7.39    2.30
   1   1 -13   13.50    3.23
   1   1 -13    9.53    2.68
  -1  -1  13    7.84    2.51
   1   1 -12   84.60    5.96
  -1  -1  12   86.80    5.75
   1   1 -12   90.45    6.62
   1   1 -12  101.31    7.34
  -1  -1  12   79.80    6.22
   1   1 -12   83.19    5.55
   1   1 -12   90.23    5.99
  -1  -1  12   90.32    6.28
   1   1 -11    8.32    2.66
   1   1 -11    3.02    1.34
  -1  -1  11    2.08    1.60
   1   1 -11    1.73    1.22
   1   1 -11    3.28    1.71
  -1  -1  11    6.55    2.29
  -1  -1  11    4.81    1.60
   1   1 -11    4.15    1.68
   1   1 -11    4.28    2.03
   1   1 -10    4.98    1.38
  -1  -1  10    5.50    1.53
   1   1 -10    5.81    1.77
  -1  -1  10    7.95    2.22
   1   1 -10    4.61    1.62
   1   1 -10    3.66    1.71
   1   1 -10    9.22    2.72
   1   1 -10    2.72    1.51
  -1  -1  10    5.33    1.85
  -1  -1   9   55.91    3.79
   1   1  -9   51.65    3.72
  -1  -1   9   55.08    2.91
   1   1  -9   50.63    3.99
   1   1  -9   58.98    4.57
   1   1  -9   56.98    3.39
   1   1  -9   62.73    4.72
  -1  -1   9   55.61    4.22
  -1  -1   9   48.45    4.08
   1   1  -9   55.84    4.17
   1   1  -8   -1.44    2.13
  -1  -1   8    0.57    1.10
   1   1  -8    0.98    0.89
   1   1  -8   -0.05    1.26
  -1  -1   8    3.28    0.80
   1   1  -8    0.55    1.29
   1   1  -8    0.33    1.28
  -1  -1   8    0.27    1.09
  -1  -1   8    1.47    1.33
   1   1  -8    0.34    1.23
  -1  -1   8    0.54    0.72
   1   1  -7  165.68    6.07
  -1  -1   7  176.10    5.73
   1   1  -7  159.11    5.53
   1   1  -7  164.43    6.44
  -1  -1   7  174.19    3.48
  -1  -1   7  179.50    4.67
   1   1  -7  164.97    6.41
  -1  -1   7  170.69    5.79
   1   1  -7  178.25    4.72
   1   1  -7  157.81    5.01
   1   1  -6    9.84    1.77
  -1  -1   6   12.98    1.01
   1   1  -6   13.77    1.23
   1   1  -6   12.98    1.58
  -1  -1   6   13.40    1.72
   1   1  -6   12.43    1.78
  -1  -1   6   12.99    1.36
  -1  -1   6   12.71    1.57
   1   1  -6   15.22    1.96
   1   1  -6   11.18    1.56
   1   1  -5   55.21    2.61
   1   1  -5   51.68    1.86
  -1  -1   5   53.45    2.67
   1   1  -5   47.77    2.74
  -1  -1   5   57.60    2.84
  -1  -1   5   54.44    2.66
   1   1  -5   48.78    2.50
  -1  -1   5   51.17    2.83
  -1  -1   5   54.65    2.41
   1   1  -5   49.26    2.97
   1   1  -5   47.87    2.87
   1   1  -5   52.05    3.13
  -1  -1   5   57.31    2.83
   1   1  -5   56.34    2.71
  -1  -1   5   49.21    2.84
  -1  -1   5   53.79    1.94
   1   1  -4    2.73    1.13
  -1  -1   4    4.81    0.95
  -1  -1   4    5.04    1.32
   1   1  -4    2.83    0.90
  -1  -1   4    3.16    1.03
   1   1  -4    3.13    0.48
  -1  -1   4    4.05    0.97
   1   1  -4    4.10    1.16
   1   1  -4    1.11    1.07
   1   1  -4    2.77    0.71
  -1  -1   4    3.10    0.88
  -1  -1   4    3.87    0.99
  -1  -1   4    2.94    1.00
  -1  -1   4    3.84    0.89
  -1  -1   4    4.26    1.14
  -1  -1   4    1.50    0.91
   1   1  -4    4.06    1.18
  -1  -1   4    4.42    0.77
   1   1  -3  583.81    7.66
  -1  -1   3  630.19    7.56
  -1  -1   3  609.98    7.99
  -1  -1   3  605.99    5.21
   1   1  -3  593.32    7.88
  -1  -1   3  583.74    7.88
  -1  -1   3  589.60    7.69
  -1  -1   3  599.55    5.34
   1   1  -3  599.04    7.49
  -1  -1   3  602.43    7.53
  -1  -1   3  597.17    7.47
  -1  -1   3  588.03    7.86
   1   1  -3  589.65    7.81
   1   1  -3  591.42    7.36
   1   1  -3  574.41    7.29
   1   1  -3  583.83    7.79
   1   1  -3  585.34    5.35
  -1  -1   3  604.69    7.51
  -1  -1   2  252.36    4.57
   1   1  -2  233.71    4.61
  -1  -1   2  234.46    4.59
   1   1  -2  239.49    3.56
  -1  -1   2  247.44    4.57
  -1  -1   2  234.41    4.50
   1   1  -2  235.21    4.49
  -1  -1   2  257.51    3.68
  -1  -1   2  237.86    4.63
  -1  -1   2  227.52    4.27
   1   1  -2  233.78    4.28
   1   1  -2  231.61    4.62
   1   1  -2  231.02    4.45
   1   1  -1 1769.77   11.98
   1   1  -1 1802.73    9.05
  -1  -1   1 1790.56   11.92
  -1  -1   1 1759.93   11.86
  -1  -1   1 1724.42   11.46
   1   1  -1 1772.60   11.91
  -1  -1   1 1767.63    8.88
   1   1  -1 1771.55   12.08
   1   1  -1 1770.91   10.60
  -1  -1   1 1833.45   12.07
  -1  -1   1 1759.44   11.87
  -1  -1   1 1828.80   10.85
  -1  -1   1 1729.20   11.76
   1   1  -1 1768.07   11.94
   1   1  -1 1768.81   11.84
   1   1  -1 1708.03   11.34
   1   1  -1 1728.62    7.91
   1   1   0 1198.69    9.75
   1   1   0 1193.15   10.15
   1   1   0 1190.51    9.73
  -1  -1   0 1219.43    9.76
   1   1   0 1197.37    9.48
  -1  -1   0 1168.17    9.38
  -1  -1   0 1207.83    9.89
   1   1   0 1211.32   10.21
   1   1   0 1219.64    8.31
  -1  -1   0 1176.36   10.03
  -1  -1   0 1184.49   10.07
  -1  -1   0 1209.27    8.10
  -1  -1   0 1206.55    8.34
  -1  -1   0 1193.98   10.13
   1   1   0 1209.85    8.16
  -1  -1  -1 1644.59   12.36
  -1  -1  -1 1570.60   12.76
  -1  -1  -1 1677.51   13.34
   1   1   1 1680.17   13.20
   1   1   1 1569.79   12.25
   1   1   1 1601.02   12.03
  -1  -1  -1 1641.74   12.15
  -1  -1  -1 1602.94    9.49
  -1  -1  -1 1627.33   11.67
  -1  -1  -1 1595.18   12.92
   1   1   1 1596.88   13.03
   1   1   1 1583.83   11.45
   1   1   1 1681.13   13.16
  -1  -1  -1 1587.83   12.91
   1   1   2  155.31    4.61
  -1  -1  -2  164.25    4.63
  -1  -1  -2  171.54    4.51
  -1  -1  -2  159.38    3.87
   1   1   2  157.84    4.39
  -1  -1  -2  156.44    4.61
  -1  -1  -2  169.73    4.84
   1   1   2  158.78    4.78
   1   1   2  156.24    4.60
   1   1   2  157.96    3.82
  -1  -1  -2  151.99    4.58
   1   1   2  173.20    4.71
  -1  -1  -2  167.18    4.05
  -1  -1  -2  159.55    4.69
   1   1   2  178.10    4.82
  -1  -1  -2  164.22    4.82
  -1  -1  -3   14.99    1.78
  -1  -1  -3   15.15    1.92
   1   1   3   14.22    1.73
  -1  -1  -3   15.48    1.69
   1   1   3   14.69    1.19
   1   1   3   15.69    2.08
   1   1   3   13.68    1.82
  -1  -1  -3   14.79    1.36
   1   1   3   15.52    1.91
   1   1   4   29.03    2.49
  -1  -1  -4   27.73    2.53
   1   1   4   32.20    1.92
  -1  -1  -4   25.26    2.28
   1   1   4   30.32    2.80
  -1  -1  -4   25.71    1.82
   1   1   4   28.81    2.73
   1   1   4   28.86    2.55
   1   1   5    6.79    1.60
  -1  -1  -5    7.31    1.18
   1   1   5    7.58    1.65
   1   1   5    6.18    1.65
  -1  -1  -5    6.23    1.69
  -1  -1  -5    6.37    1.02
  -1  -1  -5    6.11    1.51
   1   1   5    7.84    1.21
   1   1   5    7.14    1.70
  -1  -1  -6    4.77    1.92
  -1  -1  -6    0.80    0.73
   1   1   6    2.55    1.35
  -1  -1  -6   -0.95    1.48
  -1  -1  -6    1.04    0.60
   1   1   6   -1.03    1.55
  -1  -1  -6    0.62    1.33
   1   1   6    2.33    1.47
   1   1   6   -0.02    1.06
   1   1   7    6.48    1.77
   1   1   7    6.25    1.76
  -1  -1  -7    8.34    2.33
   1   1   7    3.71    1.64
  -1  -1  -7    7.71    2.11
   1   1   7    4.27    1.88
  -1  -1  -7    6.10    1.17
  -1  -1  -7    3.36    1.56
   1   1   8  343.86   11.36
   1   1   8  328.66   10.53
  -1  -1  -8  334.71   10.65
  -1  -1  -8  333.80   10.94
  -1  -1  -8  339.33    7.27
   1   1   8  339.56   11.01
   1   1   8  332.30   10.59
  -1  -1  -8  324.08   10.14
  -1  -1  -8  326.80    7.57
  -1  -1  -9    1.37    1.44
   1   1   9    0.01    1.55
   1   1   9    0.68    1.37
  -1  -1  -9    4.94    2.02
  -1  -1  -9    1.33    1.07
  -1  -1  -9   -1.26    1.86
   1   1   9    4.85    2.23
  -1  -1  -9    2.64    1.01
   1   1   9    1.23    1.34
   1   1  10   66.16    5.46
   1   1  10   67.13    5.81
   1   1  10   60.46    5.24
  -1  -1 -10   63.39    5.15
  -1  -1 -10   73.31    5.81
  -1  -1 -10   58.09    5.27
  -1  -1 -11    9.56    2.77
  -1  -1 -11    6.81    2.39
   1   1  11    8.22    2.57
   1   1  11    7.27    2.53
   1   1  11    6.93    2.66
  -1  -1 -11   10.70    2.87
  -1  -1 -12    1.20    1.96
  -1  -1 -12    2.15    1.71
   1   1  12    2.22    1.63
   1   1  12    0.25    1.50
  -1  -1 -12    4.26    2.25
  -1  -1 -12   -0.27    1.79
   1   1  12    3.42    2.49
  -1  -1 -13    1.97    1.84
   1   1  13    1.44    1.96
   1   1  13   -0.64    1.42
  -1  -1 -13    1.09    1.93
  -1  -1 -13    4.73    2.43
  -1  -1 -13    4.62    2.36
   1   1  13    0.66    1.87
   1   1  14    3.62    2.36
  -1  -1 -14    5.64    2.92
  -1  -1 -14    7.21    2.64
  -1  -1 -14    5.84    2.65
   1   2 -17    3.27    2.31
  -1  -2  16    1.19    1.66
   1   2 -16    0.06    1.50
   1   2 -16   -0.24    1.67
   1   2 -16    3.07    2.27
  -1  -2  16    0.42    1.64
  -1  -2  16   -1.57    1.68
  -1  -2  15    3.58    2.47
   1   2 -15   -0.93    2.35
   1   2 -15    3.51    1.61
  -1  -2  15   -2.60    2.44
  -1  -2  15    2.54    2.00
   1   2 -15    1.93    1.63
   1   2 -15   -1.10    1.53
   1   2 -15    3.14    2.28
  -1  -2  15   -0.48    1.94
   1   2 -14   23.23    3.67
   1   2 -14   23.09    3.63
   1   2 -14   16.42    3.12
  -1  -2  14   21.22    3.10
  -1  -2  14   17.48    3.15
   1   2 -14   23.71    3.95
  -1  -2  14   23.65    3.59
  -1  -2  14   23.31    3.64
   1   2 -14   23.12    3.93
  -1  -2  14   19.05    3.48
  -1  -2  13   -0.46    1.59
  -1  -2  13    0.88    1.52
   1   2 -13    2.47    1.72
  -1  -2  13   -0.20    1.10
   1   2 -13    0.31    1.79
   1   2 -13    2.44    2.12
   1   2 -13    1.47    1.60
   1   2 -13   -0.68    1.41
  -1  -2  13   -0.40    1.36
  -1  -2  13   -1.29    1.68
   1   2 -12   27.44    3.59
  -1  -2  12   24.32    2.97
  -1  -2  12   21.32    3.33
  -1  -2  12   27.72    3.52
   1   2 -12   26.64    3.74
   1   2 -12   24.57    3.32
   1   2 -12   26.79    3.38
  -1  -2  12   27.81    3.64
   1   2 -12   30.36    3.80
   1   2 -11    0.28    1.60
   1   2 -11    1.39    1.38
  -1  -2  11    5.00    1.99
   1   2 -11    3.97    1.93
   1   2 -11    1.48    1.10
   1   2 -11    1.58    1.44
   1   2 -11    2.50    1.76
  -1  -2  11   -0.93    1.49
  -1  -2  11    1.12    1.17
   1   2 -10    5.91    1.80
  -1  -2  10    5.03    1.56
   1   2 -10    3.82    1.62
   1   2 -10    6.39    2.15
   1   2 -10    4.04    1.83
   1   2 -10    5.00    1.84
   1   2 -10    6.09    1.41
  -1  -2  10    4.64    1.63
  -1  -2  10    4.56    1.78
   1   2  -9  211.78    8.14
  -1  -2   9  202.67    8.06
  -1  -2   9  233.09    5.28
  -1  -2   9  211.15    6.64
   1   2  -9  212.20    7.51
   1   2  -9  220.64    8.36
   1   2  -9  212.18    7.60
   1   2  -9  213.55    8.26
   1   2  -9  211.27    5.41
  -1  -2   9  211.35    5.46
   1   2  -9  217.38    6.33
  -1  -2   9  216.99    7.24
  -1  -2   8   97.56    3.42
   1   2  -8   85.44    3.85
  -1  -2   8   91.97    3.56
   1   2  -8   86.77    4.65
   1   2  -8   89.68    5.06
  -1  -2   8   89.89    4.25
   1   2  -8   89.29    4.72
   1   2  -8   88.90    3.14
   1   2  -8   93.87    5.10
  -1  -2   8   91.56    4.86
  -1  -2   8   90.52    4.07
  -1  -2   8   88.87    4.82
  -1  -2   8   88.27    3.22
   1   2  -7    2.03    1.31
  -1  -2   7    0.81    1.27
   1   2  -7    1.54    1.06
  -1  -2   7    0.93    0.55
   1   2  -7    1.85    1.54
  -1  -2   7    0.07    0.63
   1   2  -7    0.81    0.74
   1   2  -7   -0.26    1.19
  -1  -2   7    1.46    0.91
   1   2  -7    1.22    0.56
  -1  -2   7    1.10    0.77
  -1  -2   7   -0.06    1.43
  -1  -2   7    2.14    0.90
   1   2  -6   19.65    2.29
  -1  -2   6   18.51    1.62
  -1  -2   6   18.30    1.58
   1   2  -6   15.06    0.99
   1   2  -6   15.10    1.66
  -1  -2   6   19.27    2.16
  -1  -2   6   15.34    1.03
  -1  -2   6   19.44    1.68
   1   2  -6   14.71    1.76
   1   2  -6   17.08    1.51
  -1  -2   6   16.19    1.57
   1   2  -6   14.57    1.84
  -1  -2   6   18.64    2.17
  -1  -2   5    6.96    0.53
  -1  -2   5    8.70    1.13
  -1  -2   5    8.44    1.04
   1   2  -5    8.46    1.27
  -1  -2   5    9.17    1.35
  -1  -2   5    8.15    1.03
   1   2  -5    8.65    0.97
  -1  -2   5    7.67    1.50
   1   2  -5    8.72    1.48
   1   2  -5    8.28    1.40
  -1  -2   5    8.12    1.50
   1   2  -5    8.97    1.42
  -1  -2   4   43.54    1.23
  -1  -2   4   54.55    2.73
   1   2  -4   47.68    2.60
   1   2  -4   45.61    2.46
  -1  -2   4   53.78    2.97
   1   2  -4   49.03    2.55
  -1  -2   4   54.79    2.75
  -1  -2   4   51.22    2.53
  -1  -2   4   47.57    2.91
   1   2  -4   44.68    2.65
  -1  -2   4   54.53    2.73
  -1  -2   4   55.10    2.87
  -1  -2   4   54.87    2.70
   1   2  -4   47.08    1.59
  -1  -2   4   48.48    2.92
  -1  -2   4   49.62    1.60
   1   2  -3  518.71    8.37
  -1  -2   3  505.37    7.74
   1   2  -3  522.25    8.31
   1   2  -3  492.82    8.16
  -1  -2   3  498.65    8.07
  -1  -2   3  539.06    8.44
  -1  -2   3  498.51    8.25
   1   2  -3  474.97    8.01
  -1  -2   3  513.81    6.81
   1   2  -3  491.44    7.89
   1   2  -3  495.07    7.73
  -1  -2   3  508.47    7.99
  -1  -2   3  485.60    8.25
  -1  -2   3  489.41    8.05
  -1  -2   3  483.50    8.18
  -1  -2   2  250.41    5.44
  -1  -2   2  247.02    4.00
   1   2  -2  240.49    2.62
  -1  -2   2  243.72    5.57
  -1  -2   2  251.40    4.06
  -1  -2   2  255.05    5.61
  -1  -2   2  263.38    5.63
   1   2  -2  247.39    5.36
   1   2  -2  239.79    5.46
   1   2  -2  232.54    5.39
   1   2  -2  260.01    5.72
   1   2  -2  247.17    5.54
  -1  -2   2  258.96    5.65
  -1  -2   2  237.49    5.50
   1   2  -2  256.53    5.67
   1   2  -2  260.55    5.74
  -1  -2   2  231.35    5.40
   1   2  -2  240.32    5.35
   1   2  -1    5.45    1.17
   1   2  -1    5.04    1.11
  -1  -2   1    5.96    1.05
  -1  -2   1    7.07    1.22
  -1  -2   1    5.53    1.26
  -1  -2   1    7.41    0.79
   1   2  -1    5.55    1.09
   1   2  -1    5.34    0.66
  -1  -2   1    3.89    0.97
  -1  -2   1    4.95    1.12
   1   2  -1    6.65    1.24
   1   2  -1    5.55    1.12
   1   2  -1    4.57    1.02
  -1  -2   1    7.70    1.37
  -1  -2   1    6.76    1.11
  -1  -2   1    4.26    1.16
   1   2   0    7.03    1.28
  -1  -2   0    1.92    1.10
   1   2   0    2.38    0.87
  -1  -2   0    1.81    0.95
  -1  -2   0    3.29    0.95
   1   2   0    3.02    1.07
  -1  -2   0    4.09    0.96
  -1  -2   0    2.78    0.85
  -1  -2   0    2.90    0.95
   1   2   0    4.27    1.16
   1   2   0    2.98    1.16
  -1  -2   0    3.45    1.07
   1   2   0    4.65    1.28
   1   2   0    3.54    0.97
   1   2   0    2.54    0.92
   1   2   1    1.85    1.13
   1   2   1    2.09    0.89
   1   2   1    2.59    1.03
  -1  -2  -1    1.85    0.94
   1   2   1    2.67    1.07
  -1  -2  -1    3.13    1.08
   1   2   1    2.84    1.04
   1   2   1    3.03    1.11
  -1  -2  -1    1.52    0.79
  -1  -2  -1    5.59    1.43
  -1  -2  -1    2.47    0.98
  -1  -2  -1    3.21    1.24
  -1  -2  -1    1.71    0.76
  -1  -2  -2   23.66    2.31
   1   2   2   23.21    1.95
   1   2   2   23.24    1.95
   1   2   2   24.34    2.24
  -1  -2  -2   22.08    2.11
  -1  -2  -2   22.85    2.24
  -1  -2  -2   23.83    1.96
   1   2   2   23.82    2.25
   1   2   2   22.39    2.27
   1   2   3   31.68    2.71
   1   2   3   36.76    2.94
   1   2   3   28.65    2.67
   1   2   3   30.40    2.39
  -1  -2  -3   30.06    2.73
   1   2   3   33.86    1.55
  -1  -2  -3   32.98    2.84
  -1  -2  -3   30.31    2.61
   1   2   4  186.98    6.21
   1   2   4  184.50    6.74
   1   2   4  199.13    7.22
  -1  -2  -4  200.39    6.86
  -1  -2  -4  181.70    6.74
   1   2   4  190.35    6.90
  -1  -2  -4  185.46    6.15
   1   2   4  203.70    4.23
   1   2   5    5.32    1.57
   1   2   5    1.31    1.45
  -1  -2  -5    9.46    2.06
   1   2   5    5.19    1.53
  -1  -2  -5    6.64    1.41
  -1  -2  -5    7.14    1.82
   1   2   5    7.75    2.16
   1   2   6    3.04    1.58
   1   2   6    3.16    1.79
  -1  -2  -6    3.52    1.54
   1   2   6   -1.51    2.05
   1   2   6    3.93    2.22
  -1  -2  -6    2.11    1.46
  -1  -2  -6    0.96    0.95
  -1  -2  -7   72.92    5.04
   1   2   7   62.62    4.98
  -1  -2  -7   67.11    3.95
   1   2   7   69.35    4.77
  -1  -2  -7   69.44    5.09
   1   2   7   69.40    5.27
  -1  -2  -7   63.61    4.69
  -1  -2  -8    6.66    1.96
  -1  -2  -8    8.59    1.65
   1   2   8    9.36    2.35
   1   2   8    6.97    2.48
  -1  -2  -8    5.47    1.97
   1   2   8   10.65    2.43
  -1  -2  -8   13.45    2.76
  -1  -2  -9    0.49    1.07
   1   2   9    0.39    1.52
  -1  -2  -9   -1.35    1.89
  -1  -2  -9    3.41    1.95
   1   2   9   -0.36    1.62
  -1  -2  -9   -0.17    1.40
   1   2   9    0.14    1.25
   1   2  10   -0.78    1.32
   1   2  10    1.74    2.04
  -1  -2 -10    0.66    1.46
  -1  -2 -10   -2.92    2.71
   1   2  10    2.74    2.07
  -1  -2 -10   -0.63    1.53
  -1  -2 -11    0.79    1.87
   1   2  11    4.19    1.86
   1   2  11    1.42    1.65
  -1  -2 -11   -1.49    1.92
  -1  -2 -11    6.62    2.40
   1   2  11    0.75    1.91
  -1  -2 -12    4.47    2.74
   1   2  12    5.24    2.21
  -1  -2 -12    2.59    2.00
   1   2  12    5.42    2.43
  -1  -2 -12    8.79    3.06
   1   2  12    6.59    2.30
   1   2  13   47.86    5.71
   1   2  13   47.54    5.57
  -1  -2 -13   32.85    4.58
  -1  -2 -13   50.39    5.79
  -1  -2 -13   51.27    6.05
   1   3 -16    1.07    2.04
   1   3 -16    2.62    2.33
   1   3 -16    1.52    2.09
  -1  -3  16   -0.54    1.87
   1   3 -16    2.03    2.07
  -1  -3  16    4.65    2.40
   1   3 -15   17.60    3.39
  -1  -3  15   18.90    3.49
  -1  -3  15   14.49    2.91
  -1  -3  15   14.48    3.25
   1   3 -15   18.87    3.46
   1   3 -15   19.16    3.26
   1   3 -15   12.95    3.05
  -1  -3  15   19.55    3.31
   1   3 -15   15.42    3.43
   1   3 -14    1.11    1.53
  -1  -3  14    1.23    1.58
   1   3 -14    1.94    1.71
  -1  -3  14    2.20    1.62
   1   3 -14    0.56    1.65
   1   3 -14   -0.78    1.91
  -1  -3  14    0.36    1.60
  -1  -3  14    1.59    1.97
   1   3 -14    0.85    1.50
  -1  -3  13   19.10    3.20
   1   3 -13   13.94    3.03
   1   3 -13   17.63    3.07
  -1  -3  13   19.73    2.66
   1   3 -13   21.94    3.64
   1   3 -13   22.75    3.37
   1   3 -13   22.46    3.60
  -1  -3  13   20.24    3.50
  -1  -3  13   16.34    3.06
  -1  -3  13   18.66    3.16
  -1  -3  12    2.59    1.64
   1   3 -12    2.45    1.54
   1   3 -12    3.18    1.99
   1   3 -12    0.47    1.53
  -1  -3  12    1.97    1.49
   1   3 -12    2.88    1.70
  -1  -3  12    3.30    1.24
  -1  -3  12    0.77    1.51
   1   3 -12    2.82    1.96
  -1  -3  12    2.40    1.40
   1   3 -11    0.99    1.46
  -1  -3  11    0.24    0.91
   1   3 -11    1.08    1.15
   1   3 -11    4.28    1.96
   1   3 -11    1.35    1.55
  -1  -3  11   -2.41    1.80
  -1  -3  11    1.31    1.54
   1   3 -11    0.67    0.89
  -1  -3  11    2.85    1.60
  -1  -3  11    0.74    1.42
   1   3 -11   -0.41    1.57
  -1  -3  10    0.41    1.39
   1   3 -10    0.76    1.28
   1   3 -10    0.21    1.37
  -1  -3  10   -0.17    1.90
  -1  -3  10    0.19    0.87
  -1  -3  10   -0.68    0.96
   1   3 -10    1.18    1.74
   1   3 -10    0.26    0.80
   1   3 -10   -0.40    1.54
  -1  -3  10   -0.49    1.87
   1   3 -10    2.05    1.66
  -1  -3   9   88.93    3.08
   1   3  -9   88.59    4.18
  -1  -3   9   85.36    5.28
  -1  -3   9   82.40    5.17
   1   3  -9   84.31    5.38
   1   3  -9   84.16    5.20
   1   3  -9   87.04    5.20
  -1  -3   9   80.88    4.18
  -1  -3   9   89.65    3.92
   1   3  -9   89.16    4.82
  -1  -3   8   27.43    1.54
  -1  -3   8   29.23    3.09
   1   3  -8   26.72    2.73
   1   3  -8   29.74    2.49
   1   3  -8   25.85    2.80
  -1  -3   8   25.55    2.21
  -1  -3   8   26.45    2.03
  -1  -3   8   26.55    2.96
   1   3  -8   28.68    2.73
   1   3  -7    4.74    1.25
  -1  -3   7    3.68    1.52
   1   3  -7    4.99    1.48
   1   3  -7    4.28    0.93
  -1  -3   7    2.48    1.31
  -1  -3   7    2.59    0.53
   1   3  -7    5.20    1.61
  -1  -3   7    5.18    1.10
   1   3  -7    3.24    1.21
  -1  -3   7    5.07    1.00
   1   3  -6   24.45    2.39
  -1  -3   6   28.65    1.71
  -1  -3   6   25.48    1.19
  -1  -3   6   27.57    1.17
  -1  -3   6   29.83    1.71
  -1  -3   6   27.45    2.73
   1   3  -6   29.33    2.37
   1   3  -6   26.63    2.36
  -1  -3   6   27.29    2.77
   1   3  -5   57.62    3.27
  -1  -3   5   56.46    3.62
  -1  -3   5   55.68    1.87
  -1  -3   5   54.73    1.68
   1   3  -5   56.74    3.15
   1   3  -5   57.48    3.54
  -1  -3   5   57.75    3.66
   1   3  -4  257.02    7.02
   1   3  -4  257.91    6.61
  -1  -3   4  283.46    6.12
  -1  -3   4  267.89    7.16
  -1  -3   4  247.99    3.12
   1   3  -4  267.36    6.48
   1   3  -4  269.34    7.18
  -1  -3   4  276.12    6.22
  -1  -3   4  269.68    7.04
  -1  -3   4  263.79    6.77
  -1  -3   4  270.98    7.21
   1   3  -3   83.37    3.67
  -1  -3   3   77.01    3.76
   1   3  -3   84.17    3.91
   1   3  -3   81.56    3.88
  -1  -3   3   84.01    3.84
  -1  -3   3   91.07    3.18
  -1  -3   3   81.12    3.76
  -1  -3   3   85.41    1.84
   1   3  -3   84.06    3.81
   1   3  -2    1.13    0.97
   1   3  -2    1.74    0.98
  -1  -3   2    1.88    0.65
  -1  -3   2    1.27    0.73
  -1  -3   2    2.42    1.12
  -1  -3   2    1.68    1.13
  -1  -3   2    2.22    0.57
   1   3  -2    2.16    1.13
  -1  -3   2    1.75    1.25
   1   3  -1    2.62    1.20
   1   3  -1    0.84    0.90
  -1  -3   1    1.90    1.15
  -1  -3   1    0.81    0.77
  -1  -3   1    0.38    0.89
   1   3  -1   -0.46    0.91
  -1  -3   1    1.17    0.74
   1   3  -1    0.57    1.01
  -1  -3   1    0.57    0.60
  -1  -3   1   -0.51    0.92
   1   3   0    1.57    0.88
  -1  -3   0    1.03    0.66
   1   3   0    1.70    0.97
  -1  -3   0    0.50    0.93
  -1  -3   0    2.22    0.82
   1   3   0    1.60    0.79
   1   3   0    2.39    1.01
  -1  -3   0    2.39    1.14
   1   3   0    3.12    1.17
   1   3   0    4.09    1.28
  -1  -3  -1    0.80    1.23
   1   3   1   -0.30    0.80
   1   3   1    1.21    1.12
   1   3   1    0.56    1.00
   1   3   1    1.03    1.04
   1   3   1   -0.76    1.14
  -1  -3  -1    1.29    1.14
   1   3   2  517.32   10.72
   1   3   2  519.30   10.32
  -1  -3  -2  502.14   10.32
   1   3   2  517.79    9.62
  -1  -3  -2  511.14   10.86
  -1  -3  -2  512.20   10.21
   1   3   3    0.61    0.98
   1   3   3   -0.62    1.13
   1   3   3    0.38    0.29
   1   3   3   -0.05    1.09
  -1  -3  -3    1.44    1.31
  -1  -3  -3   -0.35    1.26
  -1  -3  -3   -2.11    1.35
   1   3   4   18.05    2.23
  -1  -3  -4   15.61    2.35
   1   3   4   19.86    2.74
  -1  -3  -4   14.67    2.45
   1   3   4   17.91    2.58
   1   3   5    2.71    1.31
   1   3   5    3.52    1.55
  -1  -3  -5    2.81    1.33
  -1  -3  -5    7.02    2.03
   1   3   5    4.75    2.10
  -1  -3  -6    6.97    1.95
  -1  -3  -6   11.25    2.16
   1   3   6   10.22    1.93
   1   3   6    5.56    1.98
  -1  -3  -6   12.25    2.56
   1   3   6    7.86    2.46
  -1  -3  -7    8.77    2.49
  -1  -3  -7    5.02    1.81
   1   3   7    3.90    1.52
   1   3   7    5.74    1.80
  -1  -3  -7    6.67    1.89
   1   3   7    6.07    2.21
  -1  -3  -8    2.22    1.30
  -1  -3  -8    2.03    2.14
  -1  -3  -8   -1.89    1.88
   1   3   8    0.74    1.75
  -1  -3  -8    0.85    1.56
   1   3   8    2.38    2.14
   1   3   8   -1.24    1.34
  -1  -3  -9    6.13    2.32
   1   3   9    0.25    1.71
  -1  -3  -9   -1.65    1.87
   1   3   9    0.26    1.21
  -1  -3  -9   -0.37    1.70
   1   3   9    1.82    1.97
   1   3  10   -0.65    1.80
   1   3  10    2.97    2.22
  -1  -3 -10    0.61    1.91
  -1  -3 -10    2.59    1.82
  -1  -3 -10    2.22    1.89
   1   3  10    1.09    1.59
  -1  -3 -11   21.64    3.74
   1   3  11   17.96    3.24
  -1  -3 -11   12.56    3.05
   1   3  11   22.47    4.13
   1   3  11   14.77    3.41
  -1  -3 -11   16.22    3.50
   1   3  12    1.50    1.55
  -1  -3 -12    4.47    2.68
  -1  -3 -12   -0.14    1.81
   1   4 -16    1.63    2.13
   1   4 -16    3.43    2.60
   1   4 -16   -3.29    2.54
  -1  -4  16    5.12    2.42
  -1  -4  16    1.90    2.18
   1   4 -15   41.01    5.20
  -1  -4  15   34.87    4.77
   1   4 -15   37.85    4.77
  -1  -4  15   41.59    5.10
   1   4 -15   37.80    5.03
  -1  -4  15   35.75    4.75
  -1  -4  14   10.30    2.83
  -1  -4  14    9.61    2.84
  -1  -4  14   11.41    2.44
   1   4 -14    2.63    1.80
   1   4 -14    7.48    2.62
   1   4 -14    8.81    2.28
   1   4 -14    9.56    2.77
  -1  -4  14    9.68    3.00
   1   4 -13    7.19    2.16
  -1  -4  13    3.99    2.05
  -1  -4  13    6.55    2.16
   1   4 -13    3.49    1.83
  -1  -4  13    8.04    2.03
   1   4 -13   12.58    2.76
   1   4 -13    5.77    2.26
  -1  -4  13    3.98    2.08
  -1  -4  12    2.11    1.49
   1   4 -12    1.55    1.61
  -1  -4  12    0.79    1.65
   1   4 -12   -0.80    1.36
  -1  -4  12   -0.80    1.90
   1   4 -12    0.63    1.58
  -1  -4  12    2.23    1.86
   1   4 -12    1.03    1.21
  -1  -4  11    0.49    0.84
  -1  -4  11    2.79    1.92
  -1  -4  11   -0.01    1.22
   1   4 -11   -1.93    1.86
   1   4 -11    0.66    1.23
   1   4 -11   -0.12    0.84
   1   4 -11   -0.01    1.20
   1   4 -11    1.55    1.63
  -1  -4  11   -1.14    1.56
  -1  -4  11   -2.00    1.23
  -1  -4  10   32.84    1.86
  -1  -4  10   38.85    2.53
  -1  -4  10   31.46    3.67
   1   4 -10   36.66    3.79
   1   4 -10   38.27    3.66
  -1  -4  10   38.89    4.14
   1   4 -10   35.28    2.98
   1   4 -10   37.77    3.44
  -1  -4  10   30.30    2.71
   1   4 -10   35.24    4.04
  -1  -4   9   88.18    3.93
  -1  -4   9   95.67    3.55
   1   4  -9   86.61    4.75
  -1  -4   9   85.96    5.59
   1   4  -9   91.76    5.82
  -1  -4   9   87.89    5.58
   1   4  -9   91.35    5.20
   1   4  -9   89.04    4.56
  -1  -4   9   72.06    2.76
  -1  -4   9   80.32    2.56
  -1  -4   8    9.01    1.04
  -1  -4   8   10.52    2.32
  -1  -4   8    9.68    0.90
   1   4  -8    9.68    1.74
  -1  -4   8    9.65    0.86
   1   4  -8   11.23    2.31
   1   4  -8   10.67    1.69
  -1  -4   8   10.18    1.37
  -1  -4   8   11.93    2.45
   1   4  -7   17.21    2.10
  -1  -4   7   14.41    2.43
  -1  -4   7   15.65    1.24
  -1  -4   7   16.55    1.13
  -1  -4   7   15.53    1.37
  -1  -4   7   14.60    2.50
   1   4  -7   16.16    1.98
  -1  -4   6   83.09    4.89
  -1  -4   6   86.22    4.99
   1   4  -6   87.39    4.28
   1   4  -6   83.41    4.75
   1   4  -6   89.18    4.41
  -1  -4   6   91.26    4.87
  -1  -4   6   88.36    2.58
  -1  -4   6   90.64    4.73
   1   4  -5   43.73    3.55
   1   4  -5   42.22    3.15
  -1  -4   5   41.05    3.11
   1   4  -5   44.85    2.98
   1   4  -5   42.03    3.39
  -1  -4   5   42.44    1.58
  -1  -4   5   39.62    3.40
  -1  -4   5   39.63    3.53
  -1  -4   5   41.14    3.28
   1   4  -4    9.97    1.78
   1   4  -4   10.70    1.65
   1   4  -4   10.42    1.78
  -1  -4   4    9.34    1.15
   1   4  -4   13.50    2.03
  -1  -4   4    3.83    1.30
  -1  -4   4   10.67    1.75
  -1  -4   4    9.43    1.73
  -1  -4   3    0.16    1.08
  -1  -4   3    0.51    0.49
  -1  -4   3   -0.34    1.02
  -1  -4   3    0.25    0.65
   1   4  -3    0.46    0.40
   1   4  -3    2.48    1.27
  -1  -4   3   -0.92    1.14
   1   4  -3    0.26    1.14
   1   4  -3    0.81    1.07
   1   4  -2   19.97    2.34
  -1  -4   2   18.55    2.19
  -1  -4   2   21.33    2.51
   1   4  -2   17.40    2.19
  -1  -4   2   21.09    2.35
   1   4  -2   18.16    2.23
  -1  -4   2   21.36    1.65
  -1  -4   1   41.96    2.43
   1   4  -1   38.83    3.10
   1   4  -1   34.31    2.88
  -1  -4   1   35.17    2.98
   1   4  -1   36.41    3.09
  -1  -4   1   37.34    3.00
   1   4   0   60.23    3.71
   1   4   0   59.81    3.92
   1   4   0   60.98    3.83
  -1  -4   0   58.75    3.74
  -1  -4   0   57.49    3.87
   1   4   1  117.26    5.04
   1   4   1  118.72    5.44
   1   4   1  125.20    4.91
  -1  -4  -1  124.60    5.19
   1   4   1  127.81    5.72
  -1  -4  -1  117.07    5.58
   1   4   1  123.34    5.39
   1   4   1  128.33    5.61
  -1  -4  -1  124.93    5.41
   1   4   2    6.09    1.73
   1   4   2    5.86    1.34
  -1  -4  -2    7.47    1.72
   1   4   2    4.89    1.45
   1   4   2    7.65    1.97
  -1  -4  -2    4.53    1.68
  -1  -4  -2    7.42    1.83
   1   4   3    6.75    1.85
   1   4   3    8.06    1.81
  -1  -4  -3    6.46    1.64
   1   4   3    7.53    1.59
  -1  -4  -3    6.49    1.77
  -1  -4  -3    6.92    2.10
  -1  -4  -4    0.36    1.36
  -1  -4  -4    0.51    1.33
   1   4   4    1.13    1.21
   1   4   4    0.20    1.27
  -1  -4  -4   -1.83    1.60
   1   4   5    1.58    1.43
  -1  -4  -5    2.37    1.55
  -1  -4  -5   -1.13    1.50
   1   4   5    1.14    1.47
   1   4   5    1.65    1.44
  -1  -4  -6   43.69    3.96
   1   4   6   37.25    3.70
  -1  -4  -6   38.00    4.00
  -1  -4  -6   42.75    4.29
   1   4   6   38.45    4.24
   1   4   6   39.04    4.25
   1   4   7   51.42    5.11
  -1  -4  -7   56.72    5.07
  -1  -4  -7   57.35    4.58
   1   4   7   59.79    4.84
   1   4   7   54.48    5.26
  -1  -4  -7   47.57    4.79
  -1  -4  -8    1.09    1.42
  -1  -4  -8    4.91    1.93
   1   4   8    1.55    1.42
   1   4   8    0.50    1.84
   1   4   8    2.00    1.80
  -1  -4  -8    2.79    2.22
  -1  -4  -9    7.51    2.53
  -1  -4  -9   10.97    2.63
   1   4   9    9.99    3.02
   1   4   9   15.65    2.89
   1   4   9    9.63    2.80
  -1  -4  -9    6.92    2.27
   1   4  10    2.72    1.72
  -1  -4 -10   -0.39    2.19
  -1  -4 -10    7.24    2.46
   1   4  10    5.28    2.39
  -1  -4 -10    3.53    2.43
   1   4  10    4.21    1.89
   1   4  11   -2.08    1.72
  -1  -4 -11    1.28    1.99
  -1  -4 -11   -2.73    2.60
   1   5 -16   11.80    2.93
  -1  -5  15    5.26    2.49
  -1  -5  15    0.20    1.80
   1   5 -15    9.39    2.59
   1   5 -15    4.42    2.47
  -1  -5  15    3.49    1.90
   1   5 -14    5.99    2.24
  -1  -5  14    4.24    1.91
   1   5 -14   -0.12    1.92
  -1  -5  14    3.21    2.30
  -1  -5  14    2.40    1.92
  -1  -5  13   -1.85    2.20
  -1  -5  13   -0.79    1.71
  -1  -5  13   -2.46    1.41
   1   5 -13    0.36    1.35
   1   5 -13   -2.00    1.86
  -1  -5  12   43.52    4.91
   1   5 -12   41.78    4.86
  -1  -5  12   38.95    4.34
   1   5 -12   43.42    4.02
  -1  -5  12   41.35    4.71
   1   5 -11   34.92    4.37
  -1  -5  11   31.84    4.16
   1   5 -11   32.82    3.44
  -1  -5  11   37.67    2.99
  -1  -5  11   32.94    4.08
   1   5 -11   39.07    3.32
   1   5 -10  305.66   11.34
  -1  -5  10  326.18   11.59
  -1  -5  10  322.04    7.53
   1   5 -10  320.65    9.32
   1   5 -10  315.34    9.60
  -1  -5  10  317.50   11.55
  -1  -5   9    9.57    1.03
  -1  -5   9    7.48    2.24
  -1  -5   9    9.35    1.03
   1   5  -9   11.47    2.13
  -1  -5   9    9.93    2.49
   1   5  -9    7.95    1.56
  -1  -5   9    9.34    1.31
   1   5  -9    7.00    1.94
  -1  -5   8    1.17    0.49
  -1  -5   8    4.21    2.11
   1   5  -8    2.69    1.47
  -1  -5   8    0.42    0.63
  -1  -5   8    1.05    0.62
   1   5  -8    0.40    1.07
  -1  -5   8   -0.30    2.00
   1   5  -8    2.28    1.73
  -1  -5   8    2.88    1.62
  -1  -5   8    0.84    1.74
  -1  -5   7    7.66    1.85
   1   5  -7    3.80    1.70
   1   5  -7    7.83    1.69
   1   5  -7    7.08    1.55
  -1  -5   7    9.48    2.45
  -1  -5   7    7.55    1.90
  -1  -5   7    7.36    0.86
  -1  -5   7    7.81    0.97
   1   5  -7    3.75    1.49
  -1  -5   7    7.50    2.22
  -1  -5   6   17.92    2.41
   1   5  -6   16.92    2.32
   1   5  -6   18.30    2.28
  -1  -5   6   17.74    1.41
  -1  -5   6   11.58    2.12
  -1  -5   6   15.43    2.46
  -1  -5   6   14.88    1.13
   1   5  -6   15.68    2.43
   1   5  -6   15.46    2.56
  -1  -5   6   20.13    3.02
   1   5  -5   15.10    2.49
  -1  -5   5   14.51    2.13
   1   5  -5   12.76    2.04
   1   5  -5   14.15    1.93
  -1  -5   5   12.02    2.12
  -1  -5   5   14.62    2.29
   1   5  -5   14.28    2.48
  -1  -5   5   15.74    1.43
   1   5  -4   46.87    1.75
   1   5  -4   51.72    3.98
   1   5  -4   50.50    3.75
  -1  -5   4   55.00    2.82
  -1  -5   4   53.65    3.93
   1   5  -4   52.15    4.06
  -1  -5   4   49.95    3.83
  -1  -5   4   56.94    2.35
  -1  -5   4   51.91    3.68
  -1  -5   3  154.07    6.34
  -1  -5   3  153.96    6.25
   1   5  -3  150.31    3.97
   1   5  -3  149.49    6.49
   1   5  -3  159.65    6.67
   1   5  -3  149.26    6.52
  -1  -5   3  156.80    4.33
  -1  -5   3  159.13    6.39
  -1  -5   2   73.61    3.31
   1   5  -2   74.20    4.63
   1   5  -2   70.26    4.51
  -1  -5   2   67.03    4.23
   1   5  -2   70.33    4.50
  -1  -5   2   71.59    4.33
   1   5  -1   40.51    3.46
   1   5  -1   45.48    3.81
  -1  -5   1   46.24    3.58
   1   5  -1   43.07    3.63
  -1  -5   1   43.11    3.53
   1   5   0  135.09    6.26
  -1  -5   0  135.92    5.59
   1   5   0  141.80    6.49
  -1  -5   0  133.20    6.31
  -1  -5   0  128.28    5.93
   1   5   0  135.13    6.45
   1   5   0  133.22    3.62
  -1  -5  -1   10.63    2.40
  -1  -5  -1    7.88    2.13
   1   5   1    9.33    2.01
  -1  -5  -1   11.21    1.95
   1   5   1    7.29    0.71
   1   5   1    7.34    1.97
  -1  -5  -2    2.34    1.71
   1   5   2    1.00    1.24
   1   5   2    2.18    1.29
  -1  -5  -2    0.77    1.57
  -1  -5  -2    3.99    1.41
   1   5   2    1.80    1.30
   1   5   2    2.18    1.51
   1   5   3    3.99    1.35
  -1  -5  -3    0.29    1.48
   1   5   3    2.08    1.47
   1   5   3    6.28    2.05
  -1  -5  -3    5.66    1.74
  -1  -5  -3    2.78    1.60
  -1  -5  -4    0.20    1.61
   1   5   4    2.65    1.74
   1   5   4   -2.25    1.90
  -1  -5  -4    0.82    1.47
   1   5   4    0.75    0.99
  -1  -5  -4    1.36    1.46
   1   5   4    1.70    1.82
   1   5   5    8.05    2.44
  -1  -5  -5    5.39    1.80
   1   5   5    8.53    2.02
   1   5   5    1.16    1.53
  -1  -5  -5    5.72    1.84
   1   5   6    0.63    1.71
   1   5   6   -0.86    1.66
   1   5   6    1.17    1.21
  -1  -5  -6    2.41    1.98
  -1  -5  -6    0.89    1.45
  -1  -5  -6   -0.58    1.39
  -1  -5  -7   29.80    3.88
   1   5   7   30.32    3.76
   1   5   7   26.10    4.13
   1   5   7   26.51    4.06
  -1  -5  -7   26.72    3.94
  -1  -5  -7   33.31    4.22
   1   5   8    5.41    2.55
   1   5   8    5.93    1.95
  -1  -5  -8    7.22    2.15
  -1  -5  -8    4.20    2.46
   1   5   8    0.72    1.91
  -1  -5  -8    5.50    2.40
  -1  -5  -9    3.16    1.84
   1   5   9    0.78    2.00
  -1  -5  -9    1.46    2.27
   1   5   9    4.33    2.01
  -1  -5  -9    7.66    2.79
   1   5   9   -3.12    2.62
   1   5  10   10.60    2.79
  -1  -5 -10    3.28    2.30
   1   6 -15    5.16    2.66
  -1  -6  15    3.74    1.95
  -1  -6  15    2.50    2.14
  -1  -6  15    3.12    2.45
   1   6 -14    1.55    2.43
  -1  -6  14    0.69    1.98
  -1  -6  14    2.89    1.97
  -1  -6  14    0.55    1.72
   1   6 -13    1.53    1.66
  -1  -6  13    2.87    2.23
  -1  -6  13    0.80    1.63
  -1  -6  13   -0.87    1.98
  -1  -6  12  211.76   10.57
  -1  -6  12  207.10   10.42
   1   6 -12  217.20    8.75
   1   6 -12  202.90   10.23
  -1  -6  11    5.55    2.47
  -1  -6  11   12.66    2.93
  -1  -6  11    8.58    2.38
   1   6 -11    3.64    1.73
   1   6 -11    6.56    1.76
   1   6 -11    8.54    2.01
  -1  -6  11    7.02    2.29
   1   6 -10   11.51    2.74
  -1  -6  10   15.56    3.18
  -1  -6  10   16.00    2.79
   1   6 -10   17.04    2.66
  -1  -6  10   15.18    3.23
   1   6 -10   14.92    2.35
  -1  -6  10   12.75    2.77
   1   6  -9    7.06    2.09
   1   6  -9    7.03    1.90
  -1  -6   9    9.86    2.44
   1   6  -9    8.92    2.01
  -1  -6   9    6.52    2.28
  -1  -6   9   10.49    2.28
  -1  -6   9    9.85    2.50
   1   6  -8   10.35    2.00
  -1  -6   8    7.40    2.18
   1   6  -8   11.98    2.60
   1   6  -8   12.79    2.15
  -1  -6   8   11.30    2.61
  -1  -6   8   11.72    1.38
  -1  -6   8   10.34    2.30
  -1  -6   8   12.67    2.68
  -1  -6   7   -3.51    2.47
   1   6  -7   -1.71    1.38
  -1  -6   7   -0.02    0.49
  -1  -6   7   -0.71    1.67
   1   6  -7    0.34    1.25
   1   6  -7    1.58    1.40
   1   6  -7    1.32    1.74
   1   6  -7   -0.97    1.29
  -1  -6   7    2.10    1.45
   1   6  -6    3.18    1.72
   1   6  -6   -0.32    1.15
  -1  -6   6    0.43    0.54
   1   6  -6    0.47    1.69
  -1  -6   6    0.34    1.71
  -1  -6   6   -1.13    1.55
   1   6  -6    0.29    1.25
  -1  -6   6   -1.71    2.28
   1   6  -5    2.13    1.65
  -1  -6   5    3.83    1.85
  -1  -6   5    3.59    1.57
  -1  -6   5    3.75    0.82
   1   6  -5    3.83    1.57
   1   6  -5    6.30    1.86
   1   6  -5    1.96    0.33
  -1  -6   5    6.89    2.03
   1   6  -5    2.81    1.74
  -1  -6   4    6.88    1.19
   1   6  -4    4.54    1.78
  -1  -6   4    5.22    1.98
   1   6  -4    4.54    1.36
   1   6  -4    6.09    1.80
   1   6  -4    6.33    0.97
  -1  -6   4    8.63    2.14
   1   6  -4    3.49    1.48
  -1  -6   4    4.46    1.48
   1   6  -3   44.61    3.21
   1   6  -3   43.24    4.10
   1   6  -3   39.53    2.45
  -1  -6   3   39.88    3.71
   1   6  -3   40.37    3.80
   1   6  -3   46.76    4.07
  -1  -6   3   44.96    3.86
   1   6  -2   13.85    2.50
   1   6  -2   18.19    2.00
   1   6  -2   14.39    1.77
  -1  -6   2   16.15    2.50
   1   6  -2   12.94    2.40
   1   6  -2   16.11    2.41
  -1  -6   2   18.29    2.76
   1   6  -1    8.39    2.05
  -1  -6   1    7.09    2.03
   1   6  -1    5.90    1.59
   1   6  -1    7.03    1.89
   1   6  -1    7.02    1.21
  -1  -6   1    5.10    1.86
  -1  -6   0   21.23    2.59
   1   6   0   20.94    2.97
   1   6   0   22.14    3.20
  -1  -6   0   17.46    2.56
  -1  -6   0   20.08    2.97
  -1  -6  -1  167.57    7.53
   1   6   1  173.43    8.04
  -1  -6  -1  172.88    7.12
   1   6   1  180.11    8.16
  -1  -6  -1  163.02    7.92
  -1  -6  -2   15.55    2.77
   1   6   2   14.93    2.79
  -1  -6  -2   15.02    2.77
  -1  -6  -2   13.48    2.33
   1   6   2   14.42    2.66
  -1  -6  -3    6.49    2.39
  -1  -6  -3    1.76    1.40
  -1  -6  -3    5.37    1.83
   1   6   3    3.90    1.38
   1   6   3    5.30    1.87
   1   6   3    4.67    1.81
   1   6   3    4.80    2.01
  -1  -6  -3    3.05    1.95
  -1  -6  -4   -0.61    1.79
  -1  -6  -4   -2.16    1.82
   1   6   4    1.78    1.59
   1   6   4    3.30    1.99
   1   6   4    0.77    1.15
   1   6   4    1.89    1.49
  -1  -6  -4    2.08    1.67
   1   6   5    1.05    1.34
   1   6   5   -1.66    1.63
   1   6   5    2.90    1.72
  -1  -6  -5    0.58    1.65
  -1  -6  -5   -1.37    1.70
   1   6   6    0.91    1.70
  -1  -6  -6    0.75    1.82
   1   6   6   -0.16    1.33
  -1  -6  -6   -0.40    1.32
   1   6   6    0.37    1.67
  -1  -6  -7    6.97    2.59
   1   6   7    0.70    1.74
  -1  -6  -7    2.11    1.87
  -1  -6  -7    1.69    2.19
   1   6   7    3.65    1.90
   1   6   8    2.49    2.04
  -1  -6  -8    5.28    2.45
  -1  -7  15    5.72    2.29
  -1  -7  15    3.04    2.08
  -1  -7  14   -0.18    1.90
   1   7 -14    2.57    2.15
  -1  -7  14   -0.17    1.88
  -1  -7  14    4.79    2.58
  -1  -7  14    1.66    2.10
  -1  -7  14    2.51    1.83
  -1  -7  13    6.83    3.09
   1   7 -13   10.73    3.12
  -1  -7  13    7.52    2.54
  -1  -7  13    7.73    2.32
  -1  -7  13    6.02    2.38
  -1  -7  13    7.99    3.15
   1   7 -12   47.82    5.26
  -1  -7  12   51.17    5.41
  -1  -7  12   44.47    5.35
  -1  -7  12   49.35    5.57
  -1  -7  12   49.30    5.06
  -1  -7  11    6.22    2.37
  -1  -7  11    8.01    2.81
   1   7 -11    4.03    1.52
   1   7 -11    7.77    2.04
  -1  -7  11    6.65    2.36
  -1  -7  11   10.95    3.20
   1   7 -11    4.12    2.08
   1   7 -10   33.54    3.51
  -1  -7  10   30.88    3.93
   1   7 -10   27.98    3.38
   1   7 -10   29.10    3.99
  -1  -7  10   24.65    3.89
  -1  -7  10   34.35    3.92
  -1  -7  10   23.09    3.75
   1   7  -9   14.67    2.79
   1   7  -9   15.09    2.49
   1   7  -9   13.63    2.57
  -1  -7   9   20.47    3.37
  -1  -7   9   17.18    2.92
  -1  -7   9   15.52    3.01
   1   7  -8   45.38    4.89
   1   7  -8   42.98    4.73
   1   7  -8   47.64    4.49
  -1  -7   8   51.39    4.50
   1   7  -8   48.14    4.28
  -1  -7   8   48.08    4.88
  -1  -7   8   51.06    4.88
   1   7  -7   77.00    5.98
  -1  -7   7   75.74    5.70
   1   7  -7   78.02    5.36
   1   7  -7   80.67    5.60
   1   7  -7   76.28    5.96
  -1  -7   7   83.91    5.56
  -1  -7   7   87.00    5.88
  -1  -7   6    7.41    2.12
  -1  -7   6    9.16    2.51
  -1  -7   6   14.61    2.50
   1   7  -6   14.22    2.72
   1   7  -6   11.05    2.65
   1   7  -6   12.54    2.45
   1   7  -6   10.35    2.33
   1   7  -5    2.37    1.54
   1   7  -5    3.42    1.37
   1   7  -5    7.01    2.30
   1   7  -5    5.25    1.87
  -1  -7   5    5.53    2.17
  -1  -7   5    3.68    1.91
  -1  -7   5    3.66    1.53
  -1  -7   4    0.77    1.49
   1   7  -4    0.01    0.95
   1   7  -4   -1.87    1.66
   1   7  -4    0.55    1.45
  -1  -7   4    2.73    2.43
   1   7  -4   -0.61    1.42
  -1  -7   4    0.89    1.41
   1   7  -3   24.24    2.49
  -1  -7   3   28.12    3.33
   1   7  -3   26.85    3.45
  -1  -7   3   24.52    3.37
   1   7  -3   29.62    3.75
   1   7  -3   23.36    3.34
   1   7  -2   31.56    3.81
  -1  -7   2   26.88    3.34
   1   7  -2   27.27    2.61
   1   7  -2   27.08    3.47
  -1  -7   2   26.42    3.20
   1   7  -1  179.95    7.01
   1   7  -1  182.79    8.82
  -1  -7   1  185.15    7.13
  -1  -7   1  172.05    8.29
   1   7  -1  186.81    8.77
  -1  -7   1  182.62    8.06
  -1  -7   0   13.02    2.60
   1   7   0   17.72    3.09
   1   7   0    9.87    2.45
  -1  -7   0   17.39    2.81
  -1  -7   0   15.69    2.33
   1   7   1    2.54    1.62
  -1  -7  -1    2.05    1.81
  -1  -7  -1    2.49    1.51
   1   7   1    0.98    1.51
  -1  -7  -1    2.20    1.63
  -1  -7  -2    6.42    2.45
  -1  -7  -2    7.77    2.61
  -1  -7  -2    8.18    2.05
   1   7   2    8.60    2.30
   1   7   2   10.48    2.62
  -1  -7  -2    3.89    1.87
  -1  -7  -3    7.41    2.98
   1   7   3    9.92    2.54
   1   7   3    6.19    2.28
  -1  -7  -3    9.40    2.23
  -1  -7  -3    4.66    1.81
  -1  -7  -3    3.90    2.04
   1   7   4    5.46    2.11
   1   7   4    1.84    2.25
  -1  -7  -4    0.26    1.75
  -1  -7  -4    1.36    1.68
   1   7   5    4.77    2.12
   1   7   5    2.88    2.08
  -1  -7  -5    2.90    1.96
  -1  -7  -5    3.50    2.22
  -1  -7  -6    3.68    2.23
   1   7   6    2.76    2.03
  -1  -7  -6    0.66    1.55
   1   7   6    0.41    1.75
  -1  -7  -7    4.15    2.14
  -1  -7  -7    4.83    2.60
   1   7   7    1.48    1.75
   1   7   7    0.65    1.56
  -1  -8  15   -0.54    1.60
  -1  -8  15    2.30    2.03
  -1  -8  14    1.71    1.73
  -1  -8  14    1.15    1.52
  -1  -8  13   10.46    2.89
  -1  -8  13    9.41    2.47
  -1  -8  13   20.89    4.33
  -1  -8  13   10.92    3.07
   1   8 -13   11.13    3.18
  -1  -8  13   11.23    2.76
  -1  -8  12   19.84    3.77
  -1  -8  12   19.38    3.75
   1   8 -12   15.43    3.34
  -1  -8  12   11.11    3.05
  -1  -8  12   16.13    3.11
  -1  -8  11    2.92    2.15
  -1  -8  11    2.13    1.79
   1   8 -11    0.20    1.80
   1   8 -11   -0.20    1.33
  -1  -8  11   -2.79    2.60
   1   8 -10   -2.17    1.71
   1   8 -10    1.33    1.54
  -1  -8  10   -0.79    2.31
  -1  -8  10   -0.71    1.41
  -1  -8  10    0.61    1.80
  -1  -8   9    8.08    2.16
  -1  -8   9   10.00    2.56
  -1  -8   9    6.20    2.18
   1   8  -9   12.38    3.17
   1   8  -9    9.46    2.19
   1   8  -9   10.06    2.81
   1   8  -8   -0.81    1.36
   1   8  -8   -0.76    1.31
  -1  -8   8   -0.68    1.59
   1   8  -8   -0.86    2.15
   1   8  -8    0.78    1.94
  -1  -8   8    1.92    1.73
  -1  -8   8   -0.21    1.47
   1   8  -7   -0.85    1.29
  -1  -8   7    2.93    2.23
  -1  -8   7    0.19    1.55
  -1  -8   7    0.93    1.46
   1   8  -7   -0.15    1.36
   1   8  -7    1.23    1.67
   1   8  -7    2.08    1.53
  -1  -8   6    4.02    2.21
   1   8  -6    3.34    1.78
   1   8  -6    6.89    2.35
   1   8  -6    3.49    2.05
  -1  -8   6    0.74    1.36
  -1  -8   6    7.41    2.48
   1   8  -6    1.78    1.48
  -1  -8   5    0.55    1.62
  -1  -8   5    2.95    2.20
   1   8  -5    0.78    1.76
   1   8  -5   -0.07    1.57
   1   8  -5   -0.50    1.38
   1   8  -5   -0.06    1.29
  -1  -8   5   -0.29    1.37
   1   8  -4    2.13    1.85
  -1  -8   4    2.27    1.84
  -1  -8   4    1.19    1.58
   1   8  -4    0.98    1.49
  -1  -8   3    2.73    1.63
   1   8  -3    2.13    1.66
   1   8  -3    2.09    1.77
  -1  -8   3   -0.11    1.48
   1   8  -2   33.86    4.36
  -1  -8   2   30.77    3.90
   1   8  -2   31.47    4.14
  -1  -8   2   29.10    3.56
   1   8  -1    5.44    2.14
  -1  -8   1    7.70    2.40
   1   8  -1    3.56    1.62
  -1  -8   1    6.69    2.49
  -1  -8   0    2.26    2.01
   1   8   0    2.18    1.93
  -1  -8   0    2.34    1.73
  -1  -8   0   -3.34    2.40
   1   8   0   -0.61    1.50
  -1  -8  -1    0.11    1.82
   1   8   1    0.71    1.57
   1   8   1    1.15    1.55
  -1  -8  -1   -0.06    1.60
   1   8   1    3.40    1.94
  -1  -8  -1   -1.12    1.51
  -1  -8  -2    0.85    1.49
   1   8   2    5.85    2.34
  -1  -8  -2    1.97    2.15
  -1  -8  -2    4.38    2.12
   1   8   2    3.99    2.15
   1   8   2    0.89    1.41
  -1  -8  -3    0.68    1.92
   1   8   3    3.96    2.26
   1   8   3    2.01    1.85
  -1  -8  -3    2.02    1.85
  -1  -8  -4   28.67    4.66
   1   8   4   31.78    4.47
   1   8   4   30.59    4.54
   1   8   5    2.11    1.55
   1   8   5    1.52    2.29
  -1  -9  13   13.62    3.06
  -1  -9  12    6.25    2.38
   1   9 -12    2.49    1.97
  -1  -9  12    1.79    1.95
  -1  -9  11   -0.01    2.06
   1   9 -11    0.80    1.63
  -1  -9  11    1.57    2.34
   1   9 -11   -2.14    1.42
  -1  -9  11    1.02    2.27
   1   9 -10   -0.32    1.41
   1   9 -10    1.97    2.26
  -1  -9  10    2.23    2.04
  -1  -9  10    1.09    1.75
  -1  -9  10    0.48    1.71
   1   9  -9   12.82    2.81
  -1  -9   9   11.18    2.95
  -1  -9   9   18.74    3.67
   1   9  -9   11.53    3.27
   1   9  -9   12.90    2.97
  -1  -9   9   10.22    2.49
  -1  -9   8    8.11    2.94
   1   9  -8    7.78    2.13
   1   9  -8    8.50    2.66
   1   9  -8    8.76    2.64
   1   9  -8    3.92    2.32
  -1  -9   8    7.68    2.85
  -1  -9   8    6.51    1.99
   1   9  -7   27.64    4.11
  -1  -9   7   25.68    3.67
  -1  -9   7   28.27    4.29
  -1  -9   7   31.91    4.18
   1   9  -7   30.88    4.66
   1   9  -7   28.47    4.02
   1   9  -6   -0.70    1.82
  -1  -9   6    3.36    2.11
   1   9  -6    2.42    1.87
  -1  -9   6    4.90    2.35
   1   9  -5    0.48    1.68
  -1  -9   5   -0.12    1.73
   1   9  -5   -0.50    1.87
  -1  -9   5    2.16    1.44
  -1  -9   4    2.10    1.87
   1   9  -4    0.11    1.68
   1   9  -4    2.71    1.92
  -1  -9   4    2.15    1.67
   1   9  -3   25.35    3.87
  -1  -9   3   20.06    3.25
   1   9  -3   24.05    4.03
  -1  -9   3   22.34    3.65
   1   9  -2    3.03    1.97
  -1  -9   2   -0.36    1.46
   1   9  -2    0.79    1.96
  -1  -9   2    4.13    2.36
  -1  -9   1    1.75    2.41
  -1  -9   1    1.76    1.90
   1   9  -1   -0.22    1.75
   1   9  -1    1.56    1.66
  -1  -9   1   -0.37    1.58
  -1  -9   0   -1.45    2.27
  -1  -9   0    1.03    1.97
   1   9   0    1.88    1.71
   1   9   0   -1.07    2.07
   1   9   1    9.68    3.14
   1   9   1    5.89    2.38
  -1  -9  -1    2.28    1.81
   1   9   2   27.46    4.42
  -1  -9  -2   26.13    4.43
   1   9   2   31.25    4.45
   1  10 -11   -2.18    2.06
  -1 -10  10   13.86    3.72
  -1 -10   9    5.69    2.89
  -1 -10   9    4.03    2.61
  -1 -10   8   -1.28    1.74
  -1 -10   8   -1.10    1.75
  -1 -10   7    0.39    1.95
   1  10  -7    1.52    2.08
  -1 -10   7    4.48    2.23
   1  10  -6   18.28    3.77
  -1 -10   6   12.24    2.93
   1  10  -6   15.17    3.69
  -1 -10   6   14.98    3.15
   1  10  -5    7.66    3.07
  -1 -10   5    3.79    2.07
   1  10  -5    3.80    2.13
  -1 -10   5    6.56    2.44
   1  10  -4    1.82    2.04
   1  10  -4   -0.32    1.78
  -1 -10   4   -0.31    1.62
   1  10  -3    5.06    2.34
  -1 -10   3    7.77    2.63
  -1 -10   2   13.68    3.30
  -1 -10   1    2.87    2.27
   2 -11   7   -0.53    2.01
   2 -11   8   -0.35    1.86
   2 -10  -2   -0.47    2.26
   2 -10  -1   -1.62    2.08
   2 -10   0   60.75    6.22
  -2  10  -1    6.38    2.68
   2 -10   1    4.62    2.28
  -2  10  -1    5.61    1.89
   2 -10   1    9.21    3.00
   2 -10   2   51.10    5.83
   2 -10   2   52.29    5.85
  -2  10  -2   55.26    6.11
  -2  10  -2   51.13    5.02
   2 -10   3    4.20    2.17
  -2  10  -3    4.40    2.17
   2 -10   3    2.19    1.90
  -2  10  -3    4.45    2.24
   2 -10   4    1.58    1.75
  -2  10  -4    0.00    2.18
   2 -10   4   -0.48    2.09
   2 -10   5   -2.16    2.06
  -2  10  -5    2.52    2.40
   2 -10   5   -3.48    2.19
   2 -10   6   -0.06    1.90
   2 -10   6   -1.59    1.72
  -2  10  -6    0.39    1.65
   2 -10   7    2.28    2.01
   2 -10   7    3.26    1.84
  -2  10  -7    4.20    2.12
   2 -10   7    2.32    1.75
   2 -10   8   32.83    4.40
  -2  10  -8   46.87    5.59
   2 -10   8   40.44    5.32
   2 -10   8   42.12    4.92
   2 -10   9   27.80    4.72
   2 -10   9   33.07    4.60
  -2  10  -9   32.48    4.84
   2 -10   9   33.27    4.55
   2 -10  10    7.02    2.63
   2 -10  10    6.30    2.14
   2 -10  10    3.75    1.94
  -2  10 -10    7.46    3.16
   2 -10  11   41.57    5.27
   2 -10  11   50.85    5.89
   2 -10  11   49.39    5.79
   2 -10  12    0.62    1.71
  -2   9   5   -0.59    1.60
  -2   9   4    8.14    2.55
  -2   9   4    3.97    1.96
  -2   9   3    3.25    2.04
   2  -9  -3    2.14    3.14
   2  -9  -3   -0.65    1.88
  -2   9   3    2.28    1.92
  -2   9   3    3.26    2.37
  -2   9   2   12.46    2.80
   2  -9  -2   11.61    3.36
  -2   9   2   15.92    2.97
  -2   9   2   18.09    3.74
   2  -9  -2   16.47    3.28
   2  -9  -1   32.31    4.46
  -2   9   1   32.76    3.95
   2  -9  -1   33.33    4.65
  -2   9   1   34.82    4.86
  -2   9   1   37.93    4.33
  -2   9   0   14.85    3.12
  -2   9   0   17.97    3.05
  -2   9   0   21.63    3.17
   2  -9   0   20.92    3.90
   2  -9   0   14.71    3.21
  -2   9  -1    8.76    2.07
   2  -9   1    3.54    2.26
  -2   9  -1    6.89    2.46
   2  -9   1    3.48    1.90
  -2   9  -1    5.94    1.83
  -2   9  -2   -0.96    1.55
   2  -9   2   -1.48    1.68
   2  -9   2   -2.47    2.00
  -2   9  -2   -0.44    1.82
   2  -9   3   -0.77    1.61
  -2   9  -3    0.55    1.91
   2  -9   3   -0.16    1.85
  -2   9  -3   -1.32    1.66
   2  -9   4    0.00    1.78
   2  -9   4    3.22    2.13
  -2   9  -4    4.20    2.24
   2  -9   4    1.38    1.38
  -2   9  -4    1.04    1.54
   2  -9   5   59.63    5.73
   2  -9   5   51.56    5.14
   2  -9   5   53.32    4.53
  -2   9  -5   53.83    5.44
   2  -9   6   -2.14    1.98
  -2   9  -6    0.35    1.92
   2  -9   6    0.83    1.52
   2  -9   6   -1.29    1.60
   2  -9   7    0.87    1.50
   2  -9   7   -0.69    1.88
   2  -9   7    2.07    1.77
   2  -9   7    2.38    1.96
  -2   9  -7   -0.03    1.71
   2  -9   8   -3.71    2.77
   2  -9   8    4.25    2.39
   2  -9   8    0.73    1.57
   2  -9   8    0.69    1.37
   2  -9   8    6.49    2.60
  -2   9  -8    2.84    2.04
   2  -9   9   31.14    4.30
   2  -9   9   25.80    3.57
   2  -9   9   37.20    4.57
   2  -9   9   32.54    3.78
  -2   9  -9   31.44    4.41
   2  -9   9   34.34    4.39
   2  -9  10    4.41    2.20
   2  -9  10    1.29    1.68
   2  -9  10    1.24    1.44
  -2   9 -10    0.24    1.93
   2  -9  10   -2.57    2.40
   2  -9  11    3.56    2.15
   2  -9  11    0.49    1.43
   2  -9  11   -0.77    1.75
   2  -9  11    0.17    1.83
   2  -9  12    2.82    1.82
   2  -9  12    3.97    2.12
   2  -9  12    3.39    1.91
   2  -9  12    3.66    1.95
   2  -9  13   -0.77    2.79
  -2   8   6   55.86    6.03
   2  -8  -6   55.18    6.15
  -2   8   6   51.98    6.07
  -2   8   5   -0.31    2.12
  -2   8   5   -0.49    1.58
   2  -8  -5   -0.87    1.92
   2  -8  -4   -2.15    1.69
  -2   8   4    0.93    1.69
  -2   8   4   -4.02    2.02
   2  -8  -3    1.12    1.71
  -2   8   3    2.21    1.53
  -2   8   3   -0.62    1.84
  -2   8   3    0.92    1.66
   2  -8  -3    4.39    2.37
  -2   8   2    0.53    1.81
  -2   8   2   -0.36    1.38
   2  -8  -2   -0.80    1.58
  -2   8   2    1.39    1.36
   2  -8  -2   -1.25    1.72
  -2   8   2   -1.22    1.62
  -2   8   1    0.70    1.08
  -2   8   1   -0.68    1.84
  -2   8   1    2.96    1.53
   2  -8  -1    0.82    1.67
   2  -8  -1    3.00    2.14
  -2   8   1   -0.28    1.16
   2  -8   0    1.38    1.16
   2  -8   0    0.49    1.88
  -2   8   0    0.01    1.27
  -2   8   0    0.87    1.89
   2  -8   0   -1.72    1.79
  -2   8   0    1.12    1.33
  -2   8   0    0.63    1.13
   2  -8   1    1.54    1.68
   2  -8   1    2.74    1.90
  -2   8  -1    2.52    1.26
  -2   8  -1    2.89    1.95
  -2   8  -1    0.93    1.38
  -2   8  -1    1.94    1.09
   2  -8   1    1.62    1.07
  -2   8  -2    4.24    1.53
  -2   8  -2    3.43    1.69
  -2   8  -2    0.18    1.49
   2  -8   2    4.23    1.89
   2  -8   2    4.71    1.65
   2  -8   2    4.25    2.12
   2  -8   2    3.32    1.51
  -2   8  -3   35.67    4.14
   2  -8   3   35.78    3.04
   2  -8   3   29.48    3.74
  -2   8  -3   31.50    3.60
   2  -8   3   31.21    3.96
  -2   8  -3   29.31    3.04
   2  -8   3   37.33    3.01
   2  -8   3   31.95    3.13
   2  -8   4   91.12    6.36
  -2   8  -4   93.94    6.53
   2  -8   4   88.50    6.41
   2  -8   4   93.51    5.36
   2  -8   4  100.78    4.98
  -2   8  -4   90.81    4.97
   2  -8   4   90.59    4.56
   2  -8   5   27.14    3.82
  -2   8  -5   32.33    2.85
   2  -8   5   30.32    3.44
   2  -8   5   28.83    3.59
  -2   8  -5   28.15    3.70
   2  -8   5   36.78    3.68
   2  -8   5   32.33    2.78
   2  -8   5   28.62    2.92
   2  -8   6    0.79    1.46
  -2   8  -6    0.61    1.41
   2  -8   6   -0.11    1.52
   2  -8   6    1.01    1.81
   2  -8   6    0.42    1.77
   2  -8   6    0.29    1.20
   2  -8   7    0.07    1.81
  -2   8  -7    1.43    1.65
   2  -8   7    0.26    1.71
   2  -8   7    1.78    1.43
   2  -8   7    1.36    1.51
   2  -8   7    0.53    1.45
   2  -8   8    0.35    1.38
   2  -8   8   -1.15    2.13
   2  -8   8    1.15    1.08
   2  -8   8    0.82    1.44
   2  -8   8    2.91    1.61
  -2   8  -8   -0.24    1.61
   2  -8   8    2.88    1.84
   2  -8   8   -0.87    1.59
  -2   8  -8   -0.55    1.58
   2  -8   9    0.83    1.49
   2  -8   9   -0.60    1.84
   2  -8   9   -1.17    1.40
   2  -8   9    0.18    1.37
  -2   8  -9    1.21    1.99
   2  -8   9   -0.32    1.17
   2  -8   9   -2.78    1.35
  -2   8  -9    3.35    2.24
   2  -8   9    1.00    1.58
   2  -8  10    0.08    1.46
   2  -8  10    1.87    1.32
  -2   8 -10    2.69    2.10
   2  -8  10   -0.33    1.66
   2  -8  10   -0.01    1.83
   2  -8  11    3.24    1.54
   2  -8  11   -0.58    1.85
   2  -8  11    0.01    1.60
  -2   8 -11    2.75    2.17
   2  -8  12    0.40    1.81
   2  -8  12    2.61    2.00
  -2   8 -12    2.66    2.06
   2  -8  12   -1.24    2.38
   2  -8  13   33.80    4.88
   2  -8  13   31.69    4.74
   2  -7  -9    4.94    2.46
  -2   7   8   39.46    5.29
   2  -7  -8   30.70    4.72
  -2   7   7    3.25    2.32
   2  -7  -7    5.39    2.35
  -2   7   7    1.41    2.07
   2  -7  -6   14.47    3.37
  -2   7   6   21.13    3.81
  -2   7   6   17.56    3.31
   2  -7  -5   16.90    2.97
  -2   7   5   18.33    3.37
  -2   7   5   15.42    2.90
   2  -7  -5   17.70    3.31
   2  -7  -4   13.68    3.03
  -2   7   4    9.56    1.93
   2  -7  -4    7.80    2.04
  -2   7   4    8.18    2.25
  -2   7   4    8.50    2.39
   2  -7  -4   13.14    2.25
   2  -7  -3   13.90    2.60
  -2   7   3   14.24    2.63
   2  -7  -3   13.36    1.99
   2  -7  -3   13.84    2.96
  -2   7   3   19.99    3.21
  -2   7   3   14.92    2.19
   2  -7  -2    0.09    1.40
  -2   7   2    2.40    1.72
   2  -7  -2    2.44    1.92
  -2   7   2    0.17    1.13
   2  -7  -2    1.16    1.00
  -2   7   2   -0.41    0.96
   2  -7  -1   67.85    5.60
  -2   7   1   68.77    4.79
  -2   7   1   72.16    4.65
   2  -7  -1   66.01    5.20
  -2   7   1   65.69    5.50
   2  -7  -1   65.93    3.48
  -2   7   1   64.88    4.99
   2  -7   0   27.62    3.63
   2  -7   0   33.78    4.21
  -2   7   0   32.29    3.47
  -2   7   0   29.30    3.02
  -2   7   0   32.82    3.91
  -2   7   0   35.03    3.26
   2  -7   0   30.22    2.97
   2  -7   0   31.67    2.42
  -2   7  -1   36.30    3.97
   2  -7   1   38.03    3.98
   2  -7   1   46.77    3.00
  -2   7  -1   36.78    3.06
   2  -7   1   36.30    3.97
  -2   7  -1   35.44    3.37
   2  -7   1   36.36    2.97
  -2   7  -1   34.74    3.44
   2  -7   1   38.08    2.63
   2  -7   2    9.78    1.54
  -2   7  -2   11.49    2.01
  -2   7  -2    7.72    1.65
   2  -7   2   11.08    2.50
  -2   7  -2    9.85    1.55
   2  -7   2   10.79    1.68
   2  -7   2    9.86    2.38
  -2   7  -2   11.00    2.42
   2  -7   2   11.15    1.70
   2  -7   3   77.06    5.61
   2  -7   3   73.58    4.27
  -2   7  -3   76.20    3.53
   2  -7   3   72.90    3.83
   2  -7   3   84.05    4.61
  -2   7  -3   72.42    5.38
  -2   7  -3   68.52    4.83
   2  -7   3   71.60    3.76
   2  -7   3   75.93    5.37
  -2   7  -3   69.74    4.26
   2  -7   4    1.25    1.69
   2  -7   4    3.67    1.35
   2  -7   4    3.17    1.61
   2  -7   4    0.44    1.63
   2  -7   4    1.48    0.45
  -2   7  -4    1.91    1.10
   2  -7   4    2.13    1.43
  -2   7  -4    0.72    1.78
   2  -7   4    3.46    1.16
  -2   7  -4    1.76    1.74
   2  -7   5    0.83    1.29
  -2   7  -5    1.26    0.87
   2  -7   5   -0.58    1.61
   2  -7   5    1.21    0.56
   2  -7   5    0.05    1.73
  -2   7  -5    0.11    1.48
   2  -7   5   -0.49    1.34
   2  -7   5    0.05    0.88
  -2   7  -5    1.01    2.16
   2  -7   5   -0.39    1.41
   2  -7   6    6.49    1.68
  -2   7  -6    6.48    2.09
  -2   7  -6    9.91    2.30
   2  -7   6    5.65    1.70
   2  -7   6    5.83    1.15
   2  -7   6    4.43    1.44
  -2   7  -6    6.36    1.29
   2  -7   6    6.49    1.38
   2  -7   6    6.22    1.76
   2  -7   6    6.15    1.91
  -2   7  -7   28.39    3.54
  -2   7  -7   28.23    2.45
   2  -7   7   22.06    3.14
  -2   7  -7   29.08    3.74
   2  -7   7   30.49    3.24
   2  -7   7   30.44    2.54
   2  -7   7   28.00    3.08
   2  -7   7   26.81    2.54
   2  -7   7   20.38    2.57
   2  -7   7   28.28    3.40
   2  -7   7   26.66    3.45
   2  -7   8   46.66    4.32
   2  -7   8   46.69    3.68
   2  -7   8   48.74    3.96
   2  -7   8   48.86    3.52
  -2   7  -8   41.41    4.25
   2  -7   8   45.21    4.39
   2  -7   8   50.90    4.00
   2  -7   8   49.49    3.54
  -2   7  -8   49.48    4.77
   2  -7   8   45.43    4.36
  -2   7  -9   43.31    4.55
   2  -7   9   39.42    3.55
   2  -7   9   39.78    4.21
   2  -7   9   38.47    3.49
   2  -7   9   39.90    3.68
   2  -7   9   43.37    3.45
   2  -7   9   35.12    3.88
   2  -7   9   39.28    4.31
   2  -7   9   44.29    3.57
   2  -7  10    0.71    1.41
  -2   7 -10    3.47    2.21
   2  -7  10   -0.29    1.78
   2  -7  10    1.63    1.20
   2  -7  10    2.24    1.27
   2  -7  10    1.37    1.58
   2  -7  10    0.31    1.20
   2  -7  10    0.14    1.25
   2  -7  11   17.71    2.91
  -2   7 -11   14.52    2.89
   2  -7  11   16.73    2.86
   2  -7  11   11.44    2.89
   2  -7  11   11.62    2.83
   2  -7  11   13.57    2.56
  -2   7 -12    0.48    1.47
   2  -7  12    0.03    1.45
   2  -7  12    1.15    1.66
   2  -7  12    3.21    1.71
   2  -7  12    3.57    1.76
   2  -7  13    4.27    1.88
   2  -7  13    5.75    2.42
   2  -7  13    7.80    2.76
  -2   7 -13   10.08    2.80
   2  -7  14    6.66    2.64
   2  -7  14    8.53    2.50
   2  -7  14    8.18    3.59
   2  -7  15   -0.98    1.68
   2  -6 -10   -1.97    1.74
   2  -6 -10   -2.41    1.76
   2  -6  -9    6.28    2.46
  -2   6   9    9.66    3.00
   2  -6  -9    3.76    1.94
  -2   6   9    6.82    2.65
   2  -6  -8    1.21    1.72
   2  -6  -8   -0.18    1.86
  -2   6   8    2.47    1.56
  -2   6   8    1.22    2.02
  -2   6   7   -0.40    1.71
   2  -6  -7    2.01    2.27
  -2   6   7    1.89    2.03
   2  -6  -7    3.26    1.72
   2  -6  -6    5.53    1.84
   2  -6  -6    3.59    1.79
  -2   6   6    4.76    2.08
   2  -6  -6    3.94    1.50
  -2   6   6    3.61    1.96
   2  -6  -5    2.14    1.42
  -2   6   5    0.28    1.65
  -2   6   5    4.16    1.41
   2  -6  -5    1.97    1.93
  -2   6   5    4.47    1.95
   2  -6  -5    4.05    1.43
  -2   6   4   16.77    2.16
   2  -6  -4   16.09    2.90
  -2   6   4   17.13    2.89
   2  -6  -4   23.39    2.99
   2  -6  -4   19.65    2.44
  -2   6   4   19.45    3.08
   2  -6  -3  771.86   15.87
   2  -6  -3  817.82   13.45
   2  -6  -3  806.04   17.93
  -2   6   3  769.48   16.30
  -2   6   3  804.38   13.67
  -2   6   3  776.82   17.06
  -2   6   2   51.70    4.44
   2  -6  -2   52.25    4.25
   2  -6  -2   51.79    4.69
  -2   6   2   53.69    3.58
  -2   6   2   48.93    4.00
   2  -6  -2   52.82    3.13
  -2   6   1  169.14    7.32
  -2   6   1  165.78    6.73
   2  -6  -1  178.99    4.94
   2  -6  -1  171.23    7.50
  -2   6   1  180.44    6.46
   2  -6  -1  175.72    8.00
   2  -6  -1  171.76    4.92
  -2   6   0   39.98    3.84
   2  -6   0   37.77    3.70
  -2   6   0   35.83    3.32
   2  -6   0   41.23    2.44
   2  -6   0   35.49    3.81
  -2   6   0   39.41    3.17
  -2   6   0   38.28    3.11
   2  -6   0   38.41    1.93
   2  -6   0   35.32    2.75
   2  -6   1    0.20    0.74
   2  -6   1   -0.69    1.60
   2  -6   1    0.31    1.85
  -2   6  -1    0.21    0.80
  -2   6  -1   -0.32    1.00
  -2   6  -1    0.11    1.49
   2  -6   1    0.23    0.20
  -2   6  -1    1.13    0.98
   2  -6   1    0.15    1.04
   2  -6   1    0.47    0.84
   2  -6   2    0.34    1.46
   2  -6   2   -0.52    1.52
  -2   6  -2    1.24    1.37
  -2   6  -2    0.72    1.05
  -2   6  -2    1.03    0.85
  -2   6  -2    0.41    0.98
   2  -6   2    0.10    0.78
  -2   6  -2    3.41    1.88
   2  -6   2    1.38    1.06
   2  -6   2    1.31    1.17
   2  -6   2    0.49    0.79
   2  -6   3    0.34    1.52
   2  -6   3    1.12    0.88
  -2   6  -3    1.17    0.99
  -2   6  -3    0.20    1.63
  -2   6  -3   -0.12    0.93
   2  -6   3    0.51    0.79
   2  -6   3    0.01    0.25
   2  -6   3   -0.14    0.28
  -2   6  -3   -0.66    0.61
   2  -6   3   -0.87    1.20
   2  -6   3    0.86    1.08
   2  -6   3   -0.83    1.44
  -2   6  -3   -0.84    1.50
   2  -6   4   14.13    2.66
  -2   6  -4   16.74    1.16
   2  -6   4   16.30    1.28
  -2   6  -4   16.22    2.85
   2  -6   4   19.51    2.11
  -2   6  -4   14.21    2.32
   2  -6   4   16.15    2.35
   2  -6   4   15.79    1.59
   2  -6   4   14.50    1.95
   2  -6   4   16.58    1.65
  -2   6  -4   17.45    2.03
   2  -6   4   16.02    2.18
   2  -6   5   65.59    4.65
   2  -6   5   67.45    3.24
   2  -6   5   64.73    2.79
   2  -6   5   68.23    4.32
   2  -6   5   61.69    4.13
   2  -6   5   68.00    3.04
  -2   6  -5   60.14    4.46
   2  -6   5   70.70    4.40
   2  -6   5   63.98    3.82
  -2   6  -5   66.84    4.85
  -2   6  -5   64.83    3.61
   2  -6   6   48.32    4.06
   2  -6   6   52.23    3.77
   2  -6   6   49.71    3.01
  -2   6  -6   50.54    4.16
   2  -6   6   43.22    1.94
  -2   6  -6   51.71    3.21
   2  -6   6   53.76    3.18
   2  -6   6   50.69    2.32
  -2   6  -6   54.68    4.61
   2  -6   7  610.93   14.01
   2  -6   7  648.39   11.18
  -2   6  -7  609.86   11.05
   2  -6   7  627.64   12.02
   2  -6   7  587.65   11.12
  -2   6  -7  607.78   14.19
   2  -6   7  628.41   13.02
   2  -6   7  623.38   12.78
  -2   6  -7  622.57   14.76
   2  -6   8  470.39   11.33
   2  -6   8  456.65    9.74
  -2   6  -8  442.55   12.47
  -2   6  -8  447.14   12.73
   2  -6   8  460.51   11.53
   2  -6   8  452.65   12.08
   2  -6   8  428.63   10.43
  -2   6  -8  442.04    8.62
   2  -6   9   63.43    4.71
   2  -6   9   67.57    3.58
   2  -6   9   57.69    4.30
  -2   6  -9   59.32    3.60
   2  -6   9   62.59    4.30
   2  -6   9   58.13    4.52
  -2   6  -9   65.27    5.11
  -2   6 -10    2.77    1.79
   2  -6  10    1.77    1.44
   2  -6  10    2.05    1.29
  -2   6 -10    1.81    1.10
   2  -6  10    3.66    1.81
   2  -6  10    1.22    1.19
   2  -6  11    0.94    1.40
   2  -6  11    1.43    1.50
  -2   6 -11   -1.02    1.50
   2  -6  11    3.65    1.64
  -2   6 -11    3.41    2.21
   2  -6  11    2.86    1.74
  -2   6 -11    3.53    1.37
   2  -6  12   -0.23    1.20
  -2   6 -12    4.11    2.34
  -2   6 -12    0.73    1.68
   2  -6  12    0.71    1.75
  -2   6 -13    0.03    1.38
   2  -6  13   -0.60    1.49
  -2   6 -13    0.04    1.85
   2  -6  13   -1.25    1.72
   2  -6  14   12.03    2.85
  -2   6 -14   10.25    3.58
   2  -6  14   12.59    2.81
   2  -6  15    7.98    2.73
   2  -5 -11    3.24    3.07
   2  -5 -11   -0.97    1.74
   2  -5 -10    9.36    2.51
   2  -5 -10   11.95    3.28
  -2   5  10   10.53    3.03
  -2   5  10   12.27    3.31
   2  -5 -10   10.22    2.71
   2  -5 -10   17.41    4.13
   2  -5  -9    1.90    2.02
  -2   5   9   -2.91    2.14
   2  -5  -9   -1.14    1.46
  -2   5   9   -0.58    1.90
  -2   5   8    5.98    2.45
  -2   5   8    6.63    1.89
   2  -5  -8    5.72    2.14
  -2   5   8    8.01    2.76
   2  -5  -8    5.53    1.91
   2  -5  -7    4.03    1.78
  -2   5   7    3.46    1.75
   2  -5  -7    9.48    2.28
  -2   5   7    4.40    2.03
  -2   5   7    7.64    1.66
  -2   5   7    5.58    1.47
  -2   5   6   17.73    3.12
  -2   5   6   24.73    2.56
   2  -5  -6   19.90    3.17
  -2   5   6   20.84    2.36
  -2   5   6   21.28    3.22
   2  -5  -6   23.33    2.75
   2  -5  -6   23.65    3.12
  -2   5   5  214.84    6.71
   2  -5  -5  225.54    9.16
  -2   5   5  202.51    8.72
   2  -5  -5  211.01    7.82
  -2   5   5  213.20    6.46
  -2   5   5  203.24    9.00
   2  -5  -5  218.43    7.63
   2  -5  -4    1.30    1.41
   2  -5  -4    2.86    1.65
  -2   5   4    1.98    0.79
  -2   5   4    2.74    1.92
   2  -5  -4    2.88    1.28
  -2   5   4    0.97    1.33
  -2   5   4    4.11    1.24
  -2   5   3  371.90   10.99
  -2   5   3  395.54    6.72
   2  -5  -3  387.85    8.74
   2  -5  -3  386.89   11.32
  -2   5   3  390.52    8.43
   2  -5  -3  384.93   10.15
  -2   5   3  359.14   10.31
  -2   5   3  371.10    7.35
  -2   5   2   88.52    3.33
  -2   5   2   89.96    4.84
  -2   5   2   83.16    2.60
  -2   5   2   87.33    3.96
   2  -5  -2   91.53    3.80
   2  -5  -2   92.83    2.56
   2  -5  -2   90.54    5.00
   2  -5  -2   94.03    5.54
  -2   5   2   88.74    5.16
  -2   5   1   -0.49    0.59
   2  -5  -1   -2.19    1.45
   2  -5  -1   -0.01    0.58
   2  -5  -1   -0.20    0.68
  -2   5   1    0.91    1.08
   2  -5  -1   -0.38    1.51
  -2   5   1   -0.88    1.10
   2  -5  -1    0.21    0.58
  -2   5   1   -0.89    0.82
   2  -5   0    3.32    0.87
   2  -5   0    1.21    1.35
   2  -5   0    2.69    0.79
  -2   5   0    3.97    0.97
   2  -5   0    0.97    1.36
  -2   5   0    4.12    1.24
   2  -5   0    5.07    0.87
  -2   5   0    4.38    1.59
  -2   5   0    4.40    1.30
  -2   5   0    3.45    0.99
   2  -5   0    4.38    0.97
   2  -5   0    3.83    0.63
   2  -5   1    4.42    0.82
  -2   5  -1    4.61    1.33
  -2   5  -1    6.86    1.89
  -2   5  -1    6.23    1.65
   2  -5   1    3.98    1.41
   2  -5   1    4.30    1.55
  -2   5  -1    4.31    1.20
   2  -5   1    5.33    1.08
  -2   5  -1    5.89    1.20
   2  -5   1    5.41    0.98
  -2   5  -1    5.45    1.02
   2  -5   1    5.86    1.15
   2  -5   2   11.22    1.32
   2  -5   2    8.66    1.66
  -2   5  -2   10.19    1.23
   2  -5   2    9.87    1.38
  -2   5  -2    9.10    1.55
  -2   5  -2    8.37    1.99
   2  -5   2   12.31    2.08
   2  -5   2    8.27    1.36
  -2   5  -2   10.21    1.19
  -2   5  -2   10.55    1.70
  -2   5  -2    8.09    1.74
   2  -5   2    9.76    1.14
   2  -5   3   94.26    5.09
  -2   5  -3   99.50    2.90
   2  -5   3   98.89    2.56
  -2   5  -3   97.03    4.97
   2  -5   3  102.40    3.40
   2  -5   3  107.29    5.06
   2  -5   3  103.82    3.83
   2  -5   3  100.13    3.23
  -2   5  -3  100.48    5.33
  -2   5  -3   93.91    4.19
   2  -5   4   38.19    3.38
  -2   5  -4   39.37    2.72
   2  -5   4   36.40    2.85
  -2   5  -4   35.11    1.31
   2  -5   4   38.41    2.03
   2  -5   4   40.23    1.93
   2  -5   4   42.30    2.26
  -2   5  -4   40.25    3.54
  -2   5  -4   38.61    3.23
   2  -5   5    1.00    1.28
   2  -5   5    2.33    0.54
  -2   5  -5    1.26    0.85
   2  -5   5    3.20    1.16
  -2   5  -5    4.60    1.84
   2  -5   5    1.71    0.85
   2  -5   5    2.70    0.53
  -2   5  -5    2.69    1.24
   2  -5   5    2.51    0.90
  -2   5  -6  258.73    5.52
   2  -5   6  264.32    8.41
   2  -5   6  264.64    7.86
  -2   5  -6  261.37    6.96
   2  -5   6  266.38    6.93
   2  -5   6  247.85    6.78
  -2   5  -6  262.93    8.39
   2  -5   6  263.39    4.24
   2  -5   6  265.03    5.53
  -2   5  -6  256.57    8.66
   2  -5   7   45.27    3.60
  -2   5  -7   51.35    3.98
   2  -5   7   48.46    3.39
   2  -5   7   49.62    3.74
   2  -5   7   48.68    2.88
  -2   5  -7   51.25    4.22
  -2   5  -7   46.12    2.82
   2  -5   7   47.31    3.55
  -2   5  -7   44.74    3.93
   2  -5   8    4.40    1.51
   2  -5   8    1.29    1.29
   2  -5   8    4.72    1.12
  -2   5  -8    1.22    1.41
   2  -5   8    3.01    1.37
  -2   5  -8    3.09    1.65
   2  -5   8    1.97    0.70
  -2   5  -8    3.02    0.72
   2  -5   8    2.04    1.40
  -2   5  -8    2.52    1.11
   2  -5   9   28.63    2.92
   2  -5   9   31.04    1.94
   2  -5   9   22.25    3.04
   2  -5   9   27.08    3.11
  -2   5  -9   27.64    3.19
  -2   5  -9   29.55    2.79
   2  -5   9   32.82    3.26
  -2   5  -9   29.19    3.61
  -2   5 -10    0.58    1.34
   2  -5  10    3.02    1.53
   2  -5  10    0.86    1.14
  -2   5 -10   -0.53    1.61
   2  -5  10    1.91    1.34
   2  -5  10    0.46    1.37
  -2   5 -10    2.23    1.25
   2  -5  11    1.20    1.25
  -2   5 -11    1.42    1.25
   2  -5  11    2.99    1.72
  -2   5 -11   -2.28    1.63
   2  -5  11   -0.51    1.40
   2  -5  11   -0.72    1.33
  -2   5 -11    1.41    1.23
   2  -5  12    0.94    1.29
  -2   5 -12    4.18    1.85
   2  -5  12    3.70    1.83
  -2   5 -12    2.16    1.88
   2  -5  12    3.69    1.87
  -2   5 -12    5.25    1.84
  -2   5 -13    1.95    1.66
   2  -5  13   -3.03    1.94
  -2   5 -13    2.36    2.39
  -2   5 -13   -0.13    1.46
   2  -5  13   -1.06    1.71
   2  -5  14   20.43    3.61
  -2   5 -14   15.58    3.56
  -2   5 -14   17.72    3.16
   2  -5  14   24.01    3.86
   2  -5  15   -0.79    1.47
  -2   5 -15    0.81    2.16
   2  -5  15   -4.26    2.34
  -2   5 -15    1.15    1.50
   2  -5  16    3.13    2.23
  -2   5 -16    4.13    2.44
   2  -4 -12    4.65    2.48
  -2   4  12    0.20    1.43
  -2   4  12    2.10    2.11
   2  -4 -12    0.95    2.46
  -2   4  11    0.19    1.65
  -2   4  11    1.92    1.76
   2  -4 -11   -0.49    1.55
   2  -4 -11    2.97    2.58
   2  -4 -11    2.01    1.98
  -2   4  10    6.05    1.82
   2  -4 -10    7.44    2.47
   2  -4 -10    5.61    2.15
  -2   4  10    4.83    2.32
   2  -4 -10    8.00    3.01
   2  -4 -10    8.86    2.79
  -2   4   9   70.46    6.15
   2  -4  -9   74.62    6.18
   2  -4  -9   69.62    5.35
  -2   4   9   71.39    5.14
   2  -4  -9   69.69    5.85
  -2   4   8    2.19    1.20
   2  -4  -8    0.08    1.47
   2  -4  -8    2.73    1.39
  -2   4   8    0.36    1.47
   2  -4  -8    0.48    1.33
   2  -4  -7   12.31    2.49
  -2   4   7   11.39    1.95
   2  -4  -7    7.02    1.42
  -2   4   7    6.55    2.07
   2  -4  -7   15.01    2.12
   2  -4  -7    9.51    2.09
   2  -4  -6    8.87    1.79
   2  -4  -6    8.00    2.35
  -2   4   6    5.64    2.03
   2  -4  -6    6.83    1.83
  -2   4   6    5.88    1.37
  -2   4   6    6.88    2.26
   2  -4  -6    3.34    0.63
  -2   4   5    5.13    1.80
  -2   4   5    6.44    1.87
   2  -4  -5    5.08    1.67
   2  -4  -5    5.97    1.51
  -2   4   5    9.11    1.55
  -2   4   5    4.98    1.20
   2  -4  -5    4.05    1.62
  -2   4   4   11.85    2.29
   2  -4  -4    9.11    2.08
   2  -4  -4   10.91    1.95
  -2   4   4   10.38    2.04
   2  -4  -4   11.42    1.75
  -2   4   4   11.72    1.41
  -2   4   4   10.85    1.39
   2  -4  -3    0.53    1.22
  -2   4   3    1.40    1.46
  -2   4   3    1.01    0.72
  -2   4   3    0.95    1.25
   2  -4  -3    2.52    1.46
   2  -4  -3    1.00    0.96
  -2   4   3    0.85    0.58
  -2   4   3    1.64    0.79
   2  -4  -2    4.73    1.34
  -2   4   2    6.58    1.60
   2  -4  -2    7.98    1.25
   2  -4  -2    5.76    1.79
  -2   4   2    7.42    1.15
  -2   4   2    8.39    0.99
  -2   4   2    8.27    1.55
  -2   4   2    5.97    1.02
  -2   4   2    7.42    0.80
   2  -4  -1  132.31    5.37
   2  -4  -1  133.03    3.58
  -2   4   1  129.51    5.38
   2  -4  -1  131.95    5.71
  -2   4   1  126.26    4.90
  -2   4   1  139.38    3.67
  -2   4   1  131.74    3.00
  -2   4   1  137.13    4.19
  -2   4   1  138.03    4.24
  -2   4   1  126.39    5.01
   2  -4   0  790.73   12.99
   2  -4   0  809.06    8.06
   2  -4   0  809.27   13.24
  -2   4   0  798.96   11.05
   2  -4   0  811.09   10.27
   2  -4   0  812.51    6.72
  -2   4   0  797.30    6.75
   2  -4   0  866.02    9.83
  -2   4   0  798.26   12.47
   2  -4   0  775.70    6.69
   2  -4   0  812.80    8.01
  -2   4   0  820.26   10.50
  -2   4   0  856.28    9.26
   2  -4   0  827.05    9.12
  -2   4   0  790.40   12.44
   2  -4   1  187.49    6.30
  -2   4  -1  192.84    6.31
   2  -4   1  193.90    6.35
   2  -4   1  200.34    5.08
  -2   4  -1  184.87    4.82
  -2   4  -1  195.22    5.92
  -2   4  -1  190.25    6.19
   2  -4   1  197.36    3.66
   2  -4   1  190.16    5.24
  -2   4  -1  195.63    3.92
   2  -4   1  198.63    3.88
   2  -4   1  194.84    5.38
  -2   4  -1  199.10    5.41
   2  -4   1  218.53    5.36
   2  -4   2  701.26   12.24
  -2   4  -2  718.38   11.79
  -2   4  -2  712.82   10.75
   2  -4   2  724.44   11.54
   2  -4   2  677.67    5.31
  -2   4  -2  709.44    8.09
   2  -4   2  728.48    8.10
   2  -4   2  723.51    6.80
  -2   4  -2  715.16   12.23
   2  -4   3  142.78    5.57
  -2   4  -3  150.12    4.89
  -2   4  -3  147.55    3.11
   2  -4   3  141.33    2.99
  -2   4  -3  147.50    5.33
  -2   4  -3  144.05    5.64
   2  -4   3  145.94    3.47
   2  -4   3  148.56    3.31
   2  -4   3  147.58    5.00
  -2   4  -4    2.64    0.55
   2  -4   4    1.91    1.17
  -2   4  -4    1.48    0.82
   2  -4   4    1.30    0.30
   2  -4   4    1.51    0.69
  -2   4  -4    1.62    1.12
  -2   4  -4    3.04    1.14
  -2   4  -4    3.74    1.41
   2  -4   4    2.76    0.82
   2  -4   4    3.26    1.07
   2  -4   4    2.16    0.70
  -2   4  -4    2.53    0.42
  -2   4  -5    2.15    0.71
   2  -4   5    0.42    0.70
   2  -4   5    3.64    1.03
  -2   4  -5    3.07    1.20
  -2   4  -5    2.47    1.52
  -2   4  -5    1.19    0.30
  -2   4  -5    2.91    1.01
   2  -4   5    2.10    1.20
   2  -4   5    2.17    0.81
   2  -4   5    1.45    0.71
   2  -4   5    0.66    1.01
  -2   4  -5    0.95    1.06
   2  -4   6   -0.10    1.15
  -2   4  -6    1.20    1.09
  -2   4  -6   -0.85    0.75
  -2   4  -6    0.27    0.33
  -2   4  -6    0.16    0.35
   2  -4   6    1.19    0.81
   2  -4   6    0.45    0.88
  -2   4  -6   -0.64    1.29
   2  -4   6    0.12    0.54
  -2   4  -6   -0.32    1.36
   2  -4   6    0.35    0.57
   2  -4   6   -1.19    1.22
   2  -4   6   -0.16    1.13
   2  -4   7    5.32    1.65
  -2   4  -7    1.02    0.54
   2  -4   7    3.25    0.79
   2  -4   7    4.15    1.40
  -2   4  -7    0.74    1.71
   2  -4   7    0.07    0.53
  -2   4  -7    1.12    0.46
  -2   4  -7    1.67    1.01
  -2   4  -7    1.07    1.29
   2  -4   7    3.96    1.52
   2  -4   7    1.07    1.24
  -2   4  -8    2.27    0.73
   2  -4   8    4.15    1.41
   2  -4   8    2.21    0.51
   2  -4   8    1.08    1.09
  -2   4  -8    1.49    1.32
  -2   4  -8    2.37    1.78
  -2   4  -8    2.76    0.79
   2  -4   8    5.58    1.96
   2  -4   8    2.24    0.57
   2  -4   8    1.35    1.28
  -2   4  -8    3.37    1.30
   2  -4   9   15.18    2.02
  -2   4  -9   15.26    2.19
   2  -4   9   12.90    2.31
  -2   4  -9   12.66    2.18
  -2   4  -9   12.44    1.47
  -2   4  -9   14.29    2.72
   2  -4   9   14.50    2.31
   2  -4   9   12.08    2.51
  -2   4 -10   67.91    4.72
   2  -4  10   75.13    3.93
   2  -4  10   70.48    5.20
   2  -4  10   67.46    5.04
   2  -4  10   70.32    4.81
  -2   4 -10   70.54    5.53
  -2   4 -10   66.40    3.52
  -2   4 -10   71.52    4.76
   2  -4  11   85.27    5.39
   2  -4  11   81.30    5.86
  -2   4 -11   84.69    6.30
  -2   4 -11   83.31    5.58
  -2   4 -11   82.79    5.22
   2  -4  11   93.18    6.20
  -2   4 -12   14.02    2.43
   2  -4  12   12.92    2.72
  -2   4 -12   14.41    3.03
   2  -4  12   13.52    2.82
  -2   4 -12   12.07    2.61
   2  -4  12   11.09    2.52
   2  -4  13    0.32    1.47
   2  -4  13    4.45    2.14
  -2   4 -13    2.83    2.03
   2  -4  13    1.91    1.97
  -2   4 -13    1.21    1.42
   2  -4  14    1.68    1.51
   2  -4  14   -0.14    1.77
  -2   4 -14    4.20    2.16
  -2   4 -14    1.76    1.83
   2  -4  15    1.06    1.51
   2  -4  15   -4.63    2.64
  -2   4 -15    0.39    2.19
  -2   4 -15    2.80    2.11
  -2   3  14    3.18    1.78
  -2   3  13   -0.25    1.68
  -2   3  13    2.85    1.78
   2  -3 -13   -1.01    1.91
   2  -3 -13    1.70    2.37
   2  -3 -12    1.73    2.05
  -2   3  12    2.48    1.90
  -2   3  12    3.22    2.07
   2  -3 -12    0.13    2.14
   2  -3 -12   -1.31    1.70
  -2   3  11   36.33    4.71
   2  -3 -11   34.72    3.88
  -2   3  11   36.91    4.20
   2  -3 -11   44.44    4.99
   2  -3 -11   34.48    4.52
   2  -3 -11   38.61    5.26
   2  -3 -10   10.76    2.70
  -2   3  10   10.23    2.36
   2  -3 -10   11.88    2.44
  -2   3  10    5.72    2.38
   2  -3 -10   13.75    3.46
   2  -3 -10   15.36    3.19
  -2   3   9    4.28    2.08
  -2   3   9    1.29    1.18
   2  -3  -9    1.12    1.44
   2  -3  -9    7.63    2.95
   2  -3  -9    1.94    1.72
   2  -3  -9   -1.56    1.33
   2  -3  -9    5.51    1.98
   2  -3  -8    3.34    1.19
   2  -3  -8    2.47    0.97
  -2   3   8   -0.32    1.30
   2  -3  -8   -0.83    1.46
  -2   3   8    1.93    1.17
   2  -3  -8    0.67    1.43
   2  -3  -8    0.25    1.13
   2  -3  -8   -0.04    1.34
   2  -3  -7    4.35    1.21
  -2   3   7    5.51    2.02
   2  -3  -7    7.42    2.17
  -2   3   7    4.02    0.82
   2  -3  -7    6.95    1.83
   2  -3  -7    3.97    1.14
  -2   3   7    6.42    1.58
  -2   3   7    4.24    0.79
   2  -3  -6   46.76    2.95
   2  -3  -6   47.14    2.82
  -2   3   6   52.15    4.27
  -2   3   6   50.62    3.40
   2  -3  -6   50.95    3.92
  -2   3   6   41.88    1.81
   2  -3  -6   49.63    3.76
  -2   3   6   45.91    1.86
   2  -3  -6   49.82    2.19
  -2   3   5   32.91    3.48
   2  -3  -5   32.49    3.09
  -2   3   5   38.89    3.55
  -2   3   5   33.99    2.54
   2  -3  -5   37.74    2.02
   2  -3  -5   35.44    2.60
   2  -3  -5   32.96    2.88
   2  -3  -4   61.55    3.35
  -2   3   4   60.70    4.02
   2  -3  -4   57.23    3.81
  -2   3   4   61.42    2.99
  -2   3   4   58.61    4.08
   2  -3  -4   59.01    3.42
  -2   3   4   65.29    2.87
   2  -3  -4   64.65    2.73
  -2   3   3    3.68    1.41
  -2   3   3    3.95    0.83
   2  -3  -3    4.61    1.60
  -2   3   3    2.45    0.67
  -2   3   3    2.57    0.70
  -2   3   3    3.76    1.53
   2  -3  -3    2.60    0.77
   2  -3  -3    3.01    1.12
   2  -3  -3    3.37    0.96
  -2   3   2    0.84    0.43
   2  -3  -2    1.10    0.72
  -2   3   2    0.11    0.86
   2  -3  -2   -0.27    1.30
  -2   3   2    1.01    0.44
   2  -3  -2    0.54    0.90
  -2   3   2    0.61    1.08
  -2   3   2    1.31    0.66
   2  -3  -2    1.06    0.76
  -2   3   2    0.64    0.97
  -2   3   2    0.63    0.46
  -2   3   2    2.35    0.85
  -2   3   1    5.36    1.28
  -2   3   1    6.53    0.51
  -2   3   1    6.37    1.33
   2  -3  -1    6.70    1.67
   2  -3  -1    4.45    0.46
   2  -3  -1    4.26    0.45
  -2   3   1    7.05    1.35
  -2   3   1    6.77    0.87
  -2   3   1    6.76    0.86
   2  -3  -1    6.26    0.85
   2  -3  -1    5.83    0.82
   2  -3  -1    6.59    1.35
   2  -3  -1    7.11    1.17
  -2   3   1    7.96    0.97
  -2   3   0  671.77   10.28
   2  -3   0  674.68    7.87
   2  -3   0  667.69   10.49
  -2   3   0  661.82    8.97
   2  -3   0  661.57   10.48
   2  -3   0  679.24    7.82
  -2   3   0  666.78    5.54
  -2   3   0  686.54    7.84
  -2   3   0  686.36    6.27
  -2   3   0  665.81    9.98
   2  -3   1   66.44    3.41
   2  -3   1   81.14    3.49
  -2   3  -1   72.59    3.32
   2  -3   1   68.71    3.31
  -2   3  -1   70.32    1.47
  -2   3  -1   66.28    2.64
   2  -3   1   72.70    2.87
  -2   3  -1   71.39    3.29
  -2   3  -1   76.96    3.53
  -2   3  -1   68.76    3.44
   2  -3   1   75.25    2.92
   2  -3   1   71.77    1.47
   2  -3   2    0.92    1.05
   2  -3   2    1.29    0.64
   2  -3   2    0.26    0.72
  -2   3  -2    0.74    0.78
  -2   3  -2    0.97    0.59
  -2   3  -2    1.19    0.82
   2  -3   2    1.36    0.50
   2  -3   2    1.16    0.94
  -2   3  -2    1.46    1.08
  -2   3  -2    2.01    1.20
   2  -3   2    1.29    0.95
  -2   3  -2    1.23    0.85
   2  -3   2    0.65    0.28
  -2   3  -2    1.05    0.42
  -2   3  -2    0.90    0.30
  -2   3  -3    0.06    0.44
   2  -3   3    0.16    0.81
   2  -3   3    0.64    0.76
  -2   3  -3    1.07    0.78
   2  -3   3   -0.28    1.01
   2  -3   3    0.23    0.55
  -2   3  -3    0.69    0.52
  -2   3  -3   -0.57    0.96
  -2   3  -3   -0.78    1.13
  -2   3  -3   -0.45    0.83
   2  -3   3    0.05    0.70
  -2   3  -4   42.36    2.67
   2  -3   4   42.69    1.95
   2  -3   4   42.83    2.88
   2  -3   4   41.57    2.04
  -2   3  -4   40.27    2.90
   2  -3   4   44.59    2.49
  -2   3  -4   42.94    2.41
  -2   3  -4   43.79    2.61
  -2   3  -4   40.67    2.91
  -2   3  -4   42.63    2.09
   2  -3   4   40.94    2.70
  -2   3  -5  138.39    4.93
  -2   3  -5  148.84    3.52
   2  -3   5  138.55    3.23
   2  -3   5  139.51    4.84
   2  -3   5  137.28    4.85
   2  -3   5  131.16    5.33
   2  -3   5  136.45    4.38
  -2   3  -5  133.71    4.32
   2  -3   5  135.59    3.06
  -2   3  -5  128.40    5.32
   2  -3   5  134.63    5.07
  -2   3  -5  130.32    5.21
   2  -3   6   84.05    4.55
   2  -3   6   72.08    2.04
   2  -3   6   85.51    4.29
  -2   3  -6   88.88    2.66
   2  -3   6   88.46    4.36
  -2   3  -6   80.59    4.63
  -2   3  -6   83.65    3.93
  -2   3  -6   93.82    3.13
   2  -3   6   89.38    3.89
  -2   3  -6   89.68    4.47
   2  -3   7   -0.86    1.19
  -2   3  -7    0.85    0.71
  -2   3  -7   -0.13    1.34
  -2   3  -7    0.71    0.64
   2  -3   7   -0.69    1.41
  -2   3  -7    2.11    1.08
   2  -3   7    0.82    1.47
  -2   3  -7   -1.09    1.19
   2  -3   7    0.54    0.89
   2  -3   8   -0.05    1.07
   2  -3   8   -0.98    1.13
  -2   3  -8    1.31    1.57
   2  -3   8    1.26    1.59
  -2   3  -8    1.16    1.21
  -2   3  -8    1.36    0.96
  -2   3  -8    0.48    0.96
   2  -3   8    0.91    1.34
   2  -3   9    4.24    1.16
   2  -3   9    1.51    1.44
  -2   3  -9    2.03    1.00
  -2   3  -9    4.01    1.67
  -2   3  -9    4.05    1.97
  -2   3  -9   -0.07    1.12
   2  -3   9    1.16    1.47
   2  -3   9    6.13    2.19
   2  -3  10    9.07    2.30
  -2   3 -10   12.01    2.68
  -2   3 -10   11.66    2.03
  -2   3 -10   10.93    1.85
  -2   3 -10   13.49    2.48
   2  -3  10   11.04    2.21
   2  -3  10   13.91    1.61
   2  -3  10   10.09    2.61
   2  -3  11    2.27    1.91
   2  -3  11    1.49    1.46
  -2   3 -11   -0.15    1.08
  -2   3 -11    0.65    1.62
   2  -3  11   -0.66    1.42
  -2   3 -11    1.43    1.29
  -2   3 -11   -1.02    1.29
   2  -3  12    3.45    1.84
  -2   3 -12    3.11    2.17
   2  -3  12    2.72    1.69
   2  -3  12    6.53    2.38
  -2   3 -12    3.44    1.65
   2  -3  13    0.03    1.52
  -2   3 -13   -0.84    1.62
   2  -3  13    0.91    1.77
  -2   3 -13    0.69    1.39
   2  -3  13    3.03    1.88
  -2   3 -14    5.62    2.49
  -2   3 -14    5.73    2.44
   2  -3  14    5.73    2.31
   2  -3  14    4.29    1.84
   2  -3  14    3.86    2.02
  -2   3 -15   19.01    3.87
  -2   3 -15   30.61    4.62
   2  -3  15   31.49    4.84
  -2   2  14    2.34    2.11
  -2   2  14   -0.03    1.85
  -2   2  13    6.76    2.40
  -2   2  13    6.57    2.45
   2  -2 -13    9.13    2.81
   2  -2 -13    1.93    1.98
   2  -2 -13    8.19    2.79
  -2   2  12    3.00    2.11
  -2   2  12    0.56    1.46
   2  -2 -12    1.08    2.00
   2  -2 -12    4.53    2.77
   2  -2 -12    1.73    1.65
  -2   2  11    2.46    1.89
  -2   2  11    2.71    1.77
   2  -2 -11    3.44    1.61
   2  -2 -11    6.04    2.47
   2  -2 -11   -1.70    1.79
   2  -2 -11    0.10    2.14
   2  -2 -10    4.45    1.39
  -2   2  10    4.92    1.63
   2  -2 -10    5.12    1.71
   2  -2 -10    6.63    1.74
   2  -2 -10    8.57    2.82
  -2   2  10    7.03    2.31
   2  -2 -10    8.77    2.29
   2  -2 -10    9.21    2.58
   2  -2  -9   13.98    2.04
  -2   2   9   10.03    2.22
   2  -2  -9   11.15    2.16
   2  -2  -9   11.05    1.88
   2  -2  -9    8.52    2.50
   2  -2  -9   10.88    2.40
   2  -2  -9   12.00    3.31
  -2   2   9   11.21    2.53
  -2   2   9   10.27    1.57
  -2   2   9    8.44    1.42
   2  -2  -8   29.09    2.97
  -2   2   8   26.58    2.99
  -2   2   8   25.08    3.31
   2  -2  -8   24.71    2.39
  -2   2   8   25.08    2.08
   2  -2  -8   23.90    3.22
   2  -2  -8   24.65    3.25
  -2   2   8   25.70    2.13
   2  -2  -7   61.90    3.98
  -2   2   7   63.19    4.58
  -2   2   7   57.94    3.93
   2  -2  -7   60.42    3.18
  -2   2   7   59.95    2.82
   2  -2  -7   67.14    4.55
  -2   2   7   60.46    2.83
   2  -2  -7   59.59    4.48
  -2   2   6  239.83    4.87
   2  -2  -6  243.85    8.13
   2  -2  -6  232.36    7.72
   2  -2  -6  232.78    7.28
  -2   2   6  253.23    8.35
  -2   2   6  224.33    6.95
   2  -2  -6  233.98    5.43
   2  -2  -6  238.62    5.58
  -2   2   6  238.95    4.90
  -2   2   5  375.10    6.98
   2  -2  -5  339.44    6.66
   2  -2  -5  334.28    8.81
  -2   2   5  340.39    5.01
   2  -2  -5  346.10    8.45
  -2   2   5  341.86    9.07
  -2   2   5  335.34    7.67
   2  -2  -5  344.61    8.59
   2  -2  -5  332.80    5.65
  -2   2   5  340.38    4.97
   2  -2  -5  348.28    4.39
  -2   2   4  102.68    3.71
   2  -2  -4   98.15    2.59
   2  -2  -4   92.28    4.30
  -2   2   4   92.17    4.52
  -2   2   4   89.46    3.57
   2  -2  -4   93.72    2.54
   2  -2  -4   99.15    4.24
  -2   2   4   91.08    4.56
   2  -2  -4   88.42    3.49
   2  -2  -4   92.44    4.36
  -2   2   4   78.17    2.04
   2  -2  -3   -0.10    1.02
  -2   2   3   -1.01    0.92
  -2   2   3    0.01    0.59
  -2   2   3    0.39    0.73
   2  -2  -3    0.72    1.12
   2  -2  -3   -0.30    0.82
  -2   2   3   -0.05    0.97
   2  -2  -3   -0.53    0.96
   2  -2  -3    0.39    0.54
  -2   2   3    0.78    1.13
   2  -2  -2   12.82    1.27
   2  -2  -2   10.88    1.42
   2  -2  -2   11.67    1.65
   2  -2  -2   12.17    1.30
  -2   2   2   11.57    1.21
  -2   2   2   12.98    1.46
  -2   2   2   13.55    1.33
   2  -2  -2   12.45    1.49
  -2   2   2   12.77    1.58
  -2   2   2   11.35    1.57
   2  -2  -1    4.66    1.35
  -2   2   1    1.93    1.12
  -2   2   1    1.38    0.99
   2  -2  -1    1.32    1.09
   2  -2  -1    1.66    0.86
  -2   2   1    1.83    1.05
   2  -2  -1    1.43    0.39
  -2   2   1    1.37    0.89
   2  -2  -1    1.48    0.37
  -2   2   1    2.52    1.00
   2  -2  -1    2.54    1.00
   2  -2  -1    3.23    1.02
  -2   2   1    2.80    0.70
   2  -2   0    3.82    1.10
   2  -2   0    5.72    1.21
  -2   2   0    5.46    1.16
  -2   2   0    4.84    1.14
  -2   2   0    4.55    0.60
  -2   2   0    4.67    0.99
  -2   2   0    4.98    1.08
   2  -2   0    7.95    1.54
  -2   2   0    3.82    0.72
   2  -2   0    5.90    0.82
  -2   2   0    4.11    1.11
   2  -2   0    5.40    1.15
   2  -2   0    5.52    0.82
   2  -2   0    5.33    0.67
   2  -2   1    5.46    0.78
  -2   2  -1    5.26    0.98
   2  -2   1    2.88    0.91
  -2   2  -1    4.11    1.11
  -2   2  -1    4.35    0.61
  -2   2  -1    4.86    1.28
   2  -2   1    6.03    1.03
  -2   2  -1    6.06    1.11
  -2   2  -1    5.07    1.03
   2  -2   1    3.83    0.78
   2  -2   1    5.95    0.61
   2  -2   1    7.21    1.53
  -2   2  -1    6.22    1.19
   2  -2   1    4.10    0.89
   2  -2   2   15.55    1.75
   2  -2   2   12.62    1.55
  -2   2  -2   11.53    1.50
  -2   2  -2   14.56    1.18
   2  -2   2   12.15    1.20
   2  -2   2   12.48    1.20
  -2   2  -2   13.34    1.10
   2  -2   2   12.15    1.38
  -2   2  -2   13.49    1.28
   2  -2   2   12.58    1.46
  -2   2  -2   10.31    1.54
  -2   2  -2   14.75    1.62
  -2   2  -2   13.78    1.49
  -2   2  -2   10.57    1.13
   2  -2   2   14.70    1.48
   2  -2   2   12.96    0.77
  -2   2  -3   14.64    1.50
  -2   2  -3   16.67    1.19
   2  -2   3   16.99    1.20
  -2   2  -3   14.71    1.64
  -2   2  -3   16.55    1.49
   2  -2   3   13.79    1.46
   2  -2   3   13.24    1.38
  -2   2  -3   15.22    1.90
  -2   2  -3   15.69    1.38
   2  -2   3   16.99    1.18
   2  -2   3   17.19    1.35
   2  -2   3   12.92    1.54
  -2   2  -3   16.03    1.89
   2  -2   3   12.86    1.66
  -2   2  -3   15.38    1.31
  -2   2  -4 2537.92   17.83
   2  -2   4 2558.51   17.93
  -2   2  -4 2453.12   19.84
  -2   2  -4 2502.59   18.15
   2  -2   4 2503.88   11.12
   2  -2   4 2468.95   19.42
  -2   2  -4 2466.29   20.91
   2  -2   4 2524.87   21.20
   2  -2   4 2549.05   20.46
  -2   2  -5  130.48    4.05
  -2   2  -5  127.22    4.80
  -2   2  -5  138.85    4.18
   2  -2   5  122.38    4.87
   2  -2   5  139.41    4.25
   2  -2   5  129.72    4.06
  -2   2  -5  126.34    5.31
   2  -2   5  116.82    5.16
  -2   2  -5  120.46    4.61
   2  -2   5  125.03    4.96
   2  -2   6   53.06    2.63
  -2   2  -6   46.73    3.09
   2  -2   6   50.61    3.47
  -2   2  -6   45.97    3.56
   2  -2   6   42.40    3.52
  -2   2  -6   47.80    3.19
  -2   2  -6   46.03    2.40
   2  -2   6   45.81    3.44
  -2   2  -7   -1.26    1.29
   2  -2   7    0.14    0.84
   2  -2   7   -1.11    1.32
  -2   2  -7    1.88    1.58
  -2   2  -7    0.15    0.82
  -2   2  -7    1.73    1.19
  -2   2  -7   -1.86    1.77
   2  -2   7   -1.27    1.34
   2  -2   7    3.81    1.74
  -2   2  -8    1.73    1.25
   2  -2   8    1.97    1.52
   2  -2   8   -0.15    1.33
  -2   2  -8   -0.30    1.54
  -2   2  -8   -2.79    1.95
   2  -2   8    2.35    1.49
  -2   2  -8   -0.42    1.43
  -2   2  -8    0.58    0.88
  -2   2  -9    0.94    1.08
   2  -2   9   -0.73    1.71
  -2   2  -9   -1.52    1.82
  -2   2  -9    2.14    1.75
  -2   2  -9    2.52    1.36
  -2   2  -9    1.37    1.29
   2  -2   9   -0.71    1.42
   2  -2   9   -1.06    1.56
  -2   2 -10   11.65    2.42
  -2   2 -10    9.09    1.91
   2  -2  10    9.01    2.17
  -2   2 -10   12.30    2.54
  -2   2 -10   10.13    2.68
  -2   2 -10    8.15    1.66
   2  -2  10   12.06    2.52
   2  -2  10    8.23    2.48
  -2   2 -11    0.65    1.09
   2  -2  11    2.34    1.70
   2  -2  11   -1.91    2.03
  -2   2 -11    1.20    1.22
  -2   2 -11   -0.10    1.76
  -2   2 -11    1.06    1.72
  -2   2 -11    1.08    1.40
   2  -2  11   -0.04    1.43
   2  -2  12    7.03    2.69
  -2   2 -12    3.34    2.04
   2  -2  12    4.22    2.03
  -2   2 -12    7.09    1.98
  -2   2 -12    5.27    2.28
   2  -2  12    6.26    2.26
  -2   2 -12    4.43    2.00
  -2   2 -13    4.67    2.40
  -2   2 -13    4.18    2.42
   2  -2  13    7.35    2.60
  -2   2 -13    7.24    2.49
   2  -2  13    7.61    2.47
   2  -2  13    3.67    2.30
   2  -2  14    1.45    1.71
   2  -2  14    6.70    2.79
  -2   2 -14    1.10    1.79
  -2   2 -14    1.27    1.62
  -2   2 -14    0.60    1.89
   2  -2  14    4.28    2.33
  -2   2 -15   13.43    3.59
  -2   1  15    0.46    1.65
  -2   1  15    0.66    1.59
   2  -1 -14    7.20    2.60
  -2   1  14    6.61    2.54
  -2   1  14    8.92    2.79
   2  -1 -14   10.16    3.10
   2  -1 -14    3.63    2.04
  -2   1  13   57.37    5.62
   2  -1 -13   59.16    6.03
  -2   1  13   63.53    5.86
   2  -1 -13   60.92    6.06
   2  -1 -13   54.12    5.73
   2  -1 -12   48.08    4.16
  -2   1  12   41.77    4.51
  -2   1  12   41.90    4.65
   2  -1 -12   44.51    3.89
   2  -1 -12   47.07    5.12
  -2   1  12   42.19    4.68
   2  -1 -12   49.50    5.24
   2  -1 -12   45.33    5.11
  -2   1  11   -3.86    2.10
  -2   1  11    0.93    1.52
   2  -1 -11   -0.09    1.14
   2  -1 -11    0.13    1.04
  -2   1  11   -0.38    1.06
   2  -1 -11    1.56    1.83
   2  -1 -11    2.53    1.57
  -2   1  11   -0.18    1.03
  -2   1  11   -1.67    1.31
   2  -1 -11    0.81    1.34
   2  -1 -11   -1.01    1.98
   2  -1 -10    6.15    1.75
  -2   1  10    3.40    1.76
   2  -1 -10    6.25    1.60
   2  -1 -10    2.46    1.17
   2  -1 -10    3.73    1.76
  -2   1  10    5.29    1.45
  -2   1  10    5.43    2.11
   2  -1 -10    4.22    2.27
   2  -1 -10    3.96    2.13
  -2   1  10    3.50    1.18
  -2   1  10    0.70    1.99
   2  -1  -9    9.62    2.33
   2  -1  -9   10.72    2.76
  -2   1   9    8.27    1.87
   2  -1  -9    9.24    1.93
   2  -1  -9   10.37    1.83
  -2   1   9    6.10    1.40
  -2   1   9    7.66    1.48
  -2   1   9    9.19    2.26
  -2   1   9    4.54    1.73
   2  -1  -9    5.97    2.05
  -2   1   8  119.74    3.31
   2  -1  -8  126.17    5.39
  -2   1   8  113.88    5.82
   2  -1  -8  113.82    4.65
  -2   1   8  120.67    6.10
   2  -1  -8  115.76    6.15
  -2   1   8  114.56    6.08
  -2   1   8  118.10    4.68
  -2   1   8  117.48    4.70
   2  -1  -8  124.12    6.37
   2  -1  -8  124.98    6.75
  -2   1   7   29.27    2.25
  -2   1   7   28.97    2.24
   2  -1  -7   30.70    2.75
  -2   1   7   27.53    2.97
  -2   1   7   27.88    2.80
  -2   1   7   29.68    1.75
   2  -1  -7   30.56    2.29
   2  -1  -7   32.40    3.19
   2  -1  -7   34.39    3.81
   2  -1  -7   28.09    3.09
  -2   1   7   25.15    2.81
  -2   1   6  304.22    5.60
   2  -1  -6  275.99    8.18
  -2   1   6  282.40    6.01
   2  -1  -6  283.02    7.39
  -2   1   6  286.89    8.22
   2  -1  -6  276.06    5.70
  -2   1   6  284.77    6.01
   2  -1  -6  278.38    8.23
  -2   1   5   89.85    3.15
  -2   1   5   79.72    4.12
   2  -1  -5   81.10    3.86
  -2   1   5   82.37    4.19
   2  -1  -5   80.81    2.68
  -2   1   5   83.69    2.98
   2  -1  -5   85.68    4.24
   2  -1  -5   84.78    4.27
  -2   1   5   82.44    2.98
  -2   1   4   -0.31    0.79
  -2   1   4    0.64    0.33
   2  -1  -4    1.28    1.04
   2  -1  -4    1.21    0.48
  -2   1   4   -0.69    0.76
   2  -1  -4    0.45    0.98
  -2   1   4    0.93    1.09
  -2   1   4    0.62    1.11
   2  -1  -4   -0.05    1.04
  -2   1   4    2.49    0.74
  -2   1   3  254.42    5.26
  -2   1   3  252.69    3.67
  -2   1   3  246.55    5.99
  -2   1   3  256.75    5.82
   2  -1  -3  244.91    5.74
   2  -1  -3  252.23    5.96
  -2   1   3  256.29    5.96
   2  -1  -3  249.33    5.97
   2  -1  -3  272.66    6.37
  -2   1   3  237.53    5.99
   2  -1  -3  246.25    4.05
  -2   1   3  250.46    4.11
   2  -1  -3  250.46    4.10
  -2   1   2  514.44    7.45
   2  -1  -2  503.53    7.38
  -2   1   2  502.05    5.78
   2  -1  -2  521.05    7.89
  -2   1   2  505.77    7.86
  -2   1   2  514.62    7.85
   2  -1  -2  491.04    7.38
   2  -1  -2  499.51    5.57
  -2   1   2  509.07    7.93
   2  -1  -2  490.69    7.80
  -2   1   2  504.76    7.36
  -2   1   2  506.14    7.36
  -2   1   1 1222.18   11.37
   2  -1  -1 1205.88   11.37
  -2   1   1 1225.93    9.99
   2  -1  -1 1247.20   11.55
  -2   1   1 1198.05   11.36
   2  -1  -1 1217.88   10.01
  -2   1   1 1229.99   11.37
   2  -1  -1 1218.97   10.10
   2  -1  -1 1194.86   11.33
  -2   1   1 1192.52    9.98
  -2   1   1 1232.34    6.06
   2  -1  -1 1218.78    7.60
  -2   1   1 1213.43    7.53
  -2   1   0  972.28   10.13
   2  -1   0  959.34   10.19
  -2   1   0  950.80    6.50
  -2   1   0  962.25    9.62
   2  -1   0  980.50   10.07
  -2   1   0  957.79    9.98
   2  -1   0  984.60    9.67
  -2   1   0  940.24    9.40
   2  -1   0  956.47    7.67
   2  -1   0  945.32    9.42
  -2   1   0  964.27    7.75
  -2   1   0  959.52    7.53
   2  -1   0  977.52    7.28
  -2   1   0  976.88    8.50
  -2   1   0  981.66    7.27
  -2   1  -1 1361.58   11.84
  -2   1  -1 1331.64   12.10
  -2   1  -1 1326.93   12.18
   2  -1   1 1321.61   12.18
   2  -1   1 1334.50   10.24
   2  -1   1 1338.42   10.96
  -2   1  -1 1357.63   10.85
   2  -1   1 1342.93   12.24
  -2   1  -1 1288.97   10.21
  -2   1  -1 1344.28   10.90
  -2   1  -1 1282.38    8.15
   2  -1   1 1329.31   11.90
   2  -1   1 1411.46   10.45
   2  -1   1 1331.38    8.28
  -2   1  -1 1352.18   12.26
  -2   1  -1 1289.72    6.71
   2  -1   1 1326.07    8.39
  -2   1  -1 1338.11    8.36
  -2   1  -1 1377.56   10.36
  -2   1  -2  103.40    3.33
   2  -1   2  107.37    3.47
  -2   1  -2   98.56    3.67
  -2   1  -2  105.16    3.78
  -2   1  -2  102.89    2.69
   2  -1   2  100.30    3.43
  -2   1  -2  109.41    3.51
  -2   1  -2  104.86    3.69
   2  -1   2   99.63    1.93
  -2   1  -2  102.81    2.87
   2  -1   2   96.48    3.76
   2  -1   2  109.31    2.94
   2  -1   2  104.23    2.40
   2  -1   2   97.48    3.76
  -2   1  -2  103.78    3.72
  -2   1  -2   97.60    2.47
   2  -1   2  101.84    3.77
   2  -1   2  109.19    3.44
   2  -1   3   59.90    3.19
   2  -1   3   51.55    1.46
   2  -1   3   58.82    2.94
  -2   1  -3   60.69    2.98
   2  -1   3   60.79    1.91
  -2   1  -3   57.05    3.15
   2  -1   3   56.93    3.20
  -2   1  -3   57.47    2.97
  -2   1  -3   63.53    2.81
  -2   1  -3   56.90    2.50
  -2   1  -3   61.89    3.05
   2  -1   3   59.19    3.01
   2  -1   3   64.98    2.70
  -2   1  -3   59.75    1.85
   2  -1   3   63.52    3.08
  -2   1  -4   74.78    3.49
   2  -1   4   71.97    3.86
  -2   1  -4   66.15    1.77
   2  -1   4   74.27    3.72
  -2   1  -4   73.40    3.53
  -2   1  -4   70.51    3.82
  -2   1  -4   79.76    2.88
  -2   1  -4   74.19    3.58
   2  -1   4   74.99    3.80
  -2   1  -4   79.10    3.44
   2  -1   4   82.46    3.44
  -2   1  -5    0.64    0.60
  -2   1  -5    0.33    1.01
   2  -1   5    1.00    1.01
  -2   1  -5   -0.47    1.50
  -2   1  -5   -0.31    1.21
  -2   1  -5    0.59    1.06
   2  -1   5    0.86    1.35
   2  -1   5   -1.08    1.29
  -2   1  -6   16.93    1.33
   2  -1   6   16.62    2.20
  -2   1  -6   16.64    2.41
  -2   1  -6   14.52    2.04
   2  -1   6   23.08    2.83
   2  -1   6   21.86    2.55
  -2   1  -6   16.97    2.19
  -2   1  -6   17.69    2.00
  -2   1  -7    0.89    0.49
   2  -1   7    2.71    1.44
  -2   1  -7   -1.09    1.32
  -2   1  -7   -1.77    1.93
  -2   1  -7    1.31    1.32
  -2   1  -7    0.59    1.36
   2  -1   7    0.64    1.58
   2  -1   7    2.09    1.46
  -2   1  -8    0.25    1.53
   2  -1   8    1.95    1.27
   2  -1   8    2.40    1.46
  -2   1  -8   -1.15    2.12
   2  -1   8    5.33    1.96
  -2   1  -8    1.86    1.57
  -2   1  -8    4.41    1.40
   2  -1   8    3.09    2.19
  -2   1  -9  263.84    7.73
   2  -1   9  275.78   10.22
  -2   1  -9  266.57    9.90
  -2   1  -9  279.16   10.17
   2  -1   9  269.71    9.17
   2  -1   9  274.98   10.39
   2  -1   9  276.43    9.87
  -2   1  -9  288.51   10.17
   2  -1  10    0.16    1.65
   2  -1  10    0.15    1.27
   2  -1  10    0.72    1.60
  -2   1 -10    0.43    0.98
   2  -1  10    4.83    2.23
  -2   1 -10   -1.57    1.80
  -2   1 -10    3.54    1.46
  -2   1 -10    0.38    1.43
  -2   1 -10    0.46    1.67
  -2   1 -11   12.32    2.70
  -2   1 -11   11.79    2.71
   2  -1  11   11.33    2.80
  -2   1 -11   14.55    2.88
   2  -1  11   12.19    3.21
   2  -1  11   15.01    3.01
  -2   1 -11   11.63    2.34
  -2   1 -12    4.74    2.21
   2  -1  12    4.18    2.40
   2  -1  12    3.70    1.93
  -2   1 -12    4.64    2.28
  -2   1 -12    7.00    2.34
   2  -1  12    3.95    2.60
  -2   1 -12    5.76    2.37
   2  -1  13    0.65    1.45
  -2   1 -13    0.67    1.61
  -2   1 -13    3.57    2.29
  -2   1 -13    1.40    1.93
   2  -1  13   -0.05    1.72
  -2   1 -13    0.13    1.38
   2  -1  13   -4.48    2.20
  -2   1 -14    4.11    2.33
   2  -1  14    1.53    2.06
   2  -1  14    4.26    2.44
  -2   1 -14    1.76    1.92
  -2   1 -14    2.27    1.80
   2  -1  14    4.04    2.58
  -2   0  16    3.81    1.95
  -2   0  15   20.84    3.97
  -2   0  15   20.35    3.60
   2   0 -15   28.78    4.99
   2   0 -15   24.22    4.23
  -2   0  14   10.16    2.87
   2   0 -14   12.68    2.57
  -2   0  14   11.08    2.95
   2   0 -14   18.66    4.07
   2   0 -14   14.58    3.57
   2   0 -14    9.14    2.83
  -2   0  14    7.45    2.59
   2   0 -13   21.46    3.21
   2   0 -13   14.43    3.33
  -2   0  13   18.69    3.52
   2   0 -13   18.92    2.77
  -2   0  13   12.70    2.71
   2   0 -13   17.22    3.33
  -2   0  13   15.67    3.08
   2   0 -13   20.01    3.44
  -2   0  13   19.73    2.99
  -2   0  13   18.90    2.94
   2   0 -12  254.02    9.68
  -2   0  12  232.77   10.38
  -2   0  12  240.37    9.94
   2   0 -12  235.67    8.74
   2   0 -12  241.08   10.86
  -2   0  12  262.71    9.38
   2   0 -12  228.15    8.68
   2   0 -12  240.97   10.98
  -2   0  12  240.42   10.26
   2   0 -12  241.29   10.44
  -2   0  12  255.38    9.37
   2   0 -11    3.22    1.75
  -2   0  11    2.43    1.51
   2   0 -11    1.09    1.30
   2   0 -11    1.80    1.15
  -2   0  11    0.24    1.31
  -2   0  11    1.52    1.32
  -2   0  11    1.09    1.14
   2   0 -11    2.70    1.62
   2   0 -11    6.95    2.19
   2   0 -11    5.62    1.78
  -2   0  11    0.56    1.38
   2   0 -10    1.37    1.91
  -2   0  10    4.92    2.00
   2   0 -10    0.59    1.04
   2   0 -10    2.96    1.35
  -2   0  10    2.39    1.23
  -2   0  10    4.58    1.72
   2   0 -10    3.98    1.91
  -2   0  10   -0.19    1.69
  -2   0  10    0.55    1.25
   2   0 -10    2.60    1.85
  -2   0   9    3.00    0.64
  -2   0   9    2.42    1.22
   2   0  -9    1.46    1.00
   2   0  -9    2.47    1.26
  -2   0   9    2.43    1.11
  -2   0   9    5.34    1.70
  -2   0   9    2.87    1.40
   2   0  -9    2.80    1.73
   2   0  -9    2.82    1.68
   2   0  -9    1.51    1.82
  -2   0   9    2.08    1.06
   2   0  -8   -0.02    0.90
   2   0  -8    0.47    1.09
  -2   0   8    1.19    1.35
  -2   0   8   -1.55    1.27
   2   0  -8    0.26    1.28
   2   0  -8    0.06    1.36
  -2   0   8   -2.08    0.83
   2   0  -8    0.47    1.58
  -2   0   8   -1.56    1.44
  -2   0   8   -0.96    1.29
  -2   0   7   -0.72    0.71
   2   0  -7   -0.59    1.19
  -2   0   7    0.83    1.11
   2   0  -7    1.18    0.91
   2   0  -7   -0.13    0.97
   2   0  -7    0.17    0.79
  -2   0   7    0.56    0.92
  -2   0   7   -0.75    0.95
   2   0  -7   -0.78    1.21
  -2   0   7   -3.02    1.48
   2   0  -7    1.32    1.58
  -2   0   6   19.69    1.66
   2   0  -6   17.84    2.52
   2   0  -6   14.90    1.52
  -2   0   6   17.58    1.57
   2   0  -6   15.11    1.79
  -2   0   6   16.18    2.02
   2   0  -6   17.72    1.61
   2   0  -6   19.41    2.38
  -2   0   6   19.55    1.64
  -2   0   6   14.69    1.90
   2   0  -6   14.30    2.02
  -2   0   6   15.97    1.75
  -2   0   6   15.86    1.70
  -2   0   5    5.11    1.24
   2   0  -5    6.55    1.53
   2   0  -5    4.08    0.91
   2   0  -5    7.51    1.38
  -2   0   5    6.46    1.00
   2   0  -5    5.96    1.29
   2   0  -5    5.47    1.32
  -2   0   5    5.51    0.87
  -2   0   5    5.95    1.22
  -2   0   5    5.79    1.13
  -2   0   5    6.20    1.39
  -2   0   4  603.90    8.63
  -2   0   4  627.28    9.31
   2   0  -4  598.72    9.12
  -2   0   4  620.10    9.54
  -2   0   4  642.99    7.06
   2   0  -4  601.55    9.77
   2   0  -4  612.99    8.34
  -2   0   4  606.49    8.35
  -2   0   4  615.96    6.99
   2   0  -4  612.88    8.68
   2   0  -4  612.81    8.42
   2   0  -4  609.61    9.82
   2   0  -3 3150.86   17.91
  -2   0   3 3134.18   18.02
  -2   0   3 3214.16   20.00
   2   0  -3 3109.13   20.10
  -2   0   3 3271.54   20.58
   2   0  -3 3208.36   19.87
  -2   0   3 3319.13   20.78
   2   0  -3 3316.15   18.17
  -2   0   3 3164.35   17.89
  -2   0   3 3194.97   14.14
   2   0  -3 3113.99   14.06
   2   0  -3 3317.96   18.21
  -2   0   2 9624.21   29.34
   2   0  -2 9818.89   32.57
   2   0  -2 9828.20   33.57
   2   0  -2 9701.30   29.35
  -2   0   2 9835.39   33.31
  -2   0   2 9719.67   29.65
  -2   0   2 9999.00   32.92
   2   0  -2 9623.39   29.50
   2   0  -2 9872.31   33.25
   2   0  -1 3190.94   16.69
   2   0  -1 3272.44   16.83
  -2   0   1 3206.72   16.67
  -2   0   1 3215.69   18.24
  -2   0   1 3137.26   15.57
   2   0  -1 3252.24   18.09
   2   0  -1 3243.93   15.68
  -2   0   1 3190.65   17.24
  -2   0   1 3179.94   16.53
  -2   0   1 3160.65   16.33
   2   0  -1 3136.19   17.13
  -2   0   0  297.81    5.22
   2   0   0  296.53    5.36
   2   0   0  296.47    5.39
  -2   0   0  304.90    5.45
  -2   0   0  298.55    3.08
   2   0   0  294.36    5.60
  -2   0   0  317.75    5.68
   2   0   0  293.24    5.17
  -2   0   0  298.28    5.39
   2   0   0  303.17    5.23
  -2   0   0  309.87    5.25
   2   0   0  311.33    5.19
  -2   0   0  302.32    5.08
   2   0   0  312.01    5.41
  -2   0   0  288.62    5.27
   2   0   1   14.16    1.48
  -2   0  -1   13.76    1.45
   2   0   1   13.32    1.58
   2   0   1   12.92    1.16
   2   0   1   10.95    1.62
  -2   0  -1   12.29    1.15
   2   0   1   10.13    0.94
   2   0   1   13.08    1.50
   2   0   1   11.72    1.49
  -2   0  -1   12.07    1.27
  -2   0  -1   13.74    1.43
  -2   0  -1   13.02    1.50
   2   0   1   13.24    1.32
  -2   0  -1   11.66    1.29
  -2   0  -1   14.23    1.58
  -2   0  -2    3.68    1.02
   2   0   2    4.17    1.10
   2   0   2    3.72    1.12
  -2   0  -2    4.15    1.05
  -2   0  -2    4.40    1.29
   2   0   2    3.29    0.78
  -2   0  -2    3.58    1.15
  -2   0  -2    3.77    0.78
   2   0   2    4.16    1.15
   2   0   2    3.17    1.16
   2   0   2    3.67    1.14
   2   0   2    4.81    0.99
   2   0   2    3.96    0.99
  -2   0  -2    3.85    1.04
   2   0   3   18.96    2.12
  -2   0  -3   19.39    2.00
   2   0   3   18.46    1.58
   2   0   3   20.49    2.21
  -2   0  -3   19.75    1.30
   2   0   3   19.61    1.27
  -2   0  -3   17.73    1.65
   2   0   3   18.29    1.92
  -2   0  -3   19.70    1.94
   2   0   4    1.75    1.38
  -2   0  -4    0.67    1.02
  -2   0  -4   -0.27    0.51
   2   0   4    0.71    0.49
   2   0   4    1.34    1.09
  -2   0  -4    0.26    0.88
   2   0   4    1.51    1.33
  -2   0  -5   16.47    1.41
  -2   0  -5   18.19    2.55
  -2   0  -5   19.08    2.09
  -2   0  -5   14.16    2.04
  -2   0  -5   17.32    1.23
   2   0   5   16.42    2.30
  -2   0  -5   16.42    2.08
   2   0   5   14.77    2.26
   2   0   5   16.53    2.41
  -2   0  -6    2.86    0.72
  -2   0  -6    6.65    1.64
   2   0   6    1.87    1.35
  -2   0  -6    3.08    0.67
  -2   0  -6    3.54    1.49
  -2   0  -6    2.08    0.69
  -2   0  -6    4.03    1.80
  -2   0  -6    3.89    1.67
   2   0   6    5.03    1.95
   2   0   6    2.23    1.16
   2   0   6    0.81    1.45
   2   0   7  806.58   15.26
  -2   0  -7  810.99    8.51
   2   0   7  808.41   15.87
   2   0   7  811.92   15.77
  -2   0  -7  816.29   15.67
  -2   0  -7  826.29   16.05
  -2   0  -7  812.70   12.86
  -2   0  -7  775.76    8.37
  -2   0  -7  819.84   15.07
   2   0   7  819.36   16.30
  -2   0  -8   24.59    2.63
   2   0   8   25.55    3.12
  -2   0  -8   26.35    1.59
   2   0   8   27.45    3.30
   2   0   8   29.95    3.73
  -2   0  -8   23.74    3.25
  -2   0  -8   24.40    3.19
  -2   0  -8   30.15    3.32
   2   0   8   24.14    3.41
  -2   0  -9  231.12    9.69
   2   0   9  230.51    9.54
   2   0   9  225.14    8.99
   2   0   9  211.27    9.24
  -2   0  -9  219.23    9.17
  -2   0  -9  206.93    6.93
   2   0   9  224.39    9.68
  -2   0  -9  235.61    9.35
   2   0  10   -0.26    1.27
   2   0  10   -0.17    1.69
  -2   0 -10   -1.22    1.08
  -2   0 -10   -0.15    1.62
   2   0  10    2.19    2.04
   2   0  10   -0.05    1.74
  -2   0 -10    0.94    1.65
  -2   0 -10   -0.40    1.46
   2   0  11    2.05    1.48
   2   0  11    3.71    1.98
  -2   0 -11   -2.04    1.88
  -2   0 -11    0.72    1.74
   2   0  11    1.65    1.74
  -2   0 -11    1.64    1.82
   2   0  11    4.96    2.71
  -2   0 -12   -2.80    2.37
   2   0  12   -0.61    1.45
  -2   0 -12   -0.83    1.37
  -2   0 -12    2.64    2.02
  -2   0 -12    4.17    2.47
   2   0  12   -4.09    2.43
   2   0  12    1.23    1.97
   2   0  13   -0.38    1.69
  -2   0 -13    0.55    1.95
   2   0  13    2.99    2.39
  -2   0 -13    2.02    1.87
  -2   0 -13    3.44    2.78
  -2   0 -13   -1.02    2.22
  -2   0 -14   -0.40    2.03
  -2   0 -14   -1.01    2.01
  -2   0 -14   -0.97    2.48
  -2  -1  16   -2.11    1.88
   2   1 -16   -1.00    1.59
   2   1 -16   -1.37    2.18
  -2  -1  16   -1.30    1.80
   2   1 -15    1.41    1.69
  -2  -1  15    5.32    2.30
  -2  -1  15    3.80    2.05
   2   1 -15    4.56    2.46
   2   1 -15    7.91    3.02
  -2  -1  15   -0.47    2.02
   2   1 -15    3.44    2.18
   2   1 -14   93.75    6.79
  -2  -1  14   94.58    6.56
  -2  -1  14   86.50    6.38
  -2  -1  14   93.40    7.26
   2   1 -14   83.71    5.95
   2   1 -14   89.55    7.29
   2   1 -14   99.12    7.26
  -2  -1  14   96.03    6.60
  -2  -1  14   97.59    6.97
   2   1 -14   96.96    7.55
   2   1 -13    2.86    1.55
   2   1 -13    4.72    1.97
   2   1 -13    3.61    2.25
  -2  -1  13    5.04    2.18
   2   1 -13    2.23    1.58
  -2  -1  13    2.87    1.77
  -2  -1  13    2.13    1.80
  -2  -1  13    1.60    1.52
   2   1 -13    3.51    1.85
  -2  -1  13    5.39    2.17
   2   1 -12   83.65    5.89
  -2  -1  12   76.75    5.34
  -2  -1  12   70.54    5.80
  -2  -1  12   75.04    5.30
   2   1 -12   73.27    5.05
   2   1 -12   66.42    4.65
  -2  -1  12   66.88    4.98
   2   1 -12   79.16    6.41
  -2  -1  12   70.85    5.46
   2   1 -12   77.00    6.11
   2   1 -12   75.41    5.84
   2   1 -11   72.98    5.38
  -2  -1  11   69.27    4.92
  -2  -1  11   75.91    5.10
  -2  -1  11   69.53    5.55
   2   1 -11   70.10    4.67
   2   1 -11   71.11    4.58
   2   1 -11   75.30    5.48
   2   1 -11   77.76    5.83
  -2  -1  11   80.54    5.29
   2   1 -11   73.43    5.70
  -2  -1  11   60.12    4.94
   2   1 -10   30.06    3.20
  -2  -1  10   33.29    3.24
  -2  -1  10   34.47    3.74
  -2  -1  10   31.97    3.25
   2   1 -10   30.88    3.07
  -2  -1  10   31.43    3.19
   2   1 -10   32.12    3.67
  -2  -1  10   27.70    3.16
   2   1 -10   30.02    3.45
   2   1 -10   32.43    3.96
  -2  -1   9   45.10    3.59
   2   1  -9   38.80    3.69
   2   1  -9   32.42    3.26
   2   1  -9   41.74    3.94
   2   1  -9   41.49    3.39
  -2  -1   9   37.71    3.42
   2   1  -9   38.26    3.20
  -2  -1   9   29.21    1.13
   2   1  -9   41.82    2.55
  -2  -1   9   37.22    3.25
  -2  -1   9   33.21    3.29
   2   1  -8   -0.36    1.58
   2   1  -8    1.10    1.04
   2   1  -8    1.46    1.18
  -2  -1   8    1.54    1.17
   2   1  -8    1.86    1.40
  -2  -1   8    3.60    1.42
  -2  -1   8    2.81    0.59
   2   1  -8    2.89    0.87
  -2  -1   8    1.51    1.09
   2   1  -8    3.17    1.48
  -2  -1   8    2.08    1.26
  -2  -1   7   21.27    2.30
   2   1  -7   24.14    1.53
  -2  -1   7   22.17    1.36
  -2  -1   7   21.66    2.39
   2   1  -7   20.92    2.26
   2   1  -7   25.04    2.78
   2   1  -7   18.71    2.47
  -2  -1   7   19.38    2.13
  -2  -1   7   21.01    2.02
   2   1  -7   20.28    2.43
  -2  -1   6  195.08    5.23
  -2  -1   6  176.25    4.96
   2   1  -6  190.18    5.18
  -2  -1   6  189.81    5.98
   2   1  -6  182.18    5.91
   2   1  -6  173.23    5.95
   2   1  -6  189.69    6.37
  -2  -1   6  193.14    4.07
   2   1  -6  187.96    3.49
  -2  -1   6  185.86    5.96
  -2  -1   6  188.58    5.68
   2   1  -6  187.13    6.44
  -2  -1   5  256.00    5.26
  -2  -1   5  257.96    6.23
  -2  -1   5  270.35    6.73
  -2  -1   5  289.89    6.16
   2   1  -5  257.06    6.62
   2   1  -5  263.34    7.10
  -2  -1   5  261.32    6.71
   2   1  -5  260.26    6.95
   2   1  -5  252.73    6.43
   2   1  -5  244.58    3.31
   2   1  -5  272.89    5.34
  -2  -1   5  281.41    6.06
   2   1  -4  697.36   10.10
  -2  -1   4  669.37    7.55
  -2  -1   4  685.75    9.92
   2   1  -4  696.98   10.05
  -2  -1   4  670.89   10.00
   2   1  -4  636.23   10.08
   2   1  -4  633.50    8.95
   2   1  -4  662.69    8.90
  -2  -1   4  684.43    8.85
   2   1  -4  655.20   10.09
   2   1  -4  651.66    6.94
   2   1  -3 2059.31   12.10
   2   1  -3 2065.88   16.93
  -2  -1   3 2080.44   12.10
   2   1  -3 2040.43   13.21
   2   1  -3 2218.08   17.18
   2   1  -3 2049.91   17.04
   2   1  -3 2040.05    8.85
  -2  -1   3 2038.35   16.64
  -2  -1   3 2219.94   17.38
  -2  -1   3 2098.84   14.90
   2   1  -3 2053.97   14.95
  -2  -1   3 2156.74   17.29
   2   1  -3 2210.32   17.24
  -2  -1   3 2068.43   16.80
   2   1  -2   81.66    3.45
  -2  -1   2   82.62    3.35
   2   1  -2   81.50    3.35
  -2  -1   2   88.87    2.98
   2   1  -2   80.75    2.98
   2   1  -2   91.64    3.50
  -2  -1   2   87.67    3.41
  -2  -1   2   79.88    2.30
   2   1  -2   83.83    2.29
  -2  -1   2   81.37    2.46
   2   1  -2   85.26    2.49
  -2  -1   2   80.46    3.28
  -2  -1   2   87.33    3.44
   2   1  -2   85.07    3.41
   2   1  -2   87.64    2.03
   2   1  -1   88.47    2.77
   2   1  -1   87.57    2.71
  -2  -1   1   90.37    2.74
   2   1  -1   85.55    2.40
  -2  -1   1   94.33    3.47
  -2  -1   1   89.35    3.42
   2   1  -1   91.27    2.84
   2   1  -1   85.53    3.35
  -2  -1   1   99.01    3.53
   2   1  -1   89.32    3.42
  -2  -1   1   87.01    2.84
  -2  -1   1   86.28    2.81
  -2  -1   1   84.86    3.39
   2   1  -1   90.76    3.46
  -2  -1   1   85.74    3.43
   2   1  -1   87.60    3.38
  -2  -1   0    2.26    0.96
   2   1   0    2.24    1.09
  -2  -1   0    2.36    0.93
   2   1   0    1.65    1.06
   2   1   0    2.27    0.90
   2   1   0    2.24    0.68
   2   1   0    2.55    1.07
  -2  -1   0    1.18    0.96
  -2  -1   0    2.18    0.61
  -2  -1   0    1.33    1.10
  -2  -1   0    3.68    1.17
   2   1   0    2.90    0.86
  -2  -1   0    1.83    0.71
   2   1   0    1.54    0.99
   2   1   0    1.78    0.96
  -2  -1   0    3.50    1.08
   2   1   1   41.63    2.48
  -2  -1  -1   35.82    2.58
   2   1   1   38.93    2.60
   2   1   1   42.09    2.54
   2   1   1   37.32    2.28
   2   1   1   37.10    2.21
   2   1   1   36.71    1.62
   2   1   1   38.90    2.55
  -2  -1  -1   38.43    2.52
  -2  -1  -1   39.00    2.28
  -2  -1  -1   37.84    1.54
  -2  -1  -1   41.81    2.29
  -2  -1  -1   40.10    2.49
  -2  -1  -1   35.04    2.40
   2   1   2  129.97    4.61
   2   1   2  132.20    4.82
   2   1   2  134.08    4.03
   2   1   2  136.44    4.97
  -2  -1  -2  130.98    4.93
  -2  -1  -2  141.36    4.18
  -2  -1  -2  133.33    3.64
  -2  -1  -2  135.67    4.90
   2   1   3  376.10    6.78
  -2  -1  -3  369.00    8.78
  -2  -1  -3  392.58    7.03
   2   1   3  376.77    8.90
  -2  -1  -3  365.98    7.08
   2   1   3  366.97    8.51
  -2  -1  -3  377.70    8.69
   2   1   3  384.43    8.71
  -2  -1  -3  371.55    8.79
   2   1   4  162.92    6.10
  -2  -1  -4  175.39    4.81
  -2  -1  -4  171.39    6.42
  -2  -1  -4  166.67    6.34
   2   1   4  167.60    6.53
   2   1   4  172.08    6.48
  -2  -1  -4  170.78    5.50
   2   1   4  176.07    4.92
   2   1   5    4.58    1.83
   2   1   5    4.17    1.55
   2   1   5    3.97    1.57
  -2  -1  -5    5.69    1.02
   2   1   5    4.31    1.71
  -2  -1  -5    5.67    1.68
  -2  -1  -5    5.15    1.64
   2   1   6    8.30    2.28
  -2  -1  -6   13.84    1.63
   2   1   6   11.59    2.24
   2   1   6   12.06    2.33
  -2  -1  -6   14.66    2.46
  -2  -1  -6   15.58    2.50
  -2  -1  -6   11.13    1.36
   2   1   6   11.60    2.36
   2   1   7   62.97    4.87
  -2  -1  -7   64.41    3.26
  -2  -1  -7   67.10    5.09
  -2  -1  -7   65.03    4.60
  -2  -1  -7   57.85    4.77
   2   1   7   58.29    4.65
   2   1   7   55.77    4.77
   2   1   7   65.69    5.15
  -2  -1  -8    9.36    2.34
  -2  -1  -8    9.43    1.95
  -2  -1  -8    9.11    1.42
   2   1   8    4.53    1.91
  -2  -1  -8    8.51    2.32
   2   1   8    7.20    2.13
   2   1   8    5.37    2.09
   2   1   8    8.54    2.40
  -2  -1  -8   12.11    2.58
  -2  -1  -9   -0.24    1.40
   2   1   9    1.25    1.36
   2   1   9   -1.27    1.51
  -2  -1  -9    2.59    1.88
  -2  -1  -9    4.34    1.81
  -2  -1  -9    1.09    1.27
   2   1   9   -2.56    2.21
   2   1   9    0.50    1.70
  -2  -1 -10   21.88    3.52
   2   1  10   23.92    3.52
   2   1  10   20.39    3.42
  -2  -1 -10   20.76    3.39
   2   1  10   22.57    3.86
   2   1  10   23.12    3.70
  -2  -1 -10   24.49    3.55
   2   1  11   11.63    2.91
  -2  -1 -11   10.05    2.84
  -2  -1 -11   12.95    3.06
   2   1  11   12.44    2.99
  -2  -1 -11   11.70    3.06
   2   1  11    8.57    2.84
   2   1  11   19.61    3.86
   2   1  12   14.64    3.17
  -2  -1 -12    5.14    2.30
  -2  -1 -12    9.68    2.92
   2   1  12   16.18    3.77
  -2  -1 -12   15.51    3.49
   2   1  13    1.09    1.73
  -2  -1 -13   -2.63    1.89
  -2  -1 -13    0.02    1.62
  -2  -1 -13   -3.28    2.42
  -2  -1 -14    7.10    2.59
   2   2 -16   -0.82    1.65
  -2  -2  16    0.60    1.91
   2   2 -16    0.71    1.84
  -2  -2  16    1.20    1.88
   2   2 -15    0.61    1.81
   2   2 -15    5.55    2.39
  -2  -2  15    0.37    1.69
  -2  -2  15    2.96    1.59
  -2  -2  15    0.79    1.74
   2   2 -15    0.34    1.71
   2   2 -15    3.91    2.21
  -2  -2  15    0.65    1.61
  -2  -2  15    2.47    1.81
  -2  -2  14   -0.04    1.45
   2   2 -14    0.82    1.88
   2   2 -14    0.92    1.77
  -2  -2  14    1.92    1.37
   2   2 -14    0.97    1.75
  -2  -2  14    0.84    1.48
  -2  -2  14    2.13    1.85
  -2  -2  14    4.97    2.23
   2   2 -14    4.28    2.42
  -2  -2  13    7.31    2.19
  -2  -2  13    9.25    2.54
  -2  -2  13    7.66    2.04
  -2  -2  13    4.80    2.02
   2   2 -13    8.18    2.60
   2   2 -13   10.29    2.66
   2   2 -13   10.14    2.58
  -2  -2  13    4.73    1.76
   2   2 -13    9.07    2.45
   2   2 -12    5.73    2.17
  -2  -2  12    2.59    1.66
  -2  -2  12    4.29    1.89
  -2  -2  12    5.57    1.71
   2   2 -12    6.23    1.66
   2   2 -12    5.54    2.15
   2   2 -12    2.95    1.78
  -2  -2  12    5.70    1.97
   2   2 -12    1.67    1.50
  -2  -2  12    2.87    1.72
  -2  -2  11   -0.90    1.49
   2   2 -11    3.69    1.91
   2   2 -11    1.49    1.62
   2   2 -11    2.11    1.33
   2   2 -11    3.66    2.21
  -2  -2  11    0.90    1.07
   2   2 -11    0.96    1.56
  -2  -2  11   -0.77    1.46
  -2  -2  11   -1.14    1.71
  -2  -2  10   26.33    3.18
  -2  -2  10   25.61    2.73
   2   2 -10   29.14    3.69
  -2  -2  10   22.21    3.01
   2   2 -10   24.42    2.75
   2   2 -10   26.62    3.18
  -2  -2  10   25.15    2.71
   2   2 -10   26.18    3.37
  -2  -2   9  353.05    8.94
   2   2  -9  361.80   10.27
   2   2  -9  352.72    9.08
  -2  -2   9  364.68   10.28
   2   2  -9  352.82   10.44
   2   2  -9  358.28   10.68
   2   2  -9  333.98    5.33
  -2  -2   9  343.10    8.49
  -2  -2   9  363.61   10.35
  -2  -2   9  367.95    6.60
   2   2  -8   26.67    2.98
  -2  -2   8   26.01    2.21
   2   2  -8   23.84    2.56
  -2  -2   8   28.56    2.96
   2   2  -8   28.17    3.08
   2   2  -8   26.19    2.85
   2   2  -8   20.65    1.15
  -2  -2   8   27.47    2.42
  -2  -2   8   22.23    2.14
  -2  -2   8   28.18    3.00
  -2  -2   8   27.89    1.98
   2   2  -7   23.45    1.86
  -2  -2   7   23.61    1.78
  -2  -2   7   22.66    2.57
  -2  -2   7   26.25    2.21
   2   2  -7   22.98    2.58
   2   2  -7   24.99    2.64
  -2  -2   7   21.10    1.78
   2   2  -7   22.17    2.40
   2   2  -7   22.47    2.54
  -2  -2   7   23.05    2.75
  -2  -2   7   24.00    1.93
  -2  -2   6   33.34    1.78
   2   2  -6   31.55    2.68
   2   2  -6   30.70    2.65
   2   2  -6   29.47    2.66
  -2  -2   6   35.40    2.36
  -2  -2   6   29.35    1.75
  -2  -2   6   34.03    2.37
  -2  -2   6   28.16    2.76
   2   2  -6   34.15    1.84
  -2  -2   6   32.95    3.02
   2   2  -5   13.86    1.67
  -2  -2   5   13.70    1.00
   2   2  -5   13.40    1.81
   2   2  -5   12.73    0.91
   2   2  -5   12.80    1.85
  -2  -2   5   17.53    1.92
  -2  -2   5   11.54    1.76
   2   2  -5   12.54    1.64
  -2  -2   5   10.85    1.66
  -2  -2   4   46.81    1.54
   2   2  -4   45.95    2.98
  -2  -2   4   48.76    3.07
   2   2  -4   45.03    2.29
  -2  -2   4   44.50    3.07
  -2  -2   4   53.88    2.50
   2   2  -4   46.79    2.87
   2   2  -4   46.41    2.99
  -2  -2   4   47.21    3.11
  -2  -2   3   10.01    1.65
   2   2  -3    8.17    0.73
  -2  -2   3    9.17    1.59
   2   2  -3    9.73    0.81
   2   2  -3    7.45    1.26
  -2  -2   3   10.18    0.80
   2   2  -3    8.10    0.88
  -2  -2   3   10.79    1.08
   2   2  -3    7.32    1.29
   2   2  -3    8.04    1.50
  -2  -2   3   10.75    0.85
  -2  -2   3   11.98    1.86
   2   2  -2    9.89    0.93
  -2  -2   2   12.48    1.76
   2   2  -2   10.90    1.47
  -2  -2   2   11.18    1.37
  -2  -2   2    9.94    1.11
   2   2  -2    9.28    1.53
   2   2  -2   10.62    1.57
   2   2  -2    9.65    0.69
   2   2  -2   11.45    1.58
  -2  -2   2    9.54    1.54
   2   2  -2   10.73    1.12
  -2  -2   2   10.21    0.66
   2   2  -1    3.31    1.12
  -2  -2   1    1.90    0.85
   2   2  -1    4.39    1.13
   2   2  -1    3.06    0.77
   2   2  -1    2.97    1.02
  -2  -2   1    2.98    1.24
   2   2  -1    3.82    1.18
   2   2  -1    2.14    1.04
  -2  -2   1    2.43    0.60
  -2  -2   1    3.77    1.26
   2   2  -1    2.05    0.66
  -2  -2   1    2.81    0.93
   2   2   0  241.70    6.34
  -2  -2   0  243.41    3.15
  -2  -2   0  246.39    6.65
   2   2   0  247.87    5.40
  -2  -2   0  239.13    6.60
   2   2   0  243.65    6.29
  -2  -2   0  253.99    5.31
  -2  -2   0  259.17    6.27
   2   2   0  257.20    6.34
   2   2   0  247.69    5.30
   2   2   1 1478.15   13.27
   2   2   1 1447.39   15.49
   2   2   1 1425.61   15.95
   2   2   1 1471.13   16.66
   2   2   1 1437.68   14.68
  -2  -2  -1 1439.27   10.31
  -2  -2  -1 1441.46   16.70
  -2  -2  -1 1444.02   16.78
  -2  -2  -2  373.59    6.51
   2   2   2  372.30    8.00
   2   2   2  372.53    9.16
   2   2   2  361.40    8.36
  -2  -2  -2  361.17    8.95
   2   2   2  357.44    8.53
  -2  -2  -2  359.64    8.87
   2   2   3   95.28    4.15
   2   2   3   96.03    4.75
  -2  -2  -3  100.48    5.05
  -2  -2  -3   98.23    3.97
   2   2   3   98.03    5.17
   2   2   3   96.82    4.81
  -2  -2  -3   92.68    4.94
  -2  -2  -3   94.41    4.99
  -2  -2  -4    0.24    1.22
   2   2   4    0.80    1.14
  -2  -2  -4   -0.40    1.18
  -2  -2  -4    0.19    1.17
   2   2   4    1.97    1.63
   2   2   4    0.22    1.42
   2   2   4   -0.17    0.62
  -2  -2  -5   -0.97    1.52
   2   2   5    0.70    0.82
   2   2   5    0.37    1.53
   2   2   5   -0.18    1.45
  -2  -2  -5   -2.08    1.61
  -2  -2  -5    0.72    1.29
   2   2   5    1.22    1.59
   2   2   5   -1.48    1.72
  -2  -2  -6    7.69    1.62
   2   2   6    5.60    1.58
   2   2   6    5.44    2.12
   2   2   6    2.81    1.80
   2   2   6    4.67    1.70
  -2  -2  -6    3.12    1.52
  -2  -2  -6    6.37    2.00
  -2  -2  -7   15.36    2.07
   2   2   7   12.53    2.69
   2   2   7   15.33    2.56
   2   2   7   12.02    2.71
  -2  -2  -7   13.09    2.33
   2   2   7   15.59    2.79
  -2  -2  -7   13.56    2.57
  -2  -2  -8    7.52    1.61
   2   2   8    7.42    1.93
   2   2   8    5.43    2.17
  -2  -2  -8    6.79    2.36
  -2  -2  -8    7.97    2.21
  -2  -2  -8    5.57    2.13
   2   2   8    6.27    2.05
   2   2   8    8.61    2.74
   2   2   9    9.41    2.59
  -2  -2  -9   10.30    2.73
  -2  -2  -9    7.32    2.61
   2   2   9    8.05    2.19
  -2  -2  -9    5.85    2.42
   2   2   9   13.14    2.98
   2   2  10   13.11    3.30
   2   2  10    5.26    2.56
   2   2  10    6.99    2.13
  -2  -2 -10    7.45    2.52
  -2  -2 -10   12.28    2.97
  -2  -2 -10    8.79    2.63
   2   2  11    0.33    1.53
  -2  -2 -11   -0.15    1.95
  -2  -2 -11    5.42    2.43
  -2  -2 -11    0.76    2.00
   2   2  11    2.88    2.16
   2   2  12   26.19    4.27
  -2  -2 -12   21.41    3.88
  -2  -2 -12   23.81    4.18
  -2  -2 -13   -3.13    2.28
  -2  -2 -13    3.38    2.54
   2   3 -16    4.93    2.85
   2   3 -16   -1.65    1.94
  -2  -3  16    3.32    2.69
   2   3 -16    2.44    2.05
   2   3 -16    2.92    2.37
  -2  -3  16    8.35    3.15
  -2  -3  15   18.95    3.62
  -2  -3  15   18.72    3.74
   2   3 -15   15.55    3.51
   2   3 -15   17.67    3.32
   2   3 -15   19.57    3.84
   2   3 -15   21.98    3.92
  -2  -3  15   17.82    3.57
   2   3 -14    2.01    1.75
  -2  -3  14    5.10    2.15
   2   3 -14    7.25    2.20
   2   3 -14    2.83    1.92
  -2  -3  14    4.75    2.08
   2   3 -14    3.54    2.16
  -2  -3  14    3.79    1.92
  -2  -3  14   -0.52    1.55
   2   3 -13    0.66    1.59
  -2  -3  13    1.50    1.73
  -2  -3  13    0.96    1.41
   2   3 -13   -0.44    1.57
  -2  -3  13    3.59    1.46
   2   3 -13   -0.25    1.57
  -2  -3  13    2.34    1.52
  -2  -3  13   -0.32    1.54
   2   3 -13    1.30    1.64
   2   3 -12   -0.67    1.60
  -2  -3  12    2.24    1.60
  -2  -3  12    0.04    0.97
  -2  -3  12    0.22    1.48
   2   3 -12   -0.10    1.15
   2   3 -12    1.38    1.41
   2   3 -12   -1.53    1.75
   2   3 -12    1.76    1.77
  -2  -3  12    1.46    1.28
   2   3 -11   10.50    2.55
  -2  -3  11   10.50    2.73
   2   3 -11    8.86    1.98
  -2  -3  11    7.97    1.68
   2   3 -11    9.37    2.48
  -2  -3  11    8.97    1.86
  -2  -3  11   10.63    2.51
   2   3 -11    8.80    1.84
  -2  -3  10   36.31    2.64
  -2  -3  10   37.74    3.01
   2   3 -10   39.34    3.86
  -2  -3  10   36.76    3.99
   2   3 -10   42.90    3.98
   2   3 -10   34.11    3.18
  -2  -3  10   36.92    2.98
   2   3 -10   41.27    3.95
  -2  -3  10   33.12    3.89
   2   3  -9   81.49    4.96
  -2  -3   9   87.65    4.18
  -2  -3   9   89.05    5.57
  -2  -3   9   80.43    5.29
   2   3  -9   77.17    4.47
   2   3  -9   79.59    5.01
  -2  -3   9   78.76    3.62
  -2  -3   9   81.57    3.35
  -2  -3   8   22.47    1.56
   2   3  -8   22.11    2.44
  -2  -3   8   27.79    2.28
  -2  -3   8   28.51    3.20
   2   3  -8   27.09    2.82
   2   3  -8   23.28    1.83
  -2  -3   8   25.24    1.87
   2   3  -8   25.56    2.82
  -2  -3   8   25.90    3.18
  -2  -3   7    4.06    1.79
   2   3  -7    2.66    1.06
  -2  -3   7    3.70    1.88
   2   3  -7    1.12    1.25
  -2  -3   7    1.62    0.91
   2   3  -7    1.78    1.17
  -2  -3   7    1.99    0.60
   2   3  -7    1.81    0.58
  -2  -3   7    2.37    0.52
   2   3  -6   29.03    2.54
  -2  -3   6   28.44    2.82
   2   3  -6   32.72    2.91
   2   3  -6   34.03    2.90
   2   3  -6   28.51    2.77
  -2  -3   6   36.62    3.37
  -2  -3   6   33.91    3.08
   2   3  -5  319.57    8.28
   2   3  -5  316.97    8.36
  -2  -3   5  343.39    6.92
   2   3  -5  323.93    8.47
  -2  -3   5  314.38    8.44
  -2  -3   5  303.27    8.58
  -2  -3   5  328.71    8.78
  -2  -3   4   13.59    1.91
   2   3  -4   19.11    2.22
  -2  -3   4   16.21    1.33
   2   3  -4   17.69    2.21
  -2  -3   4   18.76    1.21
   2   3  -4   19.00    2.24
   2   3  -4   14.04    1.85
  -2  -3   4   16.30    2.37
  -2  -3   4   15.35    2.08
   2   3  -3    3.87    0.58
  -2  -3   3    3.94    1.41
   2   3  -3    4.39    1.43
   2   3  -3    3.83    1.39
  -2  -3   3    7.90    1.86
  -2  -3   3    3.89    0.87
   2   3  -3    3.49    1.25
   2   3  -3    4.73    1.34
  -2  -3   3    5.15    1.58
  -2  -3   3    4.52    0.80
  -2  -3   2    6.23    1.68
   2   3  -2    6.54    1.49
   2   3  -2    5.23    1.40
   2   3  -2    5.93    0.84
   2   3  -2    4.91    1.35
  -2  -3   2    5.50    1.09
  -2  -3   2    4.78    0.73
   2   3  -2    6.50    1.53
   2   3  -2    3.98    0.65
  -2  -3   2    3.29    1.28
   2   3  -1    3.87    1.22
  -2  -3   1    6.75    1.80
  -2  -3   1    4.59    1.51
   2   3  -1    3.20    1.31
  -2  -3   1    5.87    0.94
   2   3  -1    4.58    1.29
   2   3  -1    5.55    1.01
  -2  -3   0   22.10    2.59
   2   3   0   21.48    2.22
  -2  -3   0   21.43    1.86
   2   3   0   18.49    1.94
   2   3   0   20.36    2.31
   2   3   0   23.17    1.99
   2   3   0   21.31    2.47
  -2  -3   0   19.93    2.35
  -2  -3  -1   18.10    2.54
   2   3   1   14.90    1.80
   2   3   1    9.92    1.74
   2   3   1   13.76    1.92
  -2  -3  -1   15.50    2.32
   2   3   1   16.19    2.09
   2   3   1   14.50    1.94
   2   3   2    5.57    1.38
   2   3   2    4.43    1.36
  -2  -3  -2    4.87    1.67
   2   3   2    4.22    1.30
  -2  -3  -2    2.85    1.38
  -2  -3  -2    9.50    1.77
   2   3   2    2.77    1.34
   2   3   2    5.19    1.34
  -2  -3  -2    5.09    1.77
  -2  -3  -3    2.91    1.49
   2   3   3    3.95    1.64
  -2  -3  -3    3.75    1.54
  -2  -3  -3    6.12    1.68
   2   3   3    3.53    1.27
   2   3   3    5.77    1.86
  -2  -3  -3    2.29    1.54
   2   3   4    0.76    2.08
  -2  -3  -4   -0.53    1.67
   2   3   4    1.82    1.39
   2   3   4    1.86    0.71
  -2  -3  -4    1.99    1.57
  -2  -3  -4    0.61    1.48
   2   3   4    1.37    1.74
  -2  -3  -4    4.49    1.64
  -2  -3  -5   13.64    2.55
  -2  -3  -5   16.40    2.42
   2   3   5   16.81    2.65
  -2  -3  -5   18.17    2.91
   2   3   5   20.38    3.29
   2   3   5   13.52    2.60
   2   3   6   52.01    4.98
  -2  -3  -6   56.84    4.21
   2   3   6   52.56    4.51
  -2  -3  -6   46.76    4.62
  -2  -3  -6   54.05    4.09
   2   3   6   52.25    4.93
   2   3   7    2.32    1.56
  -2  -3  -7    1.74    1.35
   2   3   7    1.53    1.26
  -2  -3  -7   -0.39    1.69
  -2  -3  -7    4.43    2.03
  -2  -3  -8   -1.81    2.30
  -2  -3  -8    1.55    1.57
   2   3   8    1.32    1.57
  -2  -3  -8    2.51    1.33
   2   3   8    0.76    1.35
   2   3   8    2.79    1.77
   2   3   9    0.07    1.52
   2   3   9   -1.28    1.47
  -2  -3  -9    4.65    2.87
  -2  -3  -9    3.01    1.53
  -2  -3  -9   -0.78    1.54
   2   3   9    5.90    2.52
  -2  -3 -10    1.90    1.96
   2   3  10    3.39    1.85
  -2  -3 -10    6.58    2.49
  -2  -3 -10    9.82    2.72
   2   3  10    4.28    2.79
   2   3  11    0.39    1.69
  -2  -3 -11    2.82    2.38
  -2  -3 -11    0.73    1.83
  -2  -3 -11    4.75    2.27
   2   3  11    3.84    2.31
  -2  -3 -12    0.12    2.13
  -2  -3 -12    4.04    2.61
   2   4 -16    8.67    2.64
   2   4 -16    7.88    2.64
   2   4 -16   15.76    3.96
   2   4 -16    6.70    2.48
  -2  -4  16   13.22    3.56
  -2  -4  16    8.67    3.31
  -2  -4  15   15.68    3.37
   2   4 -15    8.95    2.39
   2   4 -15   14.92    3.36
   2   4 -15   11.53    3.11
  -2  -4  15   14.77    3.46
   2   4 -15   13.36    3.09
  -2  -4  15    9.76    2.83
   2   4 -14   -0.99    1.58
   2   4 -14    0.62    1.88
  -2  -4  14   -0.76    1.42
  -2  -4  14   -0.65    2.05
   2   4 -14    0.91    2.04
   2   4 -14    1.21    2.02
  -2  -4  14    2.64    1.81
   2   4 -13    2.70    1.94
   2   4 -13    0.67    1.42
  -2  -4  13    2.87    1.83
  -2  -4  13    2.22    2.27
   2   4 -13    0.24    1.50
  -2  -4  13    0.35    1.60
   2   4 -12    3.17    1.54
   2   4 -12    4.83    1.85
   2   4 -12    5.52    1.75
  -2  -4  12   10.92    2.82
  -2  -4  12    8.88    2.51
   2   4 -12    8.98    2.53
  -2  -4  12    6.99    1.51
   2   4 -11    2.22    1.82
   2   4 -11   -0.82    1.19
  -2  -4  11    0.46    1.83
   2   4 -11   -1.37    1.57
  -2  -4  11    1.01    1.05
   2   4 -11    0.27    1.06
  -2  -4  11    0.39    0.86
  -2  -4  11    2.71    1.96
  -2  -4  10   18.92    1.44
  -2  -4  10   25.66    3.58
   2   4 -10   22.69    2.95
  -2  -4  10   24.52    2.29
  -2  -4  10   24.60    3.48
   2   4 -10   18.69    2.73
  -2  -4  10   20.95    1.94
   2   4 -10   21.60    2.74
  -2  -4   9    7.58    0.71
   2   4  -9    9.94    1.97
  -2  -4   9   12.08    1.51
   2   4  -9   12.98    2.13
  -2  -4   9   16.21    2.94
  -2  -4   9   11.57    1.30
  -2  -4   9   15.63    2.83
  -2  -4   8   34.53    2.39
  -2  -4   8   30.68    3.36
  -2  -4   8   23.49    3.15
   2   4  -8   34.37    3.23
   2   4  -8   33.00    3.20
  -2  -4   8   28.01    1.52
  -2  -4   8   32.95    3.86
   2   4  -7   48.21    3.94
  -2  -4   7   43.75    3.90
   2   4  -7   47.93    3.70
   2   4  -7   49.02    3.70
  -2  -4   7   53.43    4.09
  -2  -4   7   46.89    4.03
  -2  -4   6    2.11    1.40
  -2  -4   6    1.15    1.38
   2   4  -6   -0.17    1.30
  -2  -4   6   -3.17    1.94
  -2  -4   6    0.11    0.33
   2   4  -6    0.98    1.26
   2   4  -6    0.58    1.05
   2   4  -5  814.24   14.78
   2   4  -5  860.57   14.86
  -2  -4   5  829.29   15.17
  -2  -4   5  874.78    8.87
   2   4  -5  819.46   14.96
  -2  -4   5  847.11   14.91
  -2  -4   5  860.48   15.25
   2   4  -5  863.99   14.49
   2   4  -4   78.09    4.55
   2   4  -4   79.37    4.54
  -2  -4   4   78.57    4.72
   2   4  -4   82.50    4.52
   2   4  -4   81.52    4.69
  -2  -4   4   84.92    3.24
  -2  -4   4   84.70    3.26
  -2  -4   4   73.98    4.53
  -2  -4   4   76.08    4.55
  -2  -4   3   24.07    1.62
   2   4  -3   25.42    1.49
   2   4  -3   21.44    2.44
   2   4  -3   19.88    2.40
   2   4  -3   20.29    2.49
  -2  -4   3   25.73    1.27
  -2  -4   3   23.88    2.75
  -2  -4   3   20.31    2.43
  -2  -4   2    3.55    1.52
   2   4  -2    2.12    1.37
   2   4  -2    1.05    1.08
  -2  -4   2   -0.15    1.12
  -2  -4   2    3.23    0.87
   2   4  -2    1.99    1.14
   2   4  -1    3.85    1.56
  -2  -4   1    3.10    1.50
   2   4  -1    6.75    1.93
   2   4  -1    3.54    0.94
  -2  -4   1    5.42    1.18
  -2  -4   1    5.12    1.69
   2   4  -1    2.00    1.20
  -2  -4   0   23.67    2.78
   2   4   0   25.67    2.56
   2   4   0   26.17    2.89
   2   4   0   24.20    2.26
   2   4   0   24.61    2.62
  -2  -4   0   23.86    2.84
  -2  -4  -1    8.38    2.18
   2   4   1    3.33    1.53
   2   4   1    5.74    1.98
   2   4   1    3.98    1.41
   2   4   1    6.66    1.76
   2   4   1    4.51    1.43
  -2  -4  -1    2.44    1.88
  -2  -4  -2   11.09    2.30
  -2  -4  -2   12.77    2.40
   2   4   2   13.46    2.24
   2   4   2   14.05    2.20
   2   4   2   14.54    2.11
   2   4   2   13.94    2.15
  -2  -4  -2   13.15    2.54
  -2  -4  -3    0.18    1.35
   2   4   3    2.88    1.47
  -2  -4  -3    2.06    1.64
   2   4   3    1.62    1.38
  -2  -4  -3    4.33    1.99
   2   4   3    3.13    1.71
   2   4   4   76.99    5.03
  -2  -4  -4   73.35    5.32
  -2  -4  -4   86.39    4.85
  -2  -4  -4   65.44    5.36
   2   4   4   73.86    5.30
  -2  -4  -4   60.89    4.95
   2   4   5   70.81    5.07
  -2  -4  -5   70.46    5.58
  -2  -4  -5   58.15    5.31
  -2  -4  -5   74.97    4.74
   2   4   5   67.49    5.38
  -2  -4  -6   34.99    3.69
   2   4   6   32.69    3.81
  -2  -4  -6   36.57    4.19
  -2  -4  -6   28.11    3.24
   2   4   6   30.23    4.02
  -2  -4  -7    1.67    1.56
   2   4   7    2.98    1.67
   2   4   7   -1.12    1.78
  -2  -4  -7    0.59    1.47
  -2  -4  -7   -1.85    1.76
   2   4   8   -0.36    1.27
  -2  -4  -8    1.89    2.03
  -2  -4  -8   -2.65    2.10
   2   4   8   -0.11    1.66
   2   4   9    0.15    1.64
  -2  -4  -9    1.47    1.98
  -2  -4  -9   -2.13    2.07
   2   4   9    3.57    2.14
  -2  -4  -9    5.23    2.88
   2   4  10    4.25    2.31
  -2  -4 -10    5.28    2.81
  -2  -4 -10    7.06    2.91
  -2  -4 -10    8.16    2.87
  -2  -4 -11    4.23    2.48
  -2  -5  15   14.00    3.73
  -2  -5  15   14.49    3.25
   2   5 -15   12.56    2.82
   2   5 -15    7.40    2.63
  -2  -5  15   15.94    3.82
   2   5 -14   43.56    5.27
  -2  -5  14   37.23    4.70
   2   5 -14   42.37    4.54
  -2  -5  14   39.20    5.08
  -2  -5  14   41.53    5.30
   2   5 -13   14.69    3.59
  -2  -5  13   18.72    3.60
   2   5 -13   16.09    3.00
  -2  -5  13   16.60    3.51
   2   5 -12  104.64    7.39
   2   5 -12  111.45    6.69
  -2  -5  12  111.87    7.68
   2   5 -12  111.46    6.21
  -2  -5  12  108.19    7.62
   2   5 -11   56.52    5.35
  -2  -5  11   52.51    5.21
  -2  -5  11   55.01    5.24
   2   5 -11   54.77    4.60
   2   5 -11   55.03    4.39
  -2  -5  11   61.03    5.58
  -2  -5  10   25.05    2.06
  -2  -5  10   20.25    3.36
  -2  -5  10   20.65    3.34
   2   5 -10   20.84    2.65
   2   5 -10   19.91    2.86
  -2  -5  10   21.20    3.28
  -2  -5   9   -2.87    2.67
  -2  -5   9    1.51    0.76
   2   5  -9    4.02    1.69
  -2  -5   9    3.74    2.20
  -2  -5   9    3.82    1.82
   2   5  -9    1.75    1.18
  -2  -5   9    2.80    1.76
  -2  -5   8   63.73    3.13
   2   5  -8   70.46    4.77
   2   5  -8   62.39    4.44
  -2  -5   8   61.14    4.93
   2   5  -8   59.22    4.85
  -2  -5   8   59.64    4.73
  -2  -5   8   61.41    4.90
  -2  -5   7   27.04    3.38
  -2  -5   7   21.10    3.13
   2   5  -7   23.07    2.84
   2   5  -7   22.38    2.76
  -2  -5   7   24.51    1.41
   2   5  -7   21.14    2.92
  -2  -5   7   21.29    2.80
   2   5  -6   57.84    4.61
   2   5  -6   58.20    4.56
   2   5  -6   61.25    4.45
   2   5  -6   61.04    4.29
  -2  -5   6   63.92    2.72
  -2  -5   6   56.54    4.56
  -2  -5   6   56.79    4.43
  -2  -5   6   58.61    4.55
  -2  -5   5   -0.82    1.57
  -2  -5   5    2.62    1.06
  -2  -5   5    1.46    1.92
   2   5  -5    1.76    1.66
   2   5  -5    3.10    1.46
  -2  -5   5    1.02    1.48
   2   5  -5    2.49    1.51
   2   5  -5    1.48    1.53
   2   5  -4   21.35    2.87
   2   5  -4   22.39    1.25
  -2  -5   4   18.52    1.15
  -2  -5   4   29.13    3.57
  -2  -5   4   23.48    2.93
   2   5  -4   22.77    2.92
   2   5  -4   21.07    1.20
   2   5  -4   21.35    2.78
  -2  -5   4   19.96    2.68
  -2  -5   3   17.84    2.78
   2   5  -3   20.16    2.66
  -2  -5   3   19.70    1.51
   2   5  -3   16.28    2.37
   2   5  -3   21.57    2.82
  -2  -5   3   19.53    2.79
   2   5  -2  134.68    6.24
   2   5  -2  131.51    6.55
  -2  -5   2  128.62    4.25
   2   5  -2  132.85    6.58
  -2  -5   2  129.06    6.49
  -2  -5   2  125.34    6.24
  -2  -5   1    4.34    1.64
   2   5  -1    4.11    1.53
   2   5  -1    5.92    1.94
   2   5  -1    5.35    1.81
  -2  -5   1    4.40    1.76
   2   5   0  307.53   10.15
   2   5   0  302.51    9.48
   2   5   0  293.85    9.97
  -2  -5   0  291.11    9.69
  -2  -5   0  283.49    9.87
  -2  -5  -1   77.48    5.03
   2   5   1   76.96    4.91
   2   5   1   76.95    4.63
   2   5   1   77.95    5.38
  -2  -5  -1   68.00    5.23
  -2  -5  -1   77.57    5.33
   2   5   1   76.17    5.17
  -2  -5  -2    4.75    1.95
   2   5   2    6.96    2.23
   2   5   2    3.28    1.59
   2   5   2    5.01    1.53
  -2  -5  -2    4.06    1.68
   2   5   2    1.71    1.22
  -2  -5  -2    3.77    2.02
  -2  -5  -3   -0.12    1.30
   2   5   3    2.98    1.22
   2   5   3    2.66    1.97
  -2  -5  -3    3.76    1.68
   2   5   3    0.59    1.25
   2   5   3    2.08    1.53
  -2  -5  -3    1.55    1.89
  -2  -5  -4    0.18    1.61
  -2  -5  -4   -0.91    1.72
   2   5   4    1.62    1.15
   2   5   4    2.07    1.70
  -2  -5  -4    3.50    1.92
  -2  -5  -4    2.88    1.69
  -2  -5  -5   -0.56    1.76
  -2  -5  -5    1.54    1.71
   2   5   5   -0.27    1.20
  -2  -5  -5    0.67    1.76
  -2  -5  -5    0.49    1.42
   2   5   5    1.58    1.59
   2   5   5   -3.13    1.79
   2   5   6    0.16    1.55
  -2  -5  -6    1.43    1.75
   2   5   6   -0.15    1.15
  -2  -5  -6   -1.00    1.43
   2   5   7   11.36    2.98
  -2  -5  -7   10.90    2.56
   2   5   7   16.33    3.13
  -2  -5  -7   13.47    3.02
   2   5   8   16.18    3.24
  -2  -5  -8   15.05    3.40
   2   5   8   13.62    3.28
   2   5   9   54.08    5.65
  -2  -5  -9   56.36    6.15
   2   5  10   25.50    4.20
  -2  -6  15    7.84    2.54
  -2  -6  15   20.09    4.03
   2   6 -15   10.72    3.38
  -2  -6  15   13.44    3.84
   2   6 -14   11.03    3.15
   2   6 -14    5.07    1.87
  -2  -6  14    6.79    2.40
  -2  -6  14    7.72    2.79
  -2  -6  14    7.80    2.96
   2   6 -13   89.01    7.33
  -2  -6  13   79.84    7.19
   2   6 -13   87.00    6.32
  -2  -6  13   79.49    7.15
  -2  -6  13   82.09    6.99
   2   6 -12   78.77    6.70
   2   6 -12   82.25    5.66
   2   6 -12   79.90    5.79
  -2  -6  12   75.02    6.60
  -2  -6  12   77.23    6.85
  -2  -6  12   78.45    6.58
  -2  -6  12   78.54    6.36
   2   6 -11  154.97    8.88
  -2  -6  11  164.02    9.14
   2   6 -11  156.03    7.63
   2   6 -11  161.52    7.93
  -2  -6  11  162.44    8.58
  -2  -6  11  153.38    8.89
  -2  -6  11  155.02    8.85
   2   6 -10   74.47    6.00
   2   6 -10   74.18    5.35
   2   6 -10   75.23    5.34
  -2  -6  10   70.81    6.10
  -2  -6  10   81.71    6.21
  -2  -6  10   80.62    5.97
  -2  -6   9    0.77    1.82
   2   6  -9   -0.78    1.43
  -2  -6   9    0.13    2.15
   2   6  -9    0.71    1.52
   2   6  -9   -0.57    1.45
   2   6  -9    0.11    1.11
  -2  -6   9    2.12    1.64
  -2  -6   8   -2.37    2.05
   2   6  -8   -0.30    1.40
  -2  -6   8    2.03    1.92
  -2  -6   8    0.55    1.63
   2   6  -8    1.75    1.56
   2   6  -8   -0.57    1.27
  -2  -6   7   -0.06    1.53
   2   6  -7    2.31    2.03
   2   6  -7    0.70    1.28
  -2  -6   7   -0.02    1.91
   2   6  -7   -0.89    1.31
   2   6  -7    1.10    1.53
  -2  -6   7    0.67    1.56
  -2  -6   6    7.39    2.20
   2   6  -6    6.08    2.03
  -2  -6   6    3.52    2.61
   2   6  -6    5.19    1.89
   2   6  -6    3.77    1.75
  -2  -6   6    6.18    1.94
  -2  -6   5   22.85    3.77
   2   6  -5   15.15    2.66
   2   6  -5   16.66    2.57
  -2  -6   5   16.48    2.85
  -2  -6   5   14.35    2.54
   2   6  -5   12.60    2.58
  -2  -6   4   15.97    2.92
   2   6  -4   14.95    2.62
   2   6  -4   13.05    2.39
   2   6  -4   11.86    2.21
  -2  -6   4   14.80    2.59
  -2  -6   3    2.49    1.81
   2   6  -3   -1.30    1.57
  -2  -6   3    0.61    1.45
   2   6  -3    1.47    1.38
   2   6  -3    3.80    1.82
   2   6  -2 1087.35   19.61
   2   6  -2 1117.89   20.60
  -2  -6   2 1071.37   19.70
  -2  -6   2 1101.94   19.55
   2   6  -2 1128.97   20.78
  -2  -6   1    8.22    2.35
   2   6  -1    9.33    2.37
  -2  -6   1    7.10    2.12
   2   6  -1    8.33    2.09
   2   6  -1   15.43    2.89
   2   6   0  143.98    7.25
   2   6   0  148.53    7.79
  -2  -6   0  144.81    6.96
   2   6   0  150.43    7.81
  -2  -6   0  138.32    7.56
  -2  -6   0  138.43    7.26
  -2  -6  -1    8.58    2.38
   2   6   1    9.52    2.37
  -2  -6  -1    8.32    1.98
   2   6   1    9.14    2.33
  -2  -6  -1    8.98    2.55
  -2  -6  -2    0.06    1.63
  -2  -6  -2   -0.55    1.40
   2   6   2    1.05    1.52
   2   6   2    0.61    1.41
  -2  -6  -2    2.39    2.09
  -2  -6  -3    2.52    1.75
   2   6   3    2.49    1.68
   2   6   3    0.79    1.64
   2   6   3   -0.27    1.50
  -2  -6  -3    3.53    2.13
  -2  -6  -3    0.60    1.63
  -2  -6  -4   -2.09    1.98
   2   6   4    3.03    2.03
  -2  -6  -4    2.26    1.78
   2   6   4   -0.37    1.42
  -2  -6  -4    0.70    1.43
   2   6   4    0.74    1.36
   2   6   5    4.29    2.14
  -2  -6  -5    1.63    1.62
   2   6   5    0.07    1.28
  -2  -6  -5   -1.90    1.78
   2   6   5    3.26    1.62
   2   6   6    1.52    1.78
  -2  -6  -6    2.24    1.96
   2   6   6    4.19    1.72
   2   6   6    6.86    2.39
  -2  -6  -6    6.18    2.23
  -2  -6  -7   37.25    4.76
  -2  -6  -7   42.22    5.10
   2   6   7   47.48    5.58
   2   6   8   34.70    4.80
  -2  -7  15    0.26    1.38
  -2  -7  15    4.38    2.42
  -2  -7  14    7.44    2.74
   2   7 -14    8.31    3.21
  -2  -7  14    5.82    2.53
  -2  -7  14    4.60    2.74
   2   7 -13   67.14    6.62
  -2  -7  13   55.52    6.10
  -2  -7  13   66.84    6.38
  -2  -7  13   68.61    6.64
   2   7 -12   89.64    7.31
  -2  -7  12   82.76    7.10
   2   7 -12   92.41    6.39
   2   7 -12   94.98    6.41
  -2  -7  12   93.99    7.10
  -2  -7  12   95.77    7.57
  -2  -7  11   16.06    3.38
   2   7 -11   17.13    3.47
   2   7 -11   16.35    2.83
   2   7 -11   19.03    3.10
  -2  -7  11   16.45    3.45
  -2  -7  11   10.27    2.52
   2   7 -10    2.50    2.02
   2   7 -10    1.04    1.50
  -2  -7  10    0.06    1.98
   2   7 -10    0.53    1.49
  -2  -7  10    0.20    2.36
  -2  -7  10    2.74    2.10
   2   7  -9   32.27    4.05
  -2  -7   9   22.00    3.55
  -2  -7   9   17.29    3.29
   2   7  -9   24.50    3.36
   2   7  -9   25.84    3.46
   2   7  -9   22.15    3.58
  -2  -7   9   23.48    3.54
  -2  -7   8    7.66    2.38
   2   7  -8    6.32    2.15
   2   7  -8    3.19    1.69
  -2  -7   8    8.21    2.70
   2   7  -8    9.32    2.25
  -2  -7   8    6.63    2.12
  -2  -7   7   14.34    2.95
   2   7  -7    9.26    2.33
   2   7  -7   10.20    2.56
   2   7  -7   11.16    2.48
  -2  -7   7   11.22    3.11
   2   7  -7   10.95    2.82
  -2  -7   7   12.43    2.64
   2   7  -6   13.21    2.43
  -2  -7   6   19.11    3.70
   2   7  -6   14.81    2.71
   2   7  -6   11.24    2.58
   2   7  -6   14.81    3.12
  -2  -7   6   16.38    2.92
  -2  -7   6   13.72    2.59
   2   7  -5   47.85    3.96
   2   7  -5   37.03    4.19
   2   7  -5   43.87    4.68
   2   7  -5   45.38    4.56
  -2  -7   5   43.73    4.39
  -2  -7   5   45.91    4.60
   2   7  -4   27.30    2.97
  -2  -7   4   21.68    3.18
   2   7  -4   25.63    3.60
   2   7  -4   21.68    3.31
   2   7  -4   24.39    3.65
  -2  -7   4   25.42    3.37
  -2  -7   3    9.07    2.45
   2   7  -3    6.49    1.41
   2   7  -3    4.82    2.12
   2   7  -3    3.65    1.53
   2   7  -3    8.74    2.24
  -2  -7   3    7.36    2.22
   2   7  -2   11.15    2.61
   2   7  -2   14.79    2.83
   2   7  -2   12.60    2.74
  -2  -7   2   12.51    2.75
  -2  -7   2   14.30    2.78
  -2  -7   1    6.84    2.23
   2   7  -1   15.10    2.84
  -2  -7   1   13.19    2.41
   2   7  -1    7.91    2.25
   2   7  -1   16.02    3.05
  -2  -7   1   11.79    2.83
  -2  -7   0    1.64    1.39
  -2  -7   0    3.08    2.13
   2   7   0   -1.32    1.60
   2   7   0    0.41    1.49
  -2  -7   0    1.04    1.89
  -2  -7  -1    0.88    1.70
   2   7   1   -1.67    1.40
   2   7   1    1.58    1.84
  -2  -7  -1    0.85    1.50
  -2  -7  -1    1.56    1.91
  -2  -7  -2   -0.53    1.52
  -2  -7  -2    1.05    1.52
   2   7   2    4.91    2.06
   2   7   2    1.87    1.99
  -2  -7  -2    1.42    1.80
   2   7   3   60.18    5.55
  -2  -7  -3   56.12    5.45
  -2  -7  -3   59.18    5.94
  -2  -7  -3   50.67    5.04
  -2  -7  -3   54.15    5.89
   2   7   3   58.39    5.60
  -2  -7  -4   24.23    3.78
  -2  -7  -4   21.76    3.89
  -2  -7  -4   18.33    4.11
   2   7   4   33.87    4.68
   2   7   4   25.28    3.85
  -2  -7  -5   -0.16    1.63
   2   7   5    1.38    1.87
  -2  -7  -5    1.34    1.94
   2   7   5    0.40    1.65
  -2  -7  -6    0.99    2.21
   2   7   6   -2.71    1.98
  -2  -7  -6    0.24    1.70
  -2  -8  14    6.34    2.82
  -2  -8  13    0.89    1.91
   2   8 -13    6.72    2.49
  -2  -8  13    2.71    2.27
  -2  -8  12    0.77    1.90
   2   8 -12    3.78    2.51
   2   8 -12    1.14    1.56
  -2  -8  12    0.86    2.53
  -2  -8  12   -0.46    1.76
  -2  -8  11    3.87    2.26
   2   8 -11   -1.37    1.73
  -2  -8  11   -0.46    1.91
   2   8 -11    0.88    1.53
   2   8 -11   -0.90    1.71
  -2  -8  11    1.07    1.78
  -2  -8  10    5.47    2.52
   2   8 -10    7.02    2.49
   2   8 -10    7.10    2.11
  -2  -8  10    6.42    2.50
  -2  -8  10    5.05    2.51
  -2  -8   9    5.04    2.49
   2   8  -9    6.59    2.12
  -2  -8   9    9.59    3.13
   2   8  -9    6.16    2.54
   2   8  -9   10.97    2.98
  -2  -8   9    2.73    1.67
   2   8  -8   85.80    6.31
   2   8  -8   91.11    7.31
  -2  -8   8   92.16    7.29
   2   8  -8   88.44    7.11
  -2  -8   8   92.83    6.75
  -2  -8   8   89.96    6.80
   2   8  -8   89.39    6.72
  -2  -8   7   28.36    4.50
   2   8  -7   21.54    3.46
  -2  -8   7   19.25    3.30
   2   8  -7   23.71    3.93
   2   8  -7   19.32    3.62
  -2  -8   7   19.07    3.17
   2   8  -7   20.98    3.21
  -2  -8   6    2.26    1.99
   2   8  -6    0.66    1.74
   2   8  -6    0.07    1.38
  -2  -8   6    0.12    1.47
   2   8  -6    2.93    1.62
   2   8  -6   -1.96    2.03
   2   8  -5    0.75    1.82
  -2  -8   5    0.46    1.71
   2   8  -5    1.34    1.65
   2   8  -5    2.89    1.93
  -2  -8   5    2.63    1.90
   2   8  -4   -0.34    1.76
   2   8  -4    4.34    2.06
  -2  -8   4    3.14    2.19
   2   8  -4    1.82    1.97
  -2  -8   4    0.76    1.47
  -2  -8   3   17.36    3.24
   2   8  -3   14.15    2.93
   2   8  -3   10.97    2.53
   2   8  -3   13.28    3.09
  -2  -8   3   11.31    2.76
  -2  -8   2    2.04    1.68
   2   8  -2    9.66    2.67
   2   8  -2    6.98    2.49
  -2  -8   2    3.25    1.78
   2   8  -1    3.26    1.83
  -2  -8   1    9.01    2.83
   2   8  -1    3.15    1.90
  -2  -8   1    5.23    2.30
  -2  -8   0    1.39    1.76
  -2  -8   0    0.39    1.63
   2   8   0   -2.75    2.16
   2   8   0    2.02    1.94
   2   8   1   81.21    6.69
  -2  -8  -1   75.93    6.40
   2   8   1   79.00    6.74
  -2  -8  -1   66.69    6.39
   2   8   2   -0.76    1.64
  -2  -8  -2   -1.82    1.93
  -2  -8  -2    3.69    2.49
   2   8   2   -0.68    1.71
  -2  -8  -2    2.53    2.39
  -2  -8  -3   21.20    4.11
   2   8   3   20.31    3.83
  -2  -8  -3   11.94    3.03
  -2  -8  -3   15.34    3.74
   2   8   3   21.96    3.99
   2   8   4   -0.17    1.69
   2   9 -12   -1.97    1.70
  -2  -9  12   -0.14    1.90
   2   9 -12    1.40    1.73
  -2  -9  11    0.47    2.03
   2   9 -11   -2.05    1.62
   2   9 -11   -1.63    1.89
  -2  -9  11   -0.13    1.94
   2   9 -10   17.79    3.50
  -2  -9  10   19.02    4.04
  -2  -9  10   26.92    4.54
   2   9 -10   17.69    3.33
  -2  -9  10   21.89    3.79
  -2  -9   9    4.05    2.59
   2   9  -9    4.70    2.38
   2   9  -9    3.28    1.95
   2   9  -9   -0.69    1.90
  -2  -9   9    4.70    2.13
  -2  -9   8    6.51    2.54
   2   9  -8    1.01    1.63
  -2  -9   8    4.82    3.20
   2   9  -8    0.34    1.80
   2   9  -8    1.43    2.22
  -2  -9   8    0.79    1.50
  -2  -9   7    2.00    2.01
   2   9  -7    1.41    2.21
   2   9  -7   -0.64    1.62
   2   9  -7   -1.42    1.65
  -2  -9   7    1.52    1.89
  -2  -9   6   -0.22    1.61
   2   9  -6    3.36    2.06
   2   9  -6   -0.12    1.59
  -2  -9   6   -0.09    1.75
   2   9  -6    1.40    1.86
   2   9  -5   25.29    4.09
  -2  -9   5   28.64    4.10
   2   9  -5   32.61    4.68
   2   9  -5   28.33    4.37
  -2  -9   5   30.26    4.33
  -2  -9   4   22.97    3.81
   2   9  -4   21.49    3.80
   2   9  -4   24.76    4.19
  -2  -9   4   17.17    3.57
  -2  -9   3   11.22    3.03
   2   9  -3   12.75    3.12
   2   9  -3   16.16    3.45
  -2  -9   3   13.77    3.21
  -2  -9   2    0.85    1.96
   2   9  -2   -0.55    1.76
   2   9  -2    0.97    1.61
  -2  -9   2    2.01    2.22
  -2  -9   1    3.03    2.10
   2   9  -1   -1.22    1.91
  -2  -9   1    0.07    1.59
   2   9  -1    0.85    1.76
  -2  -9   0    1.11    1.81
   2   9   0    1.48    2.01
   2   9   0    1.61    1.90
  -2  -9   0    0.37    1.89
   2   9   1    2.39    2.05
  -2  -9  -1   -0.39    2.15
  -2 -10  10    4.96    2.36
  -2 -10   9   12.66    3.28
  -2 -10   8    1.13    2.13
  -2 -10   8    0.61    1.75
  -2 -10   7    9.53    3.03
  -2 -10   7   11.25    3.06
  -2 -10   6   13.04    3.13
  -2 -10   6    9.55    3.02
  -2 -10   5   54.29    5.99
  -2 -10   5   46.37    5.57
  -2 -10   4    5.74    2.64
  -2 -10   4    6.51    2.71
   3 -11   6   77.49    7.12
   3 -11   7   13.08    3.42
  -3  10   2    0.23    1.56
   3 -10  -2   -1.85    2.34
  -3  10   1   15.65    3.35
   3 -10  -1   16.43    3.52
   3 -10   0   -0.06    2.31
  -3  10   0   -0.98    2.43
   3 -10   1    5.53    2.85
  -3  10  -1    1.24    1.91
   3 -10   1    6.53    2.72
   3 -10   2   -1.70    1.89
  -3  10  -2   -1.08    2.02
   3 -10   2   -0.62    2.09
   3 -10   3   -1.35    2.28
   3 -10   3    0.78    1.89
  -3  10  -3    0.35    1.91
   3 -10   4    2.54    2.12
   3 -10   4    1.47    2.08
  -3  10  -4   -0.32    1.62
   3 -10   5    1.05    1.63
  -3  10  -5    2.10    1.97
   3 -10   5   -0.40    2.20
   3 -10   6    1.49    2.08
   3 -10   6    4.70    2.23
  -3  10  -6    3.16    1.97
   3 -10   7    5.11    2.35
  -3  10  -7    8.41    2.90
   3 -10   7    7.27    2.38
   3 -10   8    1.42    2.26
   3 -10   8   -0.38    1.89
   3 -10   8   -2.10    1.80
   3 -10   8    4.67    2.32
   3 -10   8    2.51    2.29
  -3  10  -8    1.62    2.29
   3 -10   9   -1.37    1.94
   3 -10   9    2.44    2.01
   3 -10   9    1.60    1.82
  -3  10  -9    2.01    1.90
   3 -10  10   21.67    4.16
  -3  10 -10   18.69    3.93
   3 -10  10   19.45    4.00
   3 -10  10   26.45    4.24
   3 -10  11    1.52    2.26
   3 -10  11    4.54    2.57
   3 -10  11    3.47    2.20
  -3   9   5    0.05    1.75
  -3   9   4    3.74    2.16
   3  -9  -4    6.20    2.34
  -3   9   4    1.58    1.74
   3  -9  -3   -0.63    1.92
  -3   9   3    2.03    1.91
  -3   9   3    3.70    2.12
   3  -9  -3    0.02    2.55
  -3   9   3    2.48    1.76
  -3   9   2    3.36    2.62
   3  -9  -2    4.01    2.27
   3  -9  -2    0.42    2.19
  -3   9   2    6.59    2.32
  -3   9   2    7.33    2.40
   3  -9  -1   14.31    3.18
  -3   9   1   17.61    3.34
  -3   9   1   17.68    3.64
   3  -9  -1   13.38    3.32
   3  -9   0   10.64    2.97
  -3   9   0    4.57    2.29
  -3   9   0   11.18    2.63
   3  -9   0    6.76    2.81
   3  -9   1    4.22    2.08
  -3   9  -1    2.34    1.63
   3  -9   1    2.04    1.86
  -3   9  -1    3.50    2.01
  -3   9  -1    0.82    1.20
   3  -9   2   15.41    3.29
  -3   9  -2   15.04    2.65
   3  -9   2   19.04    3.72
  -3   9  -2   15.98    3.25
  -3   9  -3    0.93    1.90
   3  -9   3   -3.74    2.27
  -3   9  -3    1.89    1.48
   3  -9   3    1.23    1.91
   3  -9   4   21.93    3.52
   3  -9   4   23.05    3.97
  -3   9  -4   21.71    3.77
   3  -9   5   -0.81    1.71
   3  -9   5    0.43    1.80
  -3   9  -5    1.30    1.51
   3  -9   5   -1.13    1.37
   3  -9   5    1.25    1.68
   3  -9   6   -3.71    2.27
   3  -9   6   -0.68    1.63
  -3   9  -6   -0.16    1.60
   3  -9   6    2.00    1.75
   3  -9   6    1.21    1.72
   3  -9   7    4.54    2.37
  -3   9  -7   -0.70    1.72
   3  -9   7    1.02    1.56
   3  -9   7   -0.08    1.40
  -3   9  -7    2.23    2.30
   3  -9   7   -1.81    1.49
   3  -9   8   36.76    4.70
   3  -9   8   39.67    4.20
  -3   9  -8   39.27    4.79
   3  -9   8   39.66    4.40
   3  -9   8   36.82    4.12
   3  -9   8   42.22    4.59
  -3   9  -8   45.79    5.37
   3  -9   9   48.13    5.38
   3  -9   9   42.39    4.86
   3  -9   9   44.94    4.55
   3  -9   9   43.78    4.36
  -3   9  -9   37.81    4.69
   3  -9   9   41.69    4.82
  -3   9  -9   45.97    5.36
   3  -9  10   13.00    2.99
  -3   9 -10   13.24    3.22
   3  -9  10   16.50    3.33
  -3   9 -10   20.81    3.97
   3  -9  10   14.12    3.02
   3  -9  11    1.12    1.74
  -3   9 -11    3.09    2.20
   3  -9  11   -0.71    1.58
   3  -9  11   -0.52    1.75
  -3   9 -12    6.42    2.66
   3  -9  12   11.41    3.06
   3  -9  12    7.03    2.67
   3  -9  12    0.94    1.76
  -3   9 -13    9.67    2.84
  -3   8   6    1.55    1.96
   3  -8  -6    1.48    2.45
  -3   8   6    3.90    2.26
   3  -8  -5    1.38    1.99
   3  -8  -5    0.76    2.26
  -3   8   5   -0.34    1.68
  -3   8   5    2.79    2.42
   3  -8  -4    3.27    2.14
  -3   8   4   -0.94    1.53
   3  -8  -4    4.20    2.44
  -3   8   4    2.25    1.78
   3  -8  -3   17.26    3.15
  -3   8   3   16.48    3.54
   3  -8  -3   19.42    3.60
  -3   8   3   18.18    3.07
   3  -8  -2    4.73    2.06
  -3   8   2    4.02    1.84
  -3   8   2    4.24    2.24
   3  -8  -2    5.33    2.47
  -3   8   2    2.59    1.64
   3  -8  -1    1.34    1.73
  -3   8   1    2.36    1.67
   3  -8  -1    5.04    2.48
  -3   8   1    3.98    2.44
  -3   8   1    4.95    1.71
  -3   8   1    3.86    1.46
   3  -8   0    4.05    2.21
  -3   8   0    6.64    2.07
   3  -8   0    5.98    2.55
  -3   8   0    7.16    1.89
  -3   8   0    7.37    2.45
  -3   8   0    6.63    1.68
  -3   8  -1    6.60    2.15
   3  -8   1    7.64    2.32
  -3   8  -1    4.00    1.67
   3  -8   1    4.84    2.10
  -3   8  -1    4.59    1.48
  -3   8  -1    6.09    1.71
   3  -8   2    1.56    1.85
  -3   8  -2    1.10    1.16
   3  -8   2    2.76    2.10
  -3   8  -2    3.16    1.80
   3  -8   3   -2.22    1.95
  -3   8  -3   -1.12    1.71
  -3   8  -3    0.39    1.10
   3  -8   3    0.64    1.78
  -3   8  -3    3.43    2.17
   3  -8   3   -1.34    1.41
   3  -8   3    3.01    1.51
   3  -8   4    8.25    2.38
  -3   8  -4    6.96    2.42
  -3   8  -4    8.14    1.81
   3  -8   4    7.55    2.22
   3  -8   4    7.74    1.88
  -3   8  -4    5.97    2.25
   3  -8   4    8.05    1.92
   3  -8   5    2.86    1.90
  -3   8  -5   -0.32    1.73
  -3   8  -5    0.34    1.09
   3  -8   5    1.22    1.37
   3  -8   5    0.36    1.26
  -3   8  -5   -0.11    1.49
   3  -8   5    0.68    1.24
   3  -8   6    6.57    1.82
   3  -8   6    5.29    2.34
  -3   8  -6    7.04    2.63
  -3   8  -6    3.64    1.33
  -3   8  -6    4.24    1.88
   3  -8   6    3.81    1.69
   3  -8   6    3.11    1.61
   3  -8   6    4.94    1.73
   3  -8   7   20.45    2.65
   3  -8   7   22.49    3.55
  -3   8  -7   19.69    3.26
  -3   8  -7   21.17    3.68
   3  -8   7   23.18    3.09
   3  -8   7   21.48    3.32
   3  -8   7   18.66    2.91
   3  -8   7   18.34    3.16
   3  -8   8   11.35    2.47
  -3   8  -8   17.33    3.42
   3  -8   8   18.09    2.81
   3  -8   8   12.20    2.91
   3  -8   8   13.00    2.33
   3  -8   8   12.99    2.43
  -3   8  -8   13.45    2.77
   3  -8   8   18.77    3.12
   3  -8   8   15.36    2.53
   3  -8   9    3.52    2.02
  -3   8  -9    2.33    2.12
   3  -8   9    1.97    1.58
  -3   8  -9    1.47    1.62
   3  -8   9    3.54    1.63
   3  -8   9    1.28    1.53
   3  -8   9    2.60    1.71
   3  -8  10   -0.20    1.35
  -3   8 -10    2.56    1.96
   3  -8  10   -0.14    1.43
   3  -8  10    2.95    1.65
   3  -8  10    0.98    1.67
   3  -8  10   -2.16    2.08
   3  -8  11    2.36    1.74
  -3   8 -11    2.06    2.04
   3  -8  11   -2.08    1.65
   3  -8  11   -1.76    2.12
  -3   8 -12    5.74    2.56
  -3   8 -13    7.69    3.08
  -3   8 -14    8.51    2.62
   3  -7  -9    0.99    1.93
   3  -7  -8    7.12    2.79
  -3   7   8    5.40    2.68
   3  -7  -7   -0.12    2.09
  -3   7   7   -0.02    1.48
  -3   7   7    0.81    1.90
  -3   7   6   -1.02    1.64
   3  -7  -6   -0.51    1.95
  -3   7   6    1.38    2.00
  -3   7   5   13.90    3.09
   3  -7  -5   14.26    3.10
  -3   7   5   16.44    3.14
   3  -7  -5   16.69    3.05
   3  -7  -4   93.74    6.34
   3  -7  -4   90.81    6.90
  -3   7   4   90.00    6.40
  -3   7   4   89.12    6.74
  -3   7   3    2.32    1.95
   3  -7  -3    0.89    1.84
   3  -7  -3    2.75    1.73
  -3   7   3   -0.09    1.21
   3  -7  -2    4.07    1.97
  -3   7   2    5.84    2.21
   3  -7  -2    7.78    2.55
  -3   7   2    4.02    1.56
  -3   7   2    7.45    1.60
   3  -7  -1    0.58    1.47
  -3   7   1    0.80    1.34
   3  -7  -1    3.50    2.05
  -3   7   1    0.96    1.12
  -3   7   1    0.24    0.96
  -3   7   1    1.89    1.51
   3  -7   0    2.48    2.00
  -3   7   0    0.58    1.29
   3  -7   0    0.78    1.65
  -3   7   0    0.93    1.19
  -3   7   0    0.26    1.34
  -3   7   0    1.12    1.02
   3  -7   1   -0.95    1.82
  -3   7  -1    3.58    1.86
  -3   7  -1    0.00    1.08
   3  -7   1   -2.27    1.50
   3  -7   1   -0.95    1.10
  -3   7  -1    2.18    1.63
  -3   7  -1    1.03    1.07
  -3   7  -1    2.70    1.28
   3  -7   2   61.24    5.08
   3  -7   2   64.69    5.07
  -3   7  -2   70.12    3.75
   3  -7   2   71.64    2.97
  -3   7  -2   62.97    4.54
   3  -7   2   74.86    3.92
  -3   7  -2   65.35    5.14
   3  -7   2   71.54    3.86
  -3   7  -2   68.23    5.23
   3  -7   2   69.43    3.12
   3  -7   3   -0.43    2.07
   3  -7   3    3.10    1.03
  -3   7  -3    3.20    1.91
  -3   7  -3    1.37    1.12
  -3   7  -3    2.84    2.03
   3  -7   3   -0.82    1.68
  -3   7  -3    1.39    0.80
   3  -7   3    1.59    1.20
   3  -7   3    1.51    1.13
   3  -7   3    2.25    0.78
   3  -7   4    6.39    1.38
   3  -7   4    6.25    2.11
  -3   7  -4    8.23    1.85
  -3   7  -4    7.50    2.47
   3  -7   4    5.10    1.75
   3  -7   4    4.43    1.38
  -3   7  -4    5.43    1.97
   3  -7   4    7.91    1.07
   3  -7   4    3.34    1.32
   3  -7   5    8.26    2.20
   3  -7   5    7.71    1.86
  -3   7  -5    8.62    1.78
  -3   7  -5    7.77    2.45
   3  -7   5    8.70    1.96
   3  -7   5    7.57    1.50
  -3   7  -5    8.18    2.06
   3  -7   5    8.57    1.97
   3  -7   5    8.68    1.12
   3  -7   6   17.29    2.97
  -3   7  -6   23.39    2.64
  -3   7  -6   21.31    3.01
  -3   7  -6   17.69    2.87
   3  -7   6   18.63    1.78
   3  -7   6   19.21    2.50
   3  -7   6   20.88    2.49
  -3   7  -7   46.70    4.65
   3  -7   7   54.88    4.82
  -3   7  -7   53.19    3.82
   3  -7   7   45.48    3.72
   3  -7   7   41.28    2.91
  -3   7  -7   48.80    4.47
   3  -7   7   46.52    4.14
   3  -7   8    0.43    1.30
  -3   7  -8   -0.09    1.52
   3  -7   8   -0.20    1.09
   3  -7   8   -0.66    0.99
  -3   7  -8    1.98    1.34
   3  -7   8    1.12    1.39
   3  -7   8    0.33    1.49
  -3   7  -8    2.96    1.78
   3  -7   9   -0.14    1.66
  -3   7  -9    0.57    1.72
   3  -7   9   -0.67    1.16
   3  -7   9   -0.32    1.52
   3  -7   9   -3.34    1.84
   3  -7  10    3.43    1.74
  -3   7 -10   10.25    2.72
   3  -7  10    3.31    1.54
   3  -7  10    6.60    2.27
   3  -7  10    3.21    1.84
   3  -7  11   17.62    2.88
   3  -7  11   21.73    3.20
  -3   7 -11   18.80    3.47
   3  -7  11   17.35    2.71
   3  -7  11   20.31    3.40
   3  -7  12   26.25    3.69
   3  -7  12   36.38    4.31
  -3   7 -12   36.43    4.60
   3  -7  13   59.08    5.54
  -3   7 -13   72.09    6.29
   3  -7  13   66.30    5.92
   3  -7  14   -0.07    1.40
   3  -7  14    5.77    2.35
   3  -7  15    4.26    1.83
   3  -6 -10    3.88    2.34
   3  -6 -10    2.18    1.87
  -3   6   9   -0.57    1.75
   3  -6  -9    0.22    1.75
  -3   6   9    4.58    2.27
   3  -6  -9   -0.73    1.53
   3  -6  -9    3.79    2.28
   3  -6  -8    4.40    2.32
  -3   6   8    0.37    1.70
  -3   6   8    1.15    1.86
   3  -6  -8   -0.55    1.92
   3  -6  -8   -0.60    1.37
  -3   6   7   10.90    2.79
   3  -6  -7    9.21    2.51
  -3   6   7   15.09    3.06
   3  -6  -7    9.70    2.32
   3  -6  -6   78.90    5.28
  -3   6   6   74.77    6.26
   3  -6  -6   76.73    6.24
  -3   6   6   72.36    6.05
   3  -6  -6   83.24    5.41
  -3   6   5   23.49    3.58
  -3   6   5   30.50    3.90
   3  -6  -5   33.31    4.18
   3  -6  -5   31.30    3.49
   3  -6  -5   29.24    3.09
   3  -6  -4  113.66    6.33
  -3   6   4  113.26    7.03
  -3   6   4  114.08    6.66
   3  -6  -4  117.80    7.22
   3  -6  -4  121.17    5.52
  -3   6   4  118.55    4.73
  -3   6   3   -1.07    1.39
   3  -6  -3   -0.77    1.58
   3  -6  -3   -1.06    1.46
   3  -6  -3    0.02    0.79
  -3   6   3    1.83    0.86
  -3   6   3   -2.09    1.62
   3  -6  -2    3.78    1.83
  -3   6   2    1.76    1.56
   3  -6  -2    4.03    2.16
  -3   6   2    3.04    1.38
   3  -6  -2    2.97    0.91
  -3   6   2    4.35    1.09
   3  -6  -1   19.10    2.86
  -3   6   1   16.53    2.61
   3  -6  -1   19.35    2.97
   3  -6  -1   16.14    1.42
  -3   6   1   16.64    2.38
  -3   6   1   19.91    2.03
  -3   6   1   18.46    3.02
   3  -6   0   -0.45    1.64
  -3   6   0   -0.31    1.17
  -3   6   0    1.46    1.59
   3  -6   0    0.95    1.75
  -3   6   0   -0.92    1.09
   3  -6   0   -0.28    0.72
  -3   6   0    1.44    1.76
  -3   6   0    0.38    0.68
  -3   6   0   -0.41    0.91
   3  -6   1    0.63    1.63
   3  -6   1    2.29    0.59
  -3   6  -1    2.36    1.73
  -3   6  -1    2.43    1.48
  -3   6  -1   -0.30    1.48
   3  -6   1    2.51    2.00
  -3   6  -1    0.30    0.91
   3  -6   1    2.14    1.00
  -3   6  -1    2.43    0.80
   3  -6   1    2.49    0.98
   3  -6   2    4.43    0.79
   3  -6   2    3.37    1.80
   3  -6   2    4.22    0.91
  -3   6  -2    4.28    1.49
  -3   6  -2    5.24    1.97
   3  -6   2    4.40    1.86
   3  -6   2    3.15    1.00
  -3   6  -2    4.39    1.66
  -3   6  -2    4.75    1.20
   3  -6   2    3.23    0.98
   3  -6   3   24.49    3.20
  -3   6  -3   28.61    2.79
   3  -6   3   31.71    3.19
  -3   6  -3   29.49    2.00
  -3   6  -3   24.81    3.25
  -3   6  -3   30.89    3.29
   3  -6   3   26.16    1.81
   3  -6   3   31.42    1.59
   3  -6   3   27.97    2.07
   3  -6   4   44.81    4.12
  -3   6  -4   49.78    3.62
   3  -6   4   47.74    3.77
  -3   6  -4   48.93    2.17
   3  -6   4   44.98    2.01
   3  -6   4   46.31    2.03
  -3   6  -4   48.43    3.94
   3  -6   4   50.44    2.04
   3  -6   4   53.09    3.07
  -3   6  -4   53.15    4.54
   3  -6   5    8.91    2.13
  -3   6  -5    9.05    1.65
  -3   6  -5    8.10    0.75
  -3   6  -5    8.03    2.30
   3  -6   5    9.72    1.88
   3  -6   5    8.59    1.22
  -3   6  -5    8.62    2.10
   3  -6   5    5.44    0.52
   3  -6   5    9.83    1.13
   3  -6   6    5.31    1.88
  -3   6  -6    6.58    1.94
  -3   6  -6    5.30    1.37
   3  -6   6    5.03    1.50
  -3   6  -6   11.20    2.66
   3  -6   6    7.02    1.27
   3  -6   6    5.96    1.06
   3  -6   6    7.71    2.02
   3  -6   7  205.94    8.32
   3  -6   7  213.93    5.79
   3  -6   7  208.27    6.65
   3  -6   7  220.83    8.53
  -3   6  -7  203.68    8.76
   3  -6   7  191.53    6.53
  -3   6  -7  205.46    8.18
  -3   6  -7  215.59    7.55
  -3   6  -7  200.73    5.00
   3  -6   7  212.86    8.24
   3  -6   8   32.63    3.49
  -3   6  -8   37.36    4.09
   3  -6   8   42.34    2.88
  -3   6  -8   38.74    3.81
   3  -6   8   33.70    3.12
   3  -6   8   41.32    3.97
   3  -6   8   38.88    3.72
  -3   6  -8   36.06    3.97
   3  -6   9   22.28    2.89
  -3   6  -9   24.45    3.45
   3  -6   9   16.90    2.48
  -3   6  -9   21.59    3.44
   3  -6   9   22.50    3.03
   3  -6   9   18.69    2.95
   3  -6  10   24.48    3.28
   3  -6  10   17.00    2.64
   3  -6  10   20.56    2.86
  -3   6 -10   19.80    3.41
   3  -6  10   17.02    2.96
  -3   6 -10   16.76    3.02
   3  -6  11   -0.30    1.37
  -3   6 -11    1.29    1.71
   3  -6  11    0.56    1.30
  -3   6 -11   -1.17    1.89
   3  -6  11    0.18    1.60
   3  -6  11    2.87    1.82
  -3   6 -12    1.86    1.83
   3  -6  12    0.02    1.24
  -3   6 -12    2.80    2.23
   3  -6  12   -0.38    1.40
   3  -6  12    2.85    2.12
  -3   6 -13    2.13    1.79
   3  -6  13    3.75    1.84
  -3   6 -13    4.05    2.11
   3  -6  13    7.08    2.68
   3  -6  14    2.48    2.04
  -3   6 -14    0.32    2.08
   3  -6  14   -1.56    1.79
   3  -6  15   12.13    3.20
   3  -6  15   17.17    3.72
   3  -5 -11    1.05    1.71
   3  -5 -11    0.88    1.83
   3  -5 -11    6.54    3.16
  -3   5  10   10.27    3.37
   3  -5 -10   11.79    2.94
  -3   5  10    7.26    2.86
   3  -5 -10   10.58    2.92
   3  -5 -10   11.69    2.79
  -3   5   9    4.65    2.30
   3  -5  -9    4.29    2.13
  -3   5   9    4.35    2.13
   3  -5  -9    1.02    2.25
   3  -5  -9    1.85    1.72
  -3   5   8    0.61    1.86
  -3   5   8    0.87    1.57
   3  -5  -8    1.12    1.70
   3  -5  -8    0.87    1.58
   3  -5  -8    0.59    1.30
   3  -5  -7    8.29    2.01
  -3   5   7    9.45    2.59
   3  -5  -7    9.20    2.56
  -3   5   7   13.21    2.75
   3  -5  -7    8.94    2.63
   3  -5  -7   10.93    2.35
   3  -5  -6    0.55    1.30
  -3   5   6   -0.27    1.53
  -3   5   6    0.61    1.49
  -3   5   6   -0.12    0.74
   3  -5  -6   -0.11    1.78
   3  -5  -6   -0.25    1.13
   3  -5  -5   18.61    2.80
  -3   5   5   15.24    2.82
  -3   5   5   17.87    1.86
   3  -5  -5   16.82    3.03
  -3   5   5   14.39    2.65
   3  -5  -5   16.84    2.36
  -3   5   5   13.52    1.50
   3  -5  -4  207.36    7.83
  -3   5   4  193.93    8.55
   3  -5  -4  199.54    8.61
  -3   5   4  195.23    8.23
  -3   5   4  201.04    5.08
   3  -5  -4  205.13    6.87
  -3   5   4  204.65    5.29
   3  -5  -3   26.78    3.12
  -3   5   3   27.25    3.28
  -3   5   3   24.77    3.00
   3  -5  -3   28.83    2.43
  -3   5   3   24.97    1.51
   3  -5  -3   26.78    3.30
  -3   5   3   28.69    2.02
  -3   5   3   23.14    1.50
   3  -5  -2   39.83    3.58
  -3   5   2   35.64    3.49
   3  -5  -2   40.85    3.81
  -3   5   2   38.26    3.35
  -3   5   2   38.10    2.37
   3  -5  -2   38.37    2.44
  -3   5   2   40.85    2.39
  -3   5   2   36.67    3.25
   3  -5  -1   -0.80    1.40
  -3   5   1    1.22    1.25
  -3   5   1    0.98    1.43
  -3   5   1    0.58    0.56
   3  -5  -1    0.50    1.55
   3  -5  -1    0.52    0.71
   3  -5  -1   -0.21    0.35
  -3   5   1   -0.22    1.06
  -3   5   1    0.67    0.69
  -3   5   1   -0.07    0.67
   3  -5   0   25.61    2.98
  -3   5   0   29.49    2.96
   3  -5   0   29.18    3.12
  -3   5   0   27.19    2.54
  -3   5   0   27.06    1.29
   3  -5   0   27.51    1.69
   3  -5   0   27.22    1.74
  -3   5   0   28.63    1.79
  -3   5   0   27.91    2.95
  -3   5  -1   -0.11    1.10
   3  -5   1    1.26    1.49
   3  -5   1    0.51    0.35
  -3   5  -1    1.37    1.21
  -3   5  -1   -0.77    1.38
   3  -5   1    0.86    1.55
  -3   5  -1   -0.05    0.76
  -3   5  -1   -0.22    0.39
   3  -5   2    9.38    1.98
  -3   5  -2   10.74    1.89
   3  -5   2    8.59    1.75
  -3   5  -2    9.80    2.09
  -3   5  -2   11.05    1.39
  -3   5  -2   11.05    2.03
   3  -5   2   10.85    1.09
   3  -5   3    1.51    1.72
  -3   5  -3    1.18    1.01
  -3   5  -3    1.08    1.07
   3  -5   3    0.08    0.49
   3  -5   3    1.14    1.27
  -3   5  -3   -0.48    1.46
  -3   5  -3    1.46    0.71
   3  -5   3    0.78    0.39
   3  -5   3    0.25    0.21
   3  -5   4    1.21    1.54
  -3   5  -4    0.66    0.95
   3  -5   4    0.19    0.92
   3  -5   4   -0.16    0.52
  -3   5  -4   -1.37    1.36
  -3   5  -4    0.20    0.51
  -3   5  -4   -0.94    1.47
   3  -5   4    0.34    0.37
   3  -5   5  491.70   11.71
  -3   5  -5  477.52   10.55
   3  -5   5  489.74    9.71
   3  -5   5  484.96    8.74
  -3   5  -5  477.94    6.16
  -3   5  -5  471.86   11.45
  -3   5  -5  473.69   10.76
   3  -5   5  536.38   11.92
  -3   5  -5  481.53    6.38
   3  -5   5  503.26    6.77
  -3   5  -5  462.47   11.88
  -3   5  -6    0.53    0.97
   3  -5   6   -0.43    1.48
   3  -5   6   -0.17    0.87
   3  -5   6    0.26    0.77
  -3   5  -6    0.77    1.43
  -3   5  -6    0.66    0.40
  -3   5  -6   -0.13    1.35
   3  -5   6    2.39    1.87
  -3   5  -6   -0.24    0.61
   3  -5   6   -0.16    1.62
  -3   5  -6   -0.27    1.21
   3  -5   7  293.04    9.06
  -3   5  -7  304.53    8.92
   3  -5   7  310.41    6.68
  -3   5  -7  293.47    8.90
   3  -5   7  287.98    8.36
  -3   5  -7  293.55    9.92
  -3   5  -7  300.05    7.15
   3  -5   7  302.79    9.48
   3  -5   7  287.21    9.73
  -3   5  -7  289.15    9.73
   3  -5   8   54.02    4.00
   3  -5   8   52.25    2.50
   3  -5   8   48.13    3.80
  -3   5  -8   47.79    4.34
  -3   5  -8   49.65    3.32
   3  -5   8   50.19    4.27
   3  -5   8   53.16    4.32
  -3   5  -8   47.54    4.19
   3  -5   9    0.43    1.29
   3  -5   9    5.78    1.94
   3  -5   9    1.73    1.25
  -3   5  -9    2.31    1.52
  -3   5  -9    0.42    1.78
  -3   5  -9    1.39    0.98
   3  -5   9    3.08    1.86
   3  -5  10    2.91    1.49
   3  -5  10    1.04    1.09
  -3   5 -10    4.06    1.64
  -3   5 -10    5.25    2.11
   3  -5  10   -1.02    1.40
  -3   5 -10    2.96    1.27
   3  -5  10   -0.05    1.53
   3  -5  11   -0.17    1.40
  -3   5 -11    0.31    1.47
  -3   5 -11    2.81    1.71
   3  -5  11    5.32    1.85
  -3   5 -11    1.03    1.30
   3  -5  11    0.91    1.53
   3  -5  12    1.68    1.74
  -3   5 -12    1.56    1.54
  -3   5 -12    2.51    2.05
   3  -5  12    1.86    1.88
  -3   5 -12    1.37    1.45
   3  -5  12    2.63    1.95
  -3   5 -13    8.74    2.33
   3  -5  13    7.85    2.23
  -3   5 -13    5.43    2.53
   3  -5  13    8.29    2.27
  -3   5 -13    8.31    2.26
   3  -5  13   10.36    2.76
   3  -5  14    3.93    2.23
   3  -5  14    1.89    1.73
  -3   5 -14    3.26    2.31
  -3   5 -14    4.27    1.94
   3  -5  15   31.14    4.72
  -3   4  12   42.58    5.56
  -3   4  12   28.62    4.67
   3  -4 -12   40.53    5.30
   3  -4 -12   43.85    5.86
  -3   4  11    5.35    2.14
   3  -4 -11    5.70    2.11
  -3   4  11    4.61    2.21
   3  -4 -11    3.45    2.21
   3  -4 -11   11.21    3.62
  -3   4  11    5.07    2.54
   3  -4 -11    7.49    2.63
  -3   4  10   10.87    3.08
  -3   4  10    8.80    2.16
   3  -4 -10    7.45    2.15
  -3   4  10    5.74    2.27
   3  -4 -10    6.86    2.43
   3  -4 -10    8.57    2.62
  -3   4   9    2.64    2.00
  -3   4   9    3.24    1.39
   3  -4  -9    3.46    1.71
   3  -4  -9    1.78    1.55
  -3   4   9    4.20    2.04
   3  -4  -9    6.23    2.31
  -3   4   8    1.59    1.89
  -3   4   8    3.45    1.38
   3  -4  -8    2.67    1.51
   3  -4  -8    3.90    1.81
   3  -4  -8    5.17    2.03
  -3   4   8    3.78    1.84
   3  -4  -7   -0.05    1.20
  -3   4   7   -0.24    1.50
   3  -4  -7   -1.13    1.40
  -3   4   7    1.38    1.12
   3  -4  -7    0.12    1.48
  -3   4   7   -0.18    1.50
   3  -4  -7   -0.02    1.64
  -3   4   7    1.89    0.91
   3  -4  -6   54.64    3.74
  -3   4   6   57.35    4.87
   3  -4  -6   53.58    4.08
   3  -4  -6   50.20    4.34
  -3   4   6   48.71    4.46
  -3   4   6   50.26    3.34
   3  -4  -6   57.47    2.69
   3  -4  -6   52.87    4.62
  -3   4   6   53.27    2.61
   3  -4  -5   14.40    2.05
  -3   4   5   17.35    2.75
  -3   4   5   18.91    1.99
  -3   4   5   19.05    1.72
   3  -4  -5   20.53    2.95
  -3   4   5   15.96    1.35
   3  -4  -5   19.84    2.79
  -3   4   5   19.13    2.77
   3  -4  -5   18.21    2.33
   3  -4  -4   -1.74    1.61
  -3   4   4    1.59    0.75
  -3   4   4   -1.82    1.50
   3  -4  -4   -1.93    1.65
  -3   4   4   -0.38    0.59
   3  -4  -4   -1.20    1.11
  -3   4   4   -0.13    1.19
  -3   4   4   -0.14    0.50
   3  -4  -3    3.33    1.65
  -3   4   3    1.87    0.51
  -3   4   3    1.46    1.22
  -3   4   3    2.53    1.19
   3  -4  -3    5.14    1.94
  -3   4   3    2.01    0.64
  -3   4   3    3.77    1.64
   3  -4  -3    2.31    1.08
  -3   4   3    1.80    0.59
   3  -4  -2  116.54    5.38
  -3   4   2  109.99    5.51
   3  -4  -2  102.10    5.37
  -3   4   2  106.80    2.58
  -3   4   2  109.04    5.11
   3  -4  -2  114.17    3.16
  -3   4   2  108.91    3.85
   3  -4  -2  106.24    3.86
  -3   4   2  113.05    3.11
  -3   4   2  112.99    3.98
  -3   4   2  108.12    4.69
   3  -4  -1  157.39    6.23
  -3   4   1  166.05    6.40
   3  -4  -1  159.24    6.39
  -3   4   1  153.23    5.60
   3  -4  -1  166.05    4.02
  -3   4   1  164.12    3.98
   3  -4  -1  167.01    4.04
  -3   4   1  172.01    4.14
  -3   4   1  162.73    5.79
  -3   4   0    3.11    1.04
  -3   4   0    2.19    1.27
   3  -4   0    1.73    0.63
   3  -4   0    2.98    1.39
  -3   4   0    3.67    1.30
   3  -4   0    3.46    0.85
  -3   4   0    2.64    0.51
   3  -4   0    3.03    1.51
  -3   4   0    2.54    0.50
   3  -4   1   56.34    3.88
  -3   4  -1   55.85    3.56
   3  -4   1   58.38    3.69
  -3   4  -1   56.15    1.47
  -3   4  -1   52.41    2.90
   3  -4   1   59.84    2.97
  -3   4  -1   51.77    1.49
   3  -4   1   59.18    2.91
  -3   4  -1   57.70    3.50
   3  -4   1   62.63    2.48
  -3   4  -1   57.80    3.70
   3  -4   2   87.73    4.60
  -3   4  -2   84.67    4.25
  -3   4  -2   81.82    3.96
   3  -4   2   87.61    4.16
   3  -4   2   82.65    2.49
  -3   4  -2   87.92    2.51
   3  -4   2   86.19    2.29
  -3   4  -2   85.27    3.36
  -3   4  -2   84.90    3.86
  -3   4  -2   75.97    1.78
  -3   4  -2   83.28    4.47
   3  -4   3   21.95    2.74
  -3   4  -3   19.92    2.29
  -3   4  -3   19.82    1.53
   3  -4   3   18.62    1.96
  -3   4  -3   19.49    2.20
  -3   4  -3   14.55    2.13
  -3   4  -3   18.53    1.13
  -3   4  -3   18.84    2.11
   3  -4   3   18.26    1.45
  -3   4  -4   63.46    3.75
   3  -4   4   63.48    3.19
   3  -4   4   62.21    3.07
  -3   4  -4   66.61    3.10
  -3   4  -4   59.50    3.77
  -3   4  -4   59.38    3.35
  -3   4  -4   66.38    2.53
   3  -4   4   63.94    3.03
   3  -4   4   68.37    4.16
   3  -4   4   67.75    4.09
  -3   4  -4   60.61    4.11
   3  -4   5   28.51    2.87
  -3   4  -5   22.43    2.41
   3  -4   5   25.36    1.99
   3  -4   5   22.88    2.13
  -3   4  -5   23.19    2.35
  -3   4  -5   23.60    2.71
  -3   4  -5   22.58    2.68
  -3   4  -5   25.77    1.88
   3  -4   5   25.44    1.79
   3  -4   5   24.42    2.77
   3  -4   6    1.53    1.17
  -3   4  -6    1.18    1.08
   3  -4   6    0.10    1.43
   3  -4   6    0.05    0.88
   3  -4   6    1.05    0.74
  -3   4  -6   -0.27    0.57
  -3   4  -6   -2.08    1.61
  -3   4  -6   -0.23    1.39
   3  -4   6   -0.19    0.50
  -3   4  -6   -0.02    0.79
   3  -4   6    2.89    1.62
   3  -4   7    3.48    1.56
   3  -4   7    5.24    1.38
   3  -4   7    4.25    1.44
   3  -4   7    5.37    0.86
   3  -4   7    3.81    0.58
  -3   4  -7    7.37    2.02
  -3   4  -7    5.07    1.01
  -3   4  -7    3.66    1.37
   3  -4   7    2.40    1.54
  -3   4  -7    7.07    1.55
   3  -4   8   -0.40    1.42
  -3   4  -8    0.49    0.96
   3  -4   8    0.67    1.23
  -3   4  -8   -1.33    1.89
  -3   4  -8    0.06    1.47
   3  -4   8   -1.16    1.52
   3  -4   8    1.16    1.55
  -3   4  -8   -0.06    0.40
   3  -4   9    6.12    1.54
   3  -4   9    5.99    1.75
  -3   4  -9    4.70    1.90
  -3   4  -9    6.30    2.02
   3  -4   9    2.44    1.80
   3  -4   9    3.88    1.70
  -3   4  -9    4.41    1.56
   3  -4  10   56.84    3.63
   3  -4  10   56.22    4.79
  -3   4 -10   61.18    5.30
  -3   4 -10   51.76    4.29
   3  -4  10   58.17    4.82
   3  -4  10   55.38    5.01
  -3   4 -10   50.42    4.32
  -3   4 -11   10.69    2.43
   3  -4  11   14.28    2.82
  -3   4 -11    7.41    2.00
  -3   4 -11   11.21    2.86
   3  -4  11   15.90    2.95
   3  -4  11   17.94    3.23
   3  -4  12   11.93    2.69
  -3   4 -12    9.76    2.35
  -3   4 -12   12.45    2.96
  -3   4 -12   11.88    2.67
   3  -4  12   14.68    3.07
   3  -4  12   11.81    2.80
   3  -4  13   13.77    2.90
   3  -4  13   13.68    3.06
  -3   4 -13   23.33    3.99
  -3   4 -13   12.35    2.95
   3  -4  13   21.20    4.05
   3  -4  14    2.48    2.08
  -3   4 -14    5.70    2.54
   3  -4  14    3.07    2.17
  -3   4 -14    3.73    2.07
   3  -4  14    0.30    2.33
  -3   4 -15   16.03    3.58
  -3   3  14   -2.25    1.75
  -3   3  13   -2.08    1.90
  -3   3  13   -0.76    1.31
  -3   3  13    1.97    2.15
   3  -3 -13    2.44    2.38
   3  -3 -13    0.22    1.74
  -3   3  12    5.43    2.63
  -3   3  12    4.87    1.83
  -3   3  12    3.45    2.02
   3  -3 -12    7.57    3.01
   3  -3 -12    3.70    2.01
   3  -3 -12    8.88    2.71
   3  -3 -11    0.53    1.97
  -3   3  11    1.56    1.57
   3  -3 -11    1.23    1.69
   3  -3 -11    5.39    2.96
   3  -3 -11    4.09    2.13
  -3   3  11   -0.38    1.41
  -3   3  11    1.61    1.92
   3  -3 -10   17.24    3.36
  -3   3  10   20.26    3.67
  -3   3  10   18.10    2.84
   3  -3 -10   18.07    2.99
  -3   3  10   12.79    2.83
   3  -3 -10   18.31    3.23
   3  -3 -10   21.89    4.24
  -3   3   9    2.33    1.69
  -3   3   9    1.26    1.25
   3  -3  -9   -0.57    1.33
  -3   3   9   -0.67    1.38
   3  -3  -9   -1.42    1.70
   3  -3  -9   -0.53    1.35
  -3   3   8    2.02    1.56
  -3   3   8    2.23    1.19
   3  -3  -8    3.53    1.79
   3  -3  -8   -1.61    1.45
  -3   3   8    1.91    1.66
   3  -3  -8    2.23    1.44
   3  -3  -7   74.24    4.07
  -3   3   7   67.67    5.21
   3  -3  -7   60.42    4.60
   3  -3  -7   56.71    4.41
  -3   3   7   62.22    4.94
  -3   3   7   62.52    4.08
   3  -3  -7   65.70    2.82
  -3   3   7   52.25    1.98
   3  -3  -7   69.63    5.10
   3  -3  -6   12.96    2.10
  -3   3   6    8.15    2.05
  -3   3   6    9.01    2.34
   3  -3  -6    6.90    1.96
  -3   3   6    8.80    1.56
   3  -3  -6    9.04    1.03
   3  -3  -6    9.57    2.21
   3  -3  -6    8.02    1.91
   3  -3  -6    8.93    1.03
   3  -3  -5    0.88    1.09
  -3   3   5    2.66    1.48
   3  -3  -5    2.03    1.60
  -3   3   5    1.61    0.79
   3  -3  -5    1.17    0.44
  -3   3   5    1.40    1.31
  -3   3   5    2.74    0.58
   3  -3  -5    0.18    0.74
   3  -3  -5    2.76    1.50
   3  -3  -5    3.35    1.62
   3  -3  -4    3.06    1.22
   3  -3  -4    5.21    1.68
  -3   3   4    4.08    1.56
  -3   3   4    3.94    1.11
   3  -3  -4    4.69    1.77
  -3   3   4    1.86    0.34
  -3   3   4    4.12    1.41
   3  -3  -4    1.77    0.33
   3  -3  -4    0.61    0.92
   3  -3  -4    4.99    1.22
   3  -3  -3   -0.42    1.32
  -3   3   3   -0.60    1.34
  -3   3   3    1.15    0.85
   3  -3  -3    0.77    1.32
   3  -3  -3    0.81    1.17
   3  -3  -3   -0.74    0.82
  -3   3   3   -0.05    1.02
   3  -3  -3   -0.19    0.79
   3  -3  -2    5.55    1.50
  -3   3   2    3.75    1.35
   3  -3  -2    2.52    1.23
  -3   3   2    3.36    1.07
   3  -3  -2    2.95    0.42
  -3   3   2    2.12    0.70
  -3   3   2    2.87    1.27
   3  -3  -2    4.61    1.25
   3  -3  -1  563.44   10.69
  -3   3   1  590.49    7.75
  -3   3   1  582.59   10.97
   3  -3  -1  577.24    8.75
   3  -3  -1  560.01   10.65
  -3   3   1  578.99    6.43
  -3   3   1  552.82    9.90
   3  -3  -1  588.37    5.96
   3  -3  -1  574.87    5.93
  -3   3   1  563.34    9.58
   3  -3   0   34.06    2.65
  -3   3   0   36.24    2.82
   3  -3   0   34.35    2.78
  -3   3   0   37.06    1.58
   3  -3   0   38.19    1.90
  -3   3   0   33.21    2.37
  -3   3   0   35.25    1.90
   3  -3   0   34.89    1.79
  -3   3   0   34.78    1.76
   3  -3   0   37.99    2.02
  -3   3   0   28.83    1.03
  -3   3   0   37.23    2.72
   3  -3   1    9.27    1.66
  -3   3  -1   10.74    1.68
   3  -3   1   12.36    1.14
  -3   3  -1   12.54    1.06
   3  -3   1   13.01    1.70
  -3   3  -1   11.36    1.30
   3  -3   1   11.32    1.31
  -3   3  -1    7.84    1.46
   3  -3   1   12.44    1.01
   3  -3   1    9.75    0.82
   3  -3   2   -0.14    1.37
   3  -3   2   -0.52    0.66
  -3   3  -2   -0.20    0.93
   3  -3   2    0.61    0.61
  -3   3  -2    0.46    0.49
   3  -3   2    0.86    1.03
  -3   3  -2    0.53    0.85
   3  -3   2    0.47    0.25
  -3   3  -2    1.43    0.81
  -3   3  -2    0.61    1.15
  -3   3  -3   48.63    3.33
   3  -3   3   49.13    3.18
  -3   3  -3   50.48    3.24
  -3   3  -3   59.28    2.89
   3  -3   3   56.20    2.79
   3  -3   3   53.15    2.72
  -3   3  -3   55.19    2.75
  -3   3  -3   52.96    3.18
  -3   3  -3   52.07    2.65
  -3   3  -3   56.89    2.50
   3  -3   3   53.98    3.54
   3  -3   3   52.22    1.67
  -3   3  -4   68.08    4.00
  -3   3  -4   68.68    3.93
  -3   3  -4   69.08    2.92
   3  -3   4   73.55    2.91
   3  -3   4   67.23    3.37
  -3   3  -4   71.79    3.13
  -3   3  -4   69.41    3.93
  -3   3  -4   67.70    3.10
   3  -3   4   69.95    4.07
   3  -3   4   68.65    3.73
   3  -3   4   79.91    3.23
   3  -3   4   76.23    2.63
   3  -3   5    0.33    1.05
  -3   3  -5    0.89    0.55
  -3   3  -5    0.26    1.06
   3  -3   5    0.61    0.39
   3  -3   5    0.80    1.01
  -3   3  -5    1.78    0.77
   3  -3   5    0.63    0.55
  -3   3  -5    1.95    1.43
   3  -3   5    1.43    0.80
   3  -3   5    3.06    1.35
  -3   3  -5    0.36    0.21
   3  -3   5    1.36    1.34
  -3   3  -5    2.93    1.09
  -3   3  -5    1.39    1.33
   3  -3   5   -0.08    0.59
   3  -3   6    1.67    1.09
   3  -3   6   -0.74    1.33
  -3   3  -6   -0.18    1.34
  -3   3  -6    0.23    1.14
  -3   3  -6   -0.33    0.89
  -3   3  -6    0.81    0.49
   3  -3   6   -1.17    1.52
   3  -3   6    1.71    1.66
   3  -3   7    2.78    1.23
  -3   3  -7   -1.36    1.29
   3  -3   7    0.64    1.25
  -3   3  -7    2.70    1.81
  -3   3  -7    0.84    0.67
  -3   3  -7    0.90    1.26
   3  -3   7    2.73    1.61
   3  -3   7    0.16    1.50
   3  -3   8    8.64    2.19
  -3   3  -8   12.98    1.51
   3  -3   8   15.74    2.01
  -3   3  -8   13.10    2.22
   3  -3   8   15.52    2.53
  -3   3  -8   13.45    2.65
  -3   3  -8   11.44    2.02
   3  -3   8   13.09    2.66
  -3   3  -9    1.00    0.84
   3  -3   9    3.61    1.72
  -3   3  -9    3.56    1.87
  -3   3  -9    2.30    1.50
  -3   3  -9    0.93    1.14
   3  -3   9    2.77    1.81
   3  -3   9    4.81    2.15
  -3   3 -10   50.04    4.15
  -3   3 -10   58.52    4.75
   3  -3  10   56.89    4.95
  -3   3 -10   60.65    5.37
   3  -3  10   55.47    4.79
   3  -3  10   59.30    5.31
   3  -3  11    0.91    1.58
   3  -3  11   -0.52    1.74
   3  -3  11   -0.36    1.27
  -3   3 -11    3.31    1.91
  -3   3 -11    2.31    1.53
  -3   3 -11    1.54    1.46
   3  -3  12   -0.53    1.44
  -3   3 -12    0.25    1.66
  -3   3 -12    2.53    1.59
  -3   3 -12   -0.61    1.51
   3  -3  12    0.95    1.64
   3  -3  12   -1.90    1.77
   3  -3  13   -1.86    1.63
   3  -3  13    0.81    1.59
  -3   3 -13    0.98    2.03
  -3   3 -13    1.64    1.80
   3  -3  13   -0.57    1.92
   3  -3  14    3.09    2.27
  -3   3 -14    0.46    1.79
  -3   3 -14    0.87    1.98
   3  -3  14    0.97    2.00
   3  -3  14    0.85    2.29
  -3   2  14    4.24    2.67
  -3   2  14   -0.18    1.96
  -3   2  14    1.54    2.35
   3  -2 -13    8.61    2.96
  -3   2  13   12.95    3.18
  -3   2  13    7.57    2.43
  -3   2  13    9.11    2.93
   3  -2 -13    7.60    2.79
   3  -2 -13   13.42    3.36
  -3   2  12   24.21    4.05
  -3   2  12   24.24    3.53
  -3   2  12   22.35    3.71
   3  -2 -12   26.19    4.39
   3  -2 -12   28.92    4.18
   3  -2 -12   24.51    3.97
  -3   2  11    0.04    1.71
  -3   2  11    0.93    1.26
   3  -2 -11    0.28    1.38
  -3   2  11   -0.11    1.67
   3  -2 -11    0.39    2.12
   3  -2 -11    0.58    1.59
   3  -2 -11    0.61    1.39
   3  -2 -11    1.35    2.06
   3  -2 -10    1.17    1.84
  -3   2  10    1.87    1.98
  -3   2  10    0.28    1.32
   3  -2 -10    3.88    1.81
  -3   2  10    0.83    1.47
   3  -2 -10    4.44    2.62
   3  -2 -10   -0.49    1.59
   3  -2  -9   25.48    3.88
  -3   2   9   15.53    2.75
  -3   2   9   15.86    2.65
   3  -2  -9   16.08    2.70
   3  -2  -9   12.85    1.62
  -3   2   9   17.17    1.89
   3  -2  -9   18.09    2.92
   3  -2  -9   14.18    2.60
  -3   2   9   17.17    2.93
  -3   2   9   18.81    1.99
  -3   2   8   62.50    4.89
   3  -2  -8   60.17    4.46
  -3   2   8   52.73    4.56
  -3   2   8   51.01    3.97
   3  -2  -8   59.31    2.91
   3  -2  -8   63.21    4.96
  -3   2   8   52.82    2.85
   3  -2  -8   63.71    4.80
  -3   2   7   31.25    3.54
   3  -2  -7   33.17    3.41
   3  -2  -7   33.42    3.34
  -3   2   7   33.12    3.52
  -3   2   7   29.87    2.85
   3  -2  -7   30.57    1.85
  -3   2   7   31.95    2.08
   3  -2  -7   33.04    3.48
  -3   2   6    0.38    1.23
   3  -2  -6    1.44    1.54
   3  -2  -6   -0.26    0.44
  -3   2   6    1.27    0.79
  -3   2   6    0.49    1.23
   3  -2  -6    0.28    1.35
   3  -2  -6   -0.61    1.16
   3  -2  -5    4.84    1.60
  -3   2   5    2.21    0.68
   3  -2  -5    2.69    1.33
   3  -2  -5    1.57    0.37
   3  -2  -5    1.53    1.24
  -3   2   5    3.06    1.32
   3  -2  -5    3.66    1.38
  -3   2   5    2.28    1.45
  -3   2   5    1.73    0.36
   3  -2  -4    5.87    1.50
   3  -2  -4    8.12    1.09
  -3   2   4    4.73    1.40
   3  -2  -4    5.37    1.51
  -3   2   4    4.53    0.91
   3  -2  -4    5.50    1.32
   3  -2  -4    5.96    1.56
  -3   2   4    4.89    1.50
   3  -2  -3   15.26    2.12
   3  -2  -3   16.37    1.48
  -3   2   3   15.98    2.13
   3  -2  -3   16.34    2.03
   3  -2  -3   12.16    0.98
   3  -2  -3   14.83    1.86
   3  -2  -3   15.35    1.17
  -3   2   3   12.64    1.36
  -3   2   3   15.32    2.07
   3  -2  -2  241.69    6.61
  -3   2   2  260.90    5.66
   3  -2  -2  252.63    5.63
  -3   2   2  240.46    6.78
   3  -2  -2  247.02    6.80
  -3   2   2  239.15    6.53
  -3   2   2  255.14    5.83
   3  -2  -2  245.96    6.02
  -3   2   2  241.88    3.69
   3  -2  -1   68.21    3.61
  -3   2   1   68.86    3.19
   3  -2  -1   72.10    3.22
  -3   2   1   65.51    3.50
   3  -2  -1   64.90    3.47
  -3   2   1   67.67    2.62
  -3   2   1   68.25    1.86
  -3   2   1   72.08    2.91
   3  -2  -1   67.53    2.88
   3  -2  -1   63.61    1.81
  -3   2   1   65.50    1.77
   3  -2   0    2.01    0.60
   3  -2   0    2.22    1.43
  -3   2   0    1.61    0.50
  -3   2   0    2.27    1.00
  -3   2   0    2.60    0.78
   3  -2   0    3.18    1.11
  -3   2   0    2.73    0.81
  -3   2   0    2.13    0.74
   3  -2   0    1.01    0.64
  -3   2   0    3.93    1.32
  -3   2   0    1.57    0.43
   3  -2   1   17.64    2.18
  -3   2  -1   16.71    1.90
  -3   2  -1   15.70    1.68
   3  -2   1   19.68    1.86
   3  -2   1   17.56    1.55
  -3   2  -1   17.05    1.45
   3  -2   1   17.17    1.20
  -3   2  -1   16.25    1.49
  -3   2  -1   17.05    1.14
  -3   2  -1   17.36    1.79
   3  -2   1   17.44    2.05
   3  -2   1   14.93    0.90
  -3   2  -1   17.71    0.94
   3  -2   1   16.06    1.31
   3  -2   2   10.49    1.87
   3  -2   2    9.14    1.19
  -3   2  -2    7.93    1.47
   3  -2   2    7.51    1.21
  -3   2  -2    9.48    1.28
  -3   2  -2    8.26    1.16
   3  -2   2   10.00    1.31
  -3   2  -2    6.52    1.28
  -3   2  -2    8.01    1.26
   3  -2   2    8.07    0.84
   3  -2   2    8.52    1.63
  -3   2  -2    8.24    0.76
  -3   2  -2    8.58    0.92
   3  -2   3   28.01    2.53
  -3   2  -3   23.17    2.34
  -3   2  -3   25.18    1.68
   3  -2   3   24.29    1.72
   3  -2   3   24.91    2.11
  -3   2  -3   28.61    1.50
  -3   2  -3   19.36    2.11
  -3   2  -3   22.56    1.92
  -3   2  -3   22.24    2.21
   3  -2   3   23.11    2.46
   3  -2   3   24.45    2.54
  -3   2  -3   24.77    1.27
   3  -2   3   26.92    1.67
   3  -2   4  113.89    4.55
  -3   2  -4  104.33    2.87
  -3   2  -4  108.22    4.94
   3  -2   4  115.71    3.15
  -3   2  -4  104.45    3.06
   3  -2   4  100.89    4.43
  -3   2  -4  100.56    4.65
  -3   2  -4  105.68    4.74
  -3   2  -4  103.95    4.34
   3  -2   4  108.03    2.62
   3  -2   4  109.68    5.08
   3  -2   4  102.27    5.02
   3  -2   4  111.22    3.77
  -3   2  -5   13.94    1.06
   3  -2   5   16.79    2.17
   3  -2   5   19.94    1.57
  -3   2  -5   18.26    2.34
  -3   2  -5   18.06    2.13
   3  -2   5   19.60    2.48
   3  -2   5   14.83    2.20
  -3   2  -5   13.35    2.00
   3  -2   6   -0.46    0.67
  -3   2  -6    0.10    1.04
   3  -2   6    0.72    1.17
  -3   2  -6   -2.59    2.09
   3  -2   6    0.45    1.36
  -3   2  -6    1.03    1.30
   3  -2   6   -1.22    1.53
   3  -2   7   31.37    3.34
   3  -2   7   31.54    3.32
  -3   2  -7   30.02    3.10
  -3   2  -7   24.28    3.07
  -3   2  -7   33.96    3.22
   3  -2   7   30.34    3.62
  -3   2  -8    6.20    1.81
   3  -2   8    5.62    1.86
  -3   2  -8   10.51    2.76
   3  -2   8    5.64    2.10
  -3   2  -8    6.85    1.88
   3  -2   8    5.21    2.15
  -3   2  -9   25.58    2.97
  -3   2  -9   19.32    2.88
   3  -2   9   24.34    3.48
   3  -2   9   22.52    3.43
  -3   2  -9   21.64    3.34
   3  -2   9   24.85    3.33
  -3   2 -10    2.03    1.34
   3  -2  10    0.71    1.39
  -3   2 -10    2.82    1.95
   3  -2  10    0.32    1.83
  -3   2 -10    2.95    1.57
  -3   2 -10    2.01    1.40
   3  -2  10    2.01    1.83
   3  -2  11    1.33    1.74
  -3   2 -11    0.09    1.88
  -3   2 -11    1.54    1.27
  -3   2 -11    0.85    1.20
  -3   2 -11    1.39    1.44
   3  -2  11    2.15    2.02
   3  -2  11    0.15    1.82
   3  -2  12    1.59    1.52
  -3   2 -12    3.23    1.94
  -3   2 -12    4.06    2.23
   3  -2  12    1.22    1.79
   3  -2  12    4.23    2.41
   3  -2  13    2.98    1.98
  -3   2 -13   -0.34    1.86
  -3   2 -13    0.30    1.49
   3  -2  13    3.49    2.41
   3  -2  13   -2.89    1.89
   3  -2  14   65.23    6.63
  -3   2 -14   62.18    6.40
  -3   2 -14   62.24    6.47
   3  -2  14   60.11    6.43
   3  -2  14   51.16    6.31
   3  -2  15    2.99    2.05
  -3   1  15   11.09    2.96
  -3   1  15   16.84    3.61
  -3   1  15    8.29    2.69
   3  -1 -14    5.45    2.57
  -3   1  14    4.19    2.24
  -3   1  14    7.26    2.28
  -3   1  14    8.18    2.38
   3  -1 -14    4.32    2.49
   3  -1 -14   10.19    2.89
   3  -1 -13  132.48    7.31
  -3   1  13  112.82    7.82
   3  -1 -13  110.04    8.25
  -3   1  13  108.05    7.54
  -3   1  13  112.25    7.67
   3  -1 -13  120.82    8.43
   3  -1 -13  106.89    7.78
  -3   1  12    2.89    1.83
   3  -1 -12    6.08    2.00
  -3   1  12    1.48    1.48
   3  -1 -12   -0.20    1.26
  -3   1  12    4.74    1.95
   3  -1 -12    0.09    1.55
   3  -1 -12   -1.77    2.20
   3  -1 -12    2.07    1.80
  -3   1  11    3.52    1.83
  -3   1  11    1.59    1.49
   3  -1 -11   -1.21    1.20
  -3   1  11    3.11    1.57
   3  -1 -11    2.06    2.16
  -3   1  11    0.06    1.38
   3  -1 -11   -0.28    1.79
   3  -1 -11    2.63    1.75
  -3   1  11    3.00    1.43
  -3   1  10    8.26    1.70
  -3   1  10    4.84    1.47
  -3   1  10    9.36    2.32
  -3   1  10    4.23    1.53
   3  -1 -10    8.86    1.64
   3  -1 -10    7.10    1.80
   3  -1 -10    6.71    2.08
  -3   1  10    2.63    1.65
   3  -1 -10   11.79    3.24
   3  -1 -10    8.36    2.45
  -3   1   9    1.49    1.56
  -3   1   9    1.57    1.10
  -3   1   9    0.85    1.59
   3  -1  -9    1.79    1.53
   3  -1  -9    2.42    1.13
  -3   1   9    4.51    1.58
   3  -1  -9    0.46    1.50
   3  -1  -9    1.41    1.41
  -3   1   9    3.43    1.42
  -3   1   8   65.29    4.62
   3  -1  -8   63.97    4.27
  -3   1   8   59.95    4.47
   3  -1  -8   57.91    3.02
  -3   1   8   61.63    3.45
   3  -1  -8   61.67    4.72
   3  -1  -8   69.65    5.40
   3  -1  -8   58.03    4.60
  -3   1   8   55.64    2.85
  -3   1   8   56.89    3.42
  -3   1   7   16.99    2.37
   3  -1  -7   17.85    1.57
   3  -1  -7   18.00    2.43
  -3   1   7   15.63    1.70
   3  -1  -7   15.07    2.41
  -3   1   7   17.87    2.50
   3  -1  -7   18.33    2.58
  -3   1   7   19.48    1.54
  -3   1   6   16.86    2.27
   3  -1  -6   15.54    2.18
  -3   1   6   22.45    1.55
  -3   1   6   15.45    1.65
   3  -1  -6   15.29    2.26
  -3   1   6   13.41    2.02
   3  -1  -6   16.79    2.32
  -3   1   6   17.21    1.29
  -3   1   6   11.37    0.74
  -3   1   5   43.74    1.77
  -3   1   5   44.66    3.19
  -3   1   5   46.43    2.52
   3  -1  -5   46.73    3.26
  -3   1   5   41.63    3.26
  -3   1   5   48.45    1.77
  -3   1   5   42.53    1.66
   3  -1  -5   46.74    3.27
   3  -1  -5   41.65    3.30
  -3   1   4   33.91    1.78
  -3   1   4   29.07    1.18
  -3   1   4   31.67    2.62
   3  -1  -4   35.66    2.84
  -3   1   4   31.76    2.75
  -3   1   4   32.23    1.21
   3  -1  -4   35.71    2.07
   3  -1  -4   36.44    2.91
   3  -1  -4   36.67    2.13
  -3   1   3  805.68    9.14
  -3   1   3  819.09   11.67
   3  -1  -3  798.05   11.96
  -3   1   3  789.62   12.01
   3  -1  -3  816.62   11.61
   3  -1  -3  845.17    9.52
  -3   1   3  801.31    9.22
  -3   1   2   10.74    1.20
  -3   1   2   12.06    1.52
  -3   1   2   10.58    1.57
   3  -1  -2    9.72    1.68
   3  -1  -2   11.27    0.84
  -3   1   2   11.65    1.44
   3  -1  -2    9.50    1.35
  -3   1   1   20.55    1.98
   3  -1  -1   18.13    1.77
  -3   1   1   17.29    1.87
  -3   1   1   18.56    1.62
  -3   1   1   16.93    1.78
   3  -1  -1   17.78    1.87
  -3   1   1   18.15    1.63
   3  -1  -1   15.64    1.61
   3  -1  -1   16.66    1.60
  -3   1   1   15.62    1.35
   3  -1  -1   17.14    1.39
  -3   1   1   16.46    1.37
   3  -1   0    0.36    0.66
  -3   1   0    1.44    0.91
  -3   1   0    2.87    1.41
  -3   1   0   -0.01    0.95
  -3   1   0    1.46    0.77
  -3   1   0    0.23    0.80
   3  -1   0    0.63    0.93
   3  -1   0    0.24    0.73
  -3   1   0    0.54    0.65
   3  -1   0    0.01    1.01
   3  -1   0    0.83    0.57
  -3   1   0    0.17    0.57
  -3   1  -1   33.70    2.67
  -3   1  -1   32.58    2.49
  -3   1  -1   32.75    1.84
  -3   1  -1   34.84    2.23
   3  -1   1   34.61    2.40
  -3   1  -1   35.16    2.27
   3  -1   1   31.99    1.87
   3  -1   1   33.41    2.49
   3  -1   1   35.34    2.12
   3  -1   1   34.85    1.89
  -3   1  -1   32.00    1.82
   3  -1   1   35.13    2.18
  -3   1  -1   32.15    2.14
  -3   1  -2  129.93    4.89
  -3   1  -2  134.25    4.96
  -3   1  -2  136.73    3.93
   3  -1   2  125.59    4.66
  -3   1  -2  125.17    3.59
  -3   1  -2  128.83    4.65
   3  -1   2  133.79    3.65
   3  -1   2  133.07    5.01
   3  -1   2  133.66    5.04
   3  -1   2  133.61    3.95
  -3   1  -2  132.45    3.92
  -3   1  -2  128.66    4.42
  -3   1  -3  240.29    4.94
   3  -1   3  220.38    6.48
  -3   1  -3  231.42    6.79
   3  -1   3  234.33    4.42
  -3   1  -3  228.06    5.12
   3  -1   3  235.90    7.03
   3  -1   3  227.10    6.97
  -3   1  -3  233.25    6.76
   3  -1   3  250.12    5.86
  -3   1  -3  220.09    5.64
  -3   1  -4  426.68    9.40
   3  -1   4  419.88    9.51
   3  -1   4  417.76    5.01
  -3   1  -4  429.67    9.92
  -3   1  -4  439.01    9.56
   3  -1   4  420.17    5.30
   3  -1   4  456.10   10.40
   3  -1   4  420.85   10.06
  -3   1  -4  451.91    6.39
  -3   1  -5  176.60    5.16
  -3   1  -5  176.48    6.41
   3  -1   5  183.14    6.93
  -3   1  -5  185.11    3.85
   3  -1   5  192.01    4.17
   3  -1   5  167.14    6.51
  -3   1  -5  175.67    6.81
  -3   1  -5  179.37    6.59
   3  -1   5  173.80    7.00
  -3   1  -6   23.09    1.95
  -3   1  -6   19.28    1.24
   3  -1   6   20.09    2.71
  -3   1  -6   15.85    2.63
  -3   1  -6   21.12    2.68
   3  -1   6   19.43    2.73
   3  -1   6   23.02    3.09
  -3   1  -6   20.39    2.43
  -3   1  -7   10.86    1.36
  -3   1  -7    6.52    0.60
  -3   1  -7    6.79    0.62
   3  -1   7   12.04    2.52
  -3   1  -7    8.26    2.10
  -3   1  -7    8.74    1.80
   3  -1   7   13.91    2.81
  -3   1  -7   12.09    2.50
   3  -1   7   10.17    2.51
  -3   1  -7    5.37    1.52
  -3   1  -8    0.75    1.31
   3  -1   8    4.19    1.83
  -3   1  -8   -1.36    1.95
  -3   1  -8    0.36    1.55
   3  -1   8    4.85    2.07
   3  -1   8    2.31    1.87
  -3   1  -8   -0.33    1.46
   3  -1   9    1.00    1.65
  -3   1  -9   -3.14    2.17
  -3   1  -9   -1.93    1.79
  -3   1  -9   -0.64    1.58
   3  -1   9    2.00    2.09
  -3   1  -9   -2.96    1.55
   3  -1   9    1.35    1.91
   3  -1  10   13.52    3.01
  -3   1 -10    6.09    2.25
  -3   1 -10   10.57    2.44
  -3   1 -10   10.03    2.52
   3  -1  10    8.62    2.74
   3  -1  10    9.52    2.68
  -3   1 -10    9.02    2.20
   3  -1  11   15.47    3.04
  -3   1 -11   21.31    3.62
  -3   1 -11   17.00    3.34
   3  -1  11   19.05    3.60
   3  -1  11   11.15    3.27
  -3   1 -11   18.80    3.25
   3  -1  12   24.57    4.04
   3  -1  12   25.31    4.32
  -3   1 -12   19.44    3.71
  -3   1 -12   22.43    3.84
  -3   1 -12   25.02    3.97
   3  -1  12   20.74    3.94
   3  -1  13    3.25    2.34
  -3   1 -13    2.36    2.03
  -3   1 -13    3.02    2.40
  -3   1 -13    3.64    2.15
   3  -1  13    3.54    2.13
   3  -1  13    7.46    3.00
   3  -1  14    7.54    2.66
  -3   0  16    0.20    1.76
  -3   0  16    0.10    1.69
  -3   0  15   92.22    7.19
  -3   0  15   75.84    6.59
  -3   0  15   78.92    7.13
   3   0 -15   80.06    7.25
   3   0 -15   94.34    8.09
   3   0 -14    4.87    2.32
  -3   0  14    5.96    2.46
  -3   0  14    5.54    2.13
  -3   0  14    5.06    1.84
   3   0 -14    7.51    2.79
   3   0 -14    2.14    2.14
   3   0 -14    5.15    2.51
   3   0 -13   71.61    5.73
  -3   0  13   62.37    5.49
  -3   0  13   71.38    5.95
  -3   0  13   65.61    5.90
   3   0 -13   68.56    6.47
   3   0 -13   57.21    4.98
   3   0 -13   60.91    6.09
   3   0 -13   62.53    5.95
  -3   0  12   11.74    2.61
  -3   0  12   10.96    2.43
   3   0 -12   14.74    2.34
   3   0 -12   16.44    2.81
  -3   0  12   16.91    2.62
  -3   0  12   13.10    2.73
   3   0 -12    8.82    2.69
   3   0 -12   14.09    3.01
   3   0 -12   15.30    3.06
  -3   0  12   12.34    2.47
  -3   0  11   22.14    3.21
  -3   0  11   23.00    3.34
   3   0 -11   23.88    2.65
  -3   0  11   25.45    3.04
   3   0 -11   21.70    3.23
  -3   0  11   21.29    3.32
   3   0 -11   23.78    3.44
   3   0 -11   19.77    3.20
   3   0 -11   21.59    3.51
  -3   0  11   21.66    2.83
  -3   0  10    3.24    1.77
   3   0 -10   -1.23    1.26
  -3   0  10    2.59    1.52
   3   0 -10    0.74    1.79
  -3   0  10    0.57    1.17
   3   0 -10   -0.73    1.89
   3   0 -10    1.34    1.67
   3   0 -10    0.21    1.44
  -3   0  10    0.49    1.20
  -3   0   9   -0.17    1.18
   3   0  -9   -2.16    1.46
   3   0  -9    0.52    1.85
  -3   0   9    1.69    1.41
   3   0  -9    2.91    1.79
  -3   0   9    2.15    1.50
   3   0  -9    1.09    1.36
  -3   0   9    2.57    1.48
  -3   0   8    0.95    1.11
   3   0  -8    0.88    1.27
  -3   0   8   -2.65    1.54
  -3   0   8    1.35    1.43
   3   0  -8   -0.98    1.48
   3   0  -8    1.79    1.89
   3   0  -8   -0.02    1.33
  -3   0   8    3.60    1.64
  -3   0   7    4.68    0.60
  -3   0   7    3.60    0.57
   3   0  -7    4.86    1.35
  -3   0   7    4.18    0.90
   3   0  -7    8.90    2.21
   3   0  -7    4.51    0.93
   3   0  -7    5.42    1.78
   3   0  -7    5.88    1.77
  -3   0   7    6.40    1.60
  -3   0   7    7.26    1.12
  -3   0   7    5.77    1.41
  -3   0   7    4.65    1.16
   3   0  -6    2.23    1.31
  -3   0   6    5.01    1.27
   3   0  -6    1.68    1.06
  -3   0   6    6.61    1.08
  -3   0   6    4.67    1.38
  -3   0   6    4.55    1.27
   3   0  -6    4.52    1.56
  -3   0   6    5.03    0.87
  -3   0   5  784.55   11.48
   3   0  -5  779.73   12.35
  -3   0   5  782.98   12.64
  -3   0   5  835.57    9.08
  -3   0   5  769.55   11.06
   3   0  -5  788.53   12.99
  -3   0   5  803.70    8.95
   3   0  -4  253.63    6.10
  -3   0   4  246.89    6.07
   3   0  -4  238.96    6.78
   3   0  -4  243.04    6.78
   3   0  -4  239.34    6.85
  -3   0   4  255.54    6.24
   3   0  -4  262.07    6.26
   3   0  -4  242.17    4.72
  -3   0   4  242.87    4.66
   3   0  -4  251.87    6.22
  -3   0   4  244.21    6.11
  -3   0   3    0.02    0.89
   3   0  -3    2.15    0.72
  -3   0   3    0.82    0.80
   3   0  -3    1.27    0.93
   3   0  -3    1.47    1.23
   3   0  -3    3.08    1.16
   3   0  -3    1.03    0.67
   3   0  -3    0.37    0.53
   3   0  -2   99.99    3.69
  -3   0   2   97.71    3.67
  -3   0   2  107.27    4.03
  -3   0   2   96.88    3.69
   3   0  -2  102.33    4.14
   3   0  -2   94.13    3.83
   3   0  -2   94.90    3.32
   3   0  -2  100.82    3.15
  -3   0   2   96.12    3.63
   3   0  -2  101.10    3.71
   3   0  -1   70.08    3.19
  -3   0   1   66.38    3.08
   3   0  -1   66.09    3.02
  -3   0   1   68.98    2.97
   3   0  -1   70.57    3.32
   3   0  -1   68.11    3.18
   3   0  -1   68.62    3.02
  -3   0   1   67.84    3.05
   3   0  -1   75.15    3.22
  -3   0   1   65.41    3.07
  -3   0   1   71.84    3.22
  -3   0   0    0.66    0.87
   3   0   0   -0.37    0.78
  -3   0   0   -0.04    1.00
   3   0   0   -0.29    0.80
  -3   0   0    0.35    0.79
   3   0   0    2.48    1.16
   3   0   0    0.22    0.82
  -3   0   0    0.17    0.78
  -3   0   0    0.44    0.91
   3   0   0    1.10    1.04
  -3   0   0    1.09    0.91
  -3   0   0    0.62    0.79
   3   0   0   -0.33    0.97
   3   0   0    0.32    0.74
  -3   0   0   -0.17    0.37
  -3   0  -1    1.48    0.78
  -3   0  -1    4.43    1.34
  -3   0  -1    1.79    1.09
   3   0   1    1.85    1.17
  -3   0  -1    1.64    0.89
   3   0   1    0.00    0.59
   3   0   1    0.39    0.84
  -3   0  -1    0.31    0.79
   3   0   1    1.90    1.26
   3   0   1    0.30    0.96
   3   0   1   -0.09    0.73
   3   0   2   31.30    2.79
   3   0   2   30.55    2.59
  -3   0  -2   32.60    2.07
   3   0   2   33.27    2.09
  -3   0  -2   31.63    2.26
   3   0   2   32.22    2.68
   3   0   2   34.57    2.04
  -3   0  -2   30.49    2.39
  -3   0  -2   29.56    2.57
  -3   0  -3    0.78    1.19
   3   0   3    5.04    1.52
   3   0   3    2.13    0.81
  -3   0  -3    4.17    0.88
   3   0   3    3.51    0.82
   3   0   3    4.18    1.67
   3   0   3    5.86    1.52
  -3   0  -3    3.55    1.27
  -3   0  -4   -1.48    1.14
   3   0   4   -0.67    1.16
  -3   0  -4   -0.57    1.09
  -3   0  -4    1.19    0.71
   3   0   4    0.13    0.51
  -3   0  -4    0.88    1.26
   3   0   4   -1.30    1.53
   3   0   4   -0.02    1.35
  -3   0  -5    0.42    0.56
   3   0   5    0.06    1.18
  -3   0  -5    3.05    2.10
  -3   0  -5    0.19    1.26
  -3   0  -5    0.15    1.38
   3   0   5    0.74    0.54
   3   0   5    0.98    1.53
   3   0   5    1.35    1.73
  -3   0  -6   33.89    2.36
  -3   0  -6   45.27    3.76
   3   0   6   37.65    3.64
  -3   0  -6   44.48    4.13
  -3   0  -6   35.76    3.53
  -3   0  -6   41.24    2.04
  -3   0  -6   42.00    3.44
   3   0   6   40.85    4.07
   3   0   6   42.09    4.06
   3   0   7  106.67    6.54
  -3   0  -7  109.72    5.50
   3   0   7  100.81    5.98
  -3   0  -7  109.71    6.44
  -3   0  -7  120.23    6.63
   3   0   7  109.37    6.61
  -3   0  -7  117.01    5.90
  -3   0  -8  282.41    8.93
   3   0   8  291.75   10.69
  -3   0  -8  290.30   10.78
  -3   0  -8  294.86   10.90
  -3   0  -8  304.45   10.12
   3   0   8  297.86   11.02
   3   0   8  287.11   11.05
  -3   0  -9   28.19    3.81
   3   0   9   29.47    3.94
   3   0   9   25.84    3.84
  -3   0  -9   24.56    3.58
  -3   0  -9   31.49    3.73
   3   0   9   31.23    4.09
  -3   0  -9   27.47    3.00
  -3   0 -10    7.54    2.39
   3   0  10    8.52    2.49
  -3   0 -10    7.10    2.36
  -3   0 -10    7.40    2.06
   3   0  10    7.43    2.41
   3   0  10    9.92    2.90
  -3   0 -10    6.13    1.83
   3   0  11    0.90    1.73
  -3   0 -11   -1.74    2.34
   3   0  11   -2.98    2.23
   3   0  11   -0.51    1.96
  -3   0 -11   -0.38    1.57
  -3   0 -11   -0.98    1.74
   3   0  12   -1.44    2.39
   3   0  12   -0.11    1.52
  -3   0 -12   -0.95    2.26
  -3   0 -12    1.73    1.86
  -3   0 -12   -0.14    1.68
   3   0  12    0.71    1.86
  -3   0 -13   -0.17    1.89
  -3   0 -13   -1.76    2.02
   3   0  13   -2.18    2.42
   3   1 -16    2.47    1.95
  -3  -1  16    4.96    2.22
   3   1 -15    4.97    2.32
  -3  -1  15    1.38    1.73
   3   1 -15    8.77    3.29
  -3  -1  15    1.73    1.88
  -3  -1  15   -1.72    1.79
   3   1 -15    0.47    2.00
   3   1 -15    4.62    2.42
   3   1 -14   68.91    6.01
  -3  -1  14   61.41    5.35
  -3  -1  14   65.19    5.55
  -3  -1  14   65.73    6.16
   3   1 -14   73.87    6.82
   3   1 -14   66.47    6.18
  -3  -1  14   68.86    5.60
   3   1 -14   66.94    6.49
  -3  -1  14   61.95    5.40
  -3  -1  13   18.75    2.93
   3   1 -13   14.04    2.84
  -3  -1  13   18.43    3.32
  -3  -1  13   18.11    3.02
  -3  -1  13   19.38    3.12
   3   1 -13   21.81    3.70
   3   1 -13   18.91    2.96
   3   1 -13   19.43    3.42
   3   1 -13   21.28    3.56
  -3  -1  13   18.39    3.03
  -3  -1  12   -0.20    1.10
   3   1 -12   -1.86    1.97
  -3  -1  12   -0.88    1.61
  -3  -1  12    1.02    1.46
   3   1 -12    0.95    1.19
  -3  -1  12    0.06    1.35
   3   1 -12   -0.18    1.53
   3   1 -12    0.26    2.30
  -3  -1  12    2.92    1.96
  -3  -1  11   35.10    3.54
  -3  -1  11   31.80    3.57
  -3  -1  11   35.11    3.69
   3   1 -11   32.23    3.49
   3   1 -11   33.72    4.01
   3   1 -11   28.35    3.66
   3   1 -11   38.62    4.16
  -3  -1  11   37.02    3.73
  -3  -1  10   54.25    4.01
  -3  -1  10   62.13    4.51
  -3  -1  10   61.28    4.54
   3   1 -10   58.37    4.51
   3   1 -10   59.79    4.95
   3   1 -10   56.50    4.67
   3   1 -10   52.12    4.66
  -3  -1  10   58.74    4.49
   3   1  -9   28.15    3.23
  -3  -1   9   31.44    2.99
   3   1  -9   32.03    3.62
   3   1  -9   35.39    3.64
  -3  -1   9   38.73    3.48
  -3  -1   9   38.59    3.49
   3   1  -9   37.26    3.50
  -3  -1   9   33.72    3.49
  -3  -1   9   27.60    1.43
  -3  -1   8    1.12    1.02
  -3  -1   8   -0.45    0.54
   3   1  -8   -0.01    1.40
  -3  -1   8   -3.35    1.83
   3   1  -8   -1.23    1.73
   3   1  -8   -0.47    1.42
  -3  -1   8    0.09    1.25
   3   1  -8    1.04    0.66
   3   1  -8    0.23    1.38
  -3  -1   8    1.83    1.43
  -3  -1   7   14.55    1.73
  -3  -1   7   18.31    2.23
  -3  -1   7   12.86    1.99
   3   1  -7   14.53    2.38
   3   1  -7   16.38    2.23
   3   1  -7   17.31    2.38
   3   1  -7   16.82    1.21
   3   1  -6    0.35    0.66
  -3  -1   6    0.22    0.79
  -3  -1   6   -0.64    0.92
  -3  -1   6   -1.41    1.30
   3   1  -6    0.62    1.18
   3   1  -6   -0.23    1.17
  -3  -1   6   -0.31    1.29
   3   1  -6   -0.61    1.14
  -3  -1   5  360.45    6.82
  -3  -1   5  343.34    8.31
   3   1  -5  346.14    8.68
   3   1  -5  332.85    7.46
   3   1  -5  328.04    4.44
   3   1  -5  354.97    6.21
   3   1  -5  335.68    8.62
  -3  -1   5  366.06    7.18
   3   1  -5  340.13    7.12
  -3  -1   5  332.08    8.24
   3   1  -4  948.49   10.54
  -3  -1   4  937.27   10.41
   3   1  -4  920.10    7.89
   3   1  -4  929.75   13.64
   3   1  -4  921.09   10.58
   3   1  -4  935.55   13.57
  -3  -1   4  922.25   13.09
  -3  -1   4  954.86   11.34
   3   1  -4  914.91   11.27
  -3  -1   4  936.75   13.25
   3   1  -3   40.98    2.22
  -3  -1   3   40.40    2.23
   3   1  -3   42.96    2.97
   3   1  -3   43.47    2.05
   3   1  -3   40.39    2.87
   3   1  -3   40.24    1.93
   3   1  -3   40.44    2.45
  -3  -1   3   39.40    2.79
  -3  -1   3   36.13    2.78
   3   1  -2   70.52    2.96
  -3  -1   2   69.88    2.94
  -3  -1   2   75.46    3.00
   3   1  -2   71.65    3.63
   3   1  -2   69.19    3.27
   3   1  -2   65.86    3.52
  -3  -1   2   70.39    2.87
   3   1  -2   66.42    2.81
  -3  -1   2   69.10    3.55
  -3  -1   2   66.75    3.63
   3   1  -1  195.34    5.14
  -3  -1   1  195.89    5.16
  -3  -1   1  204.88    4.39
   3   1  -1  186.92    5.06
   3   1  -1  190.00    5.74
  -3  -1   1  193.38    5.74
   3   1  -1  186.28    4.53
  -3  -1   1  198.49    5.25
  -3  -1   1  189.65    5.84
   3   1  -1  186.46    5.81
   3   1   0  159.54    5.63
   3   1   0  170.38    3.62
   3   1   0  153.58    2.30
   3   1   0  165.13    5.26
  -3  -1   0  168.96    3.61
   3   1   0  159.55    4.68
   3   1   0  170.79    5.30
  -3  -1   0  165.94    5.46
   3   1   0  164.30    5.41
  -3  -1   0  158.72    5.57
  -3  -1  -1    2.72    1.50
   3   1   1    0.66    0.50
   3   1   1    0.17    1.03
   3   1   1    2.10    0.72
   3   1   1    1.42    0.98
   3   1   1    1.01    1.21
   3   1   1    0.06    0.84
  -3  -1  -1    2.40    1.29
  -3  -1  -2    8.40    1.79
   3   1   2    6.80    1.53
   3   1   2    7.96    0.87
   3   1   2    8.06    1.34
   3   1   2    7.66    1.72
   3   1   2    8.05    1.60
  -3  -1  -2   10.48    1.80
  -3  -1  -3   -0.23    1.34
  -3  -1  -3   -0.79    0.86
   3   1   3    0.31    1.31
   3   1   3    1.11    0.84
   3   1   3    0.05    1.12
   3   1   3    1.07    1.50
  -3  -1  -3   -0.39    1.11
   3   1   4    2.97    1.44
   3   1   4    3.22    0.94
  -3  -1  -4    3.53    1.11
   3   1   4    6.06    2.06
   3   1   4    3.93    1.69
  -3  -1  -4    3.39    1.64
  -3  -1  -4    2.22    1.45
   3   1   5   69.86    4.74
  -3  -1  -5   74.61    5.10
  -3  -1  -5   80.36    4.19
   3   1   5   77.42    5.37
   3   1   5   73.56    5.05
  -3  -1  -5   60.60    4.54
   3   1   6  380.73   11.69
   3   1   6  352.56   10.97
  -3  -1  -6  381.90   11.69
  -3  -1  -6  382.82    9.85
   3   1   6  376.22   11.91
   3   1   7  208.66    9.02
  -3  -1  -7  209.16    9.02
  -3  -1  -7  216.21    9.35
  -3  -1  -7  207.95    7.89
   3   1   7  215.04    9.54
   3   1   7  205.71    9.23
  -3  -1  -8    3.97    1.89
   3   1   8   -0.71    1.37
  -3  -1  -8    0.54    1.78
  -3  -1  -8    3.13    1.77
  -3  -1  -8   -0.77    1.62
   3   1   8    1.31    1.62
   3   1   8    2.51    2.06
  -3  -1  -9   10.46    2.16
   3   1   9    5.01    2.50
   3   1   9    3.72    1.63
  -3  -1  -9    9.75    2.81
  -3  -1  -9    4.88    2.15
  -3  -1  -9    3.43    1.86
   3   1   9    4.72    2.39
  -3  -1 -10    1.08    1.78
   3   1  10   -0.38    1.59
  -3  -1 -10   -1.46    1.97
  -3  -1 -10   -1.14    1.62
   3   1  10   -0.29    2.04
   3   1  10    0.55    2.04
   3   1  11   -0.12    1.60
  -3  -1 -11   -2.15    2.13
  -3  -1 -11    1.15    1.83
   3   1  11   -0.07    1.81
  -3  -1 -11    5.86    2.81
   3   1  11    1.14    2.10
  -3  -1 -12    0.69    2.10
   3   1  12    0.05    2.23
  -3  -1 -12   -6.04    2.80
   3   1  12   -0.61    2.28
  -3  -1 -12   -2.38    2.38
   3   1  12    3.49    2.62
  -3  -1 -13    4.59    2.43
   3   2 -16   19.56    3.89
   3   2 -16   13.97    3.26
   3   2 -15   26.45    4.22
  -3  -2  15   20.56    3.87
  -3  -2  15   26.14    3.91
  -3  -2  15   20.96    3.26
   3   2 -15   20.18    3.82
   3   2 -15   21.77    4.04
   3   2 -15   20.47    4.05
  -3  -2  15   26.26    4.05
   3   2 -14   -0.58    1.90
   3   2 -14    0.47    1.85
   3   2 -14    0.06    1.72
  -3  -2  14    1.92    1.80
  -3  -2  14   -0.36    1.33
   3   2 -14   -0.18    1.60
  -3  -2  14   -0.70    1.74
  -3  -2  14    1.90    2.00
  -3  -2  13    1.58    1.41
   3   2 -13    2.08    1.68
  -3  -2  13    1.16    1.46
  -3  -2  13   -0.07    1.45
  -3  -2  13    2.68    2.03
   3   2 -13    0.52    1.84
   3   2 -13    1.59    1.43
   3   2 -13    2.05    1.84
  -3  -2  13    3.93    1.93
  -3  -2  12   13.83    2.48
  -3  -2  12    9.01    1.88
   3   2 -12   13.02    2.91
  -3  -2  12    9.53    2.47
  -3  -2  12   10.34    2.56
   3   2 -12    9.38    2.16
   3   2 -12    6.33    2.05
   3   2 -12    9.29    2.30
  -3  -2  11   34.23    3.10
  -3  -2  11   35.65    3.45
  -3  -2  11   36.52    4.13
   3   2 -11   33.91    3.71
   3   2 -11   35.43    4.00
   3   2 -11   33.34    4.20
   3   2 -11   38.71    4.13
  -3  -2  11   32.78    3.85
  -3  -2  10   45.84    3.26
  -3  -2  10   54.96    4.02
  -3  -2  10   42.42    4.06
   3   2 -10   51.60    4.14
   3   2 -10   50.39    4.43
   3   2 -10   51.46    4.59
  -3  -2  10   45.49    4.24
  -3  -2   9   12.61    1.68
   3   2  -9   11.45    2.40
  -3  -2   9    7.68    1.78
  -3  -2   9   15.00    2.72
   3   2  -9   16.95    2.82
   3   2  -9   12.38    2.21
  -3  -2   9   11.48    1.96
  -3  -2   8    5.58    1.18
   3   2  -8    7.44    1.92
  -3  -2   8    0.66    1.92
   3   2  -8    8.49    1.96
  -3  -2   8    6.19    1.41
   3   2  -8    6.09    1.73
   3   2  -8    6.03    1.17
  -3  -2   7    2.52    0.74
   3   2  -7    2.17    1.46
  -3  -2   7    1.30    1.72
   3   2  -7    5.87    1.60
   3   2  -7    3.30    1.52
   3   2  -7    3.36    0.88
  -3  -2   7    1.13    1.09
   3   2  -7    2.54    1.12
  -3  -2   7    2.13    1.38
  -3  -2   6   -1.48    1.44
  -3  -2   6   -0.16    0.55
   3   2  -6    0.54    1.13
  -3  -2   6    0.01    1.31
   3   2  -6    1.46    1.43
   3   2  -6    0.52    0.52
   3   2  -6    0.48    1.21
   3   2  -6   -0.62    0.81
   3   2  -5  235.10    4.65
  -3  -2   5  231.36    4.61
  -3  -2   5  224.14    7.34
   3   2  -5  224.20    7.42
   3   2  -5  227.18    5.62
   3   2  -5  233.08    7.41
   3   2  -5  221.67    3.51
   3   2  -5  232.96    6.84
  -3  -2   5  231.79    7.42
  -3  -2   5  231.04    7.47
   3   2  -4   61.13    3.84
   3   2  -4   63.14    2.44
  -3  -2   4   63.64    2.44
  -3  -2   4   62.88    2.12
  -3  -2   4   63.09    3.88
  -3  -2   4   63.82    4.12
   3   2  -4   55.94    3.65
   3   2  -4   64.41    2.15
   3   2  -4   61.36    2.49
   3   2  -4   61.89    3.48
  -3  -2   4   66.91    3.97
   3   2  -3   41.58    2.13
  -3  -2   3   43.40    2.17
   3   2  -3   33.25    1.45
   3   2  -3   40.99    3.18
  -3  -2   3   44.65    2.14
   3   2  -3   39.85    1.53
   3   2  -3   45.54    2.22
   3   2  -3   39.35    2.88
   3   2  -3   40.03    2.98
  -3  -2   3   39.37    3.04
  -3  -2   3   38.13    3.11
   3   2  -2  122.35    3.85
   3   2  -2  125.43    5.19
   3   2  -2  119.61    5.08
  -3  -2   2  112.95    4.96
  -3  -2   2  127.85    4.15
   3   2  -2  122.73    3.16
   3   2  -2  119.30    4.08
   3   2  -2  114.96    4.77
  -3  -2   2  119.27    5.15
  -3  -2   1   17.85    2.31
   3   2  -1   18.52    1.80
   3   2  -1   19.79    1.80
   3   2  -1   20.95    2.32
  -3  -2   1   19.11    1.71
   3   2  -1   19.21    2.27
   3   2  -1   18.11    2.18
   3   2  -1   19.03    2.07
   3   2  -1   18.13    1.56
  -3  -2   1   17.80    2.26
  -3  -2   0    3.55    1.51
   3   2   0    0.94    0.77
   3   2   0    3.06    1.26
  -3  -2   0    1.00    0.69
   3   2   0    4.72    1.61
   3   2   0    1.47    0.94
  -3  -2   0    0.71    1.16
  -3  -2  -1  121.39    2.81
   3   2   1  122.24    5.46
   3   2   1  129.52    4.05
   3   2   1  122.57    5.04
  -3  -2  -1  130.38    5.82
   3   2   1  129.66    5.57
   3   2   1  123.49    4.88
  -3  -2  -1  119.63    5.54
   3   2   2   91.35    4.95
  -3  -2  -2   94.86    3.17
   3   2   2   93.74    4.46
   3   2   2   99.42    3.65
   3   2   2   99.22    5.28
   3   2   2   96.49    4.81
  -3  -2  -2   87.49    5.05
  -3  -2  -2   91.83    5.23
  -3  -2  -3    0.99    1.33
   3   2   3    3.89    1.08
   3   2   3    4.54    1.76
  -3  -2  -3    3.86    1.16
   3   2   3    3.91    1.18
  -3  -2  -3    1.10    1.51
   3   2   3    4.20    1.87
   3   2   3    4.96    1.80
  -3  -2  -3    2.21    1.50
  -3  -2  -4   15.65    1.97
  -3  -2  -4    9.44    1.93
   3   2   4   12.68    2.25
  -3  -2  -4   13.11    2.57
   3   2   4   14.16    1.90
   3   2   4   10.88    2.51
   3   2   4   18.16    2.74
  -3  -2  -4   12.33    2.44
  -3  -2  -5   16.46    2.94
   3   2   5   24.58    3.53
   3   2   5   24.07    3.08
  -3  -2  -5   23.51    2.59
  -3  -2  -5   19.20    2.96
   3   2   5   25.55    3.23
  -3  -2  -6   17.64    3.03
   3   2   6   15.98    2.68
   3   2   6   16.32    3.27
  -3  -2  -6   18.07    2.45
   3   2   6   16.54    3.00
  -3  -2  -7    2.49    1.29
   3   2   7    4.39    2.08
  -3  -2  -7    3.62    1.72
   3   2   7    2.34    2.01
   3   2   7    2.50    1.86
  -3  -2  -7    1.39    1.73
  -3  -2  -8   -2.30    2.01
  -3  -2  -8    2.54    1.60
   3   2   8   -1.89    1.67
  -3  -2  -8    4.14    2.38
   3   2   8    0.71    2.16
   3   2   8   -0.54    1.66
  -3  -2  -9    7.21    2.18
   3   2   9    2.54    1.90
  -3  -2  -9    3.32    2.37
  -3  -2  -9    1.76    1.85
   3   2   9    5.08    2.31
  -3  -2  -9    3.51    1.92
   3   2   9    3.36    2.25
   3   2  10    9.24    2.76
   3   2  10   12.46    3.41
  -3  -2 -10    9.74    3.05
  -3  -2 -10    6.13    2.60
   3   2  10   12.65    3.33
  -3  -2 -10    3.77    1.89
   3   2  11   55.00    6.16
  -3  -2 -11   37.91    5.10
  -3  -2 -11   40.46    5.34
  -3  -2 -11   42.93    4.91
   3   2  11   49.74    6.12
  -3  -2 -12    3.22    2.33
   3   3 -16   13.60    3.37
   3   3 -16   11.30    2.90
  -3  -3  16   12.57    3.12
   3   3 -16   13.58    3.26
  -3  -3  16   16.33    3.62
   3   3 -15    3.67    2.27
  -3  -3  15   -0.64    1.58
   3   3 -15   -0.67    1.51
  -3  -3  15    1.12    1.81
   3   3 -15   -1.05    1.81
  -3  -3  15    1.24    2.13
   3   3 -14    3.94    2.59
  -3  -3  14    2.28    1.99
  -3  -3  14    4.16    2.14
   3   3 -14    1.61    1.89
   3   3 -14    2.27    1.81
  -3  -3  14    1.10    1.83
  -3  -3  13    3.04    1.51
  -3  -3  13    1.04    1.91
   3   3 -13   -0.05    1.76
   3   3 -13    1.27    1.15
  -3  -3  13    3.63    2.22
   3   3 -12    3.27    1.71
  -3  -3  12    4.93    1.83
   3   3 -12    4.05    1.65
  -3  -3  12    3.52    1.40
   3   3 -12    4.10    1.84
  -3  -3  12    7.56    2.48
  -3  -3  11   41.58    2.87
  -3  -3  11   40.12    3.45
   3   3 -11   41.52    4.20
   3   3 -11   35.64    3.83
   3   3 -11   40.52    3.89
  -3  -3  11   31.74    3.72
  -3  -3  11   42.27    4.40
  -3  -3  10   64.95    3.24
  -3  -3  10   61.02    4.04
  -3  -3  10   52.05    4.69
   3   3 -10   55.96    4.44
   3   3 -10   55.48    4.26
   3   3 -10   62.51    4.88
  -3  -3  10   52.14    4.95
   3   3  -9    1.33    1.30
  -3  -3   9    1.48    1.78
  -3  -3   9    0.27    0.67
  -3  -3   9   -1.79    2.27
   3   3  -9   -0.49    1.63
   3   3  -9   -1.26    1.67
  -3  -3   9    0.81    1.10
   3   3  -8   -1.12    1.52
  -3  -3   8    0.76    0.53
  -3  -3   8   -0.40    1.64
   3   3  -8    1.85    1.29
   3   3  -8    0.47    0.48
  -3  -3   8    1.60    1.13
   3   3  -8    0.74    1.00
   3   3  -8    1.41    1.12
  -3  -3   8   -0.32    1.45
  -3  -3   7    0.06    1.53
  -3  -3   7    0.96    0.43
   3   3  -7   -1.19    1.74
   3   3  -7    0.80    1.31
  -3  -3   7   -0.26    1.67
   3   3  -7    0.51    1.02
   3   3  -7    0.30    0.23
   3   3  -7    0.50    0.91
  -3  -3   7    0.03    1.34
   3   3  -6  149.44    6.46
  -3  -3   6  139.26    2.86
  -3  -3   6  150.55    6.77
   3   3  -6  137.04    4.80
   3   3  -6  147.99    6.20
   3   3  -6  151.83    6.46
  -3  -3   6  151.79    6.68
  -3  -3   6  157.81    6.84
  -3  -3   5    0.35    1.37
   3   3  -5    0.86    0.37
  -3  -3   5    3.94    2.14
   3   3  -5    1.95    1.32
   3   3  -5    0.14    1.19
  -3  -3   5    0.55    0.38
   3   3  -5   -0.19    1.20
  -3  -3   5    0.34    1.19
  -3  -3   4    3.19    1.38
  -3  -3   4    5.26    0.95
   3   3  -4    4.23    1.52
   3   3  -4    5.04    1.68
   3   3  -4    3.16    0.64
   3   3  -4    4.26    1.40
  -3  -3   4    2.11    1.31
  -3  -3   3    2.31    1.58
   3   3  -3    0.46    0.51
  -3  -3   3   -0.57    0.75
   3   3  -3    1.05    1.30
   3   3  -3   -0.57    1.23
   3   3  -3    0.56    1.06
   3   3  -3   -1.03    1.00
   3   3  -3   -0.53    0.99
  -3  -3   3   -0.90    1.27
   3   3  -3    0.23    0.32
   3   3  -2   16.41    2.36
  -3  -3   2   19.29    2.61
   3   3  -2   17.94    2.32
   3   3  -2   17.85    1.61
   3   3  -2   19.23    2.14
   3   3  -2   21.76    2.60
   3   3  -2   18.28    1.39
   3   3  -2   18.31    1.92
  -3  -3   2   17.83    2.35
   3   3  -1  149.72    5.30
   3   3  -1  152.59    6.21
  -3  -3   1  152.29    4.54
   3   3  -1  149.23    5.62
   3   3  -1  145.20    4.45
   3   3  -1  147.00    6.21
  -3  -3   1  143.04    6.24
  -3  -3   1  143.18    6.35
   3   3   0  160.72    5.43
   3   3   0  163.24    6.48
   3   3   0  159.67    6.33
   3   3   0  158.83    5.34
   3   3   0  176.33    7.01
  -3  -3   0  163.12    6.87
  -3  -3   0  153.28    6.70
   3   3   1   18.69    2.00
   3   3   1   21.96    2.77
  -3  -3  -1   18.79    1.31
   3   3   1   20.80    2.47
   3   3   1   17.21    2.14
   3   3   1   17.93    2.49
  -3  -3  -1   23.76    3.16
  -3  -3  -1   15.83    2.52
  -3  -3  -2   16.65    1.56
  -3  -3  -2   18.51    2.85
   3   3   2   19.73    2.74
   3   3   2   17.42    1.97
   3   3   2   17.72    2.43
   3   3   2   17.71    2.71
   3   3   2   17.69    2.35
  -3  -3  -2   15.75    2.65
  -3  -3  -3   -0.19    1.53
   3   3   3   -0.27    1.29
   3   3   3    1.22    1.16
  -3  -3  -3    0.34    1.35
  -3  -3  -3   -1.53    1.12
   3   3   3   -0.62    1.94
   3   3   3    1.56    1.46
   3   3   3    3.67    1.53
  -3  -3  -3    1.30    1.70
  -3  -3  -4   -1.09    2.05
  -3  -3  -4    2.64    1.37
   3   3   4    5.07    1.53
   3   3   4    3.04    1.50
  -3  -3  -4    2.37    1.90
   3   3   4    0.86    1.72
   3   3   4    1.93    1.92
  -3  -3  -4    0.22    1.44
  -3  -3  -5   -1.98    1.93
   3   3   5    1.83    1.62
  -3  -3  -5    2.18    1.50
  -3  -3  -5    1.77    1.84
   3   3   5   -3.49    2.36
   3   3   5    1.13    1.75
   3   3   6   -1.58    1.53
  -3  -3  -6    1.99    1.64
  -3  -3  -6    1.70    1.62
   3   3   6   -1.84    2.39
   3   3   6    4.67    2.26
  -3  -3  -7    4.73    1.88
  -3  -3  -7    0.71    1.18
   3   3   7    2.00    1.69
  -3  -3  -7   -0.32    1.63
   3   3   7    3.96    2.42
   3   3   8   -0.68    1.43
  -3  -3  -8    0.70    1.46
  -3  -3  -8   -0.07    1.65
   3   3   8    2.32    2.18
   3   3   9   41.84    4.97
  -3  -3  -9   44.15    5.20
  -3  -3  -9   39.05    5.01
  -3  -3  -9   39.79    4.36
   3   3   9   43.23    5.37
   3   3  10    7.23    2.62
  -3  -3 -10    3.20    2.20
  -3  -3 -10    6.05    2.52
   3   3  10    8.62    2.95
  -3  -4  16   12.17    3.37
   3   4 -16   14.93    3.13
   3   4 -16   15.46    3.41
  -3  -4  16   24.53    4.42
   3   4 -15   -1.05    2.09
   3   4 -15   -2.05    1.68
  -3  -4  15   -1.29    1.99
  -3  -4  15   -4.03    2.59
   3   4 -15   -0.88    2.12
   3   4 -14    4.26    2.41
  -3  -4  14    0.30    1.85
   3   4 -14    0.64    1.58
   3   4 -14    5.43    2.40
  -3  -4  14    6.54    2.82
   3   4 -13   19.72    3.33
  -3  -4  13   20.92    3.86
   3   4 -13   20.37    3.62
  -3  -4  13   15.25    2.95
   3   4 -13   20.93    3.01
   3   4 -13   16.74    3.19
  -3  -4  12   -2.65    2.34
   3   4 -12   -0.86    1.76
  -3  -4  12   -1.08    1.06
   3   4 -12    0.28    1.28
   3   4 -12   -0.16    1.14
  -3  -4  12   -2.20    2.11
  -3  -4  12    4.50    2.33
   3   4 -11   16.70    2.90
  -3  -4  11   14.13    2.56
   3   4 -11   12.23    2.42
   3   4 -11   18.23    2.86
  -3  -4  11   13.36    1.91
  -3  -4  11   13.37    2.78
   3   4 -10    3.02    1.45
   3   4 -10    3.63    1.75
  -3  -4  10    1.17    2.04
   3   4 -10    1.79    1.28
  -3  -4  10    4.72    1.33
  -3  -4  10    4.26    1.99
  -3  -4   9   11.22    2.63
   3   4  -9   12.20    2.36
   3   4  -9   10.82    1.94
   3   4  -9   16.90    2.78
  -3  -4   9   13.84    1.96
  -3  -4   9   11.53    2.39
  -3  -4   9   11.94    2.55
  -3  -4   8   47.69    4.49
   3   4  -8   54.87    4.40
   3   4  -8   50.09    4.18
   3   4  -8   52.15    4.33
  -3  -4   8   50.70    4.51
  -3  -4   8   54.99    4.67
  -3  -4   7   -1.76    1.72
  -3  -4   7    3.37    2.27
   3   4  -7   -0.09    1.32
   3   4  -7    0.49    1.25
   3   4  -7    0.08    1.01
  -3  -4   7    0.79    1.42
  -3  -4   6   -0.27    1.57
   3   4  -6    1.06    1.24
   3   4  -6    0.56    1.36
  -3  -4   6    4.66    2.37
  -3  -4   6    1.79    0.47
   3   4  -6    0.69    1.19
  -3  -4   6   -0.03    1.34
  -3  -4   5    1.85    1.93
   3   4  -5    0.35    0.20
  -3  -4   5    1.87    2.62
  -3  -4   5    1.53    1.13
   3   4  -5    2.09    1.53
   3   4  -5    1.30    1.39
   3   4  -5   -0.86    1.44
  -3  -4   5    1.06    0.64
  -3  -4   5   -1.92    1.54
   3   4  -4   11.73    1.03
  -3  -4   4   13.61    1.53
   3   4  -4   10.82    1.99
  -3  -4   4   14.26    1.20
   3   4  -4   14.15    2.44
   3   4  -4   12.83    2.25
  -3  -4   4   13.81    2.55
   3   4  -4   11.73    2.07
  -3  -4   4   11.03    2.23
  -3  -4   3    2.00    1.74
   3   4  -3    0.36    0.51
   3   4  -3   -0.51    1.24
  -3  -4   3   -0.26    0.50
   3   4  -3   -0.70    1.08
   3   4  -3   -0.01    1.08
  -3  -4   3    1.25    1.44
   3   4  -2   98.40    4.97
   3   4  -2  101.55    5.64
  -3  -4   2   96.71    3.44
   3   4  -2   93.42    3.42
   3   4  -2  104.78    5.70
  -3  -4   2   95.91    5.53
  -3  -4   2   99.73    5.67
   3   4  -1   -0.17    1.15
  -3  -4   1    2.08    1.65
   3   4  -1    2.04    1.27
   3   4  -1    2.40    1.75
   3   4  -1    0.74    0.94
  -3  -4   1   -0.29    1.56
  -3  -4   0   -0.67    1.58
  -3  -4   0    1.54    0.68
   3   4   0    3.13    1.86
   3   4   0    1.44    1.21
   3   4   0    0.64    1.06
   3   4   0    1.25    1.24
  -3  -4   0   -0.81    1.58
   3   4   1    6.15    1.59
  -3  -4  -1    9.34    2.47
   3   4   1    6.88    1.79
  -3  -4  -1    5.48    1.01
   3   4   1    9.86    2.57
   3   4   1    5.67    1.71
  -3  -4  -1    7.72    2.22
  -3  -4  -2    2.68    1.74
   3   4   2    2.51    1.64
   3   4   2    2.85    1.20
  -3  -4  -2    2.54    1.81
  -3  -4  -2   -0.55    1.19
   3   4   2    2.62    1.69
   3   4   2    2.42    1.76
  -3  -4  -2    2.04    1.99
   3   4   3   10.98    1.96
  -3  -4  -3    9.72    1.47
  -3  -4  -3    8.74    2.42
   3   4   3   11.92    2.36
  -3  -4  -3   13.19    2.65
   3   4   3    9.55    2.13
   3   4   3   11.43    2.38
  -3  -4  -3    7.57    2.45
   3   4   4    7.44    1.89
  -3  -4  -4    8.11    2.27
   3   4   4    9.07    1.93
  -3  -4  -4    4.91    1.46
  -3  -4  -4    5.63    1.78
   3   4   4   10.50    2.54
  -3  -4  -4    4.04    1.95
   3   4   5   52.48    4.12
   3   4   5   46.13    4.58
  -3  -4  -5   48.09    4.87
  -3  -4  -5   45.60    3.65
   3   4   5   50.10    4.94
  -3  -4  -5   44.29    4.98
  -3  -4  -6   18.92    3.16
   3   4   6   21.61    3.37
   3   4   6   21.41    2.87
  -3  -4  -6   21.03    3.65
   3   4   6   21.93    3.88
   3   4   7    3.36    2.18
  -3  -4  -7    3.77    2.33
   3   4   7    2.10    2.14
  -3  -4  -8    2.77    2.13
   3   4   8    2.33    1.91
   3   4   8    2.29    1.87
  -3  -4  -9    9.27    2.89
   3   4   9   12.97    3.04
  -3  -4  -9   10.44    3.42
   3   4   9    5.17    2.79
   3   5 -16   -0.02    1.81
  -3  -5  15   -1.66    2.92
   3   5 -15    4.08    2.43
  -3  -5  15    1.46    2.30
   3   5 -14   60.74    6.45
  -3  -5  14   57.02    5.97
   3   5 -14   60.82    5.77
  -3  -5  14   64.17    6.53
   3   5 -13   42.00    5.11
  -3  -5  13   39.85    5.03
   3   5 -13   39.73    4.21
   3   5 -13   42.34    4.64
  -3  -5  13   45.62    5.23
   3   5 -12   77.94    5.95
  -3  -5  12   75.45    6.49
   3   5 -12   74.71    5.67
  -3  -5  12   76.46    6.59
  -3  -5  11    3.27    1.97
   3   5 -11    1.06    1.29
  -3  -5  11   -3.45    2.40
   3   5 -11    1.50    1.53
  -3  -5  11    1.21    1.74
  -3  -5  10    2.81    1.83
   3   5 -10    6.23    1.92
  -3  -5  10    7.26    2.64
   3   5 -10    2.64    1.41
  -3  -5  10    7.55    1.50
  -3  -5  10    7.45    2.26
  -3  -5   9    3.83    2.13
  -3  -5   9    1.15    1.64
   3   5  -9    0.73    1.20
   3   5  -9    4.88    1.97
  -3  -5   9    2.22    1.09
   3   5  -9    1.73    1.65
  -3  -5   9    1.32    1.63
  -3  -5   8   26.67    3.52
   3   5  -8   29.87    3.66
   3   5  -8   32.18    3.59
  -3  -5   8   31.21    4.04
   3   5  -8   31.63    3.55
  -3  -5   8   32.58    3.70
  -3  -5   7    1.33    1.69
  -3  -5   7    4.42    2.54
   3   5  -7   -1.44    1.59
   3   5  -7    0.96    1.46
  -3  -5   7    1.06    1.91
   3   5  -7   -2.32    1.60
  -3  -5   6   16.51    2.98
  -3  -5   6   20.82    3.48
   3   5  -6   18.30    2.84
   3   5  -6   15.08    2.54
   3   5  -6   14.81    2.59
  -3  -5   6   17.17    2.79
   3   5  -5   49.60    4.37
   3   5  -5   51.83    4.38
   3   5  -5   54.37    4.40
   3   5  -5   52.71    4.47
  -3  -5   5   52.13    4.46
  -3  -5   5   54.32    4.60
   3   5  -4   83.58    5.34
   3   5  -4   84.31    5.49
   3   5  -4   78.71    5.46
  -3  -5   4   85.66    5.64
  -3  -5   4   82.88    5.58
   3   5  -3  166.40    7.27
   3   5  -3  173.11    7.98
   3   5  -3  164.03    7.76
  -3  -5   3  163.98    7.69
  -3  -5   3  158.29    7.65
   3   5  -2   27.45    3.30
  -3  -5   2   30.21    3.60
   3   5  -2   24.45    2.91
   3   5  -2   28.13    3.51
  -3  -5   2   23.48    3.27
  -3  -5   1    0.14    1.66
   3   5  -1    2.37    1.43
  -3  -5   1    0.85    1.50
   3   5  -1    0.55    1.45
   3   5  -1    1.05    1.59
  -3  -5   0   -6.15    2.44
   3   5   0   -1.65    1.35
   3   5   0    2.18    1.53
   3   5   0   -1.47    1.60
   3   5   0   -2.18    1.36
  -3  -5   0   -2.12    1.94
  -3  -5  -1    2.18    1.82
   3   5   1    1.66    1.48
   3   5   1    3.22    1.83
   3   5   1    2.22    1.27
  -3  -5  -1    4.07    2.27
   3   5   1    2.39    1.32
  -3  -5  -2    0.39    1.38
   3   5   2    0.20    1.33
  -3  -5  -2   -0.74    1.35
   3   5   2   -0.54    1.35
   3   5   2    1.68    1.70
   3   5   2    0.49    1.37
  -3  -5  -2    1.13    1.43
  -3  -5  -3   16.53    3.12
   3   5   3   21.70    3.18
  -3  -5  -3   20.88    3.33
   3   5   3   24.46    3.72
   3   5   3   22.02    3.15
   3   5   3   24.18    3.03
  -3  -5  -3   16.22    3.37
  -3  -5  -4   25.63    4.03
   3   5   4   24.71    3.19
  -3  -5  -4   21.02    3.69
   3   5   4   19.75    3.21
  -3  -5  -4   22.55    3.56
   3   5   4   19.70    3.10
  -3  -5  -5    1.29    1.70
   3   5   5    5.06    2.04
   3   5   5    1.23    1.43
  -3  -5  -5    3.19    2.21
   3   5   5    2.35    1.59
  -3  -5  -6    8.28    2.53
   3   5   6    9.21    2.41
  -3  -5  -6   10.75    3.08
   3   5   6    6.60    2.55
  -3  -5  -7    1.72    1.96
   3   5   7   -0.86    1.47
   3   5   7    3.62    2.18
   3   5   8    2.27    2.05
   3   5   8    3.31    2.30
   3   6 -15    4.79    2.32
   3   6 -14   86.73    7.63
  -3  -6  14   83.45    7.50
   3   6 -14   80.25    6.53
  -3  -6  14   89.86    7.60
  -3  -6  14   92.45    7.85
   3   6 -13   51.68    5.76
   3   6 -13   58.34    5.59
  -3  -6  13   50.50    5.90
   3   6 -13   55.53    5.10
  -3  -6  13   63.11    6.23
  -3  -6  13   56.90    6.03
  -3  -6  12    2.77    2.35
   3   6 -12   -1.56    1.72
  -3  -6  12   -1.72    2.04
   3   6 -12   -0.62    1.39
   3   6 -12    3.30    1.86
  -3  -6  12    1.61    1.87
  -3  -6  11   14.97    3.29
  -3  -6  11   15.58    3.17
   3   6 -11   12.68    2.54
   3   6 -11   17.08    3.10
  -3  -6  11   20.28    3.52
   3   6 -10    2.87    1.58
  -3  -6  10   -0.89    1.73
   3   6 -10    3.00    1.67
  -3  -6  10    3.86    1.97
  -3  -6  10    1.56    1.77
  -3  -6   9    6.32    2.25
  -3  -6   9    6.77    2.57
   3   6  -9    3.10    1.86
   3   6  -9    8.50    2.27
   3   6  -9    4.72    1.94
  -3  -6   9    4.91    1.92
  -3  -6   8   -3.62    2.11
  -3  -6   8    1.07    2.43
   3   6  -8    0.91    1.44
   3   6  -8   -0.15    1.44
   3   6  -8   -0.80    1.34
  -3  -6   8   -0.36    1.52
  -3  -6   7    1.20    1.70
  -3  -6   7    1.81    2.36
   3   6  -7    1.23    1.50
   3   6  -7    1.44    1.27
   3   6  -7    1.56    1.49
  -3  -6   7    1.29    1.80
  -3  -6   6    1.11    1.72
   3   6  -6    3.88    1.77
   3   6  -6    3.81    1.84
   3   6  -6    5.60    2.07
  -3  -6   6    3.24    1.86
   3   6  -5   58.69    4.95
   3   6  -5   62.46    5.22
   3   6  -5   53.77    4.87
  -3  -6   5   61.19    5.09
  -3  -6   5   60.32    5.17
  -3  -6   4    7.92    2.43
   3   6  -4    6.38    2.04
   3   6  -4    1.45    1.54
  -3  -6   4    4.41    2.01
   3   6  -4    4.02    1.89
  -3  -6   3    8.32    2.36
   3   6  -3    8.06    2.25
   3   6  -3    6.41    1.95
  -3  -6   3    8.24    2.39
   3   6  -3    7.08    2.16
  -3  -6   2    3.25    1.61
   3   6  -2    7.22    1.93
   3   6  -2    8.49    2.21
   3   6  -2    4.93    2.01
  -3  -6   2    5.74    2.39
   3   6  -1   30.66    3.48
   3   6  -1   36.56    4.14
   3   6  -1   39.12    4.45
  -3  -6   1   33.12    4.04
  -3  -6   1   31.13    3.96
  -3  -6   0    7.11    2.38
   3   6   0    8.53    2.10
   3   6   0    7.48    2.12
   3   6   0    8.64    2.51
  -3  -6   0    7.33    2.52
  -3  -6  -1   -0.81    1.78
  -3  -6  -1    0.23    1.41
   3   6   1    1.28    1.34
   3   6   1    0.52    1.69
   3   6   1    1.87    1.48
  -3  -6  -1    3.50    2.41
   3   6   2    2.42    1.54
  -3  -6  -2    0.10    1.43
  -3  -6  -2    0.04    1.60
   3   6   2    3.35    1.95
  -3  -6  -2    0.01    1.97
  -3  -6  -3   -0.31    1.73
   3   6   3   -0.09    1.44
  -3  -6  -3   -0.27    1.32
   3   6   3    1.72    1.82
   3   6   3    0.49    1.64
  -3  -6  -3    1.58    1.76
  -3  -6  -4   -0.64    1.67
  -3  -6  -4    0.48    1.90
   3   6   4    1.92    1.64
  -3  -6  -4    1.44    2.10
   3   6   4    0.10    1.45
   3   6   4    1.23    1.88
   3   6   4    0.48    1.60
  -3  -6  -5    1.59    2.03
  -3  -6  -5    2.27    1.64
  -3  -6  -5    1.75    1.97
   3   6   5   -2.28    1.45
   3   6   5    4.23    2.63
   3   6   5    0.60    1.77
  -3  -6  -6    3.29    2.77
   3   6   6    6.96    2.34
  -3  -6  -6    5.07    2.51
   3   6   6   10.61    3.26
   3   6   6    5.47    2.22
  -3  -7  14   75.57    7.14
  -3  -7  13   15.53    3.60
   3   7 -13   11.20    2.70
   3   7 -13   13.78    3.41
  -3  -7  13   14.00    3.63
   3   7 -13   13.28    2.85
  -3  -7  13   12.44    3.33
  -3  -7  12    2.21    2.03
   3   7 -12    4.09    2.50
  -3  -7  12    5.09    2.77
   3   7 -12    1.85    1.59
   3   7 -12   -0.20    1.90
  -3  -7  12    3.35    2.20
  -3  -7  11    2.49    2.52
   3   7 -11    1.14    1.68
   3   7 -11    3.58    2.05
   3   7 -11    1.35    1.50
  -3  -7  11    3.42    2.40
  -3  -7  11    2.45    1.91
  -3  -7  10    3.15    1.93
  -3  -7  10    2.07    2.21
   3   7 -10    1.32    1.85
   3   7 -10    3.62    2.26
   3   7 -10   -0.01    1.65
  -3  -7  10    2.84    2.12
  -3  -7   9   58.63    6.07
   3   7  -9   51.20    5.00
   3   7  -9   61.54    5.36
   3   7  -9   51.26    5.46
  -3  -7   9   53.16    5.31
  -3  -7   9   59.30    5.72
  -3  -7   8    0.76    1.59
  -3  -7   8    4.82    3.13
   3   7  -8    0.71    1.53
   3   7  -8   -2.06    1.83
  -3  -7   8    4.24    2.13
  -3  -7   7    2.65    1.95
   3   7  -7    6.12    2.57
   3   7  -7    4.24    2.24
   3   7  -7    2.54    1.85
  -3  -7   7    1.13    2.12
  -3  -7   6    0.82    1.96
   3   7  -6    1.48    1.71
   3   7  -6    2.82    2.32
   3   7  -6    1.26    1.55
  -3  -7   6    3.59    1.97
   3   7  -5   44.70    4.80
   3   7  -5   44.84    4.84
   3   7  -5   49.04    5.13
  -3  -7   5   44.29    4.76
  -3  -7   5   52.52    5.13
   3   7  -4    2.14    1.88
  -3  -7   4    2.40    2.13
   3   7  -4   -0.89    1.71
   3   7  -4    2.36    1.66
  -3  -7   4    1.11    1.67
   3   7  -3  156.91    8.36
   3   7  -3  164.97    8.99
   3   7  -3  165.05    9.12
  -3  -7   3  161.08    8.92
  -3  -7   3  149.67    8.57
   3   7  -2   80.45    6.04
   3   7  -2   82.07    6.53
   3   7  -2   87.49    6.73
  -3  -7   2   78.92    6.39
  -3  -7   2   74.97    6.14
  -3  -7   1   17.27    3.37
   3   7  -1   22.71    3.48
   3   7  -1   23.83    3.71
   3   7  -1   23.40    3.69
  -3  -7   1   18.77    3.38
  -3  -7   0    3.35    1.75
  -3  -7   0    7.49    2.74
   3   7   0    2.61    1.80
   3   7   0    2.73    2.12
  -3  -7   0    4.31    2.34
  -3  -7  -1    5.37    2.38
   3   7   1    9.67    2.83
  -3  -7  -1    9.68    2.34
   3   7   1   11.18    2.68
  -3  -7  -1    6.50    2.54
  -3  -7  -2    2.10    1.65
  -3  -7  -2    0.30    1.48
   3   7   2    0.92    1.84
   3   7   2   -1.06    1.72
  -3  -7  -2   -1.51    2.01
  -3  -7  -3    1.18    2.24
   3   7   3    3.46    2.26
  -3  -7  -3   -0.21    2.15
  -3  -7  -3    1.23    1.57
   3   7   3    6.38    2.41
  -3  -7  -4    0.68    2.04
  -3  -7  -4    2.04    2.03
   3   7   4    2.32    2.26
  -3  -7  -5    1.05    1.68
  -3  -7  -5    0.35    1.83
   3   8 -13   13.45    3.25
  -3  -8  12    4.18    2.58
   3   8 -12    6.79    2.71
   3   8 -12   -0.73    1.89
   3   8 -12    1.85    1.65
  -3  -8  12    5.12    2.41
  -3  -8  11   19.02    3.74
   3   8 -11   20.82    3.97
  -3  -8  11   23.00    4.38
   3   8 -11   21.32    3.46
   3   8 -11   22.98    3.84
  -3  -8  11   19.75    3.59
  -3  -8  10    6.36    2.60
   3   8 -10    1.93    1.90
  -3  -8  10    3.55    2.65
   3   8 -10    1.55    1.53
   3   8 -10    0.93    1.83
  -3  -8  10    5.55    2.46
  -3  -8   9    4.52    2.33
   3   8  -9    5.71    2.51
  -3  -8   9    7.75    3.67
   3   8  -9   -0.48    1.76
   3   8  -9    1.76    2.27
  -3  -8   9    5.99    2.47
   3   8  -8    3.78    1.82
   3   8  -8   -0.02    1.49
  -3  -8   8    1.93    2.35
   3   8  -8    4.69    2.00
  -3  -8   8    2.21    2.08
  -3  -8   7    4.02    2.62
   3   8  -7   -0.57    1.40
   3   8  -7   -1.48    1.65
   3   8  -7   -0.66    1.63
   3   8  -7    0.86    1.88
  -3  -8   7   -0.24    1.86
  -3  -8   6    0.23    1.73
   3   8  -6    0.23    1.80
   3   8  -6    0.89    2.02
   3   8  -6    2.29    2.08
  -3  -8   6   -0.10    1.85
  -3  -8   5   13.13    3.01
   3   8  -5   11.33    2.81
   3   8  -5   16.41    3.25
   3   8  -5   14.62    3.09
  -3  -8   5   13.30    3.08
   3   8  -4   -0.08    1.72
  -3  -8   4    0.78    1.62
   3   8  -4    0.31    1.58
   3   8  -4    0.09    1.65
  -3  -8   4   -0.43    1.81
  -3  -8   3    3.01    2.01
   3   8  -3    3.19    2.05
   3   8  -3    0.58    1.72
   3   8  -3    1.13    1.91
  -3  -8   3    3.52    2.04
  -3  -8   2    0.47    2.03
   3   8  -2    2.78    1.93
  -3  -8   2    0.64    1.33
   3   8  -2    0.21    1.55
   3   8  -2    2.60    1.78
  -3  -8   2   -0.21    1.57
  -3  -8   1    3.59    1.91
  -3  -8   1    4.95    2.62
   3   8  -1    1.58    1.78
   3   8  -1   -0.29    1.80
  -3  -8   1   -0.02    1.86
  -3  -8   0    4.53    2.86
  -3  -8   0    2.90    1.70
   3   8   0    3.87    2.09
   3   8   0    3.44    2.01
  -3  -8   0    2.83    2.25
  -3  -8  -1    4.35    2.57
  -3  -8  -1    3.39    2.07
   3   8   1    3.97    1.97
   3   8   1    8.14    2.85
  -3  -8  -1    2.12    2.28
  -3  -8  -2   13.25    3.24
   3   8   2   19.10    3.57
   3   9 -11   17.04    3.69
   3   9 -11   19.01    3.56
   3   9 -10    6.57    2.67
   3   9 -10    6.25    2.46
  -3  -9  10    5.48    2.10
   3   9  -9    2.28    1.67
  -3  -9   9    5.76    2.56
  -3  -9   8    4.87    2.32
   3   9  -8    1.56    1.72
  -3  -9   8    3.66    2.24
  -3  -9   7    5.07    2.64
   3   9  -7   -0.67    1.61
   3   9  -7    1.35    2.20
  -3  -9   7    1.10    2.01
  -3  -9   6    2.77    2.52
   3   9  -6    1.11    1.74
   3   9  -6    2.33    2.10
   3   9  -6    2.94    2.38
  -3  -9   6    4.57    2.79
  -3  -9   5   12.69    3.40
   3   9  -5    9.31    2.86
  -3  -9   5    7.34    2.98
   3   9  -4    3.15    2.47
  -3  -9   4   -0.78    1.80
  -3  -9   4   -0.19    1.76
   3   9  -3    2.38    1.72
  -3  -9   3    0.92    1.99
  -3  -9   3    5.60    2.60
  -3  -9   2    4.91    2.38
   3   9  -2    2.45    2.31
   3   9  -1    1.66    2.22
  -3  -9   1    2.72    2.38
   3   9   0   32.38    4.86
   4 -11   6   -0.76    1.85
   4 -11   7    2.66    2.34
  -4  10   2   13.23    3.42
   4 -10  -1   19.61    4.00
  -4  10   1   18.81    3.61
   4 -10   0   30.00    4.78
  -4  10   0   26.95    3.92
  -4  10   0   35.67    5.13
   4 -10   1    2.64    2.26
  -4  10  -1    1.23    1.58
   4 -10   1    5.23    3.11
  -4  10  -1    1.35    2.02
   4 -10   2    9.42    3.26
  -4  10  -2    7.55    2.73
   4 -10   2    1.96    2.36
   4 -10   3    3.24    2.51
   4 -10   3    0.53    1.79
  -4  10  -3    0.06    1.97
   4 -10   4    1.67    2.74
   4 -10   4    3.57    2.25
  -4  10  -4    2.67    2.43
   4 -10   5   -1.83    2.50
   4 -10   5    4.19    2.25
  -4  10  -5   -1.13    1.72
   4 -10   6   16.07    3.90
   4 -10   6   19.25    3.60
  -4  10  -6   16.24    3.70
   4 -10   7   71.60    6.88
   4 -10   7   70.05    6.10
  -4  10  -7   67.64    6.40
   4 -10   7   72.94    6.22
  -4  10  -7   75.04    7.31
   4 -10   8   14.00    3.77
  -4  10  -8    6.87    3.28
   4 -10   8    8.00    2.50
   4 -10   8   11.12    2.73
   4 -10   8    9.02    2.65
  -4  10  -8    9.44    2.78
   4 -10   9   35.13    5.17
  -4  10  -9   43.59    5.52
   4 -10   9   38.15    4.96
   4 -10   9   42.26    5.15
   4 -10   9   39.01    5.03
   4 -10  10    2.33    2.69
   4 -10  10    2.63    2.68
  -4  10 -10   -1.10    2.04
   4 -10  10   -1.76    1.75
  -4   9   5   -1.88    2.13
   4  -9  -5    1.81    1.72
  -4   9   4    0.00    1.74
   4  -9  -4    8.66    2.72
  -4   9   4    4.98    2.02
   4  -9  -3   60.15    6.02
  -4   9   3   55.49    5.86
  -4   9   3   53.49    5.39
   4  -9  -3   61.80    6.56
  -4   9   3   53.74    6.22
  -4   9   2    2.54    2.17
   4  -9  -2    1.66    2.23
   4  -9  -2    2.78    2.45
  -4   9   2    3.58    1.92
  -4   9   2    3.64    2.39
   4  -9  -1    7.10    2.76
  -4   9   1    6.48    2.13
   4  -9  -1    5.56    2.62
  -4   9   1    5.40    2.44
   4  -9   0    4.23    2.37
  -4   9   0    0.19    1.61
  -4   9   0    2.30    2.24
   4  -9   0   -0.63    1.80
   4  -9   1    0.29    1.90
  -4   9  -1    0.35    1.45
   4  -9   1    2.10    1.90
  -4   9  -1    1.29    1.88
   4  -9   2   10.08    3.00
  -4   9  -2    7.80    2.05
   4  -9   2    6.15    2.27
  -4   9  -2   10.28    2.67
   4  -9   3   27.51    4.10
  -4   9  -3   28.62    4.04
  -4   9  -3   26.78    3.51
   4  -9   3   30.95    4.19
  -4   9  -3   26.67    4.15
   4  -9   4    2.44    1.91
  -4   9  -4    1.60    2.04
  -4   9  -4    3.57    1.74
   4  -9   4    5.55    2.32
  -4   9  -4    5.31    2.36
   4  -9   5    5.81    2.50
  -4   9  -5    6.46    2.64
   4  -9   5    3.02    1.97
  -4   9  -5    5.90    2.10
   4  -9   6    5.66    2.49
  -4   9  -6    8.02    3.03
   4  -9   6    7.32    2.43
  -4   9  -6    7.71    2.63
   4  -9   6    3.81    1.84
   4  -9   6    5.28    1.83
   4  -9   7   17.86    3.89
  -4   9  -7   18.03    3.45
  -4   9  -7   19.83    3.56
   4  -9   7   22.87    3.45
   4  -9   7   18.17    3.19
   4  -9   7   14.91    3.06
   4  -9   7   15.59    2.92
   4  -9   8    8.58    2.71
  -4   9  -8    8.27    2.85
   4  -9   8    6.37    2.29
   4  -9   8    9.42    2.67
   4  -9   8    5.59    2.17
  -4   9  -8    9.82    2.50
   4  -9   9    3.26    2.37
  -4   9  -9   -0.68    2.10
   4  -9   9   -1.21    1.92
   4  -9   9   -0.79    1.79
   4  -9   9   -0.63    1.49
  -4   9  -9    0.88    1.70
   4  -9   9    0.03    1.96
   4  -9  10    3.84    2.28
  -4   9 -10    0.68    2.38
   4  -9  10    0.40    2.07
   4  -9  10   -1.69    1.87
   4  -9  10   -0.59    1.59
   4  -9  10    2.55    2.42
   4  -9  11    3.26    2.14
  -4   9 -11    0.36    1.89
   4  -9  11    0.17    1.96
   4  -9  11   -0.59    1.98
  -4   8   6    2.29    2.23
   4  -8  -6    4.01    3.11
  -4   8   6    1.00    1.65
   4  -8  -6    0.70    1.82
  -4   8   5    4.20    2.09
   4  -8  -5    6.36    2.47
  -4   8   5    6.29    2.18
   4  -8  -5    3.82    1.87
   4  -8  -4    6.77    2.42
  -4   8   4    0.76    1.57
   4  -8  -4    2.64    2.41
  -4   8   4    3.22    1.81
   4  -8  -3    1.60    1.88
  -4   8   3    3.48    2.46
   4  -8  -3    3.20    2.22
  -4   8   3   -0.14    1.39
   4  -8  -2    0.15    1.86
  -4   8   2    1.08    1.53
   4  -8  -2    2.94    2.16
  -4   8   2    0.37    1.35
   4  -8  -1    2.53    1.93
  -4   8   1   -0.39    1.62
  -4   8   1    1.19    2.04
   4  -8  -1    0.97    1.83
  -4   8   1    1.65    1.35
   4  -8   0    0.85    1.82
  -4   8   0   -0.40    1.03
  -4   8   0    2.01    1.71
   4  -8   0    0.22    1.82
  -4   8   0    0.46    1.51
   4  -8   1  105.36    7.15
  -4   8  -1  103.37    6.58
   4  -8   1  116.19    7.58
  -4   8  -1  111.58    5.62
  -4   8  -1  104.96    7.07
  -4   8  -1  113.58    7.27
   4  -8   2    3.34    2.02
  -4   8  -2    0.17    1.96
  -4   8  -2   -0.85    1.30
   4  -8   2    1.96    1.85
  -4   8  -2    0.19    1.43
   4  -8   3   16.05    3.31
  -4   8  -3   21.03    3.51
  -4   8  -3   16.19    2.69
  -4   8  -3   18.15    3.10
   4  -8   3   20.69    3.37
   4  -8   3   15.12    2.20
   4  -8   3   17.25    2.27
   4  -8   4   -0.36    1.71
  -4   8  -4    5.76    1.87
  -4   8  -4    4.10    2.24
   4  -8   4    2.80    1.73
   4  -8   4    0.37    1.34
  -4   8  -4   -0.54    1.61
   4  -8   4    1.51    1.42
   4  -8   5    1.19    1.97
  -4   8  -5    0.82    1.17
  -4   8  -5    1.93    2.01
   4  -8   5    3.50    1.83
  -4   8  -5   -0.92    1.87
   4  -8   5   -1.26    1.48
   4  -8   5   -1.40    1.76
   4  -8   6   -3.06    2.11
  -4   8  -6    1.43    1.20
  -4   8  -6    0.52    2.07
  -4   8  -6   -1.64    1.63
   4  -8   6    0.41    1.43
   4  -8   6   -1.53    1.63
   4  -8   7    3.13    2.08
  -4   8  -7    2.56    1.82
  -4   8  -7    3.66    1.70
  -4   8  -7    8.69    3.02
   4  -8   7    2.80    1.37
   4  -8   7    1.68    1.64
   4  -8   8    2.50    2.33
  -4   8  -8    0.57    1.86
   4  -8   8    0.35    1.54
   4  -8   8    2.93    1.84
  -4   8  -8    2.74    1.82
   4  -8   9    6.18    2.70
  -4   8  -9    4.45    2.62
  -4   8  -9    1.00    1.49
   4  -8   9    0.87    1.85
   4  -8   9   -1.81    1.83
   4  -8  10    5.09    2.60
  -4   8 -10    0.22    1.76
   4  -8  10   -0.05    1.77
   4  -8  10    2.12    1.77
   4  -8  11   28.15    4.01
  -4   8 -11   24.91    4.16
   4  -8  11   25.74    3.91
   4  -8  11   28.48    4.07
  -4   8 -12   47.95    5.55
   4  -8  12   45.05    5.43
  -4   8 -13    1.63    1.77
   4  -8  13    1.10    2.11
   4  -7  -8    0.91    2.24
  -4   7   8   -1.07    1.63
   4  -7  -8    0.77    2.26
  -4   7   7    6.47    2.23
   4  -7  -7    2.09    2.31
  -4   7   7    5.19    2.58
   4  -7  -7    0.03    1.78
   4  -7  -6   17.37    3.11
  -4   7   6   19.41    3.69
   4  -7  -6   19.97    3.71
  -4   7   6   16.47    3.23
   4  -7  -6   21.51    3.63
   4  -7  -5    1.68    1.73
  -4   7   5    5.01    2.04
   4  -7  -5    4.90    2.40
  -4   7   5    4.95    1.99
   4  -7  -5    5.34    2.09
   4  -7  -4   53.84    4.94
  -4   7   4   52.15    5.24
   4  -7  -4   44.05    5.08
  -4   7   4   42.73    4.46
   4  -7  -3   50.18    4.83
  -4   7   3   40.35    4.61
   4  -7  -3   42.34    4.65
  -4   7   3   39.85    4.13
   4  -7  -2   19.12    3.21
  -4   7   2   16.61    3.02
   4  -7  -2   14.83    3.12
  -4   7   2   17.31    2.73
   4  -7  -1   13.89    3.10
  -4   7   1   13.98    2.68
  -4   7   1   14.88    2.87
   4  -7  -1   14.97    3.11
  -4   7   1   12.59    2.14
   4  -7   0    2.75    1.67
  -4   7   0    5.65    1.95
  -4   7   0    6.11    2.04
   4  -7   0    6.99    2.31
  -4   7   0    8.04    2.49
  -4   7   0    3.38    1.27
   4  -7   1   97.04    6.52
  -4   7  -1   97.99    5.99
   4  -7   1   99.74    6.35
  -4   7  -1   96.79    5.02
   4  -7   1  104.61    4.14
  -4   7  -1  101.61    6.42
   4  -7   1   93.24    3.99
  -4   7  -1   98.99    6.26
   4  -7   2   23.78    3.55
  -4   7  -2   20.39    2.88
  -4   7  -2   19.53    3.02
  -4   7  -2   20.26    2.20
   4  -7   2   25.19    3.45
   4  -7   2   17.09    1.94
  -4   7  -2   22.10    3.20
   4  -7   2   17.34    2.13
   4  -7   3    1.56    1.81
  -4   7  -3    0.22    1.32
  -4   7  -3    1.72    1.78
  -4   7  -3   -1.01    1.28
   4  -7   3    2.85    1.80
  -4   7  -3   -0.11    0.74
   4  -7   4    3.31    1.00
   4  -7   4    6.46    2.48
  -4   7  -4    3.27    1.50
  -4   7  -4   -0.89    1.63
   4  -7   4    4.81    1.90
  -4   7  -4    0.90    1.26
  -4   7  -5    0.23    1.08
  -4   7  -5    2.05    1.77
   4  -7   5   -0.06    1.44
  -4   7  -5   -0.32    1.31
   4  -7   5   -0.53    0.82
   4  -7   6  113.77    6.91
  -4   7  -6  114.98    6.16
   4  -7   6  117.76    5.96
  -4   7  -6  120.08    6.68
   4  -7   6  120.33    6.87
  -4   7  -6  108.00    7.04
   4  -7   7    2.96    2.20
  -4   7  -7    0.72    1.35
  -4   7  -7   -1.88    1.78
   4  -7   7   -0.72    1.05
   4  -7   7    1.58    1.64
  -4   7  -7   -0.45    1.28
   4  -7   8    7.82    2.70
  -4   7  -8    5.25    2.00
  -4   7  -8    6.13    2.38
   4  -7   8    7.22    1.74
   4  -7   8    8.18    2.36
   4  -7   8    5.26    2.11
  -4   7  -8    5.03    1.97
   4  -7   9   17.51    3.15
  -4   7  -9   10.69    2.81
   4  -7   9   11.93    2.22
  -4   7  -9   12.21    2.85
   4  -7   9   11.97    2.76
   4  -7   9   10.15    2.54
   4  -7  10    7.39    1.93
  -4   7 -10   13.29    2.95
   4  -7  10   10.50    2.32
  -4   7 -10    7.83    2.73
   4  -7  10   11.36    2.81
   4  -7  10   15.16    3.32
   4  -7  11   -0.45    1.52
  -4   7 -11    5.25    2.27
   4  -7  11    5.15    1.83
  -4   7 -11    4.13    2.28
   4  -7  11    3.54    1.96
   4  -7  11    4.78    2.35
  -4   7 -12    4.47    2.34
   4  -7  12    5.58    2.17
  -4   7 -12    4.90    2.68
   4  -7  12    1.64    2.09
   4  -7  12    5.00    2.22
  -4   7 -13    8.66    2.52
   4  -7  13    6.03    2.46
  -4   7 -13    5.48    2.70
   4  -7  13    9.90    2.94
   4  -7  14    0.94    1.41
   4  -7  14   -0.35    2.03
   4  -6 -10    0.68    2.02
   4  -6 -10   -0.22    1.55
  -4   6   9    3.70    2.70
   4  -6  -9    3.62    2.27
  -4   6   9   -0.14    1.63
   4  -6  -9    5.02    2.46
   4  -6  -9    1.44    1.69
  -4   6   8    5.95    2.41
   4  -6  -8   13.50    3.29
   4  -6  -8    7.66    2.76
  -4   6   8   10.02    2.76
   4  -6  -8    6.39    2.04
  -4   6   7   -0.50    1.46
   4  -6  -7    0.85    1.81
  -4   6   7    0.60    1.43
   4  -6  -7   -0.28    1.54
   4  -6  -7    3.29    1.70
   4  -6  -6   40.93    4.03
  -4   6   6   47.99    5.29
   4  -6  -6   45.05    4.84
  -4   6   6   44.36    4.88
   4  -6  -6   52.53    4.36
   4  -6  -6   46.09    4.72
   4  -6  -5  356.34   11.53
  -4   6   5  387.77   13.65
   4  -6  -5  366.10   12.94
  -4   6   5  375.24   12.75
   4  -6  -5  416.42   10.88
   4  -6  -5  393.01   12.47
   4  -6  -4   55.01    4.60
  -4   6   4   61.68    5.49
   4  -6  -4   59.91    5.24
  -4   6   4   57.75    4.94
   4  -6  -4   63.99    4.92
   4  -6  -4   61.84    3.94
   4  -6  -3   77.94    5.56
  -4   6   3   69.20    5.51
   4  -6  -3   85.85    6.01
  -4   6   3   75.65    5.31
   4  -6  -3   78.05    5.11
  -4   6   3   77.69    5.02
   4  -6  -2    8.13    2.31
  -4   6   2    8.57    2.23
  -4   6   2    6.73    1.96
   4  -6  -2    6.86    1.93
   4  -6  -2   10.64    2.13
  -4   6   2    8.01    2.03
  -4   6   1    8.53    2.09
  -4   6   1   11.77    2.52
   4  -6  -1   10.38    2.55
  -4   6   1   11.32    2.15
   4  -6  -1   10.55    1.86
   4  -6  -1   18.25    3.37
   4  -6   0    6.52    2.27
  -4   6   0    1.24    1.33
  -4   6   0    1.18    1.55
   4  -6   0    3.00    1.80
   4  -6   0    2.85    0.77
  -4   6   0    3.41    1.27
   4  -6   0    4.04    1.25
   4  -6   0    4.42    0.93
   4  -6   1    3.86    2.13
  -4   6  -1   -0.55    0.92
  -4   6  -1    0.50    1.17
  -4   6  -1    2.77    1.75
  -4   6  -1    0.24    1.33
   4  -6   1    0.62    1.54
   4  -6   1    0.69    0.82
   4  -6   2    8.93    2.47
  -4   6  -2    6.88    2.15
  -4   6  -2    6.78    1.82
  -4   6  -2    5.50    1.94
   4  -6   2    6.30    1.89
  -4   6  -2    8.09    1.39
   4  -6   2    6.28    1.06
   4  -6   2    5.17    0.66
   4  -6   3   53.08    4.72
  -4   6  -3   46.76    3.86
   4  -6   3   48.08    3.99
  -4   6  -3   49.71    2.98
  -4   6  -3   46.96    3.93
   4  -6   3   49.71    2.01
   4  -6   3   44.72    2.36
  -4   6  -3   39.87    4.02
   4  -6   4  425.78   12.45
  -4   6  -4  429.19   11.50
   4  -6   4  431.60   10.95
   4  -6   4  391.67    6.63
  -4   6  -4  439.26    7.82
  -4   6  -4  443.97   11.43
  -4   6  -4  423.45   12.40
   4  -6   5   28.89    3.71
   4  -6   5   26.20    2.79
  -4   6  -5   23.96    2.81
   4  -6   5   25.23    2.11
  -4   6  -5   30.28    1.95
  -4   6  -5   28.73    3.67
  -4   6  -5   29.90    3.14
   4  -6   5   27.09    3.35
   4  -6   6  565.59   14.33
  -4   6  -6  582.04   13.40
   4  -6   6  589.61   11.70
   4  -6   6  529.33   10.24
  -4   6  -6  543.75   12.62
  -4   6  -6  559.35   13.88
  -4   6  -6  546.37   14.58
   4  -6   6  574.79   14.26
   4  -6   7    9.90    2.53
  -4   6  -7    5.47    1.73
   4  -6   7    6.53    1.64
   4  -6   7    3.91    1.24
  -4   6  -7    6.69    2.23
  -4   6  -7    3.26    1.80
   4  -6   7    3.36    1.59
   4  -6   7    6.43    2.10
  -4   6  -7    5.71    1.84
   4  -6   8   -1.12    2.15
   4  -6   8    2.17    1.24
  -4   6  -8    4.20    2.02
  -4   6  -8    5.05    1.94
   4  -6   8    2.72    1.98
   4  -6   8    3.50    2.03
   4  -6   9    1.51    1.17
  -4   6  -9    0.46    1.51
  -4   6  -9    3.33    1.99
   4  -6   9    2.28    1.96
   4  -6   9    0.02    1.57
   4  -6  10   -4.32    2.07
   4  -6  10   -0.04    1.30
  -4   6 -10   -0.48    1.64
  -4   6 -10    2.40    1.83
   4  -6  10    1.44    1.73
   4  -6  10   -1.11    1.93
   4  -6  11    3.20    1.93
  -4   6 -11    1.86    1.89
  -4   6 -11    3.26    1.98
   4  -6  11   -1.17    1.65
   4  -6  11    0.75    1.64
   4  -6  12    2.16    1.58
  -4   6 -12    4.67    2.28
  -4   6 -12    2.88    2.09
   4  -6  12    1.88    1.91
   4  -6  12    0.75    1.98
  -4   6 -13    4.80    2.10
   4  -6  13    8.68    2.49
  -4   6 -13    9.66    3.11
   4  -6  13   11.25    2.90
   4  -6  13   11.57    3.28
   4  -6  14   30.32    4.58
   4  -6  14   30.14    4.79
   4  -5 -11    1.22    1.84
   4  -5 -11    5.04    2.46
  -4   5  10   13.98    3.45
   4  -5 -10   11.71    3.06
  -4   5  10    7.02    2.80
   4  -5 -10    7.69    2.77
   4  -5 -10    7.80    2.50
  -4   5   9    7.31    2.29
   4  -5  -9    8.67    2.85
  -4   5   9    4.16    2.21
   4  -5  -9   10.28    2.88
   4  -5  -9    7.19    2.09
  -4   5   8   10.80    2.95
   4  -5  -8   11.63    2.79
   4  -5  -8   13.00    2.89
  -4   5   8   12.08    3.00
   4  -5  -8   13.22    2.63
   4  -5  -7  117.71    6.25
  -4   5   7  115.35    7.64
   4  -5  -7  117.42    7.40
  -4   5   7  112.10    7.37
   4  -5  -7  121.37    6.79
   4  -5  -7  117.12    7.37
   4  -5  -6  171.96    7.51
  -4   5   6  177.70    9.10
   4  -5  -6  178.06    8.73
  -4   5   6  170.65    8.60
   4  -5  -6  190.31    7.79
   4  -5  -6  174.14    8.43
   4  -5  -5   33.38    3.43
  -4   5   5   35.06    3.99
   4  -5  -5   35.26    3.90
   4  -5  -5   37.65    4.14
  -4   5   5   34.20    3.91
   4  -5  -5   37.73    3.38
   4  -5  -4  134.06    6.67
  -4   5   4  144.04    7.61
   4  -5  -4  145.23    7.44
  -4   5   4  132.81    6.92
  -4   5   4  148.83    4.28
   4  -5  -4  159.11    6.09
   4  -5  -4  140.83    6.78
  -4   5   4  143.14    5.96
   4  -5  -3   13.65    2.29
  -4   5   3   17.82    2.67
  -4   5   3   19.49    3.05
  -4   5   3   15.53    2.32
  -4   5   3   15.41    1.21
   4  -5  -3   15.65    2.90
   4  -5  -3   17.87    2.53
   4  -5  -2    9.29    2.26
  -4   5   2   12.44    2.50
  -4   5   2   10.92    0.73
  -4   5   2   12.62    2.23
   4  -5  -2   11.25    2.39
  -4   5   2   11.30    2.14
   4  -5  -2   11.85    1.95
  -4   5   2   12.61    1.49
   4  -5  -1   22.11    3.08
  -4   5   1   20.07    2.76
  -4   5   1   20.22    2.64
   4  -5  -1   19.76    2.99
   4  -5  -1   21.13    1.67
  -4   5   1   22.76    1.64
  -4   5   1   20.88    2.48
   4  -5  -1   21.95    1.66
  -4   5   1   18.40    1.45
   4  -5  -1   20.74    2.18
   4  -5   0   32.73    3.71
  -4   5   0   30.29    3.29
  -4   5   0   26.38    2.57
   4  -5   0   29.16    3.12
  -4   5   0   25.39    2.84
   4  -5   0   26.48    2.09
  -4   5   0   27.17    1.50
   4  -5   0   26.16    2.19
   4  -5   0   26.20    1.97
   4  -5   1   57.55    4.49
  -4   5  -1   46.55    3.74
  -4   5  -1   40.73    3.43
   4  -5   1   41.94    3.67
  -4   5  -1   43.78    3.07
   4  -5   1   49.33    2.59
  -4   5  -1   43.59    1.53
  -4   5  -1   44.90    3.77
   4  -5   2   10.40    2.49
   4  -5   2    6.65    0.75
   4  -5   2    7.55    0.92
  -4   5  -2    7.92    1.81
  -4   5  -2    8.27    1.82
   4  -5   2    7.64    1.79
  -4   5  -2    7.17    0.79
  -4   5  -2    7.14    1.96
  -4   5  -2    5.97    0.58
  -4   5  -2    5.05    0.53
  -4   5  -2    8.13    1.47
   4  -5   3   22.53    3.26
  -4   5  -3   22.45    2.74
  -4   5  -3   17.97    2.23
   4  -5   3   19.26    1.57
  -4   5  -3   19.80    1.57
  -4   5  -3   19.21    1.89
   4  -5   3   20.36    2.39
  -4   5  -3   20.58    2.44
  -4   5  -3   20.39    2.76
  -4   5  -3   20.84    1.14
   4  -5   4  368.40   10.68
  -4   5  -4  364.37   10.09
   4  -5   4  370.43    9.04
   4  -5   4  343.37    7.23
  -4   5  -4  353.66    9.62
  -4   5  -4  369.47    9.21
  -4   5  -4  371.64    5.72
   4  -5   4  358.47   10.60
  -4   5  -4  360.32   10.80
   4  -5   5   30.17    3.20
  -4   5  -5   39.59    3.57
   4  -5   5   38.58    2.95
   4  -5   5   33.64    2.62
  -4   5  -5   41.02    3.20
  -4   5  -5   38.21    3.53
  -4   5  -5   31.53    3.52
  -4   5  -5   38.88    2.19
   4  -5   5   34.23    3.54
   4  -5   5   27.48    1.26
   4  -5   6   -3.52    2.18
  -4   5  -6    2.44    1.60
   4  -5   6   -0.96    1.65
   4  -5   6    0.86    1.12
   4  -5   6    1.72    0.99
  -4   5  -6   -0.37    1.45
  -4   5  -6    3.28    1.72
  -4   5  -6    0.04    0.73
   4  -5   6   -0.71    1.75
  -4   5  -6    1.56    1.27
   4  -5   7    1.14    1.94
  -4   5  -7    4.75    1.75
   4  -5   7    4.66    1.58
   4  -5   7    4.53    1.16
  -4   5  -7    2.70    1.68
  -4   5  -7    1.62    1.51
  -4   5  -7    3.89    1.11
   4  -5   7    4.40    1.71
   4  -5   7    2.14    1.75
   4  -5   8    1.17    1.40
   4  -5   8    2.60    1.37
  -4   5  -8    1.99    1.62
  -4   5  -8   -0.20    1.41
  -4   5  -8    2.39    1.25
   4  -5   8    3.16    1.94
   4  -5   8    1.87    1.69
   4  -5   9   -0.52    1.27
   4  -5   9    2.34    1.47
  -4   5  -9   -2.29    1.76
  -4   5  -9    0.13    1.35
  -4   5  -9    1.69    1.12
   4  -5   9   -0.45    1.53
   4  -5   9    1.55    1.68
   4  -5  10    1.98    1.52
  -4   5 -10    4.24    1.69
   4  -5  10    2.23    1.49
  -4   5 -10    7.05    2.36
  -4   5 -10    0.43    1.47
   4  -5  10    2.69    2.09
   4  -5  10   -1.47    1.70
  -4   5 -11    4.21    1.85
   4  -5  11    4.64    2.16
  -4   5 -11    0.10    1.54
  -4   5 -11    2.64    2.21
   4  -5  11    3.76    2.06
   4  -5  11    3.31    2.18
   4  -5  12   13.43    2.93
  -4   5 -12   12.48    2.66
  -4   5 -12   14.41    3.24
  -4   5 -12   11.91    2.69
   4  -5  12   12.58    3.07
   4  -5  12   16.34    3.50
   4  -5  13    3.35    1.76
  -4   5 -13    3.56    1.73
  -4   5 -13   -0.15    1.98
   4  -5  13    7.91    2.62
   4  -5  13    2.06    2.28
   4  -5  14    0.00    1.53
   4  -5  14    5.13    2.16
   4  -5  14    7.74    3.01
  -4   4  12   14.90    3.50
  -4   4  12   16.11    3.72
   4  -4 -12   21.11    5.10
   4  -4 -12   12.76    3.11
  -4   4  11    6.63    2.52
   4  -4 -11    9.83    2.87
   4  -4 -11   12.17    3.01
  -4   4  11    6.55    2.49
   4  -4 -11   14.33    4.11
   4  -4 -11    2.13    2.28
  -4   4  10    2.66    1.92
  -4   4  10    0.08    1.09
   4  -4 -10    2.68    1.93
  -4   4  10   -0.26    1.50
   4  -4 -10   -0.30    1.93
   4  -4 -10   -0.36    1.64
  -4   4   9   16.22    3.50
  -4   4   9   13.11    2.35
   4  -4  -9   12.93    2.72
  -4   4   9   19.92    3.47
   4  -4  -9   12.11    2.89
   4  -4  -9   14.48    2.92
  -4   4   8    2.11    1.65
  -4   4   8   -0.80    0.99
   4  -4  -8    0.83    1.65
  -4   4   8    4.42    2.07
   4  -4  -8    1.60    1.55
   4  -4  -8    0.43    1.66
   4  -4  -7   21.38    2.74
  -4   4   7   18.20    3.25
  -4   4   7   19.35    2.29
   4  -4  -7   14.48    2.74
  -4   4   7   21.21    3.28
   4  -4  -7   23.77    3.39
   4  -4  -7   23.77    2.95
   4  -4  -6   11.98    2.32
  -4   4   6   10.39    2.26
   4  -4  -6   11.94    2.59
  -4   4   6    9.79    1.63
  -4   4   6   12.50    2.59
   4  -4  -6   12.10    2.43
   4  -4  -6   12.34    2.13
   4  -4  -5   10.14    2.19
  -4   4   5   11.60    2.51
  -4   4   5   13.11    1.88
  -4   4   5   11.03    2.36
   4  -4  -5   12.63    2.58
  -4   4   5   11.75    1.62
   4  -4  -5   15.57    2.60
   4  -4  -5   16.97    2.24
   4  -4  -4    4.75    1.80
  -4   4   4    4.60    0.68
  -4   4   4    1.49    1.62
  -4   4   4    2.68    1.21
   4  -4  -4    2.54    1.82
  -4   4   4    4.50    1.53
   4  -4  -4    3.61    1.33
   4  -4  -4    5.28    1.75
  -4   4   4    1.69    0.46
   4  -4  -3   -0.68    1.76
  -4   4   3    1.60    1.30
  -4   4   3    0.56    1.08
   4  -4  -3    1.40    1.62
   4  -4  -3    0.41    1.20
  -4   4   3    2.25    1.40
   4  -4  -2  481.88   11.50
  -4   4   2  487.11   12.02
   4  -4  -2  483.48   11.78
  -4   4   2  477.58   10.96
   4  -4  -2  492.96   10.12
  -4   4   2  494.79    7.70
  -4   4   2  484.19   10.23
   4  -4  -1   79.90    4.74
  -4   4   1   77.26    4.77
   4  -4  -1   82.70    4.87
  -4   4   1   84.36    2.65
  -4   4   1   81.51    4.40
   4  -4  -1   82.55    2.67
  -4   4   1   77.54    3.16
   4  -4  -1   82.38    3.82
   4  -4  -1   81.68    2.66
  -4   4   1   83.17    2.58
  -4   4   1   82.61    4.46
   4  -4   0  244.48    8.22
  -4   4   0  257.50    8.27
   4  -4   0  260.60    8.14
  -4   4   0  270.74    4.65
  -4   4   0  259.60    7.37
   4  -4   0  267.10    5.55
  -4   4   0  263.05    5.32
   4  -4   0  266.71    6.02
   4  -4   0  265.59    5.60
  -4   4   0  247.67    7.72
   4  -4   1    5.01    1.55
   4  -4   1    5.49    0.66
  -4   4  -1    7.16    1.74
  -4   4  -1    8.19    0.94
   4  -4   1    6.31    1.62
  -4   4  -1    7.05    1.28
  -4   4  -1    7.67    1.73
   4  -4   1    6.41    0.97
  -4   4  -1    5.63    1.26
   4  -4   2   22.76    2.68
  -4   4  -2   24.81    2.75
   4  -4   2   25.60    2.50
   4  -4   2   24.61    1.86
  -4   4  -2   24.93    1.73
  -4   4  -2   24.63    2.21
  -4   4  -2   25.61    2.74
   4  -4   2   20.77    1.22
  -4   4  -2   25.32    2.38
   4  -4   2   26.15    1.64
   4  -4   3    3.09    1.57
   4  -4   3    2.35    0.63
  -4   4  -3    2.56    1.33
   4  -4   3    3.81    1.15
   4  -4   3    3.37    1.25
  -4   4  -3    3.44    1.32
  -4   4  -3    2.72    0.76
  -4   4  -3    3.55    1.62
   4  -4   3    0.47    1.33
  -4   4  -3    3.35    1.16
   4  -4   4   24.41    2.79
  -4   4  -4   27.73    2.96
   4  -4   4   31.33    2.51
   4  -4   4   26.42    2.31
  -4   4  -4   30.07    2.41
  -4   4  -4   25.92    2.68
  -4   4  -4   28.28    2.08
  -4   4  -4   25.57    3.09
   4  -4   4   29.50    3.19
   4  -4   4   21.70    1.16
   4  -4   5   -0.71    1.56
  -4   4  -5    0.99    1.30
   4  -4   5   -0.84    0.98
   4  -4   5    2.35    1.19
  -4   4  -5    1.67    1.46
  -4   4  -5    0.53    1.59
  -4   4  -5    0.66    0.92
   4  -4   5    0.82    1.38
   4  -4   5   -0.92    1.60
  -4   4  -5    1.23    1.01
   4  -4   5    0.61    0.56
  -4   4  -6   41.64    3.85
   4  -4   6   47.13    3.79
   4  -4   6   42.58    3.89
   4  -4   6   39.21    1.96
  -4   4  -6   42.83    3.74
   4  -4   6   45.78    2.57
   4  -4   6   36.32    3.30
  -4   4  -6   41.97    3.83
  -4   4  -6   42.19    3.04
   4  -4   6   42.18    4.15
   4  -4   6   39.77    2.40
   4  -4   7   16.90    2.51
  -4   4  -7   19.54    2.38
   4  -4   7   17.50    2.55
  -4   4  -7   19.74    2.98
  -4   4  -7   14.56    2.55
   4  -4   7   14.35    2.80
   4  -4   7   18.72    2.97
   4  -4   8    1.53    1.54
  -4   4  -8    0.99    1.47
   4  -4   8    1.64    1.30
  -4   4  -8    4.41    1.91
  -4   4  -8    2.25    1.12
   4  -4   8    1.65    1.76
   4  -4   8    2.66    1.92
  -4   4  -9  102.79    6.30
   4  -4   9  116.96    5.63
   4  -4   9  103.72    6.37
  -4   4  -9  111.64    7.06
  -4   4  -9  107.62    5.99
   4  -4   9  104.00    6.57
   4  -4   9  111.50    7.06
   4  -4  10    2.91    1.71
  -4   4 -10    3.12    1.95
   4  -4  10    2.57    2.11
  -4   4 -10    1.60    1.41
  -4   4 -10    3.19    1.39
   4  -4  10    1.09    1.88
   4  -4  11    0.60    1.37
  -4   4 -11    5.20    2.43
  -4   4 -11   -0.54    1.48
  -4   4 -11    1.70    1.85
   4  -4  11   -0.01    1.95
   4  -4  11    4.14    2.48
   4  -4  12    0.52    1.52
  -4   4 -12    2.50    2.07
  -4   4 -12   -1.84    1.73
  -4   4 -12   -0.52    1.31
   4  -4  12   -0.75    1.76
   4  -4  12   -1.07    1.91
   4  -4  13    1.44    1.65
  -4   4 -13    2.96    2.27
  -4   4 -13    0.17    1.55
   4  -4  13    2.21    1.82
   4  -4  13   -0.75    1.84
   4  -4  14    4.36    2.37
  -4   4 -14    6.24    2.44
   4  -4  14    8.31    3.17
  -4   3  13   17.09    3.74
  -4   3  13   15.55    3.14
  -4   3  13   19.47    3.87
   4  -3 -13   14.63    3.68
  -4   3  12   22.76    4.06
  -4   3  12   23.71    3.64
   4  -3 -12   22.24    3.55
  -4   3  12   23.19    4.03
   4  -3 -12   24.94    4.37
   4  -3 -12   33.85    5.08
   4  -3 -12   31.76    4.51
  -4   3  11   -1.13    1.92
   4  -3 -11    4.08    2.79
  -4   3  11    2.56    1.65
   4  -3 -11    3.40    1.99
  -4   3  11    0.60    1.98
   4  -3 -11    3.81    2.20
   4  -3 -11    2.87    2.22
  -4   3  10    0.20    1.58
  -4   3  10   -0.03    1.14
   4  -3 -10    1.99    1.75
  -4   3  10    1.42    1.46
   4  -3 -10    1.10    1.66
   4  -3 -10    2.53    2.21
  -4   3   9   12.22    2.92
  -4   3   9   16.46    2.51
   4  -3  -9   18.16    3.00
  -4   3   9   17.86    3.25
   4  -3  -9   14.59    2.90
   4  -3  -9   17.15    2.89
  -4   3   8   37.28    4.12
   4  -3  -8   34.51    3.95
   4  -3  -8   39.31    4.05
  -4   3   8   36.76    4.14
  -4   3   8   38.29    3.49
   4  -3  -8   39.13    3.89
  -4   3   7    1.90    1.39
  -4   3   7    3.13    1.10
   4  -3  -7    3.00    1.66
   4  -3  -7    2.67    1.75
  -4   3   7    4.29    1.93
   4  -3  -7    1.48    1.37
  -4   3   6   17.02    2.81
   4  -3  -6   15.60    2.73
  -4   3   6   12.96    2.47
   4  -3  -6   15.60    2.35
   4  -3  -6   14.58    2.65
  -4   3   6   14.23    1.54
   4  -3  -5    0.74    1.46
  -4   3   5   -2.14    1.55
  -4   3   5    0.65    0.85
   4  -3  -5   -0.06    1.46
   4  -3  -5   -0.84    1.25
  -4   3   5    0.40    1.28
   4  -3  -5   -0.28    1.03
   4  -3  -4   19.38    2.74
  -4   3   4   15.31    2.39
   4  -3  -4   13.64    2.49
  -4   3   4   13.75    1.68
   4  -3  -4   12.00    0.96
  -4   3   4   15.42    2.43
   4  -3  -4   13.49    2.14
   4  -3  -4   10.81    0.94
  -4   3   4   13.54    1.22
   4  -3  -3   39.46    3.41
  -4   3   3   36.57    3.37
   4  -3  -3   36.80    3.00
   4  -3  -3   37.58    3.49
  -4   3   3   36.43    3.26
   4  -3  -3   36.84    1.82
  -4   3   3   30.64    1.42
  -4   3   3   36.27    2.62
  -4   3   2   64.37    3.50
   4  -3  -2   72.10    4.32
  -4   3   2   65.12    4.26
   4  -3  -2   68.30    4.26
  -4   3   2   63.88    4.01
   4  -3  -2   67.15    3.62
  -4   3   2   55.16    1.42
  -4   3   1  107.34    4.63
   4  -3  -1  108.02    5.19
  -4   3   1  105.58    5.21
   4  -3  -1  101.92    4.97
  -4   3   1  112.05    3.64
  -4   3   1  105.18    4.79
  -4   3   1  105.28    2.79
  -4   3   1  101.66    3.86
   4  -3  -1  109.42    4.13
   4  -3  -1  103.46    2.79
   4  -3   0    7.38    1.92
   4  -3   0    9.03    1.18
  -4   3   0    8.95    1.75
  -4   3   0    9.94    1.21
   4  -3   0    8.22    1.71
  -4   3   0    9.26    1.11
  -4   3   0    8.95    1.67
  -4   3   0    5.36    0.61
   4  -3   0    7.80    0.83
   4  -3   1    2.38    1.71
   4  -3   1    1.06    0.62
  -4   3  -1    1.60    1.16
  -4   3  -1    1.73    0.78
   4  -3   1    1.95    1.20
  -4   3  -1    1.78    0.84
  -4   3  -1    1.84    0.64
   4  -3   1    0.76    0.63
  -4   3  -1    1.93    1.34
   4  -3   1   -1.06    1.35
   4  -3   2    7.44    2.04
   4  -3   2    8.60    1.28
  -4   3  -2    6.96    1.80
   4  -3   2    5.66    1.17
   4  -3   2    5.64    1.25
  -4   3  -2    6.94    1.41
  -4   3  -2    5.77    0.68
  -4   3  -2    5.43    1.01
   4  -3   2    6.05    0.79
  -4   3  -2    8.93    1.93
   4  -3   2    5.11    1.72
   4  -3   3  342.44    9.10
  -4   3  -3  302.68    8.78
  -4   3  -3  338.39    9.18
   4  -3   3  335.85    7.46
   4  -3   3  324.38    7.63
  -4   3  -3  316.74    8.18
  -4   3  -3  329.75    6.11
  -4   3  -3  319.56    3.91
   4  -3   3  327.56    9.27
   4  -3   3  321.21    4.95
   4  -3   4    0.01    1.60
  -4   3  -4    0.22    0.81
  -4   3  -4   -0.83    1.25
  -4   3  -4   -0.07    0.71
   4  -3   4    1.77    1.09
   4  -3   4    1.12    0.83
  -4   3  -4    0.92    1.29
  -4   3  -4    1.39    1.52
   4  -3   4    0.06    1.47
   4  -3   4   -1.36    1.65
  -4   3  -4    0.87    0.75
  -4   3  -4   -0.04    0.23
   4  -3   4    0.50    0.63
   4  -3   5    9.54    2.03
  -4   3  -5   12.05    2.36
  -4   3  -5    6.03    0.68
  -4   3  -5    6.46    1.18
   4  -3   5    6.80    1.51
  -4   3  -5    9.21    2.17
   4  -3   5    9.86    1.08
  -4   3  -5    7.90    2.11
   4  -3   5    5.95    2.02
  -4   3  -5    9.90    1.74
   4  -3   5    8.02    2.06
   4  -3   5    8.99    1.25
   4  -3   6    9.85    2.34
  -4   3  -6    0.57    0.54
   4  -3   6    0.43    1.09
  -4   3  -6    4.59    1.89
   4  -3   6    1.43    0.34
  -4   3  -6    4.63    1.45
  -4   3  -6    2.70    0.65
   4  -3   6    1.43    0.34
  -4   3  -6    4.98    2.09
   4  -3   6    5.18    2.04
   4  -3   6    1.95    1.63
   4  -3   6    2.73    0.87
   4  -3   7   19.24    2.71
  -4   3  -7   22.10    3.23
  -4   3  -7   17.18    2.31
  -4   3  -7   19.89    3.06
   4  -3   7   15.03    2.91
   4  -3   7   18.79    3.15
   4  -3   8    0.64    1.68
   4  -3   8    1.82    1.47
  -4   3  -8    1.26    1.79
  -4   3  -8    0.54    0.77
  -4   3  -8    0.43    1.16
  -4   3  -8    1.91    1.42
   4  -3   8    0.69    1.69
  -4   3  -9    0.55    1.20
   4  -3   9    2.00    1.54
  -4   3  -9    0.14    1.67
  -4   3  -9    1.72    1.51
   4  -3   9   -0.05    1.74
   4  -3   9   -0.36    1.72
   4  -3  10    1.25    1.47
  -4   3 -10    0.63    1.82
  -4   3 -10   -2.48    1.64
  -4   3 -10    0.06    1.40
   4  -3  10    0.88    1.90
   4  -3  10    1.83    1.99
  -4   3 -11    1.18    1.62
   4  -3  11    1.95    1.49
  -4   3 -11    1.31    2.01
  -4   3 -11   -0.88    1.31
   4  -3  11    1.42    1.74
   4  -3  11    1.45    1.92
   4  -3  12    7.02    2.56
  -4   3 -12    0.92    2.02
  -4   3 -12    1.31    1.45
  -4   3 -12    4.24    1.99
   4  -3  12    2.31    2.54
   4  -3  12   -0.48    1.84
   4  -3  13   25.10    4.16
  -4   3 -13   17.32    3.77
  -4   3 -13   25.70    4.12
   4  -3  13   23.11    4.14
   4  -3  13   26.36    4.69
  -4   3 -14    8.90    2.86
   4  -3  14    4.13    2.41
  -4   2  14    3.42    2.07
  -4   2  14    2.73    1.85
  -4   2  14    2.74    2.12
  -4   2  13    7.59    2.68
  -4   2  13    6.53    2.22
  -4   2  13   10.23    2.83
   4  -2 -13    5.26    2.94
   4  -2 -13    8.37    2.90
   4  -2 -13   10.48    3.23
  -4   2  12    6.86    2.41
   4  -2 -12    9.88    3.09
  -4   2  12    6.16    2.08
   4  -2 -12    4.49    1.89
  -4   2  12    3.38    2.16
   4  -2 -12    8.00    2.85
   4  -2 -12    3.91    1.88
  -4   2  11    7.15    2.22
  -4   2  11    9.32    2.32
   4  -2 -11   11.02    2.48
  -4   2  11    8.35    2.63
   4  -2 -11    5.88    2.56
   4  -2 -11    9.34    3.12
   4  -2 -11    7.90    2.53
  -4   2  10    9.20    2.37
  -4   2  10    8.60    2.16
   4  -2 -10    9.29    2.26
   4  -2 -10   15.73    3.48
  -4   2  10    8.45    2.58
   4  -2 -10    8.05    2.66
   4  -2 -10   10.06    2.36
  -4   2   9    1.18    1.45
  -4   2   9   -0.62    1.18
   4  -2  -9   -0.54    1.59
  -4   2   9   -0.99    1.34
   4  -2  -9    2.69    1.81
   4  -2  -9   -0.06    1.48
  -4   2   8  216.16    8.94
  -4   2   8  229.06    5.97
   4  -2  -8  224.86    8.72
  -4   2   8  220.96    9.20
   4  -2  -8  234.97    9.05
   4  -2  -8  225.09    9.29
  -4   2   7    2.07    1.31
  -4   2   7    2.04    0.52
   4  -2  -7    4.23    2.03
   4  -2  -7    0.98    1.46
  -4   2   7    2.76    1.69
   4  -2  -7    3.38    1.49
  -4   2   7    1.41    0.35
  -4   2   6    9.80    2.05
   4  -2  -6   14.47    2.52
   4  -2  -6   12.02    2.43
  -4   2   6   11.57    2.10
   4  -2  -6   12.83    2.14
  -4   2   6   13.19    1.25
  -4   2   5    1.06    1.23
   4  -2  -5    1.54    1.41
   4  -2  -5    1.25    1.54
   4  -2  -5   -0.28    0.66
  -4   2   5   -0.58    0.77
  -4   2   5   -0.25    1.23
   4  -2  -5   -0.52    0.67
  -4   2   5    0.03    0.84
  -4   2   4   10.92    1.29
  -4   2   4   10.82    1.94
   4  -2  -4    7.44    1.93
   4  -2  -4   10.53    1.26
  -4   2   4    9.37    1.32
   4  -2  -4    7.66    1.67
  -4   2   4    9.57    2.00
   4  -2  -4    9.89    1.26
  -4   2   3   26.22    2.16
  -4   2   3   23.98    2.67
   4  -2  -3   25.74    2.45
  -4   2   3   22.77    2.67
   4  -2  -3   22.63    2.64
   4  -2  -3   25.23    1.91
  -4   2   3   23.39    1.60
  -4   2   2   22.94    2.43
  -4   2   2   23.28    1.11
   4  -2  -2   19.48    2.43
   4  -2  -2   21.44    2.04
  -4   2   2   22.01    1.90
  -4   2   2   24.97    1.58
   4  -2  -1    0.38    0.59
  -4   2   1   -0.30    0.70
  -4   2   1   -0.97    1.08
   4  -2  -1    1.09    1.22
  -4   2   1    0.71    0.64
   4  -2  -1   -0.96    0.93
  -4   2   1    0.43    0.77
  -4   2   1   -1.41    1.44
  -4   2   1    0.15    0.56
   4  -2   0    1.38    0.74
  -4   2   0    1.21    0.71
  -4   2   0   -0.22    1.06
   4  -2   0    2.19    1.26
  -4   2   0    0.40    0.77
   4  -2   0   -0.33    0.75
   4  -2   0    1.26    1.22
  -4   2   0   -0.53    1.31
  -4   2   0    1.86    0.80
  -4   2   0    1.01    0.55
  -4   2  -1  231.48    7.10
  -4   2  -1  236.39    7.29
   4  -2   1  225.35    5.08
   4  -2   1  223.77    6.21
   4  -2   1  225.26    6.42
  -4   2  -1  235.14    6.00
   4  -2   1  229.73    7.26
  -4   2  -1  245.04    5.18
   4  -2   1  242.22    4.62
  -4   2  -1  231.75    4.52
   4  -2   1  248.88    5.72
  -4   2  -1  241.45    5.66
  -4   2  -2  512.27   10.92
  -4   2  -2  568.63   11.50
   4  -2   2  533.86    9.95
   4  -2   2  541.29    9.43
  -4   2  -2  531.43    9.90
  -4   2  -2  523.09    5.65
  -4   2  -2  560.82    7.47
   4  -2   2  531.51   11.35
   4  -2   2  568.62    7.66
  -4   2  -2  541.83    7.48
  -4   2  -3  365.29    9.55
  -4   2  -3  385.22    9.81
  -4   2  -3  369.66    7.36
   4  -2   3  381.11    8.94
  -4   2  -3  365.51    8.91
   4  -2   3  383.56    6.88
  -4   2  -3  388.02    6.25
   4  -2   3  379.64    9.93
   4  -2   3  390.25    9.93
   4  -2   3  389.03    6.99
  -4   2  -3  377.85    7.00
  -4   2  -4   -0.21    1.28
   4  -2   4    0.09    1.01
  -4   2  -4    0.16    0.71
  -4   2  -4   -2.71    1.59
  -4   2  -4    1.45    1.36
   4  -2   4   -0.30    0.54
  -4   2  -4   -0.07    0.56
   4  -2   4    1.05    1.45
   4  -2   4   -0.14    1.54
  -4   2  -4   -0.70    1.49
   4  -2   5    1.87    1.37
  -4   2  -5   -0.47    0.59
   4  -2   5    0.16    0.45
  -4   2  -5   -2.86    1.93
  -4   2  -5    1.12    1.08
   4  -2   5    1.15    0.50
  -4   2  -5    0.03    0.58
   4  -2   5   -1.44    1.58
   4  -2   5   -0.72    1.48
  -4   2  -5   -2.34    1.82
   4  -2   6   -1.47    1.52
  -4   2  -6    0.22    0.52
  -4   2  -6   -0.39    1.72
  -4   2  -6   -0.59    1.22
   4  -2   6   -1.14    1.72
   4  -2   6   -1.73    1.72
  -4   2  -6   -5.30    2.33
   4  -2   6   -0.37    0.56
  -4   2  -7    9.99    2.09
   4  -2   7    7.96    1.89
  -4   2  -7    8.16    2.07
   4  -2   7    8.09    2.30
   4  -2   7    5.63    2.03
  -4   2  -7    5.77    1.75
   4  -2   8    7.60    1.93
  -4   2  -8    9.57    2.45
  -4   2  -8    9.75    2.10
  -4   2  -8   13.81    2.44
   4  -2   8    7.43    2.51
   4  -2   8   13.14    2.86
   4  -2   9    4.19    1.77
  -4   2  -9    4.18    1.92
  -4   2  -9    5.30    1.65
   4  -2   9    4.08    2.02
   4  -2   9    5.98    2.47
  -4   2  -9    6.67    2.11
   4  -2  10    2.72    1.79
   4  -2  10    1.57    1.62
  -4   2 -10    5.42    2.43
  -4   2 -10    2.34    1.73
  -4   2 -10    0.73    1.63
   4  -2  10    0.31    1.75
   4  -2  11   17.74    3.35
  -4   2 -11   20.32    3.66
  -4   2 -11   20.33    3.06
  -4   2 -11   23.54    3.66
   4  -2  11   20.32    4.05
   4  -2  11   20.11    3.79
   4  -2  12    7.92    2.68
  -4   2 -12    9.76    3.05
   4  -2  12    4.40    2.74
  -4   2 -12    5.21    2.18
   4  -2  12    8.74    3.01
   4  -2  13   18.31    3.79
  -4   2 -13   15.60    3.48
  -4   2 -13   13.74    3.20
   4  -2  13   18.58    3.93
   4  -2  13   15.56    3.81
  -4   1  15   45.30    5.45
  -4   1  15   39.36    5.21
  -4   1  15   42.47    5.36
  -4   1  14    5.62    2.49
  -4   1  14    8.65    2.58
  -4   1  14    4.37    2.25
   4  -1 -14   10.01    2.86
   4  -1 -14   10.45    3.19
   4  -1 -14    4.49    2.30
  -4   1  13   14.42    3.00
  -4   1  13   12.00    2.79
   4  -1 -13   11.64    2.80
  -4   1  13   15.13    3.17
   4  -1 -13   13.97    3.27
   4  -1 -13   11.62    3.29
   4  -1 -13   12.11    3.02
  -4   1  12    1.02    1.91
  -4   1  12    3.31    2.15
  -4   1  12    2.45    1.47
   4  -1 -12    3.75    1.70
   4  -1 -12    4.72    2.18
   4  -1 -12    3.68    2.05
   4  -1 -12    3.86    2.22
  -4   1  11   17.82    3.09
  -4   1  11   13.11    2.57
   4  -1 -11   16.03    2.67
   4  -1 -11   14.34    3.16
  -4   1  11   14.52    3.00
   4  -1 -11   17.87    3.31
   4  -1 -11   21.69    3.45
  -4   1  10   35.49    3.90
   4  -1 -10   38.34    3.77
  -4   1  10   31.24    3.80
  -4   1  10   32.37    3.00
   4  -1 -10   36.37    4.11
   4  -1 -10   35.25    4.35
   4  -1 -10   39.77    4.45
  -4   1   9    5.48    1.85
   4  -1  -9    6.80    1.91
   4  -1  -9   10.24    2.52
  -4   1   9    9.27    2.41
  -4   1   9   11.18    1.93
   4  -1  -9    8.16    2.27
  -4   1   8   85.19    5.30
   4  -1  -8   84.70    5.26
  -4   1   8   81.28    5.52
  -4   1   8   85.13    4.31
   4  -1  -8   89.44    5.61
   4  -1  -8   82.57    5.53
  -4   1   7  109.86    2.88
  -4   1   7  113.02    5.78
   4  -1  -7  115.10    5.90
  -4   1   7  108.93    5.84
  -4   1   7  121.55    3.36
   4  -1  -7  115.14    6.16
  -4   1   7  121.55    4.86
  -4   1   7  110.15    3.22
  -4   1   6   75.18    2.77
  -4   1   6   75.47    4.53
   4  -1  -6   73.87    4.65
  -4   1   6   75.27    4.77
  -4   1   6   74.86    2.33
   4  -1  -6   74.55    4.73
  -4   1   6   70.53    2.35
  -4   1   6   72.98    3.90
  -4   1   5  230.53    5.31
  -4   1   5  229.04    7.39
   4  -1  -5  224.81    7.60
   4  -1  -5  233.39    7.80
  -4   1   5  223.68    7.75
  -4   1   5  228.41    3.71
  -4   1   5  226.76    6.27
  -4   1   4   21.27    1.88
  -4   1   4   23.32    2.42
  -4   1   4   23.89    2.64
   4  -1  -4   22.51    2.68
   4  -1  -4   23.54    2.52
   4  -1  -4   21.70    1.21
  -4   1   4   21.85    1.96
  -4   1   3  622.64    9.96
  -4   1   3  642.47   11.47
   4  -1  -3  640.85   11.26
   4  -1  -3  629.47   11.98
   4  -1  -3  621.63    6.74
  -4   1   3  638.53    9.44
  -4   1   2  149.25    5.12
  -4   1   2  146.16    5.41
   4  -1  -2  141.10    5.59
   4  -1  -2  149.00    5.23
   4  -1  -2  137.95    4.95
  -4   1   2  140.70    4.60
   4  -1  -2  151.85    4.54
  -4   1   2  147.85    4.47
  -4   1   1   77.07    4.01
  -4   1   1   81.06    4.03
   4  -1  -1   76.39    3.97
   4  -1  -1   86.81    4.16
   4  -1  -1   77.31    3.64
   4  -1  -1   75.99    3.84
  -4   1   1   72.47    3.18
   4  -1  -1   77.93    3.41
  -4   1   1   74.01    3.26
  -4   1   0    3.60    1.22
  -4   1   0    2.11    1.61
  -4   1   0    0.03    0.97
   4  -1   0    2.61    1.27
  -4   1   0   -0.18    0.71
   4  -1   0    1.26    0.91
   4  -1   0   -0.59    1.10
   4  -1   0    0.39    0.65
  -4   1   0   -0.25    0.67
   4  -1   1  280.48    6.44
  -4   1  -1  282.72    7.89
  -4   1  -1  293.39    7.96
  -4   1  -1  287.48    6.40
   4  -1   1  279.82    7.49
   4  -1   1  287.18    6.80
   4  -1   1  273.94    7.79
   4  -1   1  301.72    6.46
  -4   1  -1  277.80    6.23
  -4   1  -1  275.30    6.96
  -4   1  -2   12.99    2.30
  -4   1  -2   10.63    1.68
  -4   1  -2   14.10    2.08
   4  -1   2   12.56    1.55
   4  -1   2   12.24    1.93
  -4   1  -2   12.38    1.48
   4  -1   2   13.71    2.18
   4  -1   2   11.46    2.01
  -4   1  -2   12.84    1.57
  -4   1  -3    7.51    2.24
   4  -1   3    3.17    1.24
  -4   1  -3    6.82    2.02
   4  -1   3    2.35    0.75
   4  -1   3    3.74    1.62
   4  -1   3    2.96    1.42
  -4   1  -3    4.08    1.10
  -4   1  -4    5.82    1.35
  -4   1  -4    4.89    1.96
   4  -1   4    6.30    1.69
  -4   1  -4    7.27    1.24
  -4   1  -4    7.15    2.10
  -4   1  -4    5.36    1.55
   4  -1   4    7.10    1.08
   4  -1   4    6.81    2.02
   4  -1   4    5.96    1.86
  -4   1  -5   14.61    2.34
  -4   1  -5   13.28    2.43
  -4   1  -5   12.97    1.48
   4  -1   5   11.86    2.22
   4  -1   5    7.91    0.65
  -4   1  -5   14.52    2.76
   4  -1   5   10.05    2.25
   4  -1   5   15.27    2.70
   4  -1   5   10.66    1.07
  -4   1  -6  121.56    6.18
   4  -1   6  124.19    6.51
   4  -1   6  116.31    3.11
  -4   1  -6  127.53    6.77
  -4   1  -6  119.94    6.39
   4  -1   6  113.36    2.84
   4  -1   6  127.57    6.84
   4  -1   6  130.08    6.93
  -4   1  -7   81.87    5.27
   4  -1   7   86.12    5.96
   4  -1   7   87.06    5.89
  -4   1  -7   83.92    5.81
  -4   1  -7   87.41    5.77
   4  -1   7   87.67    6.05
   4  -1   8    3.90    1.71
  -4   1  -8    2.98    1.82
  -4   1  -8    5.11    2.00
   4  -1   8    7.68    2.56
   4  -1   8    2.21    1.97
  -4   1  -8    2.54    1.62
   4  -1   9   22.55    3.36
  -4   1  -9   18.88    3.20
  -4   1  -9   25.66    3.75
   4  -1   9   25.26    3.85
   4  -1   9   24.14    3.88
  -4   1  -9   17.27    2.80
  -4   1 -10    3.10    2.06
   4  -1  10    3.66    1.95
  -4   1 -10    1.17    1.77
  -4   1 -10    1.69    1.49
   4  -1  10    1.17    2.37
   4  -1  11   -0.94    1.54
  -4   1 -11   -0.33    1.76
  -4   1 -11    3.54    2.19
  -4   1 -11    2.91    1.73
   4  -1  11    4.31    2.49
   4  -1  11    2.23    2.14
   4  -1  12   -0.54    1.92
  -4   1 -12    6.22    2.77
  -4   1 -12    4.85    2.39
   4  -1  12    6.19    2.85
   4  -1  12    3.66    2.57
   4  -1  13   -2.67    2.32
   4   0 -15   16.07    3.36
  -4   0  15    5.78    2.31
  -4   0  15   10.08    2.97
  -4   0  15   10.37    2.85
   4   0 -15    5.30    2.80
   4   0 -14   79.96    6.48
  -4   0  14   62.80    5.70
   4   0 -14   70.58    6.83
  -4   0  14   67.21    6.08
  -4   0  14   64.95    6.15
   4   0 -14   63.51    6.51
   4   0 -14   62.08    6.34
  -4   0  13    6.47    2.28
   4   0 -13    7.13    2.37
  -4   0  13    2.09    1.45
  -4   0  13    9.53    2.63
   4   0 -13    7.62    2.62
   4   0 -13    5.55    2.34
   4   0 -13    6.35    2.54
  -4   0  12    1.53    1.48
  -4   0  12   -1.01    1.59
  -4   0  12   -2.25    1.70
   4   0 -12    1.59    1.57
   4   0 -12   -0.35    2.22
  -4   0  12    0.22    1.51
   4   0 -12    3.72    2.22
   4   0 -12   -0.98    2.00
  -4   0  11    4.80    1.72
   4   0 -11    8.69    2.47
   4   0 -11    7.65    2.26
  -4   0  11   10.46    2.12
   4   0 -11    9.35    2.42
  -4   0  11    8.05    2.14
   4   0 -11    7.40    2.14
   4   0 -10    1.32    1.82
  -4   0  10    0.67    1.19
   4   0 -10   -0.38    1.61
  -4   0  10    1.05    1.37
   4   0 -10   -0.47    1.48
  -4   0  10    0.70    1.21
   4   0 -10   -0.09    1.47
  -4   0   9   -0.65    1.28
  -4   0   9    1.20    1.29
   4   0  -9    1.90    1.69
   4   0  -9    2.87    2.09
  -4   0   9    1.60    1.38
   4   0  -9    0.71    1.76
  -4   0   8   32.43    1.72
  -4   0   8   30.18    3.02
  -4   0   8   31.00    3.33
   4   0  -8   33.02    3.80
   4   0  -8   38.22    3.84
   4   0  -8   35.79    3.71
  -4   0   8   32.55    3.07
  -4   0   7    0.49    0.98
  -4   0   7    1.27    0.77
  -4   0   7    3.70    1.76
   4   0  -7    2.87    1.71
   4   0  -7    1.02    1.37
  -4   0   7    1.40    1.23
  -4   0   7    2.71    0.85
  -4   0   7   -0.21    1.39
  -4   0   6   16.63    2.05
  -4   0   6   18.92    1.59
  -4   0   6   17.66    2.43
   4   0  -6   20.46    2.78
  -4   0   6   19.06    2.54
   4   0  -6   17.27    2.48
  -4   0   6   19.06    1.58
  -4   0   6   18.91    2.27
  -4   0   5 2267.50   21.13
   4   0  -5 2221.80   23.80
   4   0  -5 2231.28   23.58
   4   0  -5 2187.19   16.20
  -4   0   5 2207.52   21.13
  -4   0   4   60.02    3.43
   4   0  -4   67.58    4.05
   4   0  -4   64.55    4.09
   4   0  -4   59.76    2.95
   4   0  -4   60.22    2.72
  -4   0   4   58.74    3.49
  -4   0   3  970.49   13.18
   4   0  -3  991.10   15.00
   4   0  -3  975.46   14.19
   4   0  -3  952.27   11.73
   4   0  -3  948.28   10.96
  -4   0   3  947.09   13.34
  -4   0   3  963.93   13.16
  -4   0   2    5.80    1.37
  -4   0   2    4.75    1.14
   4   0  -2    5.00    1.40
   4   0  -2    4.65    1.34
   4   0  -2    7.77    1.42
  -4   0   2    6.10    1.38
  -4   0   1   23.92    2.30
   4   0  -1   28.37    2.64
   4   0  -1   20.42    2.14
   4   0  -1   22.95    2.22
  -4   0   1   21.11    2.13
  -4   0   1   22.27    2.24
  -4   0   0   14.01    1.89
  -4   0   0   17.62    2.08
  -4   0   0   15.75    1.01
   4   0   0   17.88    2.10
   4   0   0   14.77    1.89
   4   0   0   15.55    1.94
   4   0   0   19.27    2.24
  -4   0   0   15.44    1.78
  -4   0  -1    1.21    1.31
  -4   0  -1    2.56    1.27
   4   0   1    0.65    1.22
   4   0   1    0.37    0.64
   4   0   1   -0.29    0.91
   4   0   1   -1.03    1.31
   4   0   1    1.37    1.14
  -4   0  -1    1.47    0.96
  -4   0  -2    7.76    1.75
   4   0   2    8.13    1.66
   4   0   2    9.05    1.38
   4   0   2   13.12    2.26
   4   0   2    7.95    1.69
   4   0   2   12.26    1.46
  -4   0  -2    9.66    1.67
  -4   0  -3   -1.74    1.66
   4   0   3    0.76    1.21
   4   0   3   -0.59    0.77
   4   0   3    0.69    1.42
   4   0   3   -0.51    1.33
  -4   0  -3    1.12    1.22
   4   0   4   47.14    4.00
  -4   0  -4   51.71    4.10
  -4   0  -4   50.93    2.85
   4   0   4   49.89    2.75
   4   0   4   49.45    4.12
   4   0   4   46.90    4.01
  -4   0  -4   47.93    3.73
  -4   0  -5  518.13   12.40
   4   0   5  540.34   13.36
  -4   0  -5  530.30   13.37
  -4   0  -5  541.90   13.45
  -4   0  -5  506.20    8.50
   4   0   5  534.29    8.52
   4   0   5  548.45   13.65
   4   0   5  549.32   13.50
  -4   0  -5  530.51   12.57
  -4   0  -6  414.88   11.47
   4   0   6  398.76   12.20
  -4   0  -6  419.95   12.46
  -4   0  -6  417.00   12.34
   4   0   6  400.27   12.53
   4   0   6  404.31   12.46
  -4   0  -7   57.96    4.72
   4   0   7   59.08    5.11
  -4   0  -7   62.81    5.28
  -4   0  -7   58.50    5.03
   4   0   7   56.82    5.18
   4   0   7   54.71    5.06
  -4   0  -8    3.38    1.74
   4   0   8    1.00    1.47
  -4   0  -8    3.30    2.02
   4   0   8    6.90    2.65
   4   0   8    3.88    2.37
  -4   0  -8    3.29    1.96
   4   0   9   -0.13    1.47
  -4   0  -9    0.90    1.93
  -4   0  -9   -2.49    2.23
   4   0   9   -1.44    1.81
   4   0   9   -0.43    1.83
  -4   0  -9    2.19    1.39
   4   0  10    0.57    1.75
  -4   0 -10    6.27    2.55
  -4   0 -10   -1.01    1.58
   4   0  10    1.48    2.33
   4   0  10    2.27    2.40
  -4   0 -10   -1.70    1.58
   4   0  11    1.62    2.49
   4   0  11   -2.31    2.28
  -4   0 -11   -4.31    2.51
  -4   0 -11    2.82    1.96
   4   0  11    2.78    2.55
   4   0  12    2.86    2.13
  -4   0 -12    0.99    1.95
  -4   0 -12    8.13    2.88
   4   0  12    3.44    2.99
   4   1 -16   67.05    6.55
  -4  -1  16   52.17    5.64
   4   1 -15   43.60    5.21
  -4  -1  15   42.33    5.25
   4   1 -15   45.97    5.68
  -4  -1  15   29.53    4.23
   4   1 -15   35.23    4.89
   4   1 -15   27.88    4.51
  -4  -1  14    0.65    1.33
  -4  -1  14   -0.99    1.45
  -4  -1  14    2.04    1.57
  -4  -1  14   -0.59    1.59
   4   1 -14    0.20    1.75
   4   1 -14    0.82    1.94
   4   1 -13    7.19    2.20
  -4  -1  13   14.40    2.68
  -4  -1  13   15.60    2.91
   4   1 -13   12.49    2.72
  -4  -1  13   11.77    2.64
   4   1 -13   14.26    3.18
   4   1 -13   14.77    2.99
  -4  -1  12   39.28    3.90
   4   1 -12   36.23    4.34
  -4  -1  12   36.13    4.09
  -4  -1  12   36.97    4.01
   4   1 -12   37.47    4.19
   4   1 -12   42.84    4.74
  -4  -1  11    2.38    1.05
  -4  -1  11    2.96    1.63
   4   1 -11    1.73    1.83
   4   1 -11    4.65    1.92
   4   1 -11    6.13    2.32
  -4  -1  11    3.31    1.36
  -4  -1  10   23.71    2.78
  -4  -1  10   27.71    3.30
   4   1 -10   23.76    3.25
   4   1 -10   26.40    3.42
   4   1 -10   27.88    3.71
  -4  -1  10   23.30    3.17
  -4  -1   9   17.32    2.29
  -4  -1   9   13.76    2.45
   4   1  -9   18.81    2.90
   4   1  -9   16.82    2.74
  -4  -1   9   17.15    2.73
   4   1  -9   15.53    2.85
  -4  -1   8   34.32    2.85
  -4  -1   8   27.91    3.09
  -4  -1   8   31.93    3.42
   4   1  -8   31.47    3.34
   4   1  -8   24.05    3.09
   4   1  -8   30.01    3.47
   4   1  -8   27.73    1.68
  -4  -1   8   29.71    3.21
  -4  -1   7  139.10    5.24
  -4  -1   7  136.97    6.19
  -4  -1   7  140.14    6.29
   4   1  -7  132.03    6.44
   4   1  -7  138.46    5.98
   4   1  -7  146.10    6.73
   4   1  -7  135.91    3.40
  -4  -1   7  148.12    6.51
  -4  -1   6   -2.01    1.38
  -4  -1   6   -0.25    0.80
  -4  -1   6    5.01    2.00
   4   1  -6    2.15    1.61
   4   1  -6    2.74    1.57
   4   1  -6   -1.81    1.32
   4   1  -6   -0.35    0.56
   4   1  -6    0.39    0.79
   4   1  -6    0.46    0.72
  -4  -1   5  715.77   10.80
   4   1  -5  720.22   13.80
   4   1  -5  692.91   10.65
   4   1  -5  721.24   13.66
   4   1  -5  707.81    8.31
   4   1  -5  694.13   10.93
  -4  -1   5  722.43   13.37
  -4  -1   5  697.24   12.97
   4   1  -4  440.26    7.47
  -4  -1   4  448.82    8.44
   4   1  -4  460.77   10.82
   4   1  -4  460.53   10.62
   4   1  -4  448.40    7.19
   4   1  -4  446.74    8.75
  -4  -1   4  443.49   10.17
  -4  -1   4  449.01   10.13
  -4  -1   3    0.25    1.22
  -4  -1   3    0.81    0.90
   4   1  -3    1.18    1.26
   4   1  -3   -0.99    1.44
   4   1  -3    0.59    0.88
   4   1  -3   -0.09    0.74
  -4  -1   3   -1.31    1.33
  -4  -1   2   33.66    2.53
   4   1  -2   33.56    2.99
  -4  -1   2   39.11    2.35
   4   1  -2   37.65    3.06
   4   1  -2   32.48    2.23
   4   1  -2   35.88    2.51
   4   1  -2   31.55    2.61
  -4  -1   2   34.52    2.88
  -4  -1   2   32.32    2.90
  -4  -1   1    4.80    1.61
  -4  -1   1    4.93    1.43
   4   1  -1    2.63    1.04
   4   1  -1    2.84    0.41
   4   1  -1    2.43    1.19
  -4  -1   1    5.00    0.91
   4   1  -1    5.91    1.42
   4   1  -1    3.71    1.05
  -4  -1   1    4.57    1.44
   4   1   0  101.80    4.71
   4   1   0   99.75    2.20
  -4  -1   0  109.08    3.06
   4   1   0  104.21    4.43
   4   1   0  111.57    5.03
  -4  -1   0  101.42    4.92
  -4  -1   0  104.16    5.13
   4   1   1  114.08    5.60
   4   1   1  113.73    4.92
   4   1   1  122.86    3.08
   4   1   1  110.75    4.91
   4   1   1  118.67    5.42
  -4  -1  -1  114.58    5.32
  -4  -1  -1  113.02    5.57
  -4  -1  -2   10.18    2.30
   4   1   2    8.10    1.97
   4   1   2    8.07    0.84
   4   1   2   15.34    1.57
   4   1   2   10.26    1.68
   4   1   2   11.64    2.11
   4   1   2   11.10    2.16
  -4  -1  -2   10.52    2.10
  -4  -1  -3    5.74    1.88
   4   1   3    7.22    1.98
   4   1   3    6.98    0.86
   4   1   3    6.30    2.02
   4   1   3    8.26    2.23
   4   1   3    5.36    1.24
  -4  -1  -3    6.92    1.95
   4   1   4   71.20    5.07
  -4  -1  -4   71.00    5.12
   4   1   4   72.86    3.80
   4   1   4   62.36    2.53
   4   1   4   71.87    5.26
   4   1   4   72.70    5.06
  -4  -1  -4   66.14    4.88
  -4  -1  -4   66.27    4.98
  -4  -1  -5   -0.63    1.45
   4   1   5    1.23    1.56
  -4  -1  -5    4.53    1.86
   4   1   5    1.84    0.94
   4   1   5    4.58    2.30
   4   1   5    1.50    1.91
   4   1   6    1.49    1.75
  -4  -1  -6   -1.07    1.30
  -4  -1  -6    1.53    1.63
   4   1   6    2.43    2.29
   4   1   6   -1.61    1.59
  -4  -1  -7    8.15    2.14
   4   1   7    0.91    1.81
  -4  -1  -7    7.35    2.89
  -4  -1  -7   -0.21    1.23
  -4  -1  -7   -0.01    1.49
   4   1   7    4.51    2.42
   4   1   7    2.43    2.11
  -4  -1  -8    4.03    2.03
   4   1   8    2.76    2.09
  -4  -1  -8    4.93    2.44
  -4  -1  -8   -0.23    1.53
  -4  -1  -8    4.92    2.16
   4   1   8    2.61    2.02
   4   1   8    3.07    2.16
  -4  -1  -9   -0.96    1.68
   4   1   9   -0.12    1.50
  -4  -1  -9   -1.22    1.83
  -4  -1  -9    0.12    1.43
  -4  -1  -9    2.05    2.01
   4   1   9   -0.97    2.04
   4   1   9    2.79    2.39
   4   1  10    7.20    2.59
  -4  -1 -10    2.70    2.35
  -4  -1 -10    5.80    2.21
  -4  -1 -10    4.72    2.24
   4   1  10    5.81    2.74
   4   1  10    5.52    2.68
   4   1  11    1.31    1.62
  -4  -1 -11   -0.67    1.97
  -4  -1 -11    0.37    1.65
  -4  -1 -11    6.67    2.84
   4   1  11   -1.73    2.39
   4   1  11   -0.41    2.14
   4   2 -16    3.14    2.40
   4   2 -15    2.60    2.05
  -4  -2  15    9.95    2.99
  -4  -2  15    8.28    2.76
  -4  -2  15    6.20    2.27
   4   2 -15    8.58    2.50
   4   2 -15   11.50    3.18
  -4  -2  14    6.38    2.28
   4   2 -14    7.66    2.58
  -4  -2  14    8.44    2.38
   4   2 -14    6.98    2.30
   4   2 -14    4.34    2.16
  -4  -2  13    1.32    1.90
   4   2 -13    1.36    1.98
   4   2 -13    1.58    1.53
  -4  -2  13    3.26    1.85
   4   2 -13   -0.94    2.12
  -4  -2  12    2.07    1.50
  -4  -2  12    2.51    1.35
  -4  -2  12    3.01    1.71
   4   2 -12    1.57    1.86
   4   2 -12    1.72    1.57
   4   2 -12    1.73    1.63
  -4  -2  11  113.44    5.39
  -4  -2  11   98.37    5.94
  -4  -2  11   94.64    6.23
   4   2 -11   95.07    6.18
   4   2 -11  100.83    6.42
   4   2 -11   99.08    6.66
  -4  -2  10    2.66    1.05
  -4  -2  10    2.03    1.51
   4   2 -10    7.08    1.94
   4   2 -10    2.19    1.43
   4   2 -10    3.80    2.03
  -4  -2  10    3.28    1.42
  -4  -2  10   -0.01    1.60
  -4  -2   9   15.78    1.84
  -4  -2   9   15.16    2.84
   4   2  -9   13.76    2.61
   4   2  -9   13.24    2.45
  -4  -2   9   14.73    2.48
   4   2  -9   10.16    2.19
  -4  -2   9   14.01    2.58
  -4  -2   8    6.44    1.90
  -4  -2   8    7.45    1.35
  -4  -2   8    9.84    2.51
   4   2  -8    7.68    2.00
   4   2  -8    5.10    1.60
  -4  -2   8    4.97    1.46
   4   2  -8    6.84    1.97
  -4  -2   7    8.81    2.08
  -4  -2   7   13.91    1.59
   4   2  -7   11.33    2.35
   4   2  -7   14.19    2.65
  -4  -2   7   17.93    2.92
   4   2  -7    5.73    1.47
   4   2  -7   11.04    1.21
   4   2  -7   14.12    2.09
   4   2  -6   98.77    3.76
  -4  -2   6  110.11    3.95
   4   2  -6   99.42    2.36
  -4  -2   6  116.01    6.08
   4   2  -6  111.62    5.83
   4   2  -6  108.16    5.77
   4   2  -6  104.40    3.09
   4   2  -6  107.36    5.07
   4   2  -6  102.53    4.26
  -4  -2   6  108.14    5.73
  -4  -2   6  103.67    5.62
  -4  -2   5   23.10    2.77
   4   2  -5   21.10    1.78
  -4  -2   5   24.32    1.89
   4   2  -5   24.41    1.93
   4   2  -5   25.01    2.99
   4   2  -5   25.23    2.88
   4   2  -5   27.06    1.60
   4   2  -5   21.07    2.30
  -4  -2   5   28.27    3.02
  -4  -2   4    6.90    2.08
   4   2  -4    6.63    1.08
   4   2  -4    5.42    1.50
  -4  -2   4    9.65    1.34
   4   2  -4    6.98    0.96
   4   2  -4    9.06    1.98
  -4  -2   4    6.96    1.02
   4   2  -4    6.24    0.87
   4   2  -4    8.30    1.21
   4   2  -4    7.98    1.46
  -4  -2   4    3.95    1.52
  -4  -2   3   22.26    2.61
  -4  -2   3   24.22    2.08
   4   2  -3   21.75    2.58
   4   2  -3   22.28    2.64
   4   2  -3   21.89    1.56
   4   2  -3   21.84    2.01
   4   2  -3   24.23    2.54
  -4  -2   3   24.22    2.72
   4   2  -2  331.94    9.38
   4   2  -2  311.17    6.25
   4   2  -2  321.94    7.70
   4   2  -2  331.72    9.29
   4   2  -2  330.92    8.85
  -4  -2   2  320.74    9.23
  -4  -2   2  318.35    9.20
   4   2  -1   70.83    4.32
  -4  -2   1   65.54    3.17
   4   2  -1   62.53    3.20
   4   2  -1   63.97    3.84
   4   2  -1   68.43    4.34
  -4  -2   1   62.23    4.28
  -4  -2   1   64.34    4.37
   4   2   0  334.39    6.57
   4   2   0  325.14    9.07
   4   2   0  327.46    9.09
   4   2   0  333.40    7.96
  -4  -2   0  325.34    9.60
  -4  -2   0  306.83    9.47
   4   2   1    9.13    1.24
  -4  -2  -1    8.03    2.30
   4   2   1   12.43    2.42
   4   2   1    8.54    1.82
   4   2   1   13.26    2.45
   4   2   1    7.37    1.87
  -4  -2  -1    8.87    1.90
  -4  -2  -2   10.24    2.29
   4   2   2   14.67    2.51
   4   2   2   13.08    1.46
   4   2   2   10.26    1.82
   4   2   2   14.64    2.55
   4   2   2   16.10    2.52
  -4  -2  -2   10.62    2.29
  -4  -2  -3    7.12    2.12
   4   2   3   11.33    2.30
   4   2   3   12.06    2.29
   4   2   3    9.84    1.76
   4   2   3   12.88    2.76
   4   2   3   10.10    1.29
  -4  -2  -3    8.22    2.30
  -4  -2  -4   -1.82    2.34
   4   2   4    0.96    1.37
  -4  -2  -4   -0.52    1.05
  -4  -2  -4    0.06    1.48
   4   2   4    1.10    1.04
   4   2   4   -0.20    1.65
   4   2   4   -0.83    1.44
   4   2   4   -0.76    0.90
  -4  -2  -4   -0.06    1.74
  -4  -2  -5   22.12    3.35
   4   2   5   25.02    3.52
  -4  -2  -5   24.48    2.46
   4   2   5   23.01    2.51
  -4  -2  -5   23.28    3.52
   4   2   5   25.00    2.19
   4   2   5   22.96    3.58
   4   2   5   21.61    3.21
  -4  -2  -6   16.21    3.14
   4   2   6   10.34    2.41
  -4  -2  -6   12.16    2.08
   4   2   6   11.78    3.09
   4   2   6    8.64    2.49
   4   2   7   15.55    3.09
  -4  -2  -7   15.69    2.46
  -4  -2  -7   19.70    3.40
   4   2   7   12.31    3.02
   4   2   7   12.27    2.96
   4   2   8   27.05    3.94
  -4  -2  -8   30.65    4.42
  -4  -2  -8   26.99    3.27
  -4  -2  -8   29.84    4.30
   4   2   8   23.62    4.19
   4   2   8   23.45    4.09
  -4  -2  -9   41.69    4.50
   4   2   9   36.60    4.75
  -4  -2  -9   42.01    5.16
  -4  -2  -9   30.66    4.81
   4   2   9   41.37    5.41
   4   2   9   34.73    5.06
   4   2  10   11.20    3.00
  -4  -2 -10    9.11    2.97
  -4  -2 -10    9.25    2.92
   4   2  10   10.38    3.53
   4   2  10   11.83    3.31
  -4  -3  16   -0.50    1.90
   4   3 -16   -0.80    1.77
   4   3 -16    3.12    2.37
   4   3 -15   -0.53    2.30
  -4  -3  15   -3.04    2.15
   4   3 -15    1.59    1.89
   4   3 -15    1.65    2.12
  -4  -3  14    4.20    1.79
  -4  -3  14    5.52    2.34
   4   3 -14    2.71    2.06
   4   3 -14    2.70    1.65
   4   3 -14    2.24    1.84
  -4  -3  14    4.29    2.31
   4   3 -13   27.68    3.70
  -4  -3  13   33.98    3.69
   4   3 -13   25.96    3.73
  -4  -3  13   28.25    4.06
   4   3 -13   32.86    4.36
  -4  -3  13   31.85    4.27
  -4  -3  12    9.35    2.23
  -4  -3  12    3.85    2.22
   4   3 -12    4.26    2.00
   4   3 -12   11.35    2.70
   4   3 -12    6.67    2.37
  -4  -3  12    8.71    2.52
  -4  -3  11    3.81    1.91
   4   3 -11    7.61    2.19
   4   3 -11    6.23    1.97
   4   3 -11    7.15    2.22
  -4  -3  11    6.83    1.96
  -4  -3  11    8.73    2.48
  -4  -3  10   13.29    2.64
   4   3 -10    9.10    2.12
  -4  -3  10   12.02    2.68
   4   3 -10   13.22    2.50
   4   3 -10   12.41    2.62
  -4  -3  10   12.64    2.18
  -4  -3   9    2.69    2.10
  -4  -3   9    1.70    0.77
   4   3  -9    0.90    1.38
  -4  -3   9    2.25    2.13
   4   3  -9    2.58    1.33
   4   3  -9    0.68    1.58
  -4  -3   9    1.69    1.06
  -4  -3   8   81.79    3.01
   4   3  -8   72.86    5.26
  -4  -3   8   79.31    5.61
   4   3  -8   80.94    5.40
   4   3  -8   68.77    4.25
   4   3  -8   74.42    4.90
  -4  -3   8   74.77    5.45
  -4  -3   8   79.46    5.52
  -4  -3   7   31.58    3.35
  -4  -3   7   36.24    1.92
  -4  -3   7   38.89    4.31
   4   3  -7   28.86    2.53
   4   3  -7   28.01    3.28
   4   3  -7   33.42    3.58
   4   3  -7   29.20    3.09
  -4  -3   7   29.15    3.38
   4   3  -6   79.49    2.87
  -4  -3   6   89.22    3.04
   4   3  -6   79.80    5.16
   4   3  -6   77.42    3.46
   4   3  -6   90.91    5.53
   4   3  -6   85.22    5.00
  -4  -3   6   82.35    5.41
  -4  -3   6   82.88    5.47
  -4  -3   5   -0.32    1.60
   4   3  -5    1.12    0.57
   4   3  -5    2.59    1.63
   4   3  -5    0.92    1.36
  -4  -3   5    0.58    0.62
   4   3  -5    1.02    1.18
  -4  -3   5   -1.37    1.89
  -4  -3   4    4.97    1.98
   4   3  -4    3.20    0.87
   4   3  -4    2.51    1.57
   4   3  -4    7.10    1.97
  -4  -3   4    3.02    1.00
   4   3  -4    2.90    0.97
   4   3  -4    2.20    0.45
   4   3  -4    3.89    1.39
  -4  -3   4    2.73    1.52
  -4  -3   3   11.18    2.36
   4   3  -3   11.74    2.27
   4   3  -3   10.33    2.12
   4   3  -3   12.33    1.80
   4   3  -3    9.91    1.07
   4   3  -3   12.43    2.08
  -4  -3   3    9.68    2.12
   4   3  -2   52.93    3.52
   4   3  -2   54.67    4.26
   4   3  -2   59.13    3.76
   4   3  -2   55.97    2.75
   4   3  -2   52.83    4.05
  -4  -3   2   49.58    4.06
  -4  -3   2   55.69    4.34
   4   3  -1   36.86    2.80
   4   3  -1   38.38    3.54
   4   3  -1   42.04    3.44
   4   3  -1   37.51    2.67
   4   3  -1   37.90    3.60
  -4  -3   1   34.46    3.60
  -4  -3   1   32.72    3.68
   4   3   0    2.00    1.20
  -4  -3   0    0.24    1.67
   4   3   0    0.47    1.25
   4   3   0    2.14    1.41
   4   3   0    0.31    1.03
  -4  -3   0   -1.03    1.74
  -4  -3  -1    2.97    2.22
   4   3   1    0.21    1.28
   4   3   1    0.41    0.90
   4   3   1    0.02    1.20
   4   3   1    1.07    1.66
   4   3   1   -0.16    1.44
  -4  -3  -1   -0.25    1.59
  -4  -3  -2    8.22    2.49
   4   3   2    6.28    1.97
   4   3   2    6.71    1.68
   4   3   2    7.61    1.45
   4   3   2    6.13    2.21
   4   3   2    7.58    1.88
  -4  -3  -2    8.32    2.35
   4   3   3    8.35    1.54
  -4  -3  -3    6.02    2.07
   4   3   3    6.41    2.07
  -4  -3  -3    8.08    2.32
  -4  -3  -3    5.57    1.11
   4   3   3    7.53    1.88
   4   3   3    8.19    2.46
   4   3   3    6.58    1.95
  -4  -3  -3    5.92    2.32
   4   3   4   41.46    4.39
  -4  -3  -4   41.36    4.36
  -4  -3  -4   42.41    2.90
   4   3   4   47.38    3.25
   4   3   4   42.42    3.68
   4   3   4   39.72    4.48
   4   3   4   38.00    4.18
  -4  -3  -4   31.32    4.08
  -4  -3  -4   34.39    4.09
  -4  -3  -5   -0.12    1.47
   4   3   5    3.07    1.54
  -4  -3  -5   -0.51    1.51
   4   3   5   -1.26    2.08
   4   3   5   -0.92    1.57
  -4  -3  -6   -1.75    1.98
   4   3   6    2.23    1.79
  -4  -3  -6    1.54    1.86
   4   3   6   -1.75    2.32
   4   3   6    3.01    1.95
   4   3   7    1.00    1.60
  -4  -3  -7    0.38    1.56
   4   3   7    0.38    2.08
   4   3   7    1.87    1.84
   4   3   8    6.27    2.45
  -4  -3  -8    8.03    3.27
  -4  -3  -8   -3.03    2.21
   4   3   8   -2.96    2.94
   4   3   8    2.25    2.24
   4   3   9    0.20    1.99
  -4  -3  -9   -0.99    2.22
  -4  -3  -9    2.25    1.89
   4   3   9    5.08    2.83
  -4  -4  16    3.28    2.59
   4   4 -16    7.17    2.61
   4   4 -16    7.61    2.70
   4   4 -15   12.85    3.26
  -4  -4  15    5.04    2.64
   4   4 -15    4.74    2.12
   4   4 -15    4.93    2.22
  -4  -4  15    9.96    3.28
  -4  -4  14   -0.69    2.32
   4   4 -14    1.24    1.58
   4   4 -14   -0.05    1.73
   4   4 -14   -0.39    1.38
  -4  -4  14   -1.72    2.45
  -4  -4  13    2.61    2.15
   4   4 -13    4.41    1.88
   4   4 -13    5.55    2.05
   4   4 -13    4.19    2.10
  -4  -4  13    0.46    1.83
  -4  -4  12   33.73    4.47
  -4  -4  12   39.92    3.70
  -4  -4  12   32.68    4.38
   4   4 -12   34.57    4.10
   4   4 -12   25.54    3.55
   4   4 -12   35.97    4.33
  -4  -4  11    2.78    2.01
  -4  -4  11    3.01    2.04
   4   4 -11    5.24    1.90
   4   4 -11    6.34    2.03
   4   4 -11    0.86    1.47
  -4  -4  11    3.62    1.51
  -4  -4  11    2.77    1.88
  -4  -4  10   14.37    3.14
  -4  -4  10   19.55    3.41
   4   4 -10   11.69    2.19
   4   4 -10   13.82    2.69
   4   4 -10   13.95    2.76
  -4  -4  10   16.71    2.39
  -4  -4  10   17.11    3.14
  -4  -4   9    9.74    2.66
  -4  -4   9    8.92    2.76
   4   4  -9   13.83    3.02
   4   4  -9    8.31    2.20
  -4  -4   9   11.11    2.05
   4   4  -9    7.84    2.09
  -4  -4   9    8.67    2.34
  -4  -4   8   82.98    6.27
   4   4  -8   96.27    6.14
   4   4  -8   84.20    5.80
   4   4  -8   78.96    5.49
  -4  -4   8   84.23    6.08
  -4  -4   8   71.42    5.55
   4   4  -7   96.04    6.06
  -4  -4   7  101.05    6.62
   4   4  -7  103.04    6.28
   4   4  -7   90.94    5.69
  -4  -4   7   95.08    6.17
  -4  -4   7   94.96    6.14
   4   4  -6  104.84    6.24
   4   4  -6   98.84    6.13
   4   4  -6  100.51    5.93
  -4  -4   6   92.74    5.97
  -4  -4   6  108.08    6.46
  -4  -4   5    3.59    2.21
   4   4  -5    4.62    1.69
   4   4  -5    2.76    1.69
   4   4  -5    1.28    1.17
  -4  -4   5    0.76    1.54
  -4  -4   4    4.96    1.92
   4   4  -4    1.03    1.40
   4   4  -4    2.06    1.57
   4   4  -4    0.89    1.11
  -4  -4   4   -0.45    1.82
  -4  -4   3   24.32    3.51
   4   4  -3   24.56    2.89
   4   4  -3   24.89    3.08
   4   4  -3   24.95    1.66
   4   4  -3   24.85    3.21
  -4  -4   3   23.83    3.26
  -4  -4   2    1.36    2.13
   4   4  -2   -1.29    1.84
   4   4  -2    5.65    2.04
   4   4  -2    1.74    1.32
   4   4  -2    1.45    0.93
  -4  -4   2   -0.70    1.59
   4   4  -1    3.30    1.41
  -4  -4   1    2.31    1.83
   4   4  -1    1.84    1.56
   4   4  -1   -1.02    1.68
   4   4  -1    3.54    1.57
   4   4  -1    5.36    1.41
  -4  -4   1    1.70    1.60
  -4  -4   0   -1.32    1.86
   4   4   0    1.55    1.03
   4   4   0    1.22    1.17
   4   4   0    0.13    1.46
   4   4   0    3.13    2.06
   4   4   0    2.11    1.27
  -4  -4   0    1.17    1.53
  -4  -4  -1    8.06    2.37
   4   4   1    8.27    1.69
   4   4   1    6.34    1.73
   4   4   1    3.98    1.64
   4   4   1    8.76    1.90
  -4  -4  -1    4.36    2.01
   4   4   2  134.75    7.37
   4   4   2  141.86    6.05
   4   4   2  140.74    7.18
   4   4   2  134.70    7.58
   4   4   2  145.97    6.91
  -4  -4  -2  128.28    7.67
  -4  -4  -2  128.17    7.65
   4   4   3    2.35    1.31
  -4  -4  -3    0.76    1.49
   4   4   3    0.44    1.46
  -4  -4  -3    2.45    1.73
   4   4   3    1.32    1.30
   4   4   3   -2.26    2.32
   4   4   3    0.72    1.39
  -4  -4  -3    1.74    1.79
  -4  -4  -4   21.13    3.51
   4   4   4   25.80    3.70
  -4  -4  -4   27.13    3.89
   4   4   4   28.81    3.72
  -4  -4  -4   26.88    4.03
  -4  -4  -5    0.10    1.67
   4   4   5    4.04    2.06
  -4  -4  -5    2.13    1.90
   4   4   5    1.02    1.76
   4   4   6    0.50    1.51
  -4  -4  -6    3.46    2.20
   4   4   6    2.58    2.14
   4   4   7   -0.76    1.60
  -4  -4  -7   -0.92    1.87
   4   4   7    3.47    2.71
   4   4   8   19.19    3.62
   4   4   8   12.30    3.20
  -4  -5  15   50.80    5.97
   4   5 -15   51.00    5.68
   4   5 -14   64.25    6.13
  -4  -5  14   65.01    6.56
   4   5 -14   62.47    5.73
  -4  -5  14   62.78    6.44
  -4  -5  14   76.82    7.23
  -4  -5  13    3.76    2.46
   4   5 -13    4.49    1.97
  -4  -5  13    4.05    2.35
   4   5 -13    3.61    2.02
  -4  -5  13    5.68    2.50
  -4  -5  12   21.05    3.80
  -4  -5  12   21.75    3.97
   4   5 -12   16.34    3.30
   4   5 -12   12.61    2.87
  -4  -5  12   16.76    3.46
  -4  -5  11    4.28    2.03
   4   5 -11    3.27    1.74
   4   5 -11   -1.33    1.47
  -4  -5  11   -0.87    2.37
  -4  -5  11    3.74    2.01
  -4  -5  10   19.32    3.35
  -4  -5  10   18.39    3.39
   4   5 -10   21.74    3.41
   4   5 -10   18.25    3.16
  -4  -5  10   21.68    2.65
   4   5 -10   14.65    2.76
  -4  -5  10   23.57    3.76
  -4  -5   9   -0.82    1.61
  -4  -5   9    4.90    2.62
   4   5  -9    0.70    1.54
   4   5  -9    1.25    1.63
   4   5  -9    0.94    1.35
  -4  -5   9   -1.08    1.55
  -4  -5   8   78.93    6.23
   4   5  -8   76.28    5.75
   4   5  -8   77.77    5.77
   4   5  -8   80.06    5.98
  -4  -5   8   73.81    5.79
  -4  -5   8   82.69    6.24
  -4  -5   7   20.38    3.23
   4   5  -7   22.06    3.32
   4   5  -7   19.46    3.00
   4   5  -7   21.28    3.22
  -4  -5   7   21.20    3.25
  -4  -5   6    1.43    1.89
   4   5  -6   -0.87    1.80
   4   5  -6    2.62    1.84
   4   5  -6    0.43    1.18
  -4  -5   6   -0.84    1.73
   4   5  -5   62.56    5.15
   4   5  -5   66.97    5.34
   4   5  -5   57.81    4.91
  -4  -5   5   58.79    5.16
  -4  -5   5   64.12    5.35
   4   5  -4   55.31    4.56
   4   5  -4   53.36    4.82
   4   5  -4   55.28    4.77
  -4  -5   4   54.31    4.92
  -4  -5   4   56.76    5.19
   4   5  -3  162.91    7.25
   4   5  -3  160.85    8.18
   4   5  -3  152.29    7.99
  -4  -5   3  148.96    8.00
  -4  -5   3  159.69    8.24
   4   5  -2   93.23    5.48
   4   5  -2  101.66    6.52
   4   5  -2   93.25    6.37
  -4  -5   2   92.22    6.45
  -4  -5   2   86.17    6.22
  -4  -5   1   22.11    3.52
   4   5  -1   26.21    3.04
   4   5  -1   26.33    3.54
   4   5  -1   22.31    2.42
   4   5  -1   27.43    3.75
  -4  -5   1   23.03    3.44
  -4  -5   0    7.12    2.63
   4   5   0    4.63    1.75
   4   5   0    1.28    1.16
   4   5   0    3.40    1.99
   4   5   0    3.88    1.46
  -4  -5   0    3.59    2.04
  -4  -5  -1   10.20    2.74
   4   5   1   10.58    2.05
   4   5   1   12.57    2.55
   4   5   1   12.21    2.80
   4   5   1    9.53    1.79
  -4  -5  -1   10.66    2.76
  -4  -5  -2    3.12    1.88
  -4  -5  -2    1.17    1.69
   4   5   2   -0.42    1.29
   4   5   2    1.35    1.40
   4   5   2    2.15    2.26
   4   5   2    1.99    1.31
  -4  -5  -2   -1.13    1.63
  -4  -5  -3    3.41    1.93
   4   5   3    3.79    1.85
  -4  -5  -3    0.29    1.62
   4   5   3    6.45    2.63
   4   5   3    2.02    1.94
  -4  -5  -3    3.46    2.23
  -4  -5  -4    1.80    1.65
   4   5   4    1.48    1.65
  -4  -5  -4   -0.75    1.83
   4   5   4   -2.51    1.88
  -4  -5  -4    1.13    1.93
  -4  -5  -5    2.12    2.04
   4   5   5    5.60    2.29
  -4  -5  -5    7.55    2.83
   4   5   5    1.98    2.14
   4   5   6    0.37    1.89
  -4  -5  -6   -1.54    1.81
   4   5   6   -2.05    1.88
   4   5   7   77.37    6.90
   4   5   7   71.97    6.93
   4   6 -15    8.81    2.68
   4   6 -14  115.32    7.86
   4   6 -14  120.24    8.35
  -4  -6  13    3.08    2.46
  -4  -6  13    2.80    2.75
   4   6 -13    1.32    1.72
   4   6 -13    3.00    1.70
  -4  -6  13    0.20    1.71
  -4  -6  12   11.05    3.30
  -4  -6  12   11.97    3.42
   4   6 -12   11.12    2.72
   4   6 -12   12.91    3.05
  -4  -6  12   14.16    3.47
  -4  -6  11   -0.81    1.88
  -4  -6  11    2.44    2.99
   4   6 -11   -0.12    1.46
   4   6 -11    0.35    1.50
  -4  -6  11    0.24    1.63
  -4  -6  10   -0.98    2.22
  -4  -6  10    4.59    2.74
   4   6 -10    0.74    1.43
   4   6 -10    1.63    1.62
   4   6 -10   -0.31    1.30
  -4  -6  10   -0.93    1.87
  -4  -6   9   -0.26    1.89
   4   6  -9    0.10    1.57
   4   6  -9    0.67    1.52
  -4  -6   9    3.31    2.54
   4   6  -9   -1.92    1.71
  -4  -6   9   -1.93    1.92
  -4  -6   8   10.62    2.92
   4   6  -8   10.98    2.60
   4   6  -8    8.68    2.31
   4   6  -8    9.02    2.52
  -4  -6   8   12.94    3.09
  -4  -6   7    3.31    2.37
   4   6  -7    2.54    1.77
   4   6  -7    5.46    1.93
   4   6  -7    1.27    1.35
  -4  -6   7    2.22    1.54
  -4  -6   6    9.89    2.77
   4   6  -6    5.43    2.17
   4   6  -6    4.87    2.06
  -4  -6   6    3.16    1.84
   4   6  -5   89.67    6.27
   4   6  -5   95.87    6.86
   4   6  -5   93.94    6.71
  -4  -6   5   88.72    6.59
  -4  -6   5   95.39    6.91
   4   6  -4  410.53   12.68
   4   6  -4  436.31   14.26
   4   6  -4  429.06   14.24
  -4  -6   4  422.17   14.06
  -4  -6   4  420.27   13.93
   4   6  -3  220.97    9.20
   4   6  -3  221.84   10.33
   4   6  -3  232.59   10.58
  -4  -6   3  225.88   10.47
  -4  -6   3  202.85    9.83
   4   6  -2   18.12    2.94
  -4  -6   2   16.97    3.33
   4   6  -2   16.03    3.04
   4   6  -2   18.82    3.30
  -4  -6   2   13.10    2.99
  -4  -6   1   13.59    2.98
   4   6  -1   14.77    2.58
   4   6  -1   13.61    2.70
   4   6  -1   17.80    3.29
  -4  -6   1   12.33    2.93
  -4  -6   0    1.97    2.06
   4   6   0    1.84    1.70
   4   6   0    0.81    1.76
   4   6   0   -0.25    1.95
  -4  -6   0    0.35    1.72
  -4  -6  -1    0.74    1.54
   4   6   1   -0.83    1.60
   4   6   1    3.94    1.77
  -4  -6  -1   -1.27    1.69
   4   6   1    3.16    2.12
  -4  -6  -1    3.35    2.00
  -4  -6  -2    0.08    1.67
  -4  -6  -2   -0.49    1.91
   4   6   2    1.96    1.94
  -4  -6  -2   -0.23    1.85
  -4  -6  -3   11.63    2.91
  -4  -6  -3    9.33    2.61
   4   6   3   13.57    3.36
  -4  -6  -3   14.13    3.46
  -4  -6  -4   -0.26    1.86
  -4  -6  -4   -0.22    2.27
  -4  -6  -4    2.33    1.85
   4   6   4    4.59    2.58
  -4  -6  -5   85.10    7.48
   4   6   6   -1.41    1.87
   4   7 -14   42.22    5.40
   4   7 -13   34.84    4.70
   4   7 -13   36.57    4.87
  -4  -7  12   13.42    3.66
   4   7 -12    8.28    2.53
  -4  -7  12   13.84    3.90
   4   7 -12   11.75    2.93
  -4  -7  12    7.74    2.45
  -4  -7  11   16.66    3.79
   4   7 -11   16.89    3.42
  -4  -7  11   22.44    4.62
   4   7 -11   20.44    3.63
   4   7 -11   10.60    2.78
  -4  -7  11   14.43    3.03
  -4  -7  10    2.97    2.38
   4   7 -10    1.85    1.90
   4   7 -10    2.85    2.23
   4   7 -10    4.68    2.26
  -4  -7  10    0.50    1.85
  -4  -7   9    9.11    2.81
   4   7  -9   11.46    2.85
   4   7  -9    4.88    1.97
   4   7  -9    7.20    2.63
  -4  -7   9   12.89    3.14
  -4  -7   8    8.58    2.94
   4   7  -8    6.49    2.35
   4   7  -8    9.65    2.53
  -4  -7   8    9.38    2.72
  -4  -7   7    9.92    3.19
   4   7  -7   12.81    3.04
   4   7  -7    9.55    2.80
  -4  -7   7   15.85    3.44
  -4  -7   6   10.31    3.04
   4   7  -6    9.97    2.71
   4   7  -6   10.06    2.70
  -4  -7   6   11.38    2.96
   4   7  -5   49.01    5.07
   4   7  -5   63.58    6.08
   4   7  -5   58.87    5.87
  -4  -7   5   52.97    5.56
  -4  -7   5   51.88    5.50
  -4  -7   4    7.82    2.53
   4   7  -4   13.25    3.09
   4   7  -4    8.79    2.45
   4   7  -4    8.33    2.49
  -4  -7   4   10.24    2.94
  -4  -7   3   11.41    3.03
   4   7  -3   12.75    2.97
   4   7  -3    8.43    2.49
   4   7  -3   10.30    2.96
  -4  -7   3    9.38    2.83
   4   7  -2    2.37    1.89
  -4  -7   2    3.14    1.75
   4   7  -2    1.91    1.86
   4   7  -2    3.03    1.64
  -4  -7   2   -0.84    1.79
   4   7  -1   -0.57    1.44
   4   7  -1   -0.75    1.52
   4   7  -1    0.80    1.78
  -4  -7   1   -1.74    2.15
  -4  -7   0   12.68    3.27
   4   7   0   11.14    2.64
  -4  -7   0   12.12    2.92
   4   7   0    8.71    2.68
   4   7   0   15.92    3.48
  -4  -7   0   11.87    3.41
  -4  -7  -1   35.97    4.82
   4   7   1   32.89    4.99
  -4  -7  -1   40.63    5.39
  -4  -7  -1   36.55    5.33
  -4  -7  -2    3.40    2.22
  -4  -7  -2    8.20    2.71
  -4  -7  -3    1.32    1.84
   4   8 -13    1.42    1.98
   4   8 -12    7.85    2.83
   4   8 -12    3.12    1.80
   4   8 -11   37.12    5.01
   4   8 -11   34.70    4.80
  -4  -8  10    9.96    3.32
   4   8 -10    2.08    2.24
   4   8 -10    3.15    1.76
  -4  -8  10    6.58    2.94
  -4  -8   9   10.29    3.30
   4   8  -9   10.33    3.06
   4   8  -9    7.71    2.98
  -4  -8   9    9.27    2.80
  -4  -8   8    2.52    1.96
   4   8  -8    3.76    2.03
   4   8  -8   -1.18    1.65
  -4  -8   8    1.35    2.24
  -4  -8   7    0.36    2.28
   4   8  -7    0.54    2.01
   4   8  -7    1.95    1.83
  -4  -8   7    0.28    1.83
  -4  -8   6   13.32    3.20
   4   8  -6   10.16    2.87
   4   8  -6   12.45    3.17
   4   8  -6   16.14    3.60
  -4  -8   6   14.68    3.30
  -4  -8   5    4.02    2.54
   4   8  -5    2.31    1.79
   4   8  -5    5.82    2.64
   4   8  -5    2.90    1.92
  -4  -8   5    7.01    2.76
  -4  -8   4    3.95    2.75
   4   8  -4    3.75    2.30
   4   8  -4    3.01    2.07
   4   8  -4    3.97    2.16
  -4  -8   4    2.30    1.94
  -4  -8   3    3.72    2.24
   4   8  -3   -1.30    2.09
   4   8  -3    6.58    2.91
   4   8  -3    5.27    2.36
  -4  -8   3    6.47    2.34
   4   8  -2    0.75    1.62
  -4  -8   2    6.23    3.19
   4   8  -2   -0.12    1.63
   4   8  -2    0.66    1.93
  -4  -8   2    0.14    2.09
   4   8  -1   48.14    5.36
  -4  -8   1   56.02    5.62
  -4  -8   1   55.45    6.24
  -4  -8   0   23.46    3.88
  -4  -8  -1    8.25    2.70
   4   9  -6    4.86    2.55
   4   9  -5    6.60    2.69
   4   9  -4    2.74    2.43
   4   9  -3    4.09    2.33
   5 -11   6    1.20    2.11
  -5  10   1    1.00    2.18
  -5  10   0   -4.37    2.56
  -5  10  -1    3.96    1.99
   5 -10   1    2.19    2.51
  -5  10  -1    1.76    2.16
   5 -10   2   13.21    3.49
  -5  10  -2   10.35    2.67
  -5  10  -2    9.90    3.04
   5 -10   2   12.60    3.48
   5 -10   3    4.90    2.56
   5 -10   3    1.00    1.91
  -5  10  -3    5.18    2.51
   5 -10   4    4.94    2.56
  -5  10  -4    1.66    2.10
   5 -10   4    4.75    2.30
  -5  10  -4   -1.42    2.34
  -5  10  -5    1.35    2.01
   5 -10   5    4.42    2.27
  -5  10  -5    4.25    2.12
   5 -10   6    8.33    3.13
  -5  10  -6    5.90    3.13
  -5  10  -6    6.20    2.48
   5 -10   6    1.46    1.97
   5 -10   6    5.02    2.44
  -5  10  -7    5.51    2.42
   5 -10   7   -0.70    1.88
   5 -10   8   10.72    2.82
  -5  10  -8    6.91    2.75
   5 -10   9    4.49    2.37
   5 -10   9    3.26    2.13
   5 -10   9    0.63    2.44
  -5  10  -9    3.52    2.18
   5 -10   9    0.69    1.84
   5 -10  10   20.40    4.02
   5 -10  10   26.40    4.29
  -5   9   5    0.16    1.97
   5  -9  -5    0.25    1.75
   5  -9  -4    2.65    2.16
  -5   9   4    3.64    1.88
   5  -9  -4    5.73    2.30
   5  -9  -3    1.30    2.69
  -5   9   3    2.09    1.89
  -5   9   3    5.09    2.90
  -5   9   3    2.21    1.52
   5  -9  -2   10.80    3.13
  -5   9   2    6.14    2.30
   5  -9  -2    5.41    3.11
  -5   9   2    6.85    2.63
  -5   9   1    4.41    2.39
   5  -9  -1    2.76    2.60
  -5   9   1    1.17    1.62
   5  -9  -1    1.18    2.19
   5  -9   0   21.32    4.18
  -5   9   0   14.76    3.02
   5  -9   0   17.11    3.52
  -5   9   0   18.74    3.63
   5  -9   1   16.62    3.81
  -5   9  -1   15.74    3.21
  -5   9  -1   10.73    2.52
   5  -9   1   15.17    3.38
  -5   9  -1   15.49    3.32
   5  -9   2    3.59    2.39
  -5   9  -2    4.75    2.42
  -5   9  -2    2.96    1.42
   5  -9   2    2.08    2.24
  -5   9  -2   -0.42    1.66
   5  -9   3    2.72    2.45
  -5   9  -3    1.00    1.59
  -5   9  -3    2.98    2.18
  -5   9  -3    3.88    1.85
   5  -9   3    3.93    2.12
   5  -9   4    2.07    2.27
  -5   9  -4    1.56    1.95
  -5   9  -4    1.64    1.41
   5  -9   4   -0.14    2.11
  -5   9  -4    1.14    1.79
   5  -9   5    4.49    2.58
  -5   9  -5    6.64    2.11
  -5   9  -5    8.69    2.95
   5  -9   5    4.28    2.09
  -5   9  -5    4.14    2.06
   5  -9   6   16.47    3.71
  -5   9  -6   12.05    2.54
  -5   9  -6   14.08    3.40
  -5   9  -6   16.13    3.20
   5  -9   6   11.02    2.65
   5  -9   6    4.54    1.82
   5  -9   6   15.14    3.19
   5  -9   6    8.47    2.40
   5  -9   7   86.13    7.26
  -5   9  -7   75.77    6.24
   5  -9   7   92.01    7.03
  -5   9  -7   74.82    7.08
   5  -9   8    1.88    2.12
  -5   9  -8    7.06    2.72
   5  -9   8    1.54    1.99
   5  -9   8    3.29    1.83
  -5   9  -8   -0.19    1.74
   5  -9   9    2.18    2.06
  -5   9  -9    7.00    2.74
  -5   9  -9    3.61    1.61
   5  -9   9    6.06    2.26
   5  -9   9    5.20    2.30
   5  -9  10   -3.09    2.86
  -5   9 -10   -1.65    1.89
   5  -9  10    1.98    2.14
   5  -9  10    2.09    1.89
   5  -9  11    3.26    2.31
   5  -9  11    7.57    2.96
   5  -9  11    3.60    2.46
  -5   8   6   -1.40    1.63
   5  -8  -6    1.57    1.75
   5  -8  -5   13.11    3.02
  -5   8   5   15.06    3.32
   5  -8  -5   10.44    3.15
  -5   8   5   12.05    3.10
   5  -8  -5   18.82    3.59
   5  -8  -4   -0.13    2.13
  -5   8   4    3.15    2.31
   5  -8  -4    1.41    2.13
  -5   8   4    2.16    1.65
   5  -8  -4    5.67    2.24
   5  -8  -3    1.33    2.06
  -5   8   3    0.37    1.63
   5  -8  -3    2.57    1.80
  -5   8   3   -1.10    1.52
   5  -8  -3   -0.70    1.40
   5  -8  -2   -2.23    2.13
  -5   8   2   -1.46    1.47
   5  -8  -2   -2.94    2.42
  -5   8   2    2.30    1.70
   5  -8  -2    1.30    1.42
   5  -8  -1    6.97    2.31
  -5   8   1    7.16    2.32
  -5   8   1    5.16    2.40
   5  -8  -1    0.48    1.73
  -5   8   1    4.17    1.54
   5  -8  -1    5.83    1.87
  -5   8   1    7.48    2.47
   5  -8   0    5.31    2.77
  -5   8   0    1.82    1.76
  -5   8   0    2.42    1.59
  -5   8   0    1.34    1.71
   5  -8   0    3.33    2.30
  -5   8   0    1.62    1.36
   5  -8   1    5.84    2.93
  -5   8  -1    4.04    1.90
  -5   8  -1    6.57    2.33
  -5   8  -1    4.87    2.09
   5  -8   1    3.65    1.68
   5  -8   2    4.59    2.05
  -5   8  -2    5.18    1.95
  -5   8  -2    0.02    1.64
   5  -8   2    4.62    2.15
  -5   8  -2    4.39    2.02
  -5   8  -3    1.91    1.56
  -5   8  -3    0.92    1.38
  -5   8  -3    4.43    2.29
   5  -8   3    0.90    1.46
   5  -8   4    5.75    2.91
  -5   8  -4    3.25    1.50
  -5   8  -4    1.02    1.85
   5  -8   4    1.45    1.67
  -5   8  -4    3.21    1.75
   5  -8   5    4.20    2.17
  -5   8  -5    1.28    1.28
  -5   8  -5    1.66    1.72
   5  -8   5   -0.30    1.37
  -5   8  -5    0.66    1.40
   5  -8   5    0.80    1.67
   5  -8   6   13.53    3.18
  -5   8  -6   10.28    2.31
  -5   8  -6   10.43    2.54
  -5   8  -6    7.99    2.55
   5  -8   6    4.74    1.75
   5  -8   6    5.64    2.57
  -5   8  -7    1.20    1.48
   5  -8   7    0.98    1.80
  -5   8  -7    1.89    1.50
  -5   8  -7    2.79    2.10
   5  -8   7    0.64    1.84
   5  -8   8   -2.04    2.38
  -5   8  -8   -1.10    1.42
  -5   8  -8   -1.64    1.88
   5  -8   8    0.33    1.74
   5  -8   8   -0.29    1.53
  -5   8  -8   -0.04    1.52
   5  -8   9   -3.24    2.70
  -5   8  -9   -1.74    1.85
   5  -8   9   -1.45    2.04
   5  -8   9    1.16    1.71
   5  -8  10   -0.60    1.87
  -5   8 -10    3.61    2.16
   5  -8  10    5.39    2.24
   5  -8  10    0.65    1.72
   5  -8  11   31.44    4.31
  -5   8 -11   27.67    4.50
   5  -8  11   32.79    4.53
   5  -8  11   31.69    4.62
  -5   8 -12    0.79    2.14
   5  -8  12   -1.18    2.03
   5  -7  -8    9.92    3.28
  -5   7   8    6.64    2.58
   5  -7  -8    8.40    2.99
  -5   7   7    6.32    2.75
   5  -7  -7    3.31    2.59
  -5   7   7    3.29    1.79
   5  -7  -7    1.97    2.17
   5  -7  -6   42.60    4.71
  -5   7   6   46.47    5.56
   5  -7  -6   49.15    5.61
  -5   7   6   42.56    4.96
   5  -7  -6   45.35    5.14
   5  -7  -5    1.72    1.86
  -5   7   5    5.76    2.34
   5  -7  -5    5.55    2.33
  -5   7   5    4.76    2.14
   5  -7  -5    5.29    2.05
   5  -7  -4   -0.85    2.11
  -5   7   4   -0.79    1.46
   5  -7  -4   -0.79    1.95
  -5   7   4   -0.85    1.52
   5  -7  -4   -0.32    1.55
   5  -7  -3    1.09    1.67
  -5   7   3    1.98    1.72
  -5   7   3    2.14    1.56
   5  -7  -3    5.00    2.21
   5  -7  -3    2.90    1.71
  -5   7   3    2.35    1.61
   5  -7  -2    3.87    2.31
  -5   7   2    1.50    1.75
  -5   7   2    4.08    1.88
   5  -7  -2    4.10    2.19
  -5   7   2    2.55    1.67
   5  -7  -2    1.38    1.46
   5  -7  -1   -2.40    2.38
  -5   7   1    1.57    1.57
  -5   7   1    0.86    1.49
   5  -7  -1    3.51    2.11
  -5   7   1    1.66    1.51
   5  -7  -1    1.55    1.41
   5  -7   0   43.88    4.72
  -5   7   0   44.03    4.47
   5  -7   0   51.61    4.86
   5  -7   0   46.46    3.44
  -5   7   0   48.37    3.97
  -5   7   0   45.70    4.57
  -5   7   0   49.24    4.71
   5  -7   1   28.04    3.71
  -5   7  -1   28.01    3.50
  -5   7  -1   30.12    3.04
  -5   7  -1   28.31    3.63
   5  -7   1   33.16    3.83
   5  -7   1   30.20    2.51
  -5   7  -1   26.89    3.48
   5  -7   2   11.52    3.10
  -5   7  -2    9.55    2.20
  -5   7  -2   10.32    2.44
   5  -7   2    8.44    2.12
  -5   7  -2   11.14    1.75
  -5   7  -2   11.53    2.48
   5  -7   3    8.71    2.61
  -5   7  -3    8.79    2.11
  -5   7  -3    7.26    1.98
  -5   7  -3    5.50    2.07
   5  -7   3    9.43    2.32
  -5   7  -3    8.18    1.52
   5  -7   4    0.00    1.69
  -5   7  -4    0.55    1.41
  -5   7  -4    0.88    1.89
   5  -7   4    1.38    1.37
  -5   7  -4   -0.19    1.34
   5  -7   5    3.27    2.05
  -5   7  -5   10.32    2.30
  -5   7  -5   12.53    2.92
   5  -7   5   10.39    2.26
  -5   7  -5    9.44    2.18
   5  -7   5   13.75    2.76
   5  -7   6   -2.34    2.36
  -5   7  -6    1.80    1.66
  -5   7  -6    2.24    1.48
  -5   7  -6    1.43    1.80
   5  -7   6    3.59    1.51
   5  -7   6    2.84    1.88
   5  -7   7    2.34    1.86
  -5   7  -7    1.36    1.31
  -5   7  -7    2.48    1.96
  -5   7  -7    1.31    1.52
   5  -7   7    1.73    1.67
   5  -7   7    2.48    1.78
  -5   7  -7    2.87    1.48
   5  -7   8    2.31    1.92
  -5   7  -8    5.06    1.80
  -5   7  -8    2.25    1.61
  -5   7  -8    4.77    2.29
  -5   7  -8    7.60    2.53
   5  -7   8   -0.18    1.66
   5  -7   8    1.57    1.59
   5  -7   9   40.68    4.48
  -5   7  -9   37.10    4.55
   5  -7   9   38.31    4.90
   5  -7   9   38.05    4.54
  -5   7  -9   36.02    4.78
   5  -7  10    0.14    1.55
  -5   7 -10   -1.13    1.83
  -5   7 -10   -0.21    1.89
   5  -7  10   -0.66    1.55
   5  -7  10   -0.92    1.76
  -5   7 -11   69.39    6.70
   5  -7  11   77.49    6.61
   5  -7  11   65.79    6.53
  -5   7 -11   56.76    5.91
  -5   7 -12   10.47    2.82
  -5   7 -12   12.44    3.29
   5  -7  12   10.38    3.08
   5  -7  12   14.02    3.59
  -5   7 -13    1.78    2.35
   5  -7  13    1.41    2.28
   5  -6 -10    3.52    2.57
  -5   6   9    1.23    2.22
   5  -6  -9    0.95    1.92
  -5   6   9    4.22    2.22
   5  -6  -9    3.57    2.45
  -5   6   8   95.32    7.82
   5  -6  -8   91.71    7.38
  -5   6   8   88.19    7.33
   5  -6  -8  103.50    7.66
   5  -6  -7   13.63    3.03
  -5   6   7    8.84    3.24
   5  -6  -7   11.09    3.01
  -5   6   7   10.49    2.91
   5  -6  -7    9.19    2.81
   5  -6  -7    9.86    2.21
   5  -6  -6   43.65    4.48
  -5   6   6   35.22    4.57
   5  -6  -6   41.11    4.86
  -5   6   6   38.49    4.53
   5  -6  -6   39.89    4.54
   5  -6  -5   -0.22    1.89
  -5   6   5    1.28    1.93
  -5   6   5    0.85    1.43
   5  -6  -5    1.18    1.81
   5  -6  -5    0.24    1.52
   5  -6  -4   -0.27    1.71
  -5   6   4    0.82    1.57
  -5   6   4    0.53    1.50
   5  -6  -4    1.12    1.81
  -5   6   4    0.24    1.68
   5  -6  -4   -0.05    1.30
   5  -6  -3    9.92    2.50
  -5   6   3   10.35    2.43
  -5   6   3   12.26    2.26
   5  -6  -3   14.58    2.97
  -5   6   3   12.96    2.59
   5  -6  -3   12.21    2.25
   5  -6  -2   -2.22    2.40
  -5   6   2    1.84    1.54
  -5   6   2   -0.43    1.39
   5  -6  -2    0.98    1.70
  -5   6   2   -1.68    1.25
   5  -6  -2    0.87    1.22
   5  -6  -1   -2.03    1.95
  -5   6   1    0.70    1.67
  -5   6   1   -0.32    1.44
   5  -6  -1    0.15    1.73
   5  -6  -1    1.25    1.09
  -5   6   1    1.86    1.40
   5  -6   0    0.87    2.01
  -5   6   0    2.44    1.64
  -5   6   0    1.83    1.31
   5  -6   0    0.77    1.70
   5  -6   0    4.69    1.27
  -5   6   0    6.16    1.83
  -5   6  -1   -1.53    1.49
  -5   6  -1    0.72    1.29
   5  -6   1    1.32    1.61
  -5   6  -1    1.74    1.71
   5  -6   1    0.92    0.74
  -5   6  -1    1.55    1.12
   5  -6   2   50.81    4.67
  -5   6  -2   57.98    4.66
   5  -6   2   56.39    4.57
  -5   6  -2   56.19    3.68
   5  -6   2   60.23    2.57
  -5   6  -2   51.07    4.19
  -5   6  -2   57.92    4.78
   5  -6   3   34.08    3.79
  -5   6  -3   28.62    3.42
   5  -6   3   34.90    3.53
  -5   6  -3   33.36    2.77
  -5   6  -3   30.68    3.67
  -5   6  -3   31.57    3.28
   5  -6   4    8.36    2.24
  -5   6  -4   16.40    2.78
   5  -6   4   14.29    1.62
  -5   6  -4   16.52    2.01
   5  -6   4   16.49    2.54
  -5   6  -4   13.15    2.36
  -5   6  -4   13.76    2.88
  -5   6  -4   14.43    2.22
   5  -6   4   17.57    2.94
   5  -6   5  134.50    7.46
  -5   6  -5  129.78    6.96
   5  -6   5  133.33    6.11
   5  -6   5  120.50    4.89
  -5   6  -5  135.73    5.08
  -5   6  -5  120.49    6.38
  -5   6  -5  134.01    6.17
   5  -6   5  138.40    7.57
  -5   6  -5  120.91    7.21
   5  -6   6   -1.19    2.08
  -5   6  -6   -2.35    1.59
   5  -6   6   -0.93    0.87
   5  -6   6   -0.54    1.09
  -5   6  -6    0.40    1.57
  -5   6  -6   -0.45    1.66
   5  -6   6   -2.79    1.90
  -5   6  -6    1.09    1.19
   5  -6   7   34.49    3.86
  -5   6  -7   33.14    3.81
   5  -6   7   30.51    3.10
  -5   6  -7   32.59    3.25
  -5   6  -7   31.19    3.72
  -5   6  -7   31.31    4.10
   5  -6   7   32.92    4.08
   5  -6   7   34.36    4.11
   5  -6   8    5.00    2.21
   5  -6   8    3.44    1.39
  -5   6  -8    2.14    1.75
  -5   6  -8    4.34    2.28
   5  -6   8    3.26    1.94
   5  -6   8    8.22    2.68
   5  -6   9    3.16    1.86
   5  -6   9    0.56    1.27
  -5   6  -9    1.70    1.82
  -5   6  -9    1.44    1.55
   5  -6   9    0.94    1.60
   5  -6   9    0.13    1.61
   5  -6  10    2.96    2.07
   5  -6  10    3.34    1.60
  -5   6 -10    1.01    1.61
  -5   6 -10    5.88    2.42
   5  -6  10    2.62    2.36
   5  -6  10    9.54    2.65
   5  -6  11   -2.31    1.56
  -5   6 -11   -0.06    1.66
  -5   6 -11   -0.60    1.72
   5  -6  11    2.05    2.27
   5  -6  11   -1.39    1.80
   5  -6  12   -0.84    1.66
  -5   6 -12   -0.94    1.87
  -5   6 -12    2.93    2.27
   5  -6  12    0.96    2.02
   5  -6  12    5.12    2.70
   5  -6  13    2.39    2.10
  -5   6 -13    4.87    2.61
   5  -6  13    5.02    2.45
   5  -5 -11    4.46    2.45
   5  -5 -11    1.08    1.61
  -5   5  10   -1.54    1.90
   5  -5 -10    2.35    2.09
  -5   5  10   -0.12    1.81
   5  -5 -10    0.56    1.86
   5  -5 -10    1.68    1.88
  -5   5   9   13.41    3.18
   5  -5  -9   10.88    2.81
  -5   5   9   10.64    2.93
   5  -5  -9   10.56    2.60
   5  -5  -9   12.09    2.90
  -5   5   8    6.12    2.35
   5  -5  -8    9.02    2.86
  -5   5   8    8.34    2.60
   5  -5  -8    7.83    2.48
   5  -5  -8   10.15    2.32
   5  -5  -7    5.92    2.40
  -5   5   7    2.69    2.11
   5  -5  -7   -2.24    2.03
  -5   5   7    0.52    2.00
   5  -5  -7    2.03    1.80
   5  -5  -7    1.31    1.44
   5  -5  -6   78.41    5.45
  -5   5   6   79.81    6.37
   5  -5  -6   77.61    6.15
  -5   5   6   76.48    5.92
   5  -5  -6   74.29    5.56
   5  -5  -5    9.35    2.52
  -5   5   5    6.18    2.21
  -5   5   5    6.85    1.63
   5  -5  -5    7.29    2.45
   5  -5  -5    5.83    1.86
  -5   5   5    5.90    1.97
   5  -5  -4   13.86    2.75
  -5   5   4   14.41    2.80
  -5   5   4   10.97    1.98
   5  -5  -4   12.35    2.69
  -5   5   4   11.73    2.43
   5  -5  -4   13.47    2.38
   5  -5  -3   28.64    3.46
  -5   5   3   29.91    3.57
   5  -5  -3   29.43    3.81
   5  -5  -3   27.96    3.04
  -5   5   3   25.41    3.20
  -5   5   3   26.25    2.96
   5  -5  -2    4.91    1.81
  -5   5   2    4.60    1.66
  -5   5   2    5.84    1.71
   5  -5  -2    6.89    2.38
   5  -5  -2    5.99    1.53
  -5   5   2    7.32    2.01
   5  -5  -1    3.97    2.10
  -5   5   1    0.43    1.28
   5  -5  -1    1.14    1.66
  -5   5   1    3.49    1.50
   5  -5  -1    2.35    1.23
  -5   5   1    1.61    1.45
   5  -5   0   13.34    2.70
  -5   5   0   20.10    2.91
   5  -5   0   19.61    2.78
  -5   5   0   16.18    2.36
   5  -5   0   20.76    2.09
  -5   5   0   18.66    2.45
   5  -5   1    1.77    2.05
  -5   5  -1    5.60    1.86
   5  -5   1    6.01    1.97
  -5   5  -1    3.56    1.60
  -5   5  -1    8.50    1.98
   5  -5   1    5.05    1.03
  -5   5  -1    4.76    1.46
  -5   5  -2    3.06    1.19
   5  -5   2    0.30    1.82
   5  -5   2    2.03    0.63
  -5   5  -2    2.42    1.43
   5  -5   2    2.73    1.72
  -5   5  -2    2.75    1.21
  -5   5  -2    3.18    1.69
   5  -5   2    2.63    0.69
  -5   5  -2    2.01    1.17
   5  -5   3  422.16   12.23
  -5   5  -3  455.44   12.33
   5  -5   3  442.58   10.87
   5  -5   3  418.22    8.31
  -5   5  -3  422.60   10.23
  -5   5  -3  444.15    7.49
  -5   5  -3  420.37    9.80
   5  -5   3  445.84   12.52
  -5   5  -3  414.74   11.98
   5  -5   4  220.19    8.83
  -5   5  -4  219.67    8.68
   5  -5   4  229.02    7.59
   5  -5   4  202.50    6.34
  -5   5  -4  218.87    7.86
  -5   5  -4  215.80    6.90
  -5   5  -4  230.45    5.82
   5  -5   4  217.29    8.98
  -5   5  -4  210.20    8.80
   5  -5   5   34.66    3.75
  -5   5  -5   37.04    3.80
   5  -5   5   39.04    3.17
   5  -5   5   34.22    3.01
  -5   5  -5   32.45    2.79
  -5   5  -5   29.18    3.15
  -5   5  -5   39.89    2.71
  -5   5  -5   28.68    3.59
   5  -5   5   32.00    3.82
   5  -5   6   38.05    4.01
  -5   5  -6   37.61    3.83
   5  -5   6   37.76    2.95
   5  -5   6   32.55    3.19
  -5   5  -6   35.63    2.94
  -5   5  -6   34.47    3.65
  -5   5  -6   39.97    2.90
  -5   5  -6   33.31    3.86
   5  -5   6   35.52    4.04
   5  -5   6   37.45    4.03
   5  -5   7    4.65    2.19
  -5   5  -7    2.59    1.30
  -5   5  -7    3.99    1.67
   5  -5   7    3.05    1.37
  -5   5  -7    2.35    1.65
  -5   5  -7    2.43    1.59
   5  -5   7    0.83    1.67
   5  -5   7    5.18    2.24
   5  -5   8    1.24    2.23
   5  -5   8    0.13    1.22
  -5   5  -8   -1.54    1.87
  -5   5  -8   -0.42    1.67
  -5   5  -8    0.98    1.14
   5  -5   8    1.06    1.92
   5  -5   8   -1.37    1.91
   5  -5   9   -0.29    1.18
  -5   5  -9   -0.04    1.75
  -5   5  -9   -0.29    1.73
  -5   5  -9   -0.32    1.00
   5  -5   9    1.51    1.99
   5  -5   9   -0.95    1.99
   5  -5  10   -0.52    1.23
  -5   5 -10   -1.75    1.89
  -5   5 -10   -1.11    1.60
  -5   5 -10    2.33    1.63
   5  -5  10    1.52    1.99
   5  -5  10    2.84    1.85
   5  -5  11    3.13    1.80
  -5   5 -11    7.77    2.74
  -5   5 -11    3.93    2.29
   5  -5  11    6.54    2.54
   5  -5  11    7.80    2.86
   5  -5  12   14.08    3.19
  -5   5 -12   10.37    3.18
  -5   5 -12   16.97    3.19
   5  -5  12   21.26    4.03
   5  -5  12   16.30    3.81
   5  -5  13   -0.59    1.73
  -5   5 -13    1.26    1.93
   5  -5  13    0.21    2.29
   5  -4 -12    0.31    2.00
   5  -4 -12   -2.60    1.84
  -5   4  11   -0.06    1.79
   5  -4 -11    3.84    2.13
  -5   4  11    0.58    1.79
   5  -4 -11    0.02    1.92
   5  -4 -11    2.15    1.79
  -5   4  10   -0.50    1.63
   5  -4 -10    2.22    1.72
  -5   4  10    0.84    1.99
   5  -4 -10    0.37    1.71
   5  -4 -10    1.41    1.74
  -5   4   9    2.10    1.76
  -5   4   9    4.21    1.52
   5  -4  -9    3.76    2.09
   5  -4  -9    4.05    2.09
  -5   4   9    5.02    2.36
   5  -4  -9    1.29    1.36
  -5   4   8   80.92    6.57
   5  -4  -8   71.46    5.87
  -5   4   8   70.72    6.09
  -5   4   8   71.16    4.78
   5  -4  -8   81.48    5.84
   5  -4  -8   80.03    6.23
  -5   4   7   17.28    3.11
  -5   4   7   16.90    2.26
   5  -4  -7   19.27    3.18
   5  -4  -7   17.06    2.90
  -5   4   7   20.50    3.24
   5  -4  -6   11.34    2.57
  -5   4   6   10.29    2.47
  -5   4   6    9.25    1.55
   5  -4  -6   10.06    2.53
   5  -4  -6    8.85    2.30
  -5   4   6    9.19    2.36
   5  -4  -5   37.55    3.88
  -5   4   5   32.53    3.81
   5  -4  -5   37.98    4.19
  -5   4   5   41.47    4.13
   5  -4  -5   38.95    3.80
  -5   4   5   38.05    2.99
   5  -4  -4    3.76    2.11
  -5   4   4    0.82    1.40
  -5   4   4   -0.37    1.06
   5  -4  -4    1.46    1.78
   5  -4  -4   -0.06    1.32
  -5   4   4   -0.53    1.27
   5  -4  -3   86.72    5.52
  -5   4   3   84.99    5.56
   5  -4  -3   94.56    5.87
  -5   4   3   82.88    5.15
   5  -4  -3   78.16    2.89
   5  -4  -3   87.50    4.83
  -5   4   3   87.05    4.59
   5  -4  -2    3.67    2.15
  -5   4   2    1.41    1.32
  -5   4   2    1.06    0.68
   5  -4  -2    2.66    1.72
  -5   4   2    0.00    1.26
   5  -4  -2    1.98    1.32
  -5   4   2    1.28    1.14
   5  -4  -2    0.47    0.22
   5  -4  -1   16.71    2.81
  -5   4   1   13.84    2.38
  -5   4   1   13.05    1.49
   5  -4  -1   15.68    2.65
  -5   4   1   10.76    2.05
   5  -4  -1   15.03    1.91
   5  -4  -1   12.12    1.12
  -5   4   1   11.02    2.00
  -5   4   1    9.45    1.06
   5  -4   0   20.98    3.31
  -5   4   0   18.74    2.59
  -5   4   0   19.70    1.67
   5  -4   0   21.75    2.87
  -5   4   0   21.53    1.80
  -5   4   0   19.26    2.63
   5  -4   0   17.42    1.73
   5  -4   0   18.36    1.63
  -5   4   0   19.10    2.36
   5  -4   1    1.20    0.58
   5  -4   1    2.53    2.04
  -5   4  -1    0.54    1.66
   5  -4   1    1.67    1.39
  -5   4  -1    1.16    1.04
  -5   4  -1   -0.14    1.58
   5  -4   1    2.20    1.60
   5  -4   1    0.42    0.66
   5  -4   2   11.88    2.67
   5  -4   2    5.77    1.06
  -5   4  -2    8.70    2.05
   5  -4   2    7.26    1.43
   5  -4   2    7.78    1.74
  -5   4  -2    5.65    1.32
  -5   4  -2    7.59    2.14
   5  -4   2    5.68    0.85
   5  -4   2    6.51    1.98
  -5   4  -2    6.11    1.22
  -5   4  -3   31.90    3.46
   5  -4   3   33.56    3.71
  -5   4  -3   31.29    3.35
   5  -4   3   34.33    3.04
   5  -4   3   29.47    2.63
  -5   4  -3   32.24    2.99
  -5   4  -3   33.82    2.46
   5  -4   3   31.78    3.52
   5  -4   4   16.34    2.92
  -5   4  -4   18.03    2.75
   5  -4   4   12.65    2.08
  -5   4  -4   18.31    1.87
   5  -4   4   14.96    2.10
  -5   4  -4   17.69    2.56
  -5   4  -4   16.21    1.97
   5  -4   4   13.31    2.53
   5  -4   4   10.67    0.96
  -5   4  -4   14.98    2.67
   5  -4   5   30.67    3.68
  -5   4  -5   27.05    2.11
  -5   4  -5   25.39    3.07
   5  -4   5   24.21    2.32
   5  -4   5   21.03    2.63
  -5   4  -5   21.86    3.06
  -5   4  -5   26.17    2.55
  -5   4  -5   25.26    3.23
   5  -4   5   22.64    3.22
   5  -4   5   19.21    2.97
   5  -4   6    8.49    2.54
  -5   4  -6    4.17    1.65
   5  -4   6    1.41    1.43
  -5   4  -6    3.74    1.87
  -5   4  -6    3.89    1.49
   5  -4   6    3.93    0.96
  -5   4  -6    1.55    1.46
   5  -4   6    3.45    1.85
   5  -4   6    2.18    1.92
   5  -4   7   -0.14    1.14
  -5   4  -7    2.10    1.70
  -5   4  -7    0.63    1.38
  -5   4  -7    3.04    1.54
   5  -4   7    5.19    2.25
   5  -4   7    1.16    1.95
  -5   4  -8   35.30    3.95
   5  -4   8   38.74    4.02
  -5   4  -8   42.26    4.65
  -5   4  -8   38.07    3.60
   5  -4   8   38.66    4.55
   5  -4   8   41.74    4.60
   5  -4   9   -0.91    1.42
  -5   4  -9   -0.74    1.68
  -5   4  -9    2.94    2.01
  -5   4  -9   -1.79    1.51
   5  -4   9    1.46    2.23
   5  -4   9    1.67    2.27
  -5   4 -10   37.02    4.30
   5  -4  10   36.43    4.34
  -5   4 -10   43.80    4.98
  -5   4 -10   40.02    4.24
   5  -4  10   44.94    5.01
   5  -4  10   43.14    5.16
   5  -4  11   -0.22    1.58
  -5   4 -11   -0.71    1.71
  -5   4 -11    1.78    1.65
  -5   4 -11    1.81    1.51
   5  -4  11    3.18    2.21
   5  -4  11    3.23    2.40
   5  -4  12    1.50    1.75
  -5   4 -12    2.98    2.02
  -5   4 -12    0.57    1.64
  -5   4 -12    1.75    1.57
   5  -4  12    1.35    2.13
   5  -4  12   -1.42    2.10
   5  -4  13    1.87    1.78
  -5   4 -13    3.25    2.01
   5  -4  13    5.00    2.39
  -5   3  13    0.13    2.37
   5  -3 -13    4.97    2.41
  -5   3  12    5.91    2.48
  -5   3  12    7.21    2.30
   5  -3 -12    4.17    2.16
  -5   3  12    9.80    3.15
   5  -3 -12   16.44    3.95
   5  -3 -12    5.77    2.67
   5  -3 -12    9.24    2.73
  -5   3  11   -0.16    1.81
  -5   3  11   -1.63    1.23
   5  -3 -11    0.05    1.71
  -5   3  11    1.55    2.22
   5  -3 -11   -1.99    1.95
   5  -3 -11   -0.24    1.80
  -5   3  10   -0.16    1.54
  -5   3  10   -1.50    1.25
   5  -3 -10    3.74    2.31
  -5   3  10   -0.59    1.48
   5  -3 -10   -0.46    1.76
   5  -3 -10    1.91    1.69
  -5   3   9   34.97    4.32
   5  -3  -9   36.76    4.27
  -5   3   9   36.16    4.45
  -5   3   9   32.44    3.54
   5  -3  -9   38.99    4.19
   5  -3  -9   34.39    4.38
  -5   3   8    4.18    2.06
   5  -3  -8    2.37    1.55
  -5   3   8    3.26    1.86
   5  -3  -8    9.17    2.51
  -5   3   7   -1.38    1.43
   5  -3  -7    3.16    1.87
   5  -3  -7    3.39    1.81
  -5   3   7    0.64    1.58
  -5   3   7   -0.44    0.94
  -5   3   6    1.80    0.95
  -5   3   6   -0.54    1.27
  -5   3   6    1.56    0.99
   5  -3  -6    1.63    1.90
   5  -3  -6    3.34    1.93
  -5   3   6    0.44    1.58
  -5   3   5    1.21    0.73
  -5   3   5    5.87    1.78
   5  -3  -5    3.89    2.01
  -5   3   5    0.49    1.08
   5  -3  -5    3.37    0.82
   5  -3  -5    3.81    1.68
  -5   3   5    2.94    1.72
   5  -3  -5    1.72    0.78
  -5   3   4    8.56    1.11
  -5   3   4    6.92    1.99
   5  -3  -4    9.15    2.53
   5  -3  -4    5.05    0.93
  -5   3   4    6.38    1.47
   5  -3  -4    9.93    2.05
  -5   3   4    7.69    2.06
  -5   3   3  180.85    6.26
  -5   3   3  184.01    7.66
   5  -3  -3  196.17    7.82
  -5   3   3  181.73    7.47
   5  -3  -3  172.65    5.08
   5  -3  -3  183.48    6.69
  -5   3   3  185.52    3.92
   5  -3  -2   41.62    4.19
  -5   3   2   38.52    3.14
  -5   3   2   35.55    3.47
   5  -3  -2   35.97    3.56
  -5   3   2   33.95    3.31
  -5   3   2   29.47    1.38
   5  -3  -2   36.64    2.93
  -5   3   2   33.69    2.24
  -5   3   2   40.71    1.83
   5  -3  -1    4.40    2.27
  -5   3   1   -0.27    0.64
  -5   3   1    1.74    1.51
   5  -3  -1    0.79    1.44
  -5   3   1    0.30    0.69
   5  -3  -1    0.94    1.00
  -5   3   1   -0.22    1.21
  -5   3   1   -0.25    0.57
   5  -3  -1    0.62    0.54
   5  -3   0    2.12    0.81
   5  -3   0    6.56    2.47
  -5   3   0    2.00    1.23
   5  -3   0    5.95    1.86
  -5   3   0    2.59    1.02
   5  -3   0    1.88    1.02
   5  -3   0    0.66    1.32
  -5   3   0    4.70    1.71
  -5   3   0    2.19    0.61
   5  -3   1   11.66    1.40
   5  -3   1   15.64    2.83
  -5   3  -1   11.07    2.10
   5  -3   1   11.72    2.05
  -5   3  -1   12.91    1.78
  -5   3  -1   12.35    1.42
   5  -3   1   10.98    1.37
   5  -3   1   11.09    2.25
  -5   3  -1   10.64    2.21
  -5   3  -1   10.96    1.01
   5  -3   2   14.48    2.79
  -5   3  -2   11.61    2.07
   5  -3   2    8.91    1.70
  -5   3  -2   11.15    1.21
   5  -3   2   12.03    1.93
  -5   3  -2   11.88    1.85
  -5   3  -2   11.21    1.23
   5  -3   2   10.82    1.22
   5  -3   2   11.28    2.20
  -5   3  -2   11.44    2.40
  -5   3  -2   12.31    1.09
  -5   3  -3    0.58    0.56
  -5   3  -3   -0.34    1.34
   5  -3   3    1.22    1.19
   5  -3   3   -1.14    1.29
  -5   3  -3   -0.88    1.27
   5  -3   3    0.31    1.50
  -5   3  -3    1.99    1.60
   5  -3   3    0.66    0.65
  -5   3  -3    1.16    0.62
  -5   3  -4    0.13    0.46
  -5   3  -4    1.35    1.46
   5  -3   4    1.13    1.38
  -5   3  -4   -1.30    1.42
  -5   3  -4    1.34    1.20
   5  -3   4    0.41    0.86
   5  -3   4    0.74    1.81
   5  -3   4   -2.04    2.00
  -5   3  -4    1.06    1.63
   5  -3   4    1.15    0.73
  -5   3  -5    1.58    1.62
   5  -3   5   -0.46    1.33
  -5   3  -5   -1.30    1.71
  -5   3  -5    0.96    1.13
   5  -3   5    2.31    1.88
   5  -3   5    3.04    1.76
   5  -3   5    2.75    0.91
  -5   3  -6   45.71    4.27
   5  -3   6   45.41    4.11
  -5   3  -6   46.57    4.44
  -5   3  -6   46.50    3.90
   5  -3   6   39.94    1.87
   5  -3   6   41.20    4.40
   5  -3   6   47.73    4.64
  -5   3  -7   38.97    4.09
   5  -3   7   40.07    4.00
  -5   3  -7   43.96    4.40
  -5   3  -7   39.71    3.82
   5  -3   7   36.60    4.36
   5  -3   7   43.53    4.47
   5  -3   8   19.15    2.99
  -5   3  -8   18.96    3.29
  -5   3  -8   22.57    3.28
  -5   3  -8   17.47    3.02
   5  -3   8   22.93    3.61
   5  -3   8   14.01    3.18
   5  -3   9   -1.35    1.40
  -5   3  -9    0.07    1.69
  -5   3  -9    1.83    1.68
  -5   3  -9    0.10    1.50
   5  -3   9   -0.99    1.76
   5  -3   9    3.92    2.23
   5  -3  10    1.26    1.48
  -5   3 -10    1.32    1.82
  -5   3 -10    4.12    2.03
  -5   3 -10   -1.43    1.51
   5  -3  10   -0.42    1.75
   5  -3  10    2.32    2.20
   5  -3  11    0.58    1.60
  -5   3 -11    1.92    1.49
  -5   3 -11    3.60    2.34
  -5   3 -11    4.74    2.18
   5  -3  11    0.72    2.01
   5  -3  11    1.71    2.65
   5  -3  12   -0.32    1.87
  -5   3 -12    3.36    2.52
  -5   3 -12   -0.03    1.90
   5  -3  12    3.21    2.26
   5  -3  12    1.18    2.10
  -5   3 -12    0.06    1.51
  -5   3 -13    0.34    1.74
   5  -3  13    0.83    2.24
  -5   2  14   10.62    3.03
  -5   2  14   13.89    3.32
   5  -2 -14   10.44    3.01
  -5   2  13    1.51    1.90
  -5   2  13    1.79    2.36
  -5   2  13    4.51    2.12
   5  -2 -13    0.77    1.60
   5  -2 -13    6.76    3.38
   5  -2 -13    5.99    2.88
   5  -2 -13    3.08    1.94
  -5   2  12    0.31    1.81
  -5   2  12    2.39    1.68
   5  -2 -12    2.13    1.97
   5  -2 -12    8.57    3.24
  -5   2  12    7.08    2.66
   5  -2 -12    3.54    2.15
   5  -2 -12    2.54    1.56
  -5   2  11   14.58    3.01
  -5   2  11   13.72    2.81
   5  -2 -11   14.44    2.87
   5  -2 -11   20.16    4.02
  -5   2  11   13.12    2.98
   5  -2 -11   13.64    3.29
   5  -2 -11   19.84    3.51
  -5   2  10    2.26    1.62
   5  -2 -10    4.57    2.05
  -5   2  10    2.73    1.89
   5  -2 -10    2.08    1.90
  -5   2   9   14.05    2.84
   5  -2  -9   12.70    2.60
   5  -2  -9   14.74    3.18
  -5   2   9   11.45    2.81
  -5   2   8    2.71    1.53
   5  -2  -8    3.19    1.96
   5  -2  -8    3.09    1.86
  -5   2   8   -0.38    1.34
  -5   2   8    0.53    1.03
  -5   2   7    4.65    1.70
   5  -2  -7    7.00    2.18
  -5   2   7    5.15    0.96
  -5   2   7    7.48    2.20
   5  -2  -7    4.83    1.90
  -5   2   7    6.76    1.56
  -5   2   6    3.51    1.17
  -5   2   6    1.29    1.38
   5  -2  -6    5.34    2.22
  -5   2   6    2.96    0.99
  -5   2   6    3.29    1.57
   5  -2  -6    2.78    1.70
  -5   2   5   50.03    3.10
  -5   2   5   54.04    4.23
   5  -2  -5   49.89    4.28
  -5   2   5   52.75    4.38
   5  -2  -5   52.45    4.03
  -5   2   5   52.79    3.08
  -5   2   4    0.03    0.90
  -5   2   4    1.18    1.29
   5  -2  -4    1.89    1.52
   5  -2  -4   -0.68    1.49
  -5   2   4   -1.14    1.17
  -5   2   4    0.55    1.24
  -5   2   3    2.69    0.87
  -5   2   3    2.33    1.41
   5  -2  -3    1.29    1.06
   5  -2  -3    3.22    1.64
  -5   2   3    1.12    0.43
   5  -2  -3    2.09    0.51
  -5   2   3   -0.15    1.36
  -5   2   2    6.58    1.14
  -5   2   2    7.77    1.64
   5  -2  -2    6.20    1.75
  -5   2   2    6.06    1.02
   5  -2  -2    6.02    1.50
   5  -2  -2    5.86    1.57
  -5   2   2    4.62    1.34
  -5   2   2    7.12    1.16
   5  -2  -2    6.09    1.06
  -5   2   1   36.49    3.16
  -5   2   1   40.68    3.45
   5  -2  -1   38.01    3.32
  -5   2   1   41.60    2.48
   5  -2  -1   37.95    2.81
   5  -2  -1   40.77    3.34
  -5   2   1   39.06    2.43
   5  -2  -1   40.99    2.51
  -5   2   1   45.53    2.67
  -5   2   0    0.24    0.82
  -5   2   0    0.32    1.15
   5  -2   0   -0.37    1.22
  -5   2   0    0.30    0.92
   5  -2   0    0.71    0.83
   5  -2   0   -0.34    1.21
  -5   2   0    0.56    0.78
  -5   2   0    0.25    1.49
  -5   2  -1   -0.56    1.04
  -5   2  -1   -0.46    1.41
   5  -2   1    0.82    1.08
  -5   2  -1    1.84    1.34
   5  -2   1    2.04    1.41
   5  -2   1    1.41    0.93
   5  -2   1   -1.34    1.69
   5  -2   1   -0.40    0.61
  -5   2  -1    0.44    0.72
  -5   2  -1   -0.67    1.45
  -5   2  -2   72.48    4.70
  -5   2  -2   77.54    4.91
   5  -2   2   76.40    4.44
  -5   2  -2   76.80    4.31
   5  -2   2   80.18    4.00
  -5   2  -2   73.40    3.32
   5  -2   2   80.80    4.99
   5  -2   2   75.29    3.33
  -5   2  -2   79.37    3.49
   5  -2   3   -2.66    1.70
  -5   2  -3    1.48    1.47
   5  -2   3    4.08    1.55
  -5   2  -3    1.18    1.39
   5  -2   3    2.84    1.12
  -5   2  -3    1.60    0.87
   5  -2   3    1.81    1.81
  -5   2  -3   -0.39    1.73
  -5   2  -3    0.79    0.82
  -5   2  -4    1.76    1.66
   5  -2   4    3.42    1.78
  -5   2  -4    3.55    1.58
  -5   2  -4    3.83    1.81
   5  -2   4    1.47    0.85
   5  -2   4   -0.95    1.49
   5  -2   4   -0.84    1.76
  -5   2  -4   -1.03    1.82
   5  -2   5   27.65    3.31
  -5   2  -5   21.80    3.16
   5  -2   5   26.26    1.83
  -5   2  -5   25.26    2.92
   5  -2   5   18.85    3.04
   5  -2   5   24.53    3.47
  -5   2  -5   17.56    2.81
   5  -2   6   24.64    3.20
  -5   2  -6   28.78    3.34
  -5   2  -6   22.95    3.13
   5  -2   6   26.68    3.75
   5  -2   6   25.30    3.66
  -5   2  -6   25.68    3.28
   5  -2   7    0.75    1.65
  -5   2  -7   -0.16    1.93
  -5   2  -7    1.64    1.26
   5  -2   7    1.65    1.70
   5  -2   7   -0.10    1.67
  -5   2  -7   -1.47    1.83
   5  -2   8    0.49    1.33
  -5   2  -8    1.27    1.68
  -5   2  -8    0.88    1.37
   5  -2   8    0.37    1.69
   5  -2   8    1.46    1.95
  -5   2  -8   -2.52    2.07
   5  -2   9    1.47    1.60
  -5   2  -9   -2.93    2.58
  -5   2  -9   -1.37    1.52
  -5   2  -9    3.43    1.92
   5  -2   9    2.33    2.28
   5  -2   9   -0.02    1.97
   5  -2  10    3.80    2.18
  -5   2 -10    4.74    2.38
  -5   2 -10    1.30    1.55
  -5   2 -10    2.32    2.20
   5  -2  10   -1.89    2.08
   5  -2  10    8.00    3.13
   5  -2  11   18.82    3.63
  -5   2 -11   22.58    3.98
  -5   2 -11   16.30    3.12
   5  -2  11   17.23    3.82
   5  -2  11   15.54    3.58
  -5   2 -11   12.96    3.02
   5  -2  12   21.11    3.82
  -5   2 -12   27.06    4.75
  -5   2 -12   22.12    4.02
   5  -2  12   23.22    4.16
  -5   1  15   19.09    3.67
  -5   1  14   -1.94    2.04
  -5   1  14   -0.75    1.66
   5  -1 -14    2.43    2.26
  -5   1  14    2.56    2.32
   5  -1 -14   -2.10    2.69
  -5   1  13    3.02    1.75
  -5   1  13    0.55    1.44
   5  -1 -13    2.83    2.05
   5  -1 -13   -1.96    2.10
  -5   1  13   -0.48    1.60
   5  -1 -13    0.67    1.96
  -5   1  12   -0.54    1.79
   5  -1 -12    5.18    2.18
   5  -1 -12    7.43    2.91
  -5   1  12    5.49    2.49
   5  -1 -12    4.04    1.87
  -5   1  11   -0.56    1.45
   5  -1 -11    0.91    1.43
   5  -1 -11    2.32    2.18
   5  -1 -11   -0.84    2.09
  -5   1  11    4.42    1.93
   5  -1 -11    4.89    2.38
  -5   1  10   31.59    3.80
   5  -1 -10   30.99    3.78
   5  -1 -10   35.68    4.44
   5  -1 -10   27.15    3.94
  -5   1  10   29.63    3.91
   5  -1  -9   18.97    3.30
  -5   1   9   16.97    2.79
   5  -1  -9   20.07    3.03
  -5   1   9   14.64    2.76
  -5   1   9   19.42    2.56
  -5   1   8    1.86    1.36
   5  -1  -8    2.25    1.62
  -5   1   8    2.35    0.71
   5  -1  -8    1.97    1.73
  -5   1   8    2.31    1.43
  -5   1   8    1.77    1.25
  -5   1   7   42.31    2.44
  -5   1   7   48.68    4.05
   5  -1  -7   40.52    3.93
  -5   1   7   42.76    4.06
   5  -1  -7   43.88    4.15
  -5   1   7   40.57    3.33
  -5   1   6  240.25    6.25
  -5   1   6  238.39    8.33
   5  -1  -6  233.76    8.80
  -5   1   6  215.37    8.47
  -5   1   6  228.24    4.19
   5  -1  -6  239.12    8.77
  -5   1   6  238.31    7.39
  -5   1   5   65.14    3.56
  -5   1   5   72.13    4.49
   5  -1  -5   70.84    4.84
  -5   1   5   64.00    4.56
  -5   1   5   61.32    2.33
   5  -1  -5   69.43    4.60
   5  -1  -5   66.80    2.43
  -5   1   5   64.37    3.78
  -5   1   4    6.32    1.45
  -5   1   4    8.38    1.87
  -5   1   4    6.76    1.75
   5  -1  -4    5.47    1.79
   5  -1  -4    6.85    2.06
   5  -1  -4    6.95    1.84
   5  -1  -4    3.40    1.17
   5  -1  -4    5.12    0.79
  -5   1   4    6.01    1.52
  -5   1   3   16.89    2.00
  -5   1   3   16.94    2.53
  -5   1   3   14.36    2.14
   5  -1  -3   17.24    2.52
   5  -1  -3   14.76    2.12
   5  -1  -3   12.17    1.82
   5  -1  -3   14.30    1.42
  -5   1   3   14.82    1.88
  -5   1   2    0.58    1.00
  -5   1   2   -0.16    1.04
   5  -1  -2    1.52    1.43
   5  -1  -2    1.49    1.26
   5  -1  -2   -1.10    1.15
  -5   1   2   -0.18    0.96
  -5   1   1    5.06    1.28
  -5   1   1    9.55    2.42
  -5   1   1    7.82    1.76
   5  -1  -1    6.19    1.68
   5  -1  -1    5.74    1.50
   5  -1  -1    7.10    1.71
  -5   1   1    6.67    1.40
  -5   1   0  172.48    6.91
  -5   1   0  179.34    6.89
   5  -1   0  184.41    6.50
   5  -1   0  173.89    6.72
  -5   1   0  177.02    5.62
   5  -1   0  171.64    5.98
  -5   1   0  182.54    6.17
  -5   1  -1    3.12    1.39
  -5   1  -1    3.54    2.15
  -5   1  -1    1.09    1.21
   5  -1   1    3.28    1.45
   5  -1   1    1.14    1.05
   5  -1   1    0.70    0.87
   5  -1   1    3.56    1.73
   5  -1   1    1.44    1.31
  -5   1  -1    0.33    0.83
  -5   1  -2   63.96    4.67
  -5   1  -2   64.25    4.55
   5  -1   2   58.00    4.15
   5  -1   2   66.43    3.72
   5  -1   2   58.04    4.24
   5  -1   2   63.52    4.50
  -5   1  -2   59.05    3.55
  -5   1  -2   57.30    4.00
  -5   1  -3   74.99    5.21
   5  -1   3   75.18    4.98
  -5   1  -3   78.99    5.13
   5  -1   3   74.49    3.71
   5  -1   3   74.59    4.97
   5  -1   3   72.08    5.01
  -5   1  -3   70.76    4.11
  -5   1  -4   46.02    4.28
   5  -1   4   42.82    3.90
  -5   1  -4   45.12    4.16
   5  -1   4   41.56    2.65
   5  -1   4   40.61    3.90
   5  -1   4   38.22    3.93
  -5   1  -4   40.41    3.36
  -5   1  -5    7.10    2.23
   5  -1   5    5.59    1.86
  -5   1  -5    6.55    2.44
  -5   1  -5    3.99    1.86
   5  -1   5    4.42    1.02
   5  -1   5    3.91    2.17
   5  -1   5    1.90    2.10
  -5   1  -6    4.88    2.04
   5  -1   6    5.30    2.01
  -5   1  -6    5.04    2.12
  -5   1  -6    7.82    2.11
   5  -1   6    4.81    2.25
   5  -1   6    6.23    2.44
  -5   1  -7    4.97    2.02
   5  -1   7    4.27    1.92
  -5   1  -7    6.16    2.43
  -5   1  -7    4.70    2.21
   5  -1   7    5.48    2.32
   5  -1   7    7.84    2.67
   5  -1   8   15.87    3.15
  -5   1  -8   14.18    3.14
  -5   1  -8   19.61    3.32
   5  -1   8   17.60    3.58
   5  -1   8   15.15    3.37
  -5   1  -8   13.34    2.64
   5  -1   9   11.96    2.82
  -5   1  -9   18.75    3.50
  -5   1  -9   14.22    3.25
   5  -1   9   14.80    3.46
   5  -1   9   15.17    3.37
  -5   1  -9   14.13    2.80
   5  -1  10   23.68    3.88
  -5   1 -10   20.08    3.79
  -5   1 -10   23.00    3.76
   5  -1  10   19.67    3.86
  -5   1 -10   20.53    3.23
   5  -1  10   22.07    4.41
   5  -1  11   39.40    5.17
  -5   1 -11   33.00    4.86
  -5   1 -11   47.03    5.55
   5  -1  11   39.99    5.56
   5  -1  11   33.44    5.12
  -5   0  15    1.84    2.00
  -5   0  15    2.28    2.05
  -5   0  14   12.94    2.93
  -5   0  14   16.32    3.35
   5   0 -14   11.62    3.08
   5   0 -14   11.37    2.98
  -5   0  14   16.75    3.37
   5   0 -14   15.07    3.52
  -5   0  13    6.31    1.99
  -5   0  13    6.38    2.09
   5   0 -13    2.53    2.30
   5   0 -13   -0.41    2.29
   5   0 -13    4.38    2.04
  -5   0  12    6.71    2.10
   5   0 -12    5.38    2.27
   5   0 -12    6.56    2.34
   5   0 -12    2.40    1.83
  -5   0  12    6.26    2.27
  -5   0  11    3.34    1.54
  -5   0  11    9.25    2.29
   5   0 -11    5.74    2.27
   5   0 -11    4.97    2.21
   5   0 -11    2.53    1.90
  -5   0  11    6.96    2.20
  -5   0  11    8.27    2.36
  -5   0  10    5.11    1.69
  -5   0  10    5.29    1.98
   5   0 -10    5.04    2.08
   5   0 -10    4.25    1.96
   5   0 -10    1.04    1.63
  -5   0  10    6.23    2.04
  -5   0  10    3.99    1.89
  -5   0   9    0.34    1.12
   5   0  -9    1.72    1.60
   5   0  -9    3.26    1.92
  -5   0   9    0.98    1.45
   5   0  -9    0.17    1.59
  -5   0   9   -1.69    1.65
  -5   0   8   57.51    3.05
  -5   0   8   54.50    4.04
  -5   0   8   47.99    4.28
   5   0  -8   53.68    4.76
   5   0  -8   56.55    4.62
   5   0  -8   49.00    4.53
  -5   0   8   52.40    4.11
  -5   0   7  112.94    5.56
  -5   0   7  111.51    6.17
   5   0  -7  107.92    6.37
   5   0  -7  114.06    6.45
  -5   0   7  111.07    5.67
  -5   0   6  127.21    5.74
   5   0  -6  132.26    6.78
   5   0  -6  138.81    6.77
   5   0  -6  127.98    4.63
   5   0  -6  130.37    4.41
  -5   0   6  126.28    5.90
  -5   0   5    1.17    1.23
  -5   0   5   -0.08    0.92
   5   0  -5    1.46    1.50
   5   0  -5    1.38    1.46
   5   0  -5    0.95    1.01
   5   0  -5    0.20    0.59
  -5   0   5   -0.64    1.09
  -5   0   4   13.35    2.06
  -5   0   4   13.46    1.96
   5   0  -4   17.71    2.57
   5   0  -4   13.97    2.28
   5   0  -4   12.58    1.66
   5   0  -4   13.03    1.54
  -5   0   4   14.62    2.15
  -5   0   3   16.25    2.26
  -5   0   3   17.73    2.19
   5   0  -3   14.71    2.31
   5   0  -3   16.99    2.31
   5   0  -3   13.92    1.93
   5   0  -3   15.56    1.76
  -5   0   3   14.24    2.01
  -5   0   2    3.40    1.34
  -5   0   2    1.55    0.98
   5   0  -2    4.81    1.85
   5   0  -2    2.32    1.23
   5   0  -2    1.51    1.24
  -5   0   2    2.93    1.28
  -5   0   1    0.30    1.10
  -5   0   1   -0.11    0.97
   5   0  -1    1.29    1.50
   5   0  -1   -0.04    1.12
   5   0  -1    1.22    1.32
  -5   0   1    0.84    0.63
  -5   0   1   -1.00    0.99
  -5   0   0    3.34    0.58
  -5   0   0    6.22    1.80
  -5   0   0    5.60    1.53
   5   0   0    6.51    1.65
   5   0   0    4.66    1.50
   5   0   0    4.62    1.57
   5   0   0    7.50    1.97
  -5   0   0    4.95    1.45
  -5   0  -1   12.78    2.33
  -5   0  -1   14.72    2.34
   5   0   1   13.16    2.36
   5   0   1   11.66    1.35
   5   0   1   11.19    1.82
   5   0   1   13.75    2.34
   5   0   1   11.29    1.94
  -5   0  -1    8.86    1.70
   5   0   2   42.82    3.83
   5   0   2   42.56    3.18
   5   0   2   42.33    2.65
   5   0   2   37.29    3.48
   5   0   2   43.53    3.91
  -5   0  -2   43.63    3.52
  -5   0  -2   37.06    3.55
  -5   0  -3   -0.40    1.38
   5   0   3    0.55    1.25
   5   0   3    0.37    0.92
   5   0   3    1.62    1.62
   5   0   3    0.35    1.42
  -5   0  -3   -0.02    1.15
   5   0   4    1.70    1.75
  -5   0  -4    0.57    1.47
   5   0   4   -0.32    0.89
   5   0   4    1.30    1.89
   5   0   4    0.81    1.51
  -5   0  -4    0.25    1.24
  -5   0  -5  283.96   10.29
   5   0   5  279.20   10.50
  -5   0  -5  296.29   10.83
  -5   0  -5  298.89   10.75
   5   0   5  293.24    7.23
   5   0   5  296.54   11.01
   5   0   5  280.88   10.52
  -5   0  -5  284.09    9.89
  -5   0  -6   34.23    4.01
   5   0   6   32.27    3.94
  -5   0  -6   39.37    4.55
  -5   0  -6   30.10    3.71
   5   0   6   30.32    4.07
   5   0   6   28.66    3.95
  -5   0  -7   28.10    3.68
   5   0   7   32.83    4.22
  -5   0  -7   33.85    4.12
  -5   0  -7   31.80    4.23
   5   0   7   28.97    4.19
   5   0   7   26.62    4.03
  -5   0  -8    4.07    1.95
   5   0   8    3.96    2.10
  -5   0  -8    1.96    1.98
  -5   0  -8    3.03    1.66
   5   0   8    5.76    2.88
   5   0   8    3.46    2.41
   5   0   9    6.35    2.45
  -5   0  -9    1.66    2.28
  -5   0  -9    2.01    2.06
   5   0   9    1.85    2.19
   5   0   9    4.32    2.57
  -5   0  -9    2.44    1.69
   5   0  10   -0.41    1.58
  -5   0 -10   -1.75    2.34
  -5   0 -10    2.47    2.07
   5   0  10    1.54    2.44
   5   0  10    4.23    2.29
  -5   0 -10   -0.32    1.75
  -5  -1  16   10.72    3.04
  -5  -1  15   11.77    3.02
   5   1 -15   16.94    3.76
  -5  -1  15   15.01    3.14
   5   1 -14    6.52    2.51
  -5  -1  14    6.69    2.19
   5   1 -14    4.58    2.34
   5   1 -14    8.21    2.60
  -5  -1  13   -3.08    2.05
   5   1 -13   -2.30    2.36
   5   1 -13    1.84    1.78
  -5  -1  13    0.81    1.46
   5   1 -13   -2.68    2.33
  -5  -1  13    0.41    1.58
  -5  -1  12   43.44    4.07
  -5  -1  12   47.95    4.75
  -5  -1  12   47.93    4.64
   5   1 -12   39.29    4.54
   5   1 -12   43.82    4.74
   5   1 -12   42.67    4.94
  -5  -1  12   40.24    4.56
  -5  -1  11    3.51    1.51
  -5  -1  11    8.54    2.47
   5   1 -11    4.31    1.80
   5   1 -11    5.58    2.01
   5   1 -11    3.20    2.19
  -5  -1  11    4.99    1.81
  -5  -1  11    3.80    1.70
  -5  -1  10    0.15    1.05
  -5  -1  10    4.68    2.05
   5   1 -10   -0.36    1.52
   5   1 -10    2.47    2.10
  -5  -1  10    1.42    1.39
   5   1 -10   -3.15    2.25
  -5  -1  10   -0.26    1.51
  -5  -1   9    4.61    1.87
  -5  -1   9    1.76    1.29
  -5  -1   9    8.33    2.42
   5   1  -9    4.90    2.12
   5   1  -9    3.69    1.85
   5   1  -9    1.97    1.66
  -5  -1   9    5.13    1.73
  -5  -1   8    5.06    1.92
  -5  -1   8    7.88    1.65
   5   1  -8    9.38    2.45
   5   1  -8   11.03    2.24
   5   1  -8    8.22    2.19
   5   1  -8    6.09    0.96
  -5  -1   8    7.74    2.04
  -5  -1   7   54.49    3.54
   5   1  -7   61.32    4.89
   5   1  -7   61.93    4.10
   5   1  -7   58.51    4.77
   5   1  -7   57.66    2.60
   5   1  -7   57.68    3.55
  -5  -1   7   52.43    4.12
  -5  -1   6  491.78   10.21
   5   1  -6  483.94   12.82
   5   1  -6  448.65    9.80
   5   1  -6  485.02   12.59
   5   1  -6  482.42    7.81
   5   1  -6  492.18   10.04
  -5  -1   6  497.21   12.37
  -5  -1   6  492.09   12.08
  -5  -1   5   39.06    2.97
   5   1  -5   42.60    4.03
   5   1  -5   37.69    2.77
   5   1  -5   36.06    3.47
   5   1  -5   38.58    2.49
   5   1  -5   35.27    2.74
  -5  -1   5   37.44    3.46
  -5  -1   5   35.12    3.37
  -5  -1   4    1.45    1.59
  -5  -1   4    1.28    1.07
   5   1  -4    2.39    1.62
   5   1  -4   -0.10    1.54
   5   1  -4    0.35    0.84
   5   1  -4    0.70    1.04
  -5  -1   4   -0.74    1.28
  -5  -1   3    1.61    1.51
  -5  -1   3    1.22    0.90
   5   1  -3    2.95    1.59
   5   1  -3    1.93    1.52
   5   1  -3    0.73    0.99
   5   1  -3    1.34    1.05
  -5  -1   3    1.20    1.35
  -5  -1   2   61.79    3.83
  -5  -1   2   59.78    3.08
   5   1  -2   59.71    4.28
   5   1  -2   62.89    4.28
   5   1  -2   56.61    3.41
   5   1  -2   60.03    3.67
   5   1  -2   65.39    4.06
  -5  -1   2   66.26    4.28
  -5  -1   2   61.15    4.27
  -5  -1   1    0.26    0.62
  -5  -1   1    0.77    1.40
  -5  -1   1    1.98    1.31
   5   1  -1   -0.23    0.29
   5   1  -1   -0.28    1.25
   5   1  -1   -1.46    1.45
   5   1  -1    1.42    1.37
   5   1  -1    0.19    1.11
  -5  -1   1   -0.75    1.27
  -5  -1   0   16.43    2.70
   5   1   0   15.76    1.02
   5   1   0   15.33    2.20
   5   1   0   17.84    2.48
   5   1   0   12.89    2.05
  -5  -1   0   16.50    2.50
  -5  -1  -1    5.95    1.95
   5   1   1    4.82    1.87
   5   1   1    6.48    1.72
   5   1   1    6.63    1.02
   5   1   1    7.17    2.05
   5   1   1    4.20    1.56
  -5  -1  -1    4.51    1.64
  -5  -1  -2    2.02    1.65
   5   1   2   -0.26    1.41
   5   1   2    1.39    1.06
   5   1   2    4.96    2.00
   5   1   2    1.41    1.47
  -5  -1  -2    0.92    1.32
   5   1   3  229.62    9.28
   5   1   3  229.96    7.48
   5   1   3  233.35    9.35
   5   1   3  237.99    8.79
  -5  -1  -3  221.96    8.77
  -5  -1  -3  206.22    8.90
   5   1   4   37.83    4.22
  -5  -1  -4   40.44    4.33
   5   1   4   40.34    3.20
   5   1   4   41.98    4.65
   5   1   4   38.96    4.19
  -5  -1  -4   36.82    4.01
  -5  -1  -4   35.87    4.11
   5   1   5  268.35   10.71
  -5  -1  -5  275.76   11.00
   5   1   5  275.34    7.93
   5   1   5  262.28   10.94
   5   1   5  269.03   10.53
  -5  -1  -5  247.25   10.20
   5   1   6   52.25    5.09
  -5  -1  -6   59.27    5.52
   5   1   6   62.27    5.79
   5   1   6   54.76    5.45
  -5  -1  -7    6.36    2.43
   5   1   7    0.55    1.48
  -5  -1  -7    5.36    2.58
  -5  -1  -7    1.44    1.56
   5   1   7    6.32    3.24
   5   1   7    2.09    1.97
  -5  -1  -8    3.03    2.09
   5   1   8   -0.03    1.42
  -5  -1  -8    2.16    2.12
  -5  -1  -8    2.75    2.24
   5   1   8    3.35    2.46
   5   1   8    0.14    1.84
  -5  -1  -9    2.09    2.11
   5   1   9   -1.01    1.63
  -5  -1  -9    1.78    2.25
  -5  -1  -9    2.20    2.19
   5   1   9   -0.10    2.19
   5   1   9   -3.13    2.38
   5   1  10    3.74    2.31
  -5  -1 -10    7.13    2.91
   5   1  10   -1.39    2.25
  -5  -2  15    2.85    1.87
   5   2 -15    4.08    2.45
  -5  -2  15    1.06    2.12
  -5  -2  14   31.77    4.37
   5   2 -14   29.93    4.33
   5   2 -14   24.70    3.80
  -5  -2  14   23.55    3.46
   5   2 -14   27.71    4.48
  -5  -2  14   36.78    4.85
  -5  -2  13   -2.01    1.73
   5   2 -13    0.71    1.50
   5   2 -13    2.25    1.85
  -5  -2  13    0.86    1.38
   5   2 -13    3.87    2.37
  -5  -2  13   -1.21    2.16
  -5  -2  12    5.93    2.31
   5   2 -12    8.66    2.55
   5   2 -12    4.71    2.00
   5   2 -12    6.46    2.56
  -5  -2  12   10.52    2.54
  -5  -2  12    4.81    2.11
  -5  -2  11   12.25    2.88
  -5  -2  11   15.82    3.23
   5   2 -11    9.39    2.22
   5   2 -11    9.49    2.74
   5   2 -11    6.25    2.21
  -5  -2  11    7.53    2.06
  -5  -2  10    0.35    1.42
  -5  -2  10    0.24    0.83
  -5  -2  10    4.89    2.17
   5   2 -10    0.85    1.48
   5   2 -10    1.36    1.54
   5   2 -10    1.67    1.61
  -5  -2  10    0.60    1.21
  -5  -2   9    1.23    1.51
  -5  -2   9    0.13    1.00
  -5  -2   9    5.36    2.53
   5   2  -9   -1.29    1.64
   5   2  -9    0.90    1.56
   5   2  -9    1.58    1.85
  -5  -2   9   -1.54    1.32
  -5  -2   8   50.72    3.21
   5   2  -8   44.13    4.26
   5   2  -8   41.41    3.31
   5   2  -8   41.71    4.29
   5   2  -8   44.56    3.65
  -5  -2   8   44.72    4.31
  -5  -2   8   45.25    4.31
  -5  -2   7    0.73    1.58
  -5  -2   7    2.33    1.03
   5   2  -7   -0.34    1.13
   5   2  -7    2.04    1.63
   5   2  -7    0.36    1.57
   5   2  -7    3.40    1.40
  -5  -2   7    2.03    1.73
  -5  -2   6   22.53    3.17
   5   2  -6   20.25    1.85
  -5  -2   6   22.45    2.12
   5   2  -6   22.66    1.64
   5   2  -6   20.56    2.93
   5   2  -6   19.84    2.88
   5   2  -6   22.68    2.61
  -5  -2   6   20.07    2.95
  -5  -2   5   17.25    2.88
  -5  -2   5   17.55    1.86
   5   2  -5   20.02    1.70
   5   2  -5   16.19    2.73
   5   2  -5   14.97    2.51
   5   2  -5   14.48    1.48
   5   2  -5   17.53    1.79
   5   2  -5   17.35    2.34
  -5  -2   5   13.94    2.50
  -5  -2   4   66.99    3.65
   5   2  -4   62.25    4.68
   5   2  -4   53.54    1.96
   5   2  -4   60.86    4.61
   5   2  -4   60.24    2.87
   5   2  -4   64.64    3.38
   5   2  -4   61.64    4.18
  -5  -2   4   68.58    4.90
  -5  -2   4   60.93    4.71
  -5  -2   3   40.81    3.03
   5   2  -3   32.68    3.40
   5   2  -3   33.25    3.47
   5   2  -3   32.79    2.36
   5   2  -3   38.46    2.93
   5   2  -3   37.89    3.34
  -5  -2   3   36.17    3.61
  -5  -2   3   38.93    3.76
  -5  -2   2    7.84    2.20
   5   2  -2    8.58    2.16
   5   2  -2    5.71    1.85
   5   2  -2    7.30    1.76
   5   2  -2    6.60    1.40
   5   2  -2    8.56    2.06
  -5  -2   2    7.07    2.04
   5   2  -1   51.82    4.21
   5   2  -1   52.14    3.39
   5   2  -1   56.20    4.06
  -5  -2   1   52.45    4.28
  -5  -2   1   54.65    4.47
  -5  -2   0   22.70    3.20
   5   2   0   29.94    3.23
   5   2   0   32.97    3.45
   5   2   0   29.90    2.85
  -5  -2   0   31.74    3.44
  -5  -2  -1    1.84    1.97
   5   2   1   -0.64    1.30
   5   2   1    0.98    1.79
   5   2   1    1.34    1.27
  -5  -2  -1    1.35    1.39
  -5  -2  -2   18.00    3.11
   5   2   2   18.82    1.59
   5   2   2   15.42    2.91
   5   2   2   15.51    2.34
   5   2   2   20.05    3.22
   5   2   2   17.74    2.61
  -5  -2  -2   13.35    2.71
   5   2   3    6.47    2.07
   5   2   3    9.24    1.85
   5   2   3   10.23    2.61
   5   2   3    7.74    2.00
  -5  -2  -3    6.03    2.02
  -5  -2  -4   -2.30    2.06
   5   2   4    1.09    1.49
  -5  -2  -4   -2.61    1.62
   5   2   4    1.10    1.24
   5   2   4    1.13    1.61
   5   2   4    4.05    2.03
  -5  -2  -4    0.08    1.50
  -5  -2  -5    0.69    1.56
   5   2   5    0.57    1.53
  -5  -2  -5   -0.03    1.67
   5   2   5    0.49    1.22
   5   2   5    1.09    2.10
   5   2   5   -3.43    2.04
  -5  -2  -6   -0.91    1.66
   5   2   6    0.02    1.46
  -5  -2  -6    3.23    2.07
   5   2   6    4.33    2.61
   5   2   6   -1.51    1.90
   5   2   7    2.94    2.32
  -5  -2  -7   -1.61    1.62
   5   2   7    1.28    1.98
   5   2   7   -0.58    2.24
  -5  -2  -8   54.45    5.37
   5   2   8   42.44    5.31
  -5  -2  -8   48.57    5.91
  -5  -2  -8   41.37    5.39
   5   2   8   49.93    5.72
   5   2   8   32.69    5.22
   5   2   9   11.25    3.21
  -5  -2  -9    8.04    3.14
   5   2   9    5.36    2.90
  -5  -3  16    0.92    2.32
   5   3 -16   -0.63    1.86
  -5  -3  15    3.59    2.94
   5   3 -15    2.00    1.89
   5   3 -15   -0.54    1.91
  -5  -3  15   -0.71    1.82
  -5  -3  14    6.17    2.53
  -5  -3  14    6.86    2.54
   5   3 -14    5.75    2.37
   5   3 -14    5.11    1.84
  -5  -3  14    6.61    2.32
   5   3 -14    6.29    2.50
  -5  -3  13    1.32    1.95
  -5  -3  13    3.36    2.37
   5   3 -13    1.47    1.75
   5   3 -13    0.43    1.80
   5   3 -13    6.53    2.45
  -5  -3  13    2.06    1.57
  -5  -3  12   34.21    4.51
  -5  -3  12   35.14    3.88
  -5  -3  12   32.20    4.32
   5   3 -12   27.88    3.70
   5   3 -12   28.22    4.03
   5   3 -12   28.29    4.11
  -5  -3  11    2.70    1.88
  -5  -3  11    3.71    2.51
   5   3 -11    1.18    1.43
   5   3 -11    0.80    1.66
  -5  -3  11    2.51    1.42
   5   3 -11    1.43    2.00
  -5  -3  10    9.54    2.66
  -5  -3  10   10.72    3.01
   5   3 -10    8.02    1.97
   5   3 -10    7.08    2.12
   5   3 -10    9.06    2.57
  -5  -3  10   11.21    2.23
  -5  -3  10   11.32    2.89
  -5  -3   9    9.08    2.58
  -5  -3   9   17.08    3.28
   5   3  -9   10.63    2.05
   5   3  -9    7.58    2.15
   5   3  -9    8.83    2.50
  -5  -3   9   12.23    2.23
   5   3  -9   11.05    2.16
  -5  -3   9   12.34    2.69
  -5  -3   8   16.71    3.03
  -5  -3   8   14.62    1.51
   5   3  -8   13.35    1.96
   5   3  -8   14.52    2.67
   5   3  -8   11.04    2.42
   5   3  -8   13.90    2.45
  -5  -3   8   15.05    2.83
  -5  -3   7    2.93    2.17
  -5  -3   7    0.94    0.84
   5   3  -7    0.61    0.89
   5   3  -7   -1.28    1.70
   5   3  -7    2.05    1.65
   5   3  -7    0.37    1.04
  -5  -3   7   -0.48    1.91
  -5  -3   6    0.77    1.72
   5   3  -6   -2.26    2.17
  -5  -3   6    0.46    0.83
   5   3  -6    0.91    1.59
   5   3  -6   -1.88    0.91
   5   3  -6    0.03    1.15
  -5  -3   6    0.07    1.50
  -5  -3   5   -0.90    1.67
   5   3  -5    2.83    1.79
   5   3  -5    3.09    1.77
   5   3  -5    2.23    1.09
   5   3  -5    1.20    1.13
  -5  -3   5    0.40    1.45
  -5  -3   4    4.16    1.75
   5   3  -4    6.82    1.98
   5   3  -4    5.20    1.68
   5   3  -4    7.70    1.55
   5   3  -4    5.69    0.88
   5   3  -4    3.62    1.42
  -5  -3   4    6.18    2.06
   5   3  -3  201.58    8.71
   5   3  -3  206.45    8.68
   5   3  -3  209.81    7.15
   5   3  -3  203.92    5.27
   5   3  -3  201.42    8.21
  -5  -3   3  194.17    8.51
  -5  -3   3  193.55    8.55
  -5  -3   2   -0.25    1.86
   5   3  -2   -0.07    1.29
   5   3  -2   -0.12    1.23
   5   3  -2    0.46    1.01
   5   3  -2    0.44    1.35
  -5  -3   2    1.45    1.86
  -5  -3   1    2.77    2.01
   5   3  -1    2.33    1.53
   5   3  -1    1.77    1.33
   5   3  -1    8.32    2.37
   5   3  -1    4.75    1.33
  -5  -3   1    6.53    2.15
  -5  -3   0    1.40    1.83
   5   3   0   -0.14    1.24
   5   3   0    1.36    1.10
   5   3   0    0.63    1.65
   5   3   0    5.94    2.21
   5   3   0   -0.54    1.15
  -5  -3   0   -0.69    1.58
  -5  -3  -1    3.01    1.98
   5   3   1    4.27    1.61
   5   3   1    2.79    1.98
   5   3   1    2.51    1.38
   5   3   1    2.63    0.99
  -5  -3  -1    1.00    1.41
  -5  -3  -2    2.90    1.86
   5   3   2    2.34    1.67
   5   3   2    5.32    1.77
   5   3   2    2.97    1.89
   5   3   2    1.41    1.31
  -5  -3  -2    5.77    2.31
  -5  -3  -3    0.00    1.78
   5   3   3    2.26    1.85
  -5  -3  -3    1.80    2.08
   5   3   3    3.28    1.53
   5   3   3    4.29    2.18
   5   3   3    4.74    2.09
  -5  -3  -3    2.40    2.32
  -5  -3  -4   -1.69    2.72
   5   3   4    1.99    1.82
   5   3   4    0.47    1.15
  -5  -3  -4    0.42    1.53
   5   3   4   -1.59    2.22
   5   3   4    1.53    1.82
  -5  -3  -4    0.69    1.69
  -5  -3  -5    2.51    1.92
   5   3   5   -0.31    1.50
  -5  -3  -5    0.34    2.13
   5   3   5    2.56    2.14
   5   3   5    1.52    1.90
  -5  -3  -6    7.88    2.74
  -5  -3  -6    8.52    2.97
   5   3   6    3.40    2.01
   5   3   6   10.73    3.09
   5   3   6    6.00    2.32
   5   3   7   16.94    3.58
  -5  -3  -7   17.53    3.86
   5   3   7   12.07    3.25
   5   3   7   15.61    3.61
   5   3   8   31.18    4.70
   5   3   8   27.98    4.78
  -5  -4  15   14.96    3.64
   5   4 -15   19.02    3.81
  -5  -4  14   17.37    3.70
  -5  -4  14   12.60    3.40
   5   4 -14   16.58    3.26
   5   4 -14   15.45    3.44
  -5  -4  13    1.59    2.07
  -5  -4  13    5.46    2.87
   5   4 -13    1.54    1.76
   5   4 -13    2.33    2.10
  -5  -4  13    2.97    2.20
  -5  -4  12   -0.74    2.00
  -5  -4  12    1.16    2.64
   5   4 -12    1.99    1.52
   5   4 -12    2.26    1.77
  -5  -4  12    2.94    1.46
  -5  -4  12    1.77    1.99
  -5  -4  11    5.90    2.30
  -5  -4  11   15.52    3.43
   5   4 -11    5.37    2.25
   5   4 -11    9.10    2.67
  -5  -4  11    7.15    2.08
  -5  -4  11    8.92    2.46
  -5  -4  10   17.38    3.28
  -5  -4  10   21.29    3.88
   5   4 -10   22.24    3.60
   5   4 -10   18.84    3.32
  -5  -4  10   20.98    2.92
   5   4 -10   15.35    2.80
  -5  -4  10   19.85    3.64
  -5  -4   9    9.40    2.62
   5   4  -9    9.35    2.65
   5   4  -9    6.95    2.19
   5   4  -9    8.47    2.31
  -5  -4   9    4.68    2.01
  -5  -4   8    1.46    1.88
   5   4  -8    5.26    2.77
   5   4  -8    0.95    1.52
   5   4  -8    0.89    1.19
  -5  -4   8   -1.08    1.79
  -5  -4   7    0.82    1.55
   5   4  -7    3.44    1.90
   5   4  -7    0.81    1.39
   5   4  -7    3.22    1.50
  -5  -4   7    1.63    2.01
  -5  -4   6    7.99    2.45
   5   4  -6    4.21    2.11
   5   4  -6    5.20    2.00
   5   4  -6    2.91    1.29
  -5  -4   6    5.40    2.17
  -5  -4   5    1.05    1.88
   5   4  -5   -0.37    1.42
   5   4  -5    0.26    1.64
   5   4  -5   -1.19    1.51
  -5  -4   5    1.35    1.84
   5   4  -4   40.97    4.37
   5   4  -4   39.42    4.11
   5   4  -4   40.85    4.10
  -5  -4   4   41.33    4.42
  -5  -4   4   39.29    4.24
  -5  -4   3    9.42    2.61
   5   4  -3   13.28    2.63
   5   4  -3   15.26    2.22
   5   4  -3   13.70    2.61
  -5  -4   3   11.74    2.67
  -5  -4   2   10.27    2.64
   5   4  -2   12.28    2.55
   5   4  -2   11.03    2.19
   5   4  -2   14.10    2.77
  -5  -4   2   11.69    2.57
  -5  -4   1    4.85    2.05
   5   4  -1    1.93    1.40
   5   4  -1    3.49    1.25
   5   4  -1    1.90    1.41
   5   4  -1    2.45    1.52
   5   4  -1    4.46    1.35
  -5  -4   1    2.10    1.64
  -5  -4   0    9.75    2.71
   5   4   0    6.63    2.36
   5   4   0    3.98    1.81
   5   4   0    8.64    2.50
   5   4   0    9.07    1.99
   5   4   0    8.68    1.82
  -5  -4   0    6.08    2.38
  -5  -4  -1   11.48    2.79
   5   4   1    8.81    2.29
   5   4   1   13.89    2.77
   5   4   1   13.57    3.26
   5   4   1    5.79    1.77
  -5  -4  -1    8.83    2.74
  -5  -4  -2    4.58    2.42
   5   4   2    4.14    1.73
   5   4   2    7.71    2.46
   5   4   2   11.95    2.42
  -5  -4  -2    9.46    2.83
  -5  -4  -3    3.95    2.26
   5   4   3    4.43    1.95
  -5  -4  -3    5.96    2.18
   5   4   3    1.98    1.37
   5   4   3    1.23    1.71
   5   4   3    4.36    1.84
  -5  -4  -3    6.67    2.45
  -5  -4  -4    6.89    2.52
   5   4   4   10.53    2.66
  -5  -4  -4   11.94    2.94
   5   4   4   11.49    2.53
   5   4   4    8.00    2.63
   5   4   4   11.50    2.84
  -5  -4  -4    7.38    2.66
  -5  -4  -5    0.63    2.06
   5   4   5    2.04    1.83
  -5  -4  -5    2.54    2.19
   5   4   5   -1.53    1.90
  -5  -4  -6    2.64    2.27
   5   4   6    4.56    2.32
  -5  -4  -6    7.58    2.76
   5   4   6    0.34    1.87
   5   4   7    0.30    2.04
   5   4   7    3.69    2.58
  -5  -5  14    0.43    2.07
   5   5 -14    3.97    2.13
   5   5 -14   -1.00    1.87
  -5  -5  13    0.64    2.05
  -5  -5  13    1.37    2.15
   5   5 -13    3.74    2.32
   5   5 -13    2.26    1.87
  -5  -5  13    0.59    1.85
  -5  -5  12   -1.19    1.97
  -5  -5  12    8.41    3.04
   5   5 -12    6.09    2.22
   5   5 -12    5.77    2.54
  -5  -5  12    4.27    2.48
  -5  -5  11   -3.53    2.40
  -5  -5  11    5.16    2.77
   5   5 -11    2.05    1.96
   5   5 -11   -1.61    1.77
  -5  -5  11    0.33    1.80
  -5  -5  10   21.72    3.86
   5   5 -10   24.65    3.78
   5   5 -10   27.60    3.98
   5   5 -10   25.10    3.68
  -5  -5  10   28.06    4.06
  -5  -5   9    4.67    2.34
   5   5  -9    8.42    2.42
   5   5  -9   11.51    2.93
   5   5  -9    7.04    2.37
  -5  -5   9    7.32    2.50
  -5  -5   8   -1.06    1.93
   5   5  -8   -0.97    1.53
   5   5  -8   -2.76    1.91
   5   5  -8    0.86    1.27
  -5  -5   8    2.15    2.00
  -5  -5   7    2.83    2.23
   5   5  -7   -0.14    1.62
   5   5  -7    0.61    1.53
   5   5  -7   -0.15    1.61
  -5  -5   7   -4.25    2.24
  -5  -5   6    3.59    2.25
   5   5  -6    2.62    1.51
   5   5  -6    3.30    2.07
   5   5  -6   -1.84    1.59
  -5  -5   6    1.83    1.66
   5   5  -5  137.38    8.03
   5   5  -5  129.06    7.72
  -5  -5   5  141.86    8.23
  -5  -5   5  133.55    8.08
  -5  -5   4    4.99    2.28
   5   5  -4    3.80    1.50
   5   5  -4    2.92    1.75
  -5  -5   4    3.63    1.97
  -5  -5   3    1.94    2.26
   5   5  -3    1.40    1.67
   5   5  -3    3.75    2.08
  -5  -5   3    6.66    2.40
  -5  -5   2    1.45    1.87
   5   5  -2    1.39    1.66
   5   5  -2    1.28    1.42
   5   5  -2    0.44    1.46
  -5  -5   2    3.37    1.96
  -5  -5   1   -0.67    2.43
   5   5  -1    1.58    1.49
   5   5  -1    3.12    2.06
   5   5  -1    3.86    1.77
  -5  -5   1    0.25    2.11
  -5  -5   0    3.03    2.35
   5   5   0    4.34    2.12
   5   5   0    2.17    1.66
   5   5   0    2.99    1.57
  -5  -5   0    0.37    1.78
  -5  -5  -1   19.25    3.61
   5   5   1   17.40    3.11
   5   5   1   22.80    3.90
  -5  -5  -1   17.25    3.50
  -5  -5  -2   53.35    5.73
   5   5   2   44.53    4.74
   5   5   2   53.90    5.74
  -5  -5  -2   36.85    5.05
  -5  -5  -2   39.65    5.29
  -5  -5  -3    8.01    3.05
  -5  -5  -3   15.48    3.47
   5   5   3   14.38    3.23
   5   5   3   19.07    4.15
  -5  -5  -3   13.46    3.32
  -5  -5  -4   -0.95    1.83
  -5  -5  -4   -0.08    1.76
  -5  -5  -4    2.13    2.00
   5   5   5    8.90    2.92
   5   5   5    8.02    2.75
   5   5   6    0.03    1.75
   5   6 -14    9.20    2.93
   5   6 -13    7.13    2.68
   5   6 -13    9.74    2.87
  -5  -6  12    3.59    2.30
  -5  -6  12    9.04    3.73
   5   6 -12    5.23    2.39
   5   6 -12    4.95    2.45
  -5  -6  12    2.67    2.19
  -5  -6  11    4.83    2.66
   5   6 -11    7.20    2.58
   5   6 -11    5.37    2.39
   5   6 -11    4.48    2.04
  -5  -6  11    6.78    3.02
  -5  -6  10    2.69    2.22
   5   6 -10   -1.84    1.84
   5   6 -10   -2.82    2.02
   5   6 -10   -0.34    1.39
  -5  -6  10    1.24    1.78
  -5  -6   9   10.10    3.09
   5   6  -9   11.92    2.77
   5   6  -9    9.63    2.78
   5   6  -9    7.50    2.59
  -5  -6   9   11.20    3.00
  -5  -6   8   -0.66    2.01
   5   6  -8    0.15    1.67
   5   6  -8    1.14    2.05
   5   6  -8   -0.73    1.67
  -5  -6   8    1.81    1.74
   5   6  -7   66.70    6.05
   5   6  -7   73.18    6.31
   5   6  -7   64.07    5.92
  -5  -6   7   62.02    5.96
  -5  -6   7   66.30    6.27
  -5  -6   6   -1.70    1.73
   5   6  -6    1.77    1.84
   5   6  -6    2.28    1.91
  -5  -6   6    2.29    2.06
  -5  -6   5    1.33    1.98
   5   6  -5    0.62    1.52
   5   6  -5    1.31    1.74
  -5  -6   5    1.16    2.49
  -5  -6   4   18.22    3.42
   5   6  -4   19.97    3.51
   5   6  -4   16.86    3.29
  -5  -6   4   18.92    3.63
  -5  -6   3    0.45    2.15
   5   6  -3   -0.43    1.58
   5   6  -3    1.75    1.48
   5   6  -3   -1.16    1.86
  -5  -6   3    3.07    2.27
  -5  -6   2   -2.21    2.47
   5   6  -2    2.86    2.44
   5   6  -2    0.02    1.33
   5   6  -2   -0.54    1.44
  -5  -6   2   -0.36    1.76
  -5  -6   1    0.03    2.34
   5   6  -1    0.88    1.48
   5   6  -1    0.45    1.65
  -5  -6   1    1.80    1.80
  -5  -6   0    4.01    2.42
   5   6   0    2.72    1.93
   5   6   0   -0.83    1.68
  -5  -6   0   -1.16    2.00
  -5  -6  -1    0.73    2.01
  -5  -6  -1    1.32    1.83
   5   6   1    1.14    1.50
   5   6   1    1.75    1.55
  -5  -6  -1    4.87    2.66
  -5  -6  -2   -0.94    1.87
  -5  -6  -2    0.22    1.91
   5   6   2   -0.76    1.62
   5   6   2    1.95    2.01
  -5  -6  -2    2.60    2.35
  -5  -6  -3    3.73    2.14
   5   7 -12   15.73    3.58
   5   7 -12   14.49    3.36
   5   7 -11    7.89    2.69
   5   7 -11   13.66    3.25
   5   7 -11   12.27    2.95
  -5  -7  10    4.82    2.80
   5   7 -10    0.33    1.76
   5   7 -10   -0.93    1.91
   5   7 -10    0.24    1.78
  -5  -7  10    1.42    2.27
  -5  -7   9    3.50    2.54
   5   7  -9   -0.35    1.67
   5   7  -9    1.87    1.92
  -5  -7   9    1.16    1.98
  -5  -7   8    3.73    3.11
   5   7  -8    5.26    2.28
   5   7  -8    2.76    1.83
  -5  -7   8    0.39    1.83
  -5  -7   7   42.37    5.40
   5   7  -7   41.02    5.28
   5   7  -7   42.70    5.28
  -5  -7   7   41.03    5.36
   5   7  -6   59.39    6.11
   5   7  -6   59.24    6.07
  -5  -7   6   58.92    6.12
  -5  -7   6   64.16    6.56
  -5  -7   5   20.84    4.17
   5   7  -5   22.68    4.00
   5   7  -5   15.89    3.46
  -5  -7   5   21.63    4.06
   5   7  -4   42.73    4.64
   5   7  -4   43.66    5.34
   5   7  -4   44.55    5.43
  -5  -7   4   43.11    5.39
  -5  -7   4   47.48    5.73
  -5  -7   3   18.35    4.02
   5   7  -3   22.18    4.04
   5   7  -3   18.21    3.28
   5   7  -3   23.48    4.06
  -5  -7   3   23.41    4.40
  -5  -7   2   22.06    4.14
   5   7  -2   24.72    4.27
   5   7  -2   19.92    3.74
  -5  -7   2   21.55    3.99
  -5  -7   1    5.71    3.09
   5   7  -1    1.86    2.14
   5   7  -1    2.38    2.23
  -5  -7   1    6.09    2.87
  -5  -7   0    4.14    2.67
   5   7   0    1.22    1.74
  -5  -7  -1    1.04    2.35
   5   8  -4    3.21    2.01
  -6  10   0    9.54    3.08
  -6  10  -1   10.32    2.84
  -6  10  -1    3.35    2.17
  -6  10  -2   10.21    3.08
  -6  10  -2   10.50    2.82
  -6  10  -2    5.82    2.70
   6 -10   2    4.44    2.58
  -6  10  -3    1.55    2.36
  -6  10  -3    1.30    1.68
   6 -10   3    0.50    1.92
  -6  10  -3   -1.75    1.94
  -6  10  -4   -2.06    2.08
   6 -10   4   -0.91    1.74
  -6  10  -4    3.54    2.27
   6 -10   5   28.25    4.32
  -6  10  -5   18.68    3.51
  -6  10  -6   33.04    4.51
   6  -9  -4   16.02    3.69
  -6   9   4   15.35    3.25
   6  -9  -3    4.09    2.40
   6  -9  -2    2.42    2.48
  -6   9   2    2.58    1.77
  -6   9   2    1.08    1.65
   6  -9  -1   -4.19    2.40
  -6   9   1    0.39    1.81
  -6   9   1   -0.07    1.62
   6  -9  -1    1.01    1.97
  -6   9   1    1.02    2.06
   6  -9   0   18.28    3.72
  -6   9   0   22.86    3.78
  -6   9   0   24.88    4.02
   6  -9   0   21.13    4.12
  -6   9   0   21.46    3.81
   6  -9   1    1.93    2.14
  -6   9  -1    0.44    1.83
  -6   9  -1    3.40    2.02
   6  -9   1    2.54    1.84
  -6   9  -1    2.61    2.19
   6  -9   2   -4.19    2.83
  -6   9  -2    0.93    1.67
  -6   9  -2    0.67    1.79
   6  -9   2    3.25    1.99
  -6   9  -2    1.69    1.99
   6  -9   3    2.92    2.55
  -6   9  -3    6.64    2.42
  -6   9  -3    3.18    1.54
  -6   9  -3    5.82    2.45
   6  -9   3    7.11    2.48
   6  -9   4   32.51    4.61
  -6   9  -4   36.02    4.32
   6  -9   4   34.81    4.40
  -6   9  -4   37.19    4.57
  -6   9  -4   44.72    5.38
   6  -9   5   -3.09    2.62
  -6   9  -5    1.09    1.54
  -6   9  -5    0.48    2.00
   6  -9   5    0.16    1.59
  -6   9  -5    1.95    1.74
   6  -9   5    0.43    1.97
   6  -9   6    4.28    2.54
  -6   9  -6    8.79    2.50
  -6   9  -6    5.92    2.24
  -6   9  -6    8.89    3.04
   6  -9   6    8.47    2.80
   6  -9   7   -0.65    2.18
  -6   9  -7    1.44    1.81
  -6   9  -7    7.30    3.09
   6  -9   7    3.08    2.67
   6  -9   8   -0.46    2.43
  -6   9  -8    2.37    2.23
   6  -9   8   -1.35    2.17
   6  -9   8    1.78    1.79
   6  -9   9   -2.52    2.28
   6  -9   9    3.03    2.15
   6  -9   9   -0.36    2.02
   6  -9  10   26.76    4.22
   6  -9  10   23.89    4.50
  -6   8   6    3.50    2.19
   6  -8  -6    3.97    2.38
   6  -8  -5    8.37    2.86
  -6   8   5    9.20    3.01
  -6   8   5    6.82    2.48
   6  -8  -5    4.84    2.68
   6  -8  -4    2.45    2.28
  -6   8   4    2.43    2.10
   6  -8  -4   -0.27    1.98
  -6   8   4    4.16    2.01
   6  -8  -4    0.37    1.55
   6  -8  -3    1.67    2.04
  -6   8   3    2.47    1.97
   6  -8  -3    0.22    2.48
  -6   8   3    1.95    1.58
   6  -8  -2   14.40    3.52
  -6   8   2   13.25    3.06
  -6   8   2   13.03    3.16
   6  -8  -2   14.51    3.38
  -6   8   2   15.60    2.96
   6  -8  -1   53.02    5.51
  -6   8   1   48.43    5.23
   6  -8  -1   44.41    5.20
  -6   8   1   54.25    4.84
  -6   8   1   59.03    5.72
  -6   8   1   47.58    4.93
   6  -8   0   23.02    4.02
  -6   8   0   29.46    4.05
  -6   8   0   28.34    4.09
  -6   8   0   30.51    3.57
   6  -8   0   28.73    4.12
  -6   8   0   33.12    4.36
   6  -8   1    2.08    1.97
  -6   8  -1   -1.51    1.70
  -6   8  -1    0.19    1.45
  -6   8  -1    2.14    1.69
   6  -8   1    1.02    1.77
   6  -8   2   -1.35    2.11
  -6   8  -2    2.21    1.87
  -6   8  -2    1.46    1.66
   6  -8   2    4.64    2.12
  -6   8  -2    1.00    1.41
   6  -8   3   -0.70    2.13
  -6   8  -3   -0.71    1.39
  -6   8  -3   -0.18    1.80
  -6   8  -3    1.57    2.07
   6  -8   3   -1.27    1.54
   6  -8   4    2.23    1.93
  -6   8  -4    4.49    1.92
  -6   8  -4    3.18    1.84
   6  -8   4    1.98    1.63
   6  -8   4    2.10    1.86
  -6   8  -4    1.87    1.61
   6  -8   5    4.16    2.05
  -6   8  -5    3.65    1.83
  -6   8  -5    7.20    2.33
   6  -8   5    8.39    2.23
  -6   8  -5   11.84    2.61
   6  -8   5    7.32    2.96
   6  -8   6   -4.20    3.04
  -6   8  -6    2.69    1.79
  -6   8  -6    1.31    1.30
  -6   8  -6   -2.33    2.13
   6  -8   6   -0.77    1.77
   6  -8   7    4.31    2.45
  -6   8  -7    0.13    1.39
  -6   8  -7    0.94    1.76
   6  -8   7   -0.76    1.71
   6  -8   8    9.65    2.88
  -6   8  -8   11.18    2.73
  -6   8  -8   14.84    3.33
   6  -8   8   13.47    3.37
   6  -8   8    9.18    2.76
   6  -8   9    1.79    2.27
  -6   8  -9   -4.50    2.56
   6  -8   9   -1.04    1.98
   6  -8   9   -1.38    2.16
   6  -8  10   37.89    5.01
  -6   8 -10   34.41    4.99
  -6   8 -10   35.47    4.98
   6  -8  10   41.36    5.24
   6  -8  10   38.50    5.24
   6  -8  11    1.47    2.64
   6  -7  -8   14.72    3.35
   6  -7  -7    6.41    3.14
  -6   7   7    4.68    2.28
   6  -7  -7    5.81    2.42
   6  -7  -6   45.70    5.23
  -6   7   6   48.20    5.76
   6  -7  -6   54.67    5.99
  -6   7   6   48.10    5.52
   6  -7  -6   51.40    5.34
   6  -7  -5    8.71    2.66
  -6   7   5    8.59    2.65
   6  -7  -5   11.37    3.19
  -6   7   5    7.07    2.60
   6  -7  -5    5.83    2.37
   6  -7  -4    3.09    2.06
  -6   7   4    6.69    2.21
  -6   7   4   -0.68    1.95
   6  -7  -4    4.10    2.76
  -6   7   4    2.56    1.92
   6  -7  -4    1.90    1.66
   6  -7  -3    6.02    2.57
  -6   7   3    2.59    2.15
  -6   7   3    3.37    2.02
   6  -7  -3    2.93    2.09
  -6   7   3    2.01    1.44
   6  -7  -3    1.30    1.55
   6  -7  -2   46.17    5.09
  -6   7   2   41.63    4.80
   6  -7  -2   43.40    4.92
  -6   7   2   44.70    4.60
   6  -7  -2   49.43    4.16
  -6   7   2   43.00    4.33
   6  -7  -1   10.99    2.84
  -6   7   1   10.29    2.66
  -6   7   1   11.57    2.61
   6  -7  -1   12.53    3.01
  -6   7   1    9.91    2.29
   6  -7   0   45.30    5.09
  -6   7   0   43.60    4.68
   6  -7   0   43.00    4.68
  -6   7   0   41.03    3.96
  -6   7   0   40.73    4.32
  -6   7   0   42.62    4.45
   6  -7   1   -0.67    2.00
  -6   7  -1    4.01    1.72
  -6   7  -1    2.85    1.76
   6  -7   1    5.88    2.38
  -6   7  -1    2.18    1.45
  -6   7  -1    3.49    1.55
   6  -7   2    3.22    2.23
  -6   7  -2   10.03    2.38
  -6   7  -2    5.33    2.07
   6  -7   2   12.29    2.90
  -6   7  -2    9.30    2.31
  -6   7  -2    7.17    1.77
   6  -7   3   48.44    5.17
  -6   7  -3   51.21    4.96
   6  -7   3   52.84    4.68
  -6   7  -3   52.43    4.54
   6  -7   3   54.12    5.43
  -6   7  -3   46.96    4.78
   6  -7   4   30.91    4.16
  -6   7  -4   33.48    4.02
   6  -7   4   34.21    3.76
  -6   7  -4   25.55    3.77
  -6   7  -4   33.04    3.58
   6  -7   4   33.26    4.24
   6  -7   5    4.81    2.29
  -6   7  -5    3.56    1.72
  -6   7  -5    4.92    1.53
   6  -7   5    4.95    1.86
  -6   7  -5    1.38    1.58
   6  -7   5    3.22    2.45
   6  -7   6   11.61    2.76
  -6   7  -6    8.45    2.30
   6  -7   6    5.59    1.91
  -6   7  -6    8.10    2.71
  -6   7  -6    9.61    2.27
   6  -7   6    7.71    2.42
   6  -7   7    7.83    2.68
  -6   7  -7    6.89    2.31
  -6   7  -7    5.15    2.26
  -6   7  -7    5.07    2.08
   6  -7   7    4.14    2.22
   6  -7   7    5.78    2.34
   6  -7   8   21.63    3.61
  -6   7  -8   22.98    3.77
  -6   7  -8   19.19    3.53
  -6   7  -8   17.98    3.20
   6  -7   8   16.59    3.33
   6  -7   8   18.35    3.53
   6  -7   9    4.73    2.48
  -6   7  -9    3.50    2.05
  -6   7  -9    4.95    2.27
   6  -7   9    2.39    2.10
   6  -7   9    1.77    2.08
   6  -7  10    6.02    2.93
  -6   7 -10   -0.74    2.15
  -6   7 -10    1.69    2.34
   6  -7  10    3.68    2.56
   6  -7  10    2.46    2.33
  -6   7 -11    3.94    2.24
  -6   7 -11    9.30    3.01
   6  -7  11    6.99    2.80
   6  -7  11    7.36    2.99
   6  -6  -9    5.26    2.49
   6  -6  -9    5.03    2.83
  -6   6   8  115.71    8.86
   6  -6  -8   92.60    7.67
  -6   6   8  110.13    8.28
   6  -6  -8  113.48    8.11
   6  -6  -7   20.53    3.60
  -6   6   7   19.08    3.69
   6  -6  -7   20.64    4.05
  -6   6   7   20.14    3.79
   6  -6  -7   16.04    3.11
   6  -6  -6   85.22    6.35
  -6   6   6   81.55    6.95
   6  -6  -6   77.55    6.79
  -6   6   6   77.18    6.48
   6  -6  -6   79.97    6.14
   6  -6  -5   14.71    3.06
  -6   6   5   11.00    2.78
   6  -6  -5   12.30    2.90
  -6   6   5   18.91    3.23
   6  -6  -5   10.80    2.41
   6  -6  -4    3.95    2.37
  -6   6   4   -1.47    1.44
  -6   6   4   -0.03    1.23
   6  -6  -4   -1.53    1.78
   6  -6  -4    0.21    1.74
  -6   6   4   -1.05    1.45
   6  -6  -3   17.15    3.37
  -6   6   3   16.94    3.22
  -6   6   3   14.32    2.56
   6  -6  -3   16.00    3.32
   6  -6  -3   16.11    2.57
  -6   6   3   13.25    2.65
   6  -6  -2    5.80    2.39
  -6   6   2    4.78    2.03
  -6   6   2    4.75    1.88
   6  -6  -2    0.76    1.58
   6  -6  -2    0.40    1.21
  -6   6   2    1.69    1.68
   6  -6  -1    3.60    2.20
  -6   6   1    4.38    1.65
  -6   6   1    6.32    1.98
   6  -6  -1    5.48    1.94
   6  -6  -1    4.72    1.57
  -6   6   1    2.94    1.32
   6  -6   0    1.10    2.03
  -6   6   0    4.79    1.94
   6  -6   0    1.57    1.87
  -6   6   0    0.57    1.75
   6  -6   0    1.85    1.03
  -6   6   0    3.72    1.44
   6  -6   1    1.38    1.77
  -6   6  -1   -1.05    1.35
  -6   6  -1    0.90    1.25
   6  -6   1   -0.76    1.44
  -6   6  -1    1.30    1.73
  -6   6  -1   -0.20    1.19
   6  -6   2  391.04   13.04
  -6   6  -2  380.58   12.58
   6  -6   2  399.00   12.07
  -6   6  -2  380.60   10.46
  -6   6  -2  373.57   10.64
   6  -6   2  379.78   12.88
  -6   6  -2  368.55   12.43
   6  -6   3  181.10    8.86
  -6   6  -3  175.32    8.54
   6  -6   3  180.78    7.91
  -6   6  -3  174.34    6.94
  -6   6  -3  168.74    7.03
  -6   6  -3  170.92    7.04
   6  -6   3  179.37    8.88
  -6   6  -3  172.16    8.64
   6  -6   4  182.98    9.05
  -6   6  -4  181.96    8.77
   6  -6   4  195.78    7.99
  -6   6  -4  191.75    7.15
  -6   6  -4  173.20    7.53
  -6   6  -4  194.84    7.30
   6  -6   4  191.98    9.40
  -6   6  -4  181.72    9.01
   6  -6   5    8.97    2.68
  -6   6  -5    5.54    1.55
  -6   6  -5    6.46    2.16
   6  -6   5    4.68    1.35
   6  -6   5    6.46    1.80
  -6   6  -5    3.62    1.58
  -6   6  -5    6.77    2.42
   6  -6   5    3.21    1.94
   6  -6   6   12.12    2.89
  -6   6  -6    6.50    2.12
   6  -6   6    8.74    1.90
   6  -6   6    9.75    1.99
  -6   6  -6    7.24    2.17
  -6   6  -6    7.76    2.43
   6  -6   6    5.91    2.47
   6  -6   6    3.64    2.08
   6  -6   7    3.21    2.26
  -6   6  -7    1.02    1.37
   6  -6   7   -0.11    1.07
  -6   6  -7    2.61    1.95
  -6   6  -7   -1.92    2.34
   6  -6   7    2.05    1.94
   6  -6   7    0.01    1.79
   6  -6   8    3.30    2.40
   6  -6   8    1.03    1.15
  -6   6  -8    2.25    1.86
  -6   6  -8    2.04    1.94
   6  -6   8    6.21    2.56
   6  -6   8    3.85    2.24
   6  -6   9   14.73    3.45
   6  -6   9    7.65    2.11
  -6   6  -9    2.17    1.89
  -6   6  -9    4.46    1.92
   6  -6   9    8.62    2.61
   6  -6   9    8.94    2.99
   6  -6  10    3.91    1.85
  -6   6 -10    3.97    2.42
  -6   6 -10    5.42    2.46
   6  -6  10    5.51    2.81
   6  -6  10    4.19    2.40
   6  -6  11    0.01    1.36
  -6   6 -11   -1.28    2.15
  -6   6 -11    3.29    2.13
   6  -6  11    4.26    2.22
   6  -6  11    0.17    2.07
  -6   6 -12    7.84    2.79
   6  -6  12   10.07    3.23
  -6   5  10    8.03    2.83
   6  -5 -10    7.13    2.87
  -6   5  10    4.96    2.10
   6  -5 -10    6.27    2.60
  -6   5   9   14.49    3.39
   6  -5  -9   11.21    2.95
  -6   5   9   18.31    3.86
   6  -5  -9   16.53    3.44
  -6   5   8  181.82   10.29
   6  -5  -8  172.84    9.84
  -6   5   8  184.36   10.17
   6  -5  -8  190.32    9.93
  -6   5   7   36.28    4.68
  -6   5   7   36.90    4.57
   6  -5  -7   35.58    4.52
   6  -5  -7   34.65    4.23
  -6   5   6   31.50    4.25
   6  -5  -6   37.14    4.50
   6  -5  -6   31.95    3.91
  -6   5   6   29.32    3.93
   6  -5  -5   37.22    4.23
  -6   5   5   25.82    3.76
  -6   5   5   31.96    3.96
   6  -5  -5   31.26    4.12
   6  -5  -5   28.80    3.56
  -6   5   5   34.31    3.16
   6  -5  -4    3.75    2.20
  -6   5   4   -1.48    1.62
  -6   5   4   -0.57    1.23
   6  -5  -4   -0.97    1.59
   6  -5  -4    0.97    1.34
  -6   5   4    0.43    1.35
   6  -5  -3   37.28    4.22
  -6   5   3   35.38    4.07
  -6   5   3   34.56    3.77
   6  -5  -3   32.71    4.12
   6  -5  -3   39.73    3.53
  -6   5   3   33.18    3.39
   6  -5  -2   13.73    3.05
  -6   5   2   11.17    2.46
   6  -5  -2   11.77    2.53
  -6   5   2   10.19    2.12
   6  -5  -2   12.63    2.02
  -6   5   2    7.70    1.87
   6  -5  -1    4.18    2.35
  -6   5   1    1.66    1.41
   6  -5  -1    4.20    1.97
  -6   5   1    2.46    1.40
   6  -5  -1    4.94    1.29
  -6   5   1    2.67    1.65
   6  -5   0    2.02    2.25
  -6   5   0    0.13    1.37
   6  -5   0    4.58    2.09
  -6   5   0    2.13    1.63
   6  -5   0    3.00    1.12
  -6   5   0    0.93    1.25
  -6   5  -1  112.06    6.42
   6  -5   1  119.84    7.13
  -6   5  -1  111.93    6.67
   6  -5   1  111.53    6.31
  -6   5  -1  105.64    5.82
  -6   5  -1  110.53    4.71
   6  -5   1  116.88    4.12
   6  -5   1  107.63    6.55
  -6   5  -1  102.48    5.24
  -6   5  -2   59.26    5.01
   6  -5   2   72.46    5.69
  -6   5  -2   64.31    5.18
   6  -5   2   71.33    4.92
  -6   5  -2   61.72    3.83
  -6   5  -2   61.26    3.91
   6  -5   2   68.34    5.46
  -6   5  -3  118.30    7.01
   6  -5   3  122.47    7.26
  -6   5  -3  124.84    7.06
   6  -5   3  132.41    6.42
  -6   5  -3  126.03    5.86
  -6   5  -3  123.45    5.21
   6  -5   3  120.45    7.17
   6  -5   4   12.89    3.00
  -6   5  -4   11.87    2.58
  -6   5  -4   11.83    1.78
   6  -5   4   11.45    2.06
   6  -5   4   13.41    2.32
  -6   5  -4   13.32    2.41
  -6   5  -4   14.29    1.93
  -6   5  -4   13.72    2.72
   6  -5   4   12.31    2.67
  -6   5  -5    2.15    1.49
   6  -5   5    4.14    1.62
   6  -5   5    1.23    1.31
  -6   5  -5    0.84    1.64
  -6   5  -5    1.57    1.58
  -6   5  -5    0.91    0.98
   6  -5   5   -0.83    1.68
   6  -5   5   -0.74    1.99
   6  -5   6    6.32    2.28
  -6   5  -6    0.53    1.30
   6  -5   6    2.58    1.38
  -6   5  -6    3.00    2.15
   6  -5   6    0.84    0.94
  -6   5  -6    1.18    1.78
  -6   5  -6    2.04    1.22
   6  -5   6    3.44    2.23
   6  -5   6    1.33    2.12
   6  -5   7    1.05    1.28
  -6   5  -7    0.42    1.57
  -6   5  -7   -0.98    1.66
   6  -5   7   -2.39    1.75
   6  -5   7    0.49    1.74
   6  -5   8    3.82    1.63
  -6   5  -8    5.78    2.24
  -6   5  -8    1.16    1.72
   6  -5   8   -1.30    1.99
   6  -5   8   -2.38    1.93
   6  -5   9   12.09    2.67
  -6   5  -9   12.58    2.91
  -6   5  -9   14.06    2.93
   6  -5   9   10.98    3.05
   6  -5   9    9.32    3.05
   6  -5  10    3.96    1.83
  -6   5 -10    0.32    1.85
  -6   5 -10    0.92    1.89
   6  -5  10    4.80    2.23
   6  -5  10    6.35    2.71
   6  -5  11    8.55    2.55
  -6   5 -11    5.70    2.54
  -6   5 -11    8.68    2.89
   6  -5  11   12.58    3.45
   6  -5  11    8.83    3.35
   6  -5  12    2.59    2.05
  -6   5 -12   -0.71    1.97
   6  -5  12   -1.09    2.06
  -6   5 -13    6.85    2.72
   6  -4 -12    0.32    2.17
  -6   4  11    4.74    1.96
   6  -4 -11    3.77    2.69
  -6   4  11    5.40    2.86
   6  -4 -11    4.49    2.61
  -6   4  10   -0.25    1.66
  -6   4  10    1.84    2.05
   6  -4 -10    0.63    2.22
   6  -4 -10    4.15    2.61
  -6   4   9   38.08    4.88
   6  -4  -9   39.69    4.86
  -6   4   9   48.62    5.33
   6  -4  -9   44.27    5.03
  -6   4   8   -0.05    1.54
   6  -4  -8    1.61    1.69
   6  -4  -8    3.46    2.27
  -6   4   8    2.67    1.86
  -6   4   7   11.35    2.69
   6  -4  -7   10.77    2.88
   6  -4  -7   12.48    2.96
  -6   4   7    8.32    2.55
  -6   4   6    2.83    1.87
  -6   4   6    1.98    1.18
   6  -4  -6   -0.70    1.68
   6  -4  -6    3.46    2.08
  -6   4   6   -0.44    1.41
  -6   4   5   26.75    3.74
   6  -4  -5   28.81    3.88
   6  -4  -5   25.45    3.33
  -6   4   5   25.27    3.41
  -6   4   5   25.63    2.67
  -6   4   4   41.61    4.23
   6  -4  -4   44.02    4.52
  -6   4   4   38.89    4.12
   6  -4  -4   38.73    3.73
  -6   4   4   35.80    3.07
  -6   4   3  105.81    5.54
  -6   4   3  103.18    6.50
   6  -4  -3  101.97    6.44
  -6   4   3  105.82    6.28
   6  -4  -3  106.53    5.60
  -6   4   2   34.01    3.29
   6  -4  -2   45.30    4.76
  -6   4   2   42.95    4.17
   6  -4  -2   42.12    4.23
  -6   4   2   37.95    3.91
   6  -4  -2   37.77    3.26
  -6   4   2   37.05    2.30
  -6   4   1    7.38    1.97
   6  -4  -1    7.16    2.22
  -6   4   1    6.89    1.08
  -6   4   1    6.17    2.28
   6  -4  -1    5.68    1.37
  -6   4   1    9.27    2.07
  -6   4   1    4.33    0.81
  -6   4   0   33.07    3.61
   6  -4   0   35.02    4.29
  -6   4   0   30.50    3.51
   6  -4   0   34.19    3.67
  -6   4   0   30.78    2.35
   6  -4   0   30.39    2.49
   6  -4   0   32.39    3.69
   6  -4   1    2.09    2.34
  -6   4  -1    1.25    1.69
   6  -4   1   -1.30    1.64
  -6   4  -1   -0.25    0.94
  -6   4  -1    1.37    1.69
   6  -4   1   -0.17    0.81
   6  -4   1   -0.63    1.66
  -6   4  -1    0.44    0.97
   6  -4   2   78.66    5.89
  -6   4  -2   79.00    5.48
  -6   4  -2   78.85    5.54
   6  -4   2   75.20    4.87
  -6   4  -2   72.78    4.29
  -6   4  -2   75.28    3.62
   6  -4   2   78.78    3.11
   6  -4   2   75.01    5.56
  -6   4  -3    7.30    2.01
   6  -4   3    7.85    1.96
  -6   4  -3    8.31    1.28
   6  -4   3    8.82    1.88
  -6   4  -3   10.10    2.04
  -6   4  -3    9.33    2.48
   6  -4   3    7.49    2.43
  -6   4  -4   36.01    4.01
   6  -4   4   31.39    3.16
   6  -4   4   28.41    2.91
  -6   4  -4   34.39    3.50
  -6   4  -4   34.72    3.11
   6  -4   4   29.29    3.83
   6  -4   4   32.47    4.00
  -6   4  -4   31.73    3.87
  -6   4  -5   53.37    4.77
  -6   4  -5   54.86    4.89
   6  -4   5   49.29    4.08
  -6   4  -5   53.95    4.50
  -6   4  -5   58.72    4.12
   6  -4   5   56.53    3.26
   6  -4   5   49.08    5.00
   6  -4   5   55.75    5.02
  -6   4  -6   31.69    3.85
   6  -4   6   26.79    3.24
  -6   4  -6   27.67    3.57
  -6   4  -6   32.94    3.29
  -6   4  -6   29.50    3.88
   6  -4   6   30.37    4.01
   6  -4   6   23.99    3.67
  -6   4  -7   51.79    5.00
   6  -4   7   48.25    4.55
  -6   4  -7   45.47    4.76
  -6   4  -7   48.04    4.14
   6  -4   7   57.41    5.52
   6  -4   7   46.99    5.28
   6  -4   8    1.65    1.87
  -6   4  -8   -0.85    1.75
  -6   4  -8    0.58    1.24
  -6   4  -8   -2.80    1.93
   6  -4   8    0.39    1.85
   6  -4   8   -2.22    2.04
   6  -4   9    0.20    1.26
  -6   4  -9    2.50    2.00
  -6   4  -9    1.93    1.80
  -6   4  -9    0.71    1.25
   6  -4   9    0.24    2.04
   6  -4   9    1.14    2.28
   6  -4  10    0.54    1.39
  -6   4 -10    2.16    1.85
  -6   4 -10    2.47    1.80
  -6   4 -10   -0.96    1.29
   6  -4  10    0.96    1.98
   6  -4  10    2.77    2.21
   6  -4  11    6.38    2.48
  -6   4 -11    7.08    2.69
  -6   4 -11    2.37    1.83
  -6   4 -11    2.68    1.85
   6  -4  11   10.45    3.04
   6  -4  11    4.13    2.77
   6  -4  12    0.00    1.61
  -6   4 -12    1.61    1.97
  -6   4 -12   -0.72    1.54
   6  -3 -13    6.16    2.67
  -6   3  12    3.06    2.24
   6  -3 -12    3.75    2.21
   6  -3 -12   12.24    3.92
  -6   3  12    5.23    2.57
   6  -3 -12    6.24    2.85
  -6   3  11   18.53    3.66
  -6   3  11   15.69    2.90
   6  -3 -11   18.23    3.47
  -6   3  11   14.50    3.56
   6  -3 -11   16.43    3.63
  -6   3  10    2.89    1.91
   6  -3 -10    3.06    2.11
  -6   3  10    2.65    2.06
   6  -3 -10    2.14    2.35
  -6   3   9   19.56    3.51
   6  -3  -9   19.87    3.45
   6  -3  -9   20.06    3.37
  -6   3   9   24.16    3.82
  -6   3   8   -0.69    1.35
   6  -3  -8    0.29    1.57
   6  -3  -8   -0.43    1.94
  -6   3   8    0.40    1.79
  -6   3   7    4.20    2.12
   6  -3  -7    6.01    2.23
   6  -3  -7    7.30    2.24
  -6   3   7    5.42    2.02
  -6   3   6   26.91    3.60
  -6   3   6   30.22    3.68
   6  -3  -6   33.49    4.00
   6  -3  -6   24.76    3.45
  -6   3   6   29.10    2.58
  -6   3   5   82.35    4.37
  -6   3   5   82.26    5.85
   6  -3  -5   78.87    5.78
  -6   3   5   80.12    5.79
   6  -3  -5   82.08    5.31
  -6   3   5   85.80    3.57
  -6   3   4   14.94    1.53
  -6   3   4   14.37    2.71
   6  -3  -4   13.02    2.77
   6  -3  -4   15.87    2.57
  -6   3   4   12.64    2.22
  -6   3   4   15.95    2.81
  -6   3   3   18.22    2.78
   6  -3  -3   20.84    3.19
   6  -3  -3   20.49    2.60
  -6   3   3   20.99    2.71
  -6   3   3   18.38    2.77
  -6   3   3   18.94    2.03
  -6   3   3   20.18    1.63
  -6   3   2    7.33    1.19
  -6   3   2    6.88    1.89
   6  -3  -2    8.05    2.27
  -6   3   2    7.01    1.02
   6  -3  -2    5.27    1.55
   6  -3  -2    2.21    1.62
  -6   3   2    5.77    1.85
  -6   3   2    4.62    1.09
   6  -3  -1    5.34    1.14
  -6   3   1    3.98    1.00
  -6   3   1    4.32    1.87
   6  -3  -1    5.69    1.92
  -6   3   1    6.75    1.22
   6  -3  -1    6.60    1.55
   6  -3  -1    3.86    1.77
  -6   3   1    5.33    1.94
  -6   3   1    3.78    1.02
  -6   3   0   23.11    3.10
   6  -3   0   18.97    2.78
  -6   3   0   20.80    2.01
   6  -3   0   21.94    2.20
   6  -3   0   23.63    3.27
  -6   3   0   18.54    2.71
  -6   3   0   22.87    1.73
  -6   3  -1   89.10    5.50
  -6   3  -1  103.65    6.13
   6  -3   1  103.67    5.61
  -6   3  -1  104.46    4.76
   6  -3   1   99.52    4.26
  -6   3  -1   95.56    3.56
   6  -3   1   98.93    5.97
  -6   3  -1  111.33    3.62
  -6   3  -2    5.25    1.85
   6  -3   2    5.22    1.76
  -6   3  -2    3.14    1.35
   6  -3   2   10.66    2.01
   6  -3   2    6.47    1.14
  -6   3  -2    6.57    0.92
   6  -3   2    4.76    1.85
  -6   3  -2    3.81    2.35
  -6   3  -2    5.09    0.95
  -6   3  -3   -1.49    1.93
   6  -3   3    2.82    1.58
  -6   3  -3   -2.75    1.88
   6  -3   3    1.92    1.38
   6  -3   3   -0.15    1.88
   6  -3   3    1.54    1.88
  -6   3  -3   -2.88    2.25
  -6   3  -4   -0.38    1.52
   6  -3   4   -1.25    1.36
  -6   3  -4   -0.96    1.71
   6  -3   4    2.36    1.14
   6  -3   4   -0.95    1.64
   6  -3   4   -0.24    1.60
  -6   3  -4   -5.59    2.58
  -6   3  -5    6.24    2.09
   6  -3   5    7.81    2.07
  -6   3  -5    4.09    1.72
  -6   3  -5   10.49    2.22
   6  -3   5    6.93    1.30
   6  -3   5   10.81    3.00
   6  -3   5    6.52    2.21
  -6   3  -5    5.45    2.30
   6  -3   6    9.24    2.31
  -6   3  -6    0.62    1.74
  -6   3  -6    5.62    1.90
   6  -3   6    5.46    2.29
   6  -3   6    3.53    2.01
  -6   3  -6   10.02    2.59
   6  -3   7    6.01    2.42
  -6   3  -7    5.66    2.16
  -6   3  -7    7.67    2.35
  -6   3  -7    8.69    2.71
   6  -3   7    4.96    2.61
   6  -3   7    1.14    1.79
   6  -3   8    2.39    1.67
  -6   3  -8    0.45    1.73
  -6   3  -8    1.63    1.39
  -6   3  -8    5.23    2.15
   6  -3   8    2.17    2.39
   6  -3   8   -1.31    2.04
   6  -3   9    0.00    1.36
  -6   3  -9    3.41    2.22
  -6   3  -9    0.86    1.75
  -6   3  -9    4.16    2.14
   6  -3   9   -0.54    1.83
   6  -3   9    0.73    1.79
   6  -3  10   23.10    3.86
  -6   3 -10   28.14    4.61
  -6   3 -10   27.49    3.93
  -6   3 -10   25.36    3.91
   6  -3  10   28.48    4.61
   6  -3  10   24.85    4.38
   6  -3  11    1.94    2.04
  -6   3 -11    2.36    2.51
  -6   3 -11    0.75    1.71
  -6   3 -11    0.52    1.82
   6  -3  11   -1.83    2.45
   6  -3  11    0.24    2.24
  -6   3 -12    2.64    1.96
  -6   3 -12    7.07    2.61
  -6   2  14   -1.89    1.74
   6  -2 -14    2.02    2.55
  -6   2  13    1.67    1.81
  -6   2  13    3.98    1.84
   6  -2 -13    3.33    2.51
   6  -2 -13    3.94    3.03
  -6   2  13    3.57    2.64
  -6   2  12    4.19    2.32
  -6   2  12   -0.10    1.24
   6  -2 -12    2.35    1.95
  -6   2  12   -0.33    1.82
   6  -2 -12    3.61    2.68
  -6   2  11   26.93    4.03
   6  -2 -11   27.10    3.96
   6  -2 -11   30.33    4.74
  -6   2  11   26.12    4.13
   6  -2 -11   23.69    4.03
  -6   2  10   41.59    4.65
   6  -2 -10   38.58    4.51
  -6   2  10   34.35    4.64
   6  -2 -10   48.79    5.21
  -6   2   9   37.42    4.33
   6  -2  -9   40.85    4.58
  -6   2   9   35.88    4.37
   6  -2  -9   37.59    4.43
  -6   2   9   35.74    3.43
  -6   2   8    7.05    1.83
  -6   2   8    1.22    1.58
   6  -2  -8    6.03    2.11
   6  -2  -8    4.34    1.92
  -6   2   8    2.73    1.78
  -6   2   7    4.39    1.36
  -6   2   7    6.68    2.00
   6  -2  -7    7.77    2.37
  -6   2   7    8.48    1.52
   6  -2  -7    7.98    2.13
  -6   2   7    5.70    1.91
  -6   2   6   21.86    2.34
  -6   2   6   20.19    2.96
   6  -2  -6   17.33    3.00
   6  -2  -6   19.64    3.00
  -6   2   6   12.80    2.68
  -6   2   6   20.95    2.38
  -6   2   5    1.00    1.06
  -6   2   5    0.26    1.46
   6  -2  -5   -2.90    2.40
   6  -2  -5   -0.68    1.52
  -6   2   5   -2.62    1.48
  -6   2   5    1.16    1.69
  -6   2   4   18.02    2.04
  -6   2   4   15.74    2.63
  -6   2   4   15.65    1.11
   6  -2  -4   16.11    2.82
   6  -2  -4   17.00    2.54
   6  -2  -4   15.79    2.45
   6  -2  -4   11.61    1.03
  -6   2   4   11.24    1.84
  -6   2   4   15.27    2.10
  -6   2   3   -0.77    0.97
  -6   2   3    1.86    1.64
   6  -2  -3    1.76    1.55
  -6   2   3    2.29    0.99
   6  -2  -3   -0.13    1.10
   6  -2  -3    3.51    1.58
   6  -2  -3    0.69    0.64
  -6   2   3   -2.96    1.74
  -6   2   3   -0.11    0.93
  -6   2   2    9.70    1.60
  -6   2   2   11.09    2.23
   6  -2  -2    4.03    1.59
  -6   2   2   11.10    1.57
   6  -2  -2    9.22    1.89
   6  -2  -2    9.33    2.05
  -6   2   2    9.38    1.52
  -6   2   2    8.98    2.06
  -6   2   1  228.96    8.27
  -6   2   1  239.05    8.83
  -6   2   1  236.31    6.53
   6  -2  -1  250.60    8.61
   6  -2  -1  230.34    7.35
   6  -2  -1  219.17    8.18
  -6   2   1  244.53    6.63
  -6   2   1  245.15    6.90
  -6   2   0    1.04    1.73
  -6   2   0    0.94    1.07
  -6   2   0   -0.22    1.47
  -6   2   0    2.18    1.54
   6  -2   0    2.57    1.54
   6  -2   0    0.95    1.13
   6  -2   0   -0.42    1.42
  -6   2   0    0.27    0.79
  -6   2  -1  115.16    6.28
  -6   2  -1  132.88    6.74
  -6   2  -1  116.47    5.48
   6  -2   1  124.51    5.71
   6  -2   1  114.70    4.95
   6  -2   1  122.59    6.51
  -6   2  -1  118.70    4.62
  -6   2  -1  111.93    5.17
  -6   2  -2    3.20    1.88
  -6   2  -2    2.78    1.97
   6  -2   2    1.64    1.39
  -6   2  -2    5.16    1.96
   6  -2   2    2.67    1.34
   6  -2   2    1.59    1.76
   6  -2   2    4.39    1.98
  -6   2  -2    4.19    1.32
  -6   2  -3    0.59    1.60
   6  -2   3    0.35    1.36
  -6   2  -3    1.28    1.66
   6  -2   3   -0.01    0.95
   6  -2   3    3.58    2.02
   6  -2   3   -1.16    1.53
  -6   2  -3    1.62    1.80
  -6   2  -3   -0.82    0.88
  -6   2  -4   -0.33    0.98
   6  -2   4    0.52    1.49
  -6   2  -4   -0.73    1.47
   6  -2   4   -1.31    0.91
   6  -2   4    1.78    1.67
   6  -2   4   -2.03    2.17
  -6   2  -4   -3.17    1.85
   6  -2   5   36.60    3.92
  -6   2  -5   32.27    3.59
  -6   2  -5   30.10    3.80
   6  -2   5   33.82    2.48
   6  -2   5   29.14    3.92
   6  -2   5   30.80    4.00
  -6   2  -5   29.42    3.73
   6  -2   6    4.90    1.95
  -6   2  -6    2.09    1.65
  -6   2  -6    3.22    1.93
   6  -2   6    3.69    2.23
   6  -2   6    1.43    1.87
  -6   2  -6    3.63    1.91
   6  -2   7    6.13    2.37
  -6   2  -7    4.03    1.91
  -6   2  -7    4.71    2.03
   6  -2   7    3.85    2.52
   6  -2   7    8.35    2.69
  -6   2  -7    1.64    1.85
   6  -2   8   -1.29    1.61
  -6   2  -8   -0.85    1.87
  -6   2  -8    1.64    1.64
   6  -2   8    2.36    2.24
   6  -2   8    1.27    1.97
  -6   2  -8   -0.27    1.77
   6  -2   9   22.88    3.90
  -6   2  -9   11.92    3.07
  -6   2  -9   16.53    3.31
   6  -2   9   13.29    3.41
  -6   2  -9   15.90    3.20
   6  -2   9   18.01    3.74
   6  -2  10   37.20    4.89
  -6   2 -10   25.54    4.38
  -6   2 -10   37.61    4.92
  -6   2 -10   33.10    4.54
   6  -2  10   34.71    5.10
   6  -2  10   30.44    4.79
   6  -2  11    0.74    2.16
  -6   2 -11    4.47    2.49
  -6   2 -11    5.53    2.46
  -6   1  14    1.77    1.77
  -6   1  14    3.84    1.96
   6  -1 -14    3.21    2.36
   6  -1 -14   -2.88    2.73
  -6   1  13    4.34    2.15
   6  -1 -13    5.09    2.59
   6  -1 -13    4.56    2.68
  -6   1  13    6.05    2.57
   6  -1 -13    8.48    2.93
  -6   1  12    6.26    2.24
   6  -1 -12    9.21    2.83
   6  -1 -12    3.59    2.48
   6  -1 -12   -0.44    1.97
  -6   1  12    3.83    1.97
  -6   1  11   41.58    4.56
  -6   1  11   37.52    4.71
   6  -1 -11   38.75    4.86
   6  -1 -11   43.47    4.99
   6  -1 -11   35.54    4.63
  -6   1  11   42.83    4.30
  -6   1  10   -0.01    1.25
  -6   1  10   -0.43    1.32
   6  -1 -10    1.14    1.91
   6  -1 -10    2.16    2.17
   6  -1 -10   -1.07    2.26
  -6   1  10    0.89    1.60
  -6   1   9   16.93    2.60
  -6   1   9   17.40    2.88
   6  -1  -9   20.08    3.43
   6  -1  -9   19.75    3.26
  -6   1   9   19.71    3.21
  -6   1   8  100.93    6.20
  -6   1   8   92.00    6.40
   6  -1  -8   96.45    6.61
   6  -1  -8  101.20    6.73
  -6   1   8   99.79    5.54
  -6   1   7   26.47    2.32
  -6   1   7   25.97    3.23
   6  -1  -7   28.70    3.73
   6  -1  -7   29.99    3.66
  -6   1   7   29.74    3.66
  -6   1   7   29.67    3.01
  -6   1   6  211.05    6.93
  -6   1   6  218.51    8.45
  -6   1   6  204.98    8.93
   6  -1  -6  208.37    9.14
   6  -1  -6  219.91    8.87
   6  -1  -6  204.22    7.06
  -6   1   6  218.41    7.55
  -6   1   5   94.38    4.89
  -6   1   5   91.45    5.42
   6  -1  -5   86.80    5.84
   6  -1  -5   89.72    5.50
   6  -1  -5   83.84    4.70
   6  -1  -5   95.54    3.42
  -6   1   5   88.33    5.08
  -6   1   5   91.50    4.82
  -6   1   4   16.26    2.30
  -6   1   4   16.40    2.51
  -6   1   4   14.00    2.11
   6  -1  -4   17.68    2.86
   6  -1  -4   13.71    2.42
   6  -1  -4   13.68    2.18
   6  -1  -4   13.76    1.53
  -6   1   4   12.99    2.11
  -6   1   3    0.84    1.23
  -6   1   3    4.66    2.43
  -6   1   3   -0.24    1.19
   6  -1  -3    0.38    1.44
   6  -1  -3    1.54    1.47
   6  -1  -3    0.75    1.19
   6  -1  -3    0.83    0.83
  -6   1   3    1.08    1.13
  -6   1   2   23.20    2.55
  -6   1   2   27.52    3.26
  -6   1   2   22.65    2.89
   6  -1  -2   22.50    2.90
   6  -1  -2   21.08    2.71
   6  -1  -2   23.38    2.80
  -6   1   2   27.34    2.67
  -6   1   1   91.49    5.63
  -6   1   1   88.82    5.27
   6  -1  -1   85.66    5.11
   6  -1  -1   87.93    4.92
   6  -1  -1   87.99    5.27
  -6   1   1   88.60    4.53
  -6   1   1   93.27    4.91
  -6   1   0   89.38    5.83
  -6   1   0   94.73    5.55
   6  -1   0   91.08    5.11
   6  -1   0   84.44    4.66
   6  -1   0   90.46    5.39
  -6   1   0   84.99    4.49
  -6   1   0   91.02    5.05
  -6   1  -1    4.11    2.32
  -6   1  -1    0.62    1.36
  -6   1  -1   -0.91    1.33
   6  -1   1   -0.18    1.23
   6  -1   1    0.30    1.44
   6  -1   1    0.01    1.59
  -6   1  -1   -1.58    1.23
  -6   1  -2   -1.40    1.52
  -6   1  -2    3.62    1.95
   6  -1   2    4.13    1.86
   6  -1   2    0.57    1.17
   6  -1   2    2.29    1.91
   6  -1   2    0.90    1.48
  -6   1  -2    4.37    1.62
  -6   1  -3    7.37    2.68
   6  -1   3    2.00    1.64
  -6   1  -3    7.84    2.41
   6  -1   3    1.17    0.97
   6  -1   3   -0.45    1.73
   6  -1   3    2.23    1.56
  -6   1  -3    7.33    1.76
  -6   1  -4  171.00    8.28
   6  -1   4  176.31    8.43
  -6   1  -4  174.12    8.28
   6  -1   4  176.88    6.14
   6  -1   4  175.73    8.53
   6  -1   4  168.49    8.32
  -6   1  -4  172.34    7.21
  -6   1  -5    0.95    1.13
  -6   1  -5    0.98    1.75
   6  -1   5    2.39    1.82
  -6   1  -5    3.17    1.97
  -6   1  -5    0.98    1.69
   6  -1   5   -0.09    0.72
   6  -1   5    1.22    2.04
   6  -1   5    4.63    2.03
  -6   1  -6    8.68    2.64
   6  -1   6    7.74    2.37
  -6   1  -6    8.59    2.80
  -6   1  -6   11.02    2.43
   6  -1   6    3.93    1.98
   6  -1   6    5.73    2.43
   6  -1   7   22.28    3.73
  -6   1  -7   19.39    3.59
  -6   1  -7   25.14    3.93
   6  -1   7   16.36    3.42
   6  -1   7   18.57    3.74
  -6   1  -7   18.47    3.20
   6  -1   8    4.05    2.10
  -6   1  -8   -0.43    1.93
  -6   1  -8    2.04    1.88
   6  -1   8    1.36    1.84
   6  -1   8    3.26    2.32
  -6   1  -8    2.91    1.78
   6  -1   9   -3.81    2.21
  -6   1  -9   -2.87    2.28
  -6   1  -9    1.03    1.76
   6  -1   9    3.40    2.65
   6  -1   9    1.23    1.85
  -6   1  -9   -1.92    2.26
   6  -1  10    4.20    2.35
  -6   1 -10    1.63    2.38
  -6   1 -10   -0.94    1.76
   6  -1  10    2.19    2.50
   6  -1  10    3.72    2.74
  -6   1 -10   -1.02    1.73
   6   0 -15   -0.73    1.62
   6   0 -14    1.43    2.23
  -6   0  14    0.85    1.87
   6   0 -14   -2.36    2.59
  -6   0  14   -2.03    1.75
  -6   0  13   10.10    2.61
   6   0 -13    6.80    2.54
   6   0 -13    4.54    2.52
  -6   0  13    6.92    2.49
   6   0 -13    9.89    3.05
  -6   0  13    6.81    2.33
  -6   0  12    0.52    1.46
  -6   0  12   -0.04    1.23
   6   0 -12   -0.21    1.55
   6   0 -12   -1.30    2.03
   6   0 -12    0.44    1.84
  -6   0  12    2.83    2.00
  -6   0  11   -0.58    1.51
  -6   0  11   -0.01    1.22
   6   0 -11    0.69    1.70
   6   0 -11   -1.03    1.61
   6   0 -11    0.10    1.63
  -6   0  11    2.49    1.66
  -6   0  10   23.75    3.42
  -6   0  10   23.44    3.17
   6   0 -10   24.76    3.81
   6   0 -10   25.14    3.58
   6   0 -10   17.40    3.24
  -6   0  10   18.78    3.09
  -6   0   9    1.96    1.50
  -6   0   9    3.29    1.38
   6   0  -9    2.28    2.15
   6   0  -9    3.30    2.18
   6   0  -9    0.81    1.70
  -6   0   9    4.32    1.85
  -6   0   8   54.18    3.54
  -6   0   8   55.18    4.32
  -6   0   8   51.73    4.82
   6   0  -8   54.42    4.97
   6   0  -8   61.35    4.68
   6   0  -8   53.94    5.03
  -6   0   8   55.13    4.48
  -6   0   7  509.62   12.43
  -6   0   7  501.31   14.01
   6   0  -7  505.85   14.28
   6   0  -7  527.88   14.41
   6   0  -7  507.52    9.95
   6   0  -7  526.99    9.47
  -6   0   7  504.70   13.42
  -6   0   7  508.30   12.68
  -6   0   6  185.08    7.36
   6   0  -6  180.77    8.40
   6   0  -6  188.54    8.37
   6   0  -6  181.54    6.15
   6   0  -6  188.40    5.80
  -6   0   6  178.37    7.72
  -6   0   6  181.65    7.39
  -6   0   5   88.42    5.08
   6   0  -5   92.95    6.05
   6   0  -5   91.15    5.80
   6   0  -5   91.35    4.52
   6   0  -5   89.38    4.11
  -6   0   5   89.81    5.33
  -6   0   5   90.75    5.29
  -6   0   4    2.49    1.47
  -6   0   4    4.62    1.55
   6   0  -4    4.36    1.98
   6   0  -4    2.88    1.67
   6   0  -4    3.34    1.46
   6   0  -4    3.43    1.17
  -6   0   4    3.66    1.43
  -6   0   3   12.87    2.25
  -6   0   3   14.20    2.24
   6   0  -3   12.65    2.57
   6   0  -3   13.54    2.32
   6   0  -3   14.93    2.17
   6   0  -3   11.99    1.86
  -6   0   3   15.11    2.39
  -6   0   2   10.31    2.23
  -6   0   2    7.12    1.83
   6   0  -2    8.51    2.32
   6   0  -2    9.68    2.06
   6   0  -2    7.91    1.91
  -6   0   2    9.33    1.97
  -6   0   1    5.77    1.67
  -6   0   1    6.33    1.85
   6   0  -1    6.74    1.91
   6   0  -1    6.14    2.02
   6   0  -1    6.54    1.71
   6   0  -1    7.95    2.05
  -6   0   1    6.49    1.62
  -6   0   0   15.97    2.79
  -6   0   0   17.26    2.66
   6   0   0   14.17    2.29
   6   0   0   13.48    2.13
   6   0   0   12.38    2.40
   6   0   0   17.42    2.49
  -6   0   0   15.25    2.28
  -6   0  -1    0.80    1.68
   6   0   1   -2.00    1.51
   6   0   1    0.18    1.66
   6   0   1    0.72    1.41
  -6   0  -1   -1.46    1.19
   6   0   2  186.00    8.51
   6   0   2  200.14    7.34
   6   0   2  193.89    8.09
   6   0   2  192.88    8.46
  -6   0  -2  190.48    7.74
  -6   0  -2  180.95    8.18
  -6   0  -3   24.04    3.29
   6   0   3   26.13    3.69
   6   0   3   27.63    2.80
   6   0   3   22.40    3.47
   6   0   3   26.30    3.47
  -6   0  -3   29.09    3.41
  -6   0  -4  372.00   12.60
   6   0   4  400.73   13.08
   6   0   4  401.19    9.80
   6   0   4  398.93   13.29
   6   0   4  408.04   12.72
  -6   0  -4  401.38   11.99
  -6   0  -5   -0.13    1.34
  -6   0  -5    3.87    2.62
   6   0   5    1.26    1.47
  -6   0  -5    3.67    2.22
  -6   0  -5    2.74    1.81
   6   0   5    1.21    1.82
   6   0   5    2.87    2.11
  -6   0  -6   14.37    3.10
   6   0   6   10.84    2.71
  -6   0  -6    8.46    2.79
  -6   0  -6   11.79    2.82
   6   0   6    8.83    2.92
   6   0   6    6.16    2.56
  -6   0  -7   -0.39    1.85
   6   0   7    0.42    1.39
  -6   0  -7   -0.66    1.84
  -6   0  -7   -1.91    2.14
   6   0   7    1.49    2.02
   6   0   7    1.13    2.03
  -6   0  -8    2.19    2.08
   6   0   8    1.26    1.95
  -6   0  -8    1.34    2.15
  -6   0  -8    2.86    2.18
   6   0   8    2.13    2.44
   6   0   8    1.60    1.96
   6   0   9    1.52    2.13
  -6   0  -9   -2.36    2.43
  -6   0  -9   -0.43    1.70
   6   0   9    2.74    2.28
   6   0   9    0.36    2.02
  -6   0  -9    3.16    1.86
  -6   0 -10    2.23    1.77
   6   1 -15    6.30    3.06
   6   1 -15    0.45    1.70
  -6  -1  15    2.51    2.15
  -6  -1  15    2.11    1.99
  -6  -1  14   11.87    2.92
   6   1 -14    7.50    2.64
   6   1 -14    4.84    2.49
  -6  -1  14    8.31    2.60
  -6  -1  13    3.35    2.16
   6   1 -13    2.07    1.94
   6   1 -13    3.35    2.23
   6   1 -13    4.10    2.73
  -6  -1  13    3.75    1.93
  -6  -1  12   14.51    3.17
   6   1 -12    5.96    2.19
   6   1 -12   13.47    3.23
   6   1 -12   13.87    3.06
  -6  -1  12   14.19    3.09
  -6  -1  11    5.73    2.10
  -6  -1  11    7.34    1.84
   6   1 -11    7.40    2.33
   6   1 -11    7.04    2.56
   6   1 -11   10.27    2.91
  -6  -1  11    6.65    2.10
  -6  -1  10    1.07    1.41
  -6  -1  10    1.58    1.07
   6   1 -10    3.58    1.72
   6   1 -10    4.91    2.26
   6   1 -10    2.73    2.08
  -6  -1  10    4.14    1.86
  -6  -1   9   59.47    4.28
  -6  -1   9   59.31    5.16
   6   1  -9   61.78    5.48
   6   1  -9   57.99    4.61
   6   1  -9   57.84    5.40
  -6  -1   9   59.60    4.96
  -6  -1   8  115.67    5.73
  -6  -1   8  110.76    6.79
   6   1  -8  112.94    7.11
   6   1  -8  113.56    5.84
   6   1  -8  116.46    7.18
   6   1  -8  115.03    5.25
  -6  -1   8  107.99    6.66
  -6  -1   8  106.50    6.41
  -6  -1   7   25.11    2.77
   6   1  -7   22.49    2.55
   6   1  -7   23.45    3.44
   6   1  -7   22.17    3.30
   6   1  -7   26.16    2.66
  -6  -1   7   22.29    3.19
  -6  -1   7   29.20    3.62
  -6  -1   6  238.63    7.88
   6   1  -6  227.51    9.59
   6   1  -6  239.75    7.00
   6   1  -6  228.07    9.38
   6   1  -6  243.19    6.53
   6   1  -6  227.95    7.43
  -6  -1   6  223.18    8.94
  -6  -1   6  222.96    8.83
  -6  -1   5   39.21    3.28
   6   1  -5   37.43    4.10
   6   1  -5   43.75    2.89
   6   1  -5   32.22    3.60
   6   1  -5   40.15    2.95
   6   1  -5   40.66    3.25
  -6  -1   5   32.21    3.52
  -6  -1   5   39.03    3.89
  -6  -1   4    9.90    2.43
  -6  -1   4   11.30    1.82
   6   1  -4   11.49    2.54
   6   1  -4   13.49    2.58
   6   1  -4   13.62    1.93
   6   1  -4   13.84    2.15
  -6  -1   4   12.89    2.29
  -6  -1   3   42.93    3.52
   6   1  -3   33.62    3.66
   6   1  -3   42.44    4.03
   6   1  -3   34.91    2.98
   6   1  -3   36.64    3.18
   6   1  -3   41.51    3.48
  -6  -1   3   41.05    3.89
  -6  -1   3   38.40    3.89
  -6  -1   2   37.80    3.47
   6   1  -2   32.36    3.46
   6   1  -2   37.87    3.70
   6   1  -2   33.12    3.00
   6   1  -2   34.52    3.38
   6   1  -2   41.39    3.60
  -6  -1   2   35.02    3.60
  -6  -1   2   35.24    3.67
  -6  -1   1   15.73    2.65
   6   1  -1   15.30    2.50
   6   1  -1   19.18    2.94
   6   1  -1   16.90    2.69
   6   1  -1   14.13    2.13
  -6  -1   1   15.32    2.48
  -6  -1   0    7.41    2.40
   6   1   0    1.05    1.40
   6   1   0    3.71    1.85
   6   1   0    4.87    1.82
  -6  -1   0    1.41    1.45
  -6  -1  -1    5.51    2.11
   6   1   1    5.35    1.70
   6   1   1    7.57    2.15
   6   1   1    8.17    1.94
  -6  -1  -1    5.80    1.79
   6   1   2   66.72    5.45
   6   1   2   65.75    4.59
   6   1   2   60.15    5.18
   6   1   2   60.84    4.76
  -6  -1  -2   56.59    4.75
  -6  -1  -2   62.32    5.24
   6   1   3   42.77    4.68
   6   1   3   35.94    3.36
   6   1   3   41.20    4.59
   6   1   3   42.60    4.20
  -6  -1  -3   37.97    4.03
  -6  -1  -3   33.32    4.02
  -6  -1  -4    1.74    1.51
   6   1   4    2.60    2.01
  -6  -1  -4    5.96    2.26
   6   1   4    3.09    1.40
   6   1   4    6.72    2.57
   6   1   4    1.96    2.11
  -6  -1  -4    3.11    1.59
  -6  -1  -5    0.61    1.38
   6   1   5    4.81    2.60
  -6  -1  -5    0.46    1.50
   6   1   5    3.53    2.66
   6   1   5    1.81    1.89
  -6  -1  -6    0.27    1.40
  -6  -1  -6    7.10    2.57
   6   1   6   -0.64    2.08
  -6  -1  -6    5.60    2.80
  -6  -1  -6   -1.27    1.92
   6   1   6    4.66    2.55
   6   1   6    0.68    1.80
  -6  -1  -7    6.76    2.65
   6   1   7    9.32    2.93
  -6  -1  -7   10.61    3.19
  -6  -1  -7    1.92    1.85
   6   1   7   10.18    3.77
   6   1   7    3.61    2.08
  -6  -1  -8   -0.61    1.89
   6   1   8    3.58    2.41
  -6  -1  -8    3.13    2.43
  -6  -1  -8    2.22    2.05
   6   1   8    1.63    2.34
   6   1   8   -1.20    2.11
  -6  -1  -9    5.35    2.30
  -6  -2  15   -1.32    2.09
   6   2 -15   -3.11    2.00
   6   2 -15   -0.66    1.95
  -6  -2  15   -0.71    1.62
  -6  -2  14   11.39    3.31
  -6  -2  14   17.25    3.66
   6   2 -14   10.73    3.02
   6   2 -14    9.81    2.85
  -6  -2  14    6.95    2.33
   6   2 -14    9.36    3.27
  -6  -2  13    6.41    2.42
  -6  -2  13    8.35    3.04
   6   2 -13    5.90    2.64
   6   2 -13    6.16    2.76
   6   2 -13    5.15    2.81
  -6  -2  13    3.90    1.76
  -6  -2  12    1.58    1.69
   6   2 -12    8.16    2.51
   6   2 -12    3.81    2.37
   6   2 -12    3.12    2.27
  -6  -2  12    5.89    2.26
  -6  -2  11   10.39    2.73
   6   2 -11   11.06    2.56
   6   2 -11    5.65    2.17
   6   2 -11    6.58    2.78
  -6  -2  11    5.77    2.00
  -6  -2  10   -0.84    1.84
   6   2 -10    2.74    1.59
   6   2 -10    0.56    1.53
   6   2 -10    2.97    2.00
  -6  -2  10    0.84    1.52
  -6  -2  10    3.34    1.98
  -6  -2   9   31.20    4.03
  -6  -2   9   39.17    3.11
  -6  -2   9   31.08    3.75
   6   2  -9   39.19    4.49
   6   2  -9   32.65    3.33
   6   2  -9   42.47    4.74
   6   2  -9   33.32    3.35
  -6  -2   9   36.19    4.27
  -6  -2   8   35.91    3.00
   6   2  -8   36.49    4.18
   6   2  -8   34.71    3.07
   6   2  -8   39.01    4.44
   6   2  -8   35.46    3.42
  -6  -2   8   34.43    4.00
  -6  -2   8   34.37    4.14
  -6  -2   7   54.03    3.57
   6   2  -7   46.77    4.68
   6   2  -7   51.04    3.25
   6   2  -7   47.08    4.68
   6   2  -7   44.90    3.77
  -6  -2   7   42.97    4.50
  -6  -2   7   48.50    4.57
  -6  -2   6   11.17    2.52
  -6  -2   6   12.65    1.88
   6   2  -6   10.90    2.44
   6   2  -6   12.41    2.76
   6   2  -6   11.27    1.97
  -6  -2   6   12.60    2.70
  -6  -2   5   -1.15    1.53
  -6  -2   5    1.49    1.15
   6   2  -5   -0.94    1.67
   6   2  -5   -0.04    1.37
   6   2  -5    0.46    0.72
   6   2  -5   -0.22    1.17
   6   2  -5    1.51    1.08
  -6  -2   5    0.73    1.57
  -6  -2   4  154.83    6.28
   6   2  -4  149.40    7.81
   6   2  -4  150.33    7.65
   6   2  -4  148.28    5.10
   6   2  -4  149.24    5.79
   6   2  -4  151.84    6.89
  -6  -2   4  143.40    7.42
  -6  -2   4  142.64    7.34
  -6  -2   3   33.54    3.79
   6   2  -3   27.80    3.53
   6   2  -3   32.66    3.75
   6   2  -3   28.79    2.50
   6   2  -3   31.74    2.94
   6   2  -3   34.52    3.53
  -6  -2   3   27.00    3.58
   6   2  -2   67.64    5.26
   6   2  -2   72.98    5.28
   6   2  -2   67.79    3.97
   6   2  -2   69.20    4.62
   6   2  -2   68.57    4.99
  -6  -2   2   66.06    5.06
  -6  -2   2   67.35    5.30
  -6  -2   1    2.47    1.87
   6   2  -1    3.76    1.83
   6   2  -1    2.60    1.82
   6   2  -1    4.52    2.11
   6   2  -1    2.98    1.43
  -6  -2   1    2.61    1.63
  -6  -2   0   19.99    3.46
   6   2   0   24.00    3.16
   6   2   0   22.61    2.80
   6   2   0   24.73    3.25
  -6  -2   0   20.45    3.15
  -6  -2  -1    7.30    2.30
   6   2   1   10.34    2.14
   6   2   1   11.84    2.63
   6   2   1   10.29    2.24
  -6  -2  -1    8.18    2.30
  -6  -2  -2   26.91    3.94
   6   2   2   25.57    3.13
   6   2   2   29.07    3.56
   6   2   2   27.59    3.90
  -6  -2  -2   29.10    3.95
  -6  -2  -3   -1.58    2.02
   6   2   3    2.66    1.90
   6   2   3    2.51    1.39
   6   2   3    3.93    2.47
   6   2   3    0.51    1.92
  -6  -2  -3    1.70    1.66
  -6  -2  -4   -2.71    2.35
   6   2   4   -0.08    1.53
   6   2   4    0.55    1.01
   6   2   4    0.87    1.86
   6   2   4   -0.49    1.67
  -6  -2  -4    1.87    2.06
  -6  -2  -5    2.32    1.90
   6   2   5    2.57    2.07
  -6  -2  -5    4.20    2.44
   6   2   5    2.25    2.30
   6   2   5    5.11    2.23
  -6  -2  -6    4.29    2.25
   6   2   6    4.04    1.79
  -6  -2  -6    7.64    2.78
   6   2   6    9.43    2.98
   6   2   6    6.64    2.70
  -6  -2  -7   47.71    5.47
   6   2   7   48.99    5.65
  -6  -2  -7   51.76    6.24
  -6  -2  -7   52.68    6.06
   6   2   7   48.74    6.03
   6   2   7   50.25    5.67
  -6  -2  -8    4.59    3.02
   6   2   8    0.44    1.91
  -6  -3  15   25.60    4.40
   6   3 -15   15.83    3.55
  -6  -3  14   25.67    4.28
  -6  -3  14   24.18    4.32
   6   3 -14   21.88    3.89
  -6  -3  13    0.89    2.10
  -6  -3  13    8.32    3.33
   6   3 -13    5.16    2.28
   6   3 -13    0.97    1.87
  -6  -3  13    1.98    1.73
  -6  -3  13    3.01    2.47
  -6  -3  12   -2.02    2.48
   6   3 -12    3.10    1.78
   6   3 -12    4.09    2.33
  -6  -3  12    5.72    2.00
  -6  -3  12    1.15    1.74
  -6  -3  11   12.27    3.03
   6   3 -11    9.39    2.53
   6   3 -11    9.38    2.81
  -6  -3  11   11.92    2.57
  -6  -3  11   17.23    3.53
  -6  -3  10   39.47    4.23
   6   3 -10   35.10    4.45
   6   3 -10   39.69    4.83
   6   3 -10   42.13    4.11
  -6  -3  10   45.62    5.06
  -6  -3  10   43.41    4.88
  -6  -3   9   10.52    3.10
   6   3  -9    6.95    2.22
   6   3  -9    9.66    2.68
   6   3  -9   13.01    2.48
  -6  -3   9   11.98    2.66
  -6  -3   8   13.83    2.99
   6   3  -8    9.37    2.45
   6   3  -8   12.35    3.02
   6   3  -8   15.66    2.59
  -6  -3   8   15.74    3.11
  -6  -3   7    2.02    1.84
   6   3  -7   -1.04    2.00
   6   3  -7   -0.01    1.66
   6   3  -7    0.87    1.22
  -6  -3   7    2.69    2.02
  -6  -3   6   -0.11    1.63
   6   3  -6   -1.23    1.98
   6   3  -6   -0.71    1.40
   6   3  -6   -1.95    1.34
  -6  -3   6   -0.71    1.60
  -6  -3   5   -1.75    1.59
   6   3  -5    0.98    1.55
   6   3  -5   -0.45    1.91
   6   3  -5    0.88    1.30
  -6  -3   5   -0.30    1.50
  -6  -3   4   10.28    2.73
   6   3  -4    6.97    2.34
   6   3  -4    9.06    2.46
   6   3  -4    6.86    1.70
   6   3  -4    5.72    1.87
  -6  -3   4    3.96    1.81
   6   3  -3   38.18    4.31
   6   3  -3   45.10    4.61
   6   3  -3   47.48    3.84
   6   3  -3   41.59    4.17
  -6  -3   3   39.30    4.30
  -6  -3   3   40.20    4.37
  -6  -3   2    5.60    2.08
   6   3  -2    4.48    1.88
   6   3  -2    5.30    1.95
   6   3  -2    3.32    1.61
  -6  -3   2    2.36    1.83
  -6  -3   1   -0.58    1.74
   6   3  -1    1.25    1.40
   6   3  -1    1.18    1.54
   6   3  -1    2.34    1.40
   6   3  -1   -0.17    1.37
  -6  -3   1    0.76    1.43
  -6  -3   0    2.94    2.37
   6   3   0    1.36    1.35
   6   3   0    4.19    1.97
   6   3   0    3.03    2.01
   6   3   0    4.52    1.67
  -6  -3   0    4.22    1.75
   6   3   1   64.21    5.20
   6   3   1   63.26    5.41
   6   3   1   66.94    4.85
  -6  -3  -1   58.29    5.46
  -6  -3  -1   56.01    5.75
  -6  -3  -2    0.78    1.62
   6   3   2    0.62    1.28
   6   3   2    5.41    2.39
   6   3   2    2.28    1.58
  -6  -3  -2    0.84    1.72
  -6  -3  -3    0.32    1.85
  -6  -3  -3    2.36    1.94
   6   3   3    2.53    1.52
   6   3   3    1.07    1.99
   6   3   3    1.74    1.49
  -6  -3  -3    0.37    1.73
  -6  -3  -4   -0.14    2.06
   6   3   4    1.03    1.63
  -6  -3  -4    2.50    2.39
   6   3   4    2.70    1.37
   6   3   4    1.71    1.81
   6   3   4    0.94    1.59
  -6  -3  -4    1.41    1.78
  -6  -3  -5   -0.04    1.64
   6   3   5    3.85    2.37
  -6  -3  -5    1.25    1.88
   6   3   5    0.92    2.15
   6   3   5    1.64    1.83
  -6  -3  -6    1.34    1.90
   6   3   6    2.63    2.38
  -6  -3  -6   -0.42    1.75
   6   3   6   -3.09    2.94
   6   3   6   -1.17    1.85
   6   3   7    6.45    2.63
   6   4 -15   13.81    3.37
  -6  -4  14   16.81    4.50
   6   4 -14    9.88    2.93
  -6  -4  13   -1.48    2.26
   6   4 -13    1.17    1.88
   6   4 -13    0.71    2.41
  -6  -4  13    2.63    2.34
  -6  -4  12    1.71    2.12
   6   4 -12    3.50    2.24
   6   4 -12    1.46    2.00
  -6  -4  12    0.71    1.28
  -6  -4  12    1.24    1.66
  -6  -4  11    2.68    2.03
   6   4 -11    4.71    2.29
   6   4 -11   -3.03    2.10
  -6  -4  11   -1.50    1.60
  -6  -4  11    1.59    2.13
   6   4 -10   80.10    6.69
   6   4 -10   82.88    6.72
   6   4 -10   79.53    6.12
  -6  -4  10   82.06    6.95
  -6  -4  10   82.01    6.91
  -6  -4   9    6.50    2.31
   6   4  -9   11.42    2.82
   6   4  -9    5.95    2.58
   6   4  -9    3.93    1.80
  -6  -4   9    9.27    3.00
  -6  -4   8   16.24    3.35
   6   4  -8   16.47    3.26
   6   4  -8   14.41    3.12
   6   4  -8   14.00    2.65
  -6  -4   8    9.62    2.66
  -6  -4   7    3.98    2.35
   6   4  -7    3.66    1.96
   6   4  -7    2.10    1.71
   6   4  -7    4.34    2.14
  -6  -4   7    1.16    1.71
  -6  -4   6    8.27    2.36
   6   4  -6   10.68    2.88
   6   4  -6   10.06    2.88
   6   4  -6    9.13    2.23
  -6  -4   6   12.88    2.93
  -6  -4   5   22.20    3.53
   6   4  -5   23.17    3.60
   6   4  -5   27.00    4.08
   6   4  -5   29.58    3.69
  -6  -4   5   23.08    3.62
  -6  -4   4   17.10    3.50
   6   4  -4   11.70    2.89
   6   4  -4   11.93    2.54
  -6  -4   4   14.80    3.35
  -6  -4   3   -0.50    1.85
   6   4  -3    0.24    1.60
   6   4  -3    0.94    1.43
   6   4  -3    0.49    1.33
  -6  -4   3   -0.18    1.67
  -6  -4   2    2.17    1.80
   6   4  -2    5.82    1.94
   6   4  -2    8.72    2.10
   6   4  -2    7.30    2.29
  -6  -4   2    7.60    2.45
  -6  -4   1   13.37    3.20
   6   4  -1   12.33    2.59
   6   4  -1   17.09    3.15
   6   4  -1   14.22    2.99
  -6  -4   1   18.75    3.53
   6   4   0   67.96    5.71
   6   4   0   57.25    5.24
   6   4   0   61.91    5.85
  -6  -4   0   52.67    5.52
  -6  -4   0   57.64    5.85
   6   4   1   48.90    4.92
   6   4   1   47.65    5.09
   6   4   1   49.13    5.28
  -6  -4  -1   47.56    5.46
  -6  -4  -1   47.17    5.49
  -6  -4  -2    3.22    2.01
   6   4   2    1.60    1.57
   6   4   2    1.11    1.75
   6   4   2    3.98    2.31
  -6  -4  -2    0.77    1.96
  -6  -4  -3    1.15    2.00
  -6  -4  -3    4.28    2.63
   6   4   3    0.28    1.63
   6   4   3    1.11    1.98
  -6  -4  -3    4.95    2.33
  -6  -4  -4   -4.15    2.51
  -6  -4  -4    3.51    2.22
   6   4   4   -3.11    2.62
   6   4   4    1.94    2.00
  -6  -4  -4    1.89    2.55
   6   4   5    7.63    2.72
   6   4   5    5.34    2.27
   6   4   6    6.11    2.93
   6   5 -13    1.85    1.83
  -6  -5  12    1.89    2.89
   6   5 -12    2.03    1.87
   6   5 -12    4.18    2.26
  -6  -5  12    2.53    2.18
  -6  -5  11    4.46    2.47
   6   5 -11    6.11    2.50
   6   5 -11    2.79    2.39
   6   5 -11    5.07    1.95
  -6  -5  11    4.36    2.86
  -6  -5  10   28.87    4.53
   6   5 -10   26.26    4.16
   6   5 -10   19.43    3.68
   6   5 -10   25.71    3.92
  -6  -5  10   22.05    4.10
  -6  -5   9   31.93    4.63
   6   5  -9   35.23    4.68
   6   5  -9   33.13    4.51
   6   5  -9   29.07    4.01
  -6  -5   9   31.10    4.69
  -6  -5   8   20.37    3.96
   6   5  -8   26.14    4.08
   6   5  -8   14.42    3.19
   6   5  -8   22.65    3.61
  -6  -5   8   23.89    3.94
   6   5  -7   64.86    6.11
   6   5  -7   63.68    6.02
   6   5  -7   58.87    5.67
  -6  -5   7   52.15    5.53
  -6  -5   7   68.97    6.48
  -6  -5   6    9.60    3.21
   6   5  -6    9.68    2.73
   6   5  -6   10.26    2.88
   6   5  -6    8.70    2.21
  -6  -5   6    6.85    2.77
   6   5  -5  144.65    8.93
   6   5  -5  147.59    8.63
  -6  -5   5  144.28    8.89
  -6  -5   5  144.06    8.97
  -6  -5   4    7.16    2.50
   6   5  -4    3.65    1.96
   6   5  -4    7.48    2.37
  -6  -5   4    1.76    1.77
  -6  -5   3    2.17    1.94
   6   5  -3    0.37    1.46
   6   5  -3    1.15    1.81
  -6  -5   3    1.18    1.62
  -6  -5   2    8.62    2.98
   6   5  -2    9.32    2.80
   6   5  -2    8.48    2.76
  -6  -5   2    7.71    2.75
  -6  -5   1   13.21    3.42
   6   5  -1    9.10    2.59
   6   5  -1   11.76    2.93
  -6  -5   1    9.91    3.12
  -6  -5   0    4.54    2.81
   6   5   0    8.30    2.79
   6   5   0    5.71    2.36
  -6  -5   0    4.62    2.19
  -6  -5  -1   -0.10    1.74
   6   5   1    2.32    2.13
   6   5   1    3.91    2.70
  -6  -5  -1    5.25    2.54
  -6  -5  -2   -3.20    2.61
  -6  -5  -2   -0.39    2.12
   6   5   2   -0.91    1.42
   6   5   2    3.15    2.28
  -6  -5  -2    3.84    2.97
   6   5   3   -0.08    1.57
   6   6 -11    0.34    1.63
   6   6 -11    1.73    2.18
   6   6 -11   -0.09    1.59
  -6  -6  10   12.43    3.70
   6   6 -10   10.24    2.94
   6   6 -10   11.81    3.25
   6   6 -10    8.97    2.64
  -6  -6  10   13.52    3.38
  -6  -6   9    5.54    2.76
   6   6  -9    2.79    2.09
   6   6  -9    0.60    2.19
   6   6  -9    2.59    1.77
  -6  -6   9    0.74    2.02
  -6  -6   8    3.64    2.83
   6   6  -8    5.32    2.84
   6   6  -8    2.19    1.72
   6   6  -8   -1.07    1.48
  -6  -6   8    1.98    2.14
   6   6  -7  169.55   10.12
   6   6  -7  182.56   10.28
  -6  -6   7  176.10   10.50
  -6  -6   7  178.34   10.46
  -6  -6   6    6.49    2.76
   6   6  -6    8.53    2.80
   6   6  -6    4.22    2.16
  -6  -6   6   10.82    2.93
   6   6  -5  133.23    9.07
   6   6  -5  133.01    8.86
  -6  -6   5  129.93    9.03
  -6  -6   5  137.96    9.22
  -6  -6   4    2.64    2.52
   6   6  -4    3.89    2.17
   6   6  -4    4.59    2.33
  -6  -6   4    3.91    2.42
  -6  -6   3    6.41    2.73
   6   6  -3    8.08    2.79
   6   6  -3    5.78    2.41
  -6  -6   3    6.69    2.85
  -6  -6   2    2.62    2.30
   6   6  -2   -0.65    1.88
   6   6  -2    0.78    1.54
  -6  -6   2   -1.40    2.28
  -6  -6   1    4.54    2.91
   6   6  -1    1.48    1.86
   6   6  -1    2.26    2.85
  -6  -6   1   -0.51    2.06
   6   6   0    1.74    2.25
   6   6   1   10.43    3.17
  -7  10  -2   11.22    3.28
  -7  10  -3    1.38    1.70
  -7  10  -3   -0.30    1.77
  -7  10  -4    9.53    2.69
   7 -10   4    8.41    2.52
  -7   9   2    1.28    1.77
  -7   9   1   12.25    3.18
  -7   9   1    6.69    2.41
  -7   9   1    8.17    2.85
  -7   9   0    2.11    1.93
  -7   9   0    2.24    2.15
  -7   9   0    1.95    2.14
   7  -9   0   -2.38    2.61
   7  -9   1   -0.62    2.22
  -7   9  -1    4.45    2.25
  -7   9  -1    3.23    2.82
   7  -9   1    0.23    1.95
  -7   9  -1   -0.46    1.62
   7  -9   2    1.13    2.65
  -7   9  -2    3.72    2.20
  -7   9  -2    5.93    2.79
  -7   9  -2    2.40    2.27
   7  -9   2    1.63    2.15
   7  -9   3    5.89    2.55
  -7   9  -3   10.28    2.88
  -7   9  -3   10.06    3.20
   7  -9   3   11.12    3.08
   7  -9   3    8.37    3.09
  -7   9  -3    8.54    2.46
   7  -9   4    3.31    2.17
  -7   9  -4    2.20    1.70
  -7   9  -4    2.47    2.21
   7  -9   4    0.66    1.85
   7  -9   4   -0.93    2.12
   7  -9   5   42.55    5.68
  -7   9  -5   37.99    4.79
  -7   9  -5   36.70    5.11
   7  -9   5   42.40    5.49
  -7   9  -6   -0.03    1.53
  -7   9  -7   11.87    3.05
   7  -8  -6    5.91    2.70
   7  -8  -5    7.17    3.29
  -7   8   5    4.50    2.09
   7  -8  -4    4.96    2.87
  -7   8   4    2.90    1.84
   7  -8  -3    1.10    2.27
  -7   8   3    3.27    2.16
   7  -8  -3    0.51    2.14
  -7   8   3    0.76    1.90
   7  -8  -2    3.14    2.49
  -7   8   2    2.38    1.83
  -7   8   2    4.26    2.24
   7  -8  -2    2.72    2.51
  -7   8   2    3.08    1.93
   7  -8  -1    8.69    2.85
  -7   8   1    8.56    2.68
  -7   8   1    6.31    2.62
  -7   8   1    8.45    2.79
   7  -8  -1    6.91    2.70
  -7   8   1    3.97    1.84
   7  -8   0   -4.50    2.86
  -7   8   0    1.17    1.64
  -7   8   0    0.43    1.88
   7  -8   0    3.62    2.54
  -7   8   0    0.25    2.08
   7  -8   1    2.57    2.44
  -7   8  -1    2.21    1.78
  -7   8  -1    0.89    1.73
   7  -8   1    1.73    1.83
  -7   8  -1    1.99    1.76
   7  -8   2    6.04    2.83
  -7   8  -2    7.70    2.46
  -7   8  -2   11.46    2.89
   7  -8   2    6.18    2.25
  -7   8  -2    5.84    2.03
   7  -8   3    3.81    2.34
  -7   8  -3    6.50    2.30
  -7   8  -3    3.84    2.41
   7  -8   3    6.29    2.62
   7  -8   3    6.43    2.49
  -7   8  -3    3.24    1.66
   7  -8   4   -3.02    2.46
  -7   8  -4    2.98    1.97
  -7   8  -4    2.63    2.44
   7  -8   4    0.95    1.61
   7  -8   4   -0.34    1.73
   7  -8   5    0.63    2.13
  -7   8  -5    4.13    2.00
  -7   8  -5    3.80    2.27
   7  -8   5    1.98    1.74
   7  -8   5    5.70    2.88
   7  -8   6    3.04    2.50
  -7   8  -6   -0.41    1.58
  -7   8  -6    1.85    1.99
   7  -8   6    2.89    2.40
   7  -8   7   -0.20    2.68
  -7   8  -7    2.69    1.89
  -7   8  -7    0.82    2.24
   7  -8   7    2.82    2.42
   7  -8   7    1.98    2.23
   7  -8   8    6.07    2.65
  -7   8  -8    0.78    1.58
  -7   8  -8    4.71    2.19
   7  -8   8    7.31    2.90
   7  -8   8    5.40    2.78
   7  -8   9   10.69    3.51
  -7   8  -9   13.83    3.26
   7  -7  -7    2.60    2.06
  -7   7   6   -1.16    1.64
   7  -7  -6   -1.39    1.93
   7  -7  -5    6.09    2.85
  -7   7   5    1.38    1.74
   7  -7  -5    2.14    2.73
  -7   7   5    2.13    1.76
   7  -7  -5    4.49    1.80
   7  -7  -4   -0.93    2.13
  -7   7   4   -0.79    1.74
   7  -7  -4    0.18    1.83
  -7   7   4   -0.04    1.54
   7  -7  -4    1.31    1.61
   7  -7  -3    4.36    2.64
  -7   7   3    4.54    2.15
  -7   7   3    0.21    1.70
   7  -7  -3    1.24    2.12
  -7   7   3    3.03    1.35
   7  -7  -2    9.56    2.90
  -7   7   2    5.23    2.20
  -7   7   2    7.48    2.22
   7  -7  -2    9.61    2.80
  -7   7   2    8.95    2.52
   7  -7  -1   11.43    3.67
  -7   7   1    9.37    2.69
  -7   7   1   14.34    2.74
   7  -7  -1    9.47    3.08
  -7   7   1   11.17    2.57
   7  -7   0   11.22    3.28
  -7   7   0    5.56    2.25
  -7   7   0    3.17    1.57
   7  -7   0   11.73    2.89
  -7   7   0   10.12    2.64
  -7   7   0    6.92    1.98
   7  -7   1   31.81    4.61
  -7   7  -1   26.34    3.87
  -7   7  -1   23.53    3.40
  -7   7  -1   25.12    3.83
   7  -7   1   32.19    4.13
  -7   7  -1   25.75    3.19
   7  -7   2    1.89    2.23
  -7   7  -2    5.36    2.20
   7  -7   2    5.89    2.37
  -7   7  -2    2.55    2.23
  -7   7  -2    3.73    1.82
   7  -7   2    0.48    2.04
  -7   7  -2    3.41    1.47
   7  -7   3    3.92    2.38
  -7   7  -3    4.11    1.88
   7  -7   3    7.84    2.41
  -7   7  -3    5.32    2.32
   7  -7   3    3.81    2.55
   7  -7   4   12.95    3.35
  -7   7  -4    7.66    2.28
   7  -7   4    5.40    1.88
  -7   7  -4    7.95    2.62
   7  -7   4   10.24    3.15
   7  -7   5    5.24    2.59
  -7   7  -5    4.76    1.84
   7  -7   5    6.73    2.06
  -7   7  -5    4.62    1.86
  -7   7  -5    4.77    2.28
   7  -7   5    4.63    2.22
   7  -7   6    6.62    2.81
  -7   7  -6    1.58    1.86
  -7   7  -6    0.74    1.54
  -7   7  -6    5.14    2.57
   7  -7   6   -0.08    1.75
   7  -7   6    1.65    2.19
   7  -7   7   40.59    5.00
  -7   7  -7   36.93    4.82
  -7   7  -7   33.91    4.35
  -7   7  -7   31.74    4.65
   7  -7   7   33.99    4.85
   7  -7   7   34.16    4.91
   7  -7   8   46.08    5.53
  -7   7  -8   45.01    5.11
  -7   7  -8   43.82    5.11
   7  -7   8   42.09    5.68
   7  -7   8   40.05    5.40
  -7   7  -8   42.37    5.49
  -7   7  -9    6.24    2.54
  -7   7  -9    9.73    3.04
   7  -7   9    0.52    1.89
   7  -7   9    8.90    2.86
  -7   7 -10    7.29    2.70
  -7   6   8    4.08    2.21
   7  -6  -8    6.62    2.67
  -7   6   7   -0.20    1.73
   7  -6  -7    6.62    2.88
  -7   6   7    1.86    1.84
   7  -6  -7   -0.14    2.02
  -7   6   6    2.66    2.25
   7  -6  -6    2.33    2.06
  -7   6   6    2.85    2.37
   7  -6  -6    2.84    1.80
  -7   6   5    0.60    1.63
   7  -6  -5    5.01    2.36
   7  -6  -5    4.26    1.85
  -7   6   5    1.12    1.53
   7  -6  -4    5.24    3.00
  -7   6   4   -0.59    1.64
  -7   6   4    1.08    1.43
   7  -6  -4    1.63    2.06
   7  -6  -4    1.44    1.46
  -7   6   4    1.57    1.65
   7  -6  -3   14.88    3.38
  -7   6   3   11.97    2.99
  -7   6   3    8.78    2.24
   7  -6  -3   12.63    3.13
   7  -6  -3   15.12    2.50
  -7   6   3   11.67    2.53
   7  -6  -2   11.22    2.92
  -7   6   2    7.43    2.29
   7  -6  -2   11.22    2.90
  -7   6   2    9.28    2.08
   7  -6  -2    9.32    1.91
  -7   6   2   10.21    2.38
   7  -6  -1   25.00    3.93
  -7   6   1   19.38    3.33
   7  -6  -1   19.66    3.38
  -7   6   1   20.32    3.17
  -7   6   1   17.87    2.97
   7  -6   0    3.99    2.59
  -7   6   0    5.65    2.20
   7  -6   0    4.61    2.32
  -7   6   0    3.44    1.91
  -7   6   0    5.10    1.80
  -7   6   0    4.49    1.68
   7  -6   1   50.60    5.47
  -7   6  -1   52.95    5.16
   7  -6   1   46.51    4.61
  -7   6  -1   48.07    4.25
  -7   6  -1   49.38    4.10
   7  -6   1   47.53    5.06
  -7   6  -1   49.12    4.80
   7  -6   2   55.39    5.57
  -7   6  -2   42.39    4.71
   7  -6   2   43.02    4.36
  -7   6  -2   45.08    4.20
  -7   6  -2   43.82    3.69
   7  -6   2   38.75    4.71
  -7   6  -2   38.05    4.54
   7  -6   3   17.82    3.96
  -7   6  -3   12.11    2.78
   7  -6   3   17.35    2.80
  -7   6  -3   15.18    2.57
  -7   6  -3   11.94    2.89
   7  -6   3   10.97    2.87
  -7   6  -3   14.49    2.41
   7  -6   4    7.25    2.82
  -7   6  -4    2.34    2.04
   7  -6   4    3.05    1.36
  -7   6  -4    3.61    1.72
  -7   6  -4   -0.54    1.91
   7  -6   4    1.97    2.00
   7  -6   5   24.86    4.17
  -7   6  -5   24.65    3.74
  -7   6  -5   26.80    3.45
   7  -6   5   23.82    3.07
  -7   6  -5   20.87    3.63
   7  -6   5   22.51    3.88
   7  -6   6    3.65    2.41
  -7   6  -6   -0.95    1.41
  -7   6  -6    0.23    1.59
  -7   6  -6    0.79    2.01
   7  -6   6   -1.14    1.87
   7  -6   6    0.58    1.69
  -7   6  -7    2.38    1.83
  -7   6  -7   -0.67    1.64
  -7   6  -7   -1.42    1.92
   7  -6   7    2.14    1.95
   7  -6   7    0.73    2.04
  -7   6  -8    7.32    2.34
  -7   6  -8    8.78    2.73
   7  -6   8    9.88    2.92
   7  -6   8    9.12    3.12
  -7   6  -9    5.12    2.36
  -7   6  -9    7.23    2.52
   7  -6   9    6.43    2.92
   7  -6   9    2.92    2.03
  -7   6 -10   -1.87    2.00
  -7   6 -10   -2.85    1.94
   7  -6  10   -2.37    2.38
  -7   5   9   19.66    4.14
   7  -5  -9   13.70    3.39
  -7   5   9   17.18    3.75
   7  -5  -9   19.45    3.75
  -7   5   8   19.03    3.94
   7  -5  -8    9.17    2.85
  -7   5   8   19.42    3.84
   7  -5  -8   14.89    3.57
  -7   5   7   -0.64    1.95
   7  -5  -7    4.07    2.01
   7  -5  -7   -3.21    2.19
  -7   5   7   -0.88    1.72
  -7   5   6    3.63    2.24
   7  -5  -6    4.98    2.40
   7  -5  -6    3.73    1.94
  -7   5   6    4.54    2.17
  -7   5   5   12.05    2.93
  -7   5   5   14.21    2.62
   7  -5  -5   18.02    3.55
   7  -5  -5    9.47    2.44
  -7   5   5    7.93    2.39
  -7   5   4   -1.04    1.76
   7  -5  -4    1.02    2.04
  -7   5   4    0.91    1.41
   7  -5  -4    2.74    1.60
  -7   5   4    1.59    1.63
  -7   5   3    7.89    2.44
   7  -5  -3    9.80    2.61
  -7   5   3    7.88    2.03
   7  -5  -3    5.37    1.64
  -7   5   3    6.59    2.22
  -7   5   2   19.52    3.29
   7  -5  -2   15.14    3.10
  -7   5   2   14.94    2.56
   7  -5  -2   14.27    2.20
  -7   5   2   13.97    2.76
  -7   5   1    0.35    1.40
   7  -5  -1    2.83    1.93
  -7   5   1    0.71    1.40
   7  -5  -1    0.68    1.04
   7  -5  -1   -1.33    1.85
  -7   5   1   -0.60    1.31
   7  -5   0   26.04    4.03
  -7   5   0   27.25    3.72
   7  -5   0   21.95    3.17
  -7   5   0   21.35    3.12
   7  -5   0   24.31    2.43
   7  -5   0   24.80    3.52
  -7   5   0   23.53    3.12
  -7   5  -1  107.83    6.79
   7  -5   1  114.11    7.39
  -7   5  -1  111.79    7.21
   7  -5   1  110.68    6.67
  -7   5  -1  109.93    4.98
  -7   5  -1  101.26    5.16
   7  -5   1  103.35    6.88
  -7   5  -2  275.23   10.83
  -7   5  -2  278.23   11.25
   7  -5   2  278.03   10.19
  -7   5  -2  275.77    8.50
   7  -5   2  276.76   11.21
  -7   5  -3   13.38    2.89
   7  -5   3   13.16    2.69
  -7   5  -3   11.88    2.27
  -7   5  -3    8.20    2.61
   7  -5   3   12.10    2.78
  -7   5  -4    0.08    1.45
   7  -5   4    6.42    1.82
  -7   5  -4    3.13    1.47
   7  -5   4    4.25    1.61
  -7   5  -4    3.35    1.95
   7  -5   4    3.08    2.30
  -7   5  -5    0.08    1.48
   7  -5   5    1.92    1.53
  -7   5  -5   -1.32    1.46
  -7   5  -5    3.46    1.88
   7  -5   5    3.22    2.14
   7  -5   5    1.63    1.78
  -7   5  -6    1.32    1.64
   7  -5   6   -0.56    1.36
  -7   5  -6    0.84    1.53
  -7   5  -6    1.17    1.97
   7  -5   6    4.09    2.24
   7  -5   6    0.16    1.70
   7  -5   7    2.29    1.72
  -7   5  -7    3.05    1.94
  -7   5  -7    1.44    1.80
   7  -5   7    5.01    2.82
   7  -5   7    0.38    2.11
   7  -5   8    5.44    1.97
  -7   5  -8    8.09    2.69
  -7   5  -8    9.64    2.86
   7  -5   8   10.86    3.22
   7  -5   8    7.19    2.62
   7  -5   9    1.32    1.66
  -7   5  -9   -1.80    2.17
  -7   5  -9    2.63    2.10
   7  -5   9   -0.07    2.00
   7  -5   9    1.60    2.10
   7  -5  10   27.86    4.15
  -7   5 -10   25.28    4.33
  -7   5 -10   24.42    4.06
   7  -5  10   36.73    5.23
   7  -5  11   31.04    4.55
   7  -4 -11   16.30    3.65
  -7   4  10   15.03    3.44
   7  -4 -10    4.25    2.43
  -7   4  10   12.18    3.23
   7  -4 -10    9.91    2.99
  -7   4   9   32.13    4.54
   7  -4  -9   35.15    4.91
   7  -4  -9   35.13    4.65
  -7   4   9   33.69    4.68
  -7   4   8   12.50    3.06
   7  -4  -8   15.13    3.23
   7  -4  -8   10.05    2.64
  -7   4   8   10.77    3.13
  -7   4   7   42.80    4.94
  -7   4   7   38.09    4.86
   7  -4  -7   37.18    4.67
   7  -4  -7   33.80    4.15
  -7   4   6   18.16    3.44
   7  -4  -6   22.95    3.55
   7  -4  -6   18.13    3.11
  -7   4   6   17.73    3.15
  -7   4   5   22.79    3.54
   7  -4  -5   26.46    3.82
   7  -4  -5   23.81    3.21
  -7   4   5   23.20    3.70
  -7   4   5   25.13    2.98
  -7   4   4    0.89    1.39
   7  -4  -4    1.38    1.82
  -7   4   4    0.00    1.35
   7  -4  -4   -0.33    1.48
  -7   4   4    0.06    1.40
  -7   4   3    5.58    2.03
   7  -4  -3    6.02    2.03
  -7   4   3    5.70    1.86
   7  -4  -3    5.09    1.79
  -7   4   3    5.74    1.88
  -7   4   2   -0.99    1.29
   7  -4  -2    4.70    1.96
  -7   4   2   -0.35    1.29
   7  -4  -2    0.27    1.14
   7  -4  -2    0.09    1.45
  -7   4   2    1.32    1.44
  -7   4   1    9.32    2.30
   7  -4  -1    6.45    2.15
  -7   4   1    7.85    2.07
   7  -4  -1    6.90    1.64
   7  -4  -1    7.24    2.17
  -7   4   0   22.38    3.40
  -7   4   0   20.86    2.13
   7  -4   0   22.37    3.20
   7  -4   0   18.91    2.18
  -7   4   0   19.25    2.97
   7  -4   0   21.80    3.33
  -7   4  -1    2.74    1.72
   7  -4   1    1.20    1.50
  -7   4  -1    0.29    1.00
   7  -4   1    0.84    0.85
  -7   4  -1    2.00    1.65
   7  -4   1   -1.33    1.66
  -7   4  -2    1.35    1.38
   7  -4   2   -1.68    1.48
  -7   4  -2    4.39    1.60
  -7   4  -2    5.59    2.03
   7  -4   2    2.57    2.22
  -7   4  -3   15.50    3.02
  -7   4  -3   15.02    2.43
   7  -4   3   18.27    2.64
  -7   4  -3   16.09    3.20
   7  -4   3   18.00    3.43
  -7   4  -4   15.38    2.90
   7  -4   4   16.02    2.60
  -7   4  -4   16.22    2.80
  -7   4  -4   17.53    2.54
   7  -4   4   18.64    2.43
  -7   4  -4   17.77    3.41
   7  -4   4   20.25    3.55
   7  -4   4   16.94    3.17
  -7   4  -5   12.86    2.93
   7  -4   5   11.33    2.37
  -7   4  -5    9.75    2.58
  -7   4  -5   15.22    2.60
  -7   4  -5   11.79    2.84
   7  -4   5   10.73    2.83
   7  -4   5   14.05    3.12
   7  -4   6    6.29    2.00
  -7   4  -6    7.28    2.23
  -7   4  -6    8.41    2.18
  -7   4  -6    9.57    2.77
   7  -4   6   13.58    3.61
   7  -4   6    5.02    2.31
   7  -4   7    7.06    2.19
  -7   4  -7    6.19    2.59
  -7   4  -7    5.49    2.06
  -7   4  -7    4.62    2.26
   7  -4   7   -0.03    2.12
   7  -4   7    1.83    1.93
   7  -4   8   35.22    4.42
  -7   4  -8   31.80    4.33
  -7   4  -8   34.43    4.07
  -7   4  -8   32.58    4.45
   7  -4   8   36.95    5.14
   7  -4   8   34.29    4.83
   7  -4   9    3.87    2.12
  -7   4  -9    4.27    2.22
  -7   4  -9    5.32    2.19
  -7   4  -9    4.34    2.45
   7  -4   9    2.54    2.57
   7  -4   9    7.53    2.75
   7  -4  10    2.16    2.10
  -7   4 -10    7.70    3.01
  -7   4 -10    3.79    2.23
   7  -4  10    2.08    2.61
  -7   4 -11    1.97    2.14
  -7   3  12    2.03    2.07
   7  -3 -12    5.57    2.72
  -7   3  11    0.99    2.39
   7  -3 -11    2.56    2.05
  -7   3  11    6.45    2.69
   7  -3 -11    0.78    2.13
  -7   3  10    0.66    1.59
   7  -3 -10    4.05    2.27
   7  -3 -10   -0.43    1.77
  -7   3  10    1.89    2.07
  -7   3   9    1.52    1.68
   7  -3  -9   -2.93    2.17
   7  -3  -9    1.30    1.86
  -7   3   9    1.69    1.63
  -7   3   8    0.85    1.65
   7  -3  -8    1.63    1.82
   7  -3  -8    5.09    2.30
  -7   3   8   -0.82    1.84
  -7   3   7    1.58    1.53
   7  -3  -7    3.13    1.90
   7  -3  -7    6.49    2.30
  -7   3   7    2.02    1.77
  -7   3   6   31.41    3.05
  -7   3   6   28.74    3.82
   7  -3  -6   31.58    4.21
   7  -3  -6   29.83    3.79
  -7   3   6   26.72    3.79
  -7   3   5   17.36    3.12
   7  -3  -5   14.15    2.87
  -7   3   5   18.63    2.46
   7  -3  -5   14.86    2.64
  -7   3   5   16.63    3.14
  -7   3   5   15.65    2.28
  -7   3   4   18.23    3.04
   7  -3  -4   13.08    2.70
   7  -3  -4   19.30    2.87
   7  -3  -4   15.11    2.57
  -7   3   4   14.99    2.52
  -7   3   4   15.40    2.76
  -7   3   4   14.12    2.10
  -7   3   3    4.23    1.96
   7  -3  -3    2.69    1.96
   7  -3  -3    3.88    1.52
   7  -3  -3    4.12    1.79
  -7   3   3    4.55    1.88
  -7   3   3    4.09    1.25
  -7   3   2   26.63    3.43
  -7   3   2   28.97    2.14
   7  -3  -2   24.04    3.39
   7  -3  -2   28.44    2.97
   7  -3  -2   24.23    3.24
  -7   3   2   27.27    3.40
  -7   3   2   23.83    2.26
  -7   3   2   25.46    2.24
  -7   3   1   -0.20    0.83
  -7   3   1    1.50    1.55
   7  -3  -1   -0.10    1.80
  -7   3   1   -1.28    1.18
   7  -3  -1    0.24    1.07
   7  -3  -1   -0.53    1.54
  -7   3   1   -3.32    1.90
  -7   3   1    0.68    0.83
  -7   3   0   -1.97    1.33
  -7   3   0   -1.03    1.39
  -7   3   0   -1.89    1.25
   7  -3   0    2.62    1.84
   7  -3   0   -0.71    0.90
   7  -3   0    0.70    1.69
  -7   3   0   -4.87    2.23
  -7   3   0    0.95    0.90
  -7   3  -1    0.20    1.58
  -7   3  -1   -0.32    1.33
   7  -3   1    0.02    1.13
   7  -3   1   -0.59    0.87
   7  -3   1    0.34    1.66
  -7   3  -1   -2.51    2.42
  -7   3  -2   -0.04    1.47
  -7   3  -2   -2.39    1.67
   7  -3   2    1.33    1.24
   7  -3   2   -0.54    1.58
  -7   3  -2   -2.29    2.12
  -7   3  -3    0.41    1.46
   7  -3   3   -0.77    1.19
  -7   3  -3    0.16    1.52
   7  -3   3    1.38    1.36
   7  -3   3   -2.90    1.98
   7  -3   3   -0.60    1.72
  -7   3  -3   -4.55    2.66
  -7   3  -4   25.80    3.63
   7  -3   4   21.97    3.14
  -7   3  -4   25.08    3.32
   7  -3   4   28.83    2.73
   7  -3   4   26.55    3.90
   7  -3   4   26.26    3.84
  -7   3  -4   16.39    2.96
  -7   3  -5   68.01    5.78
   7  -3   5   79.57    5.83
  -7   3  -5   73.63    5.66
  -7   3  -5   84.50    5.77
   7  -3   5   80.95    6.47
   7  -3   5   80.62    6.57
   7  -3   6    1.25    1.44
  -7   3  -6   -0.88    1.88
  -7   3  -6   -2.30    1.81
   7  -3   6   -2.38    2.33
   7  -3   6    1.65    2.31
  -7   3  -6    0.17    2.03
   7  -3   7    3.60    1.84
  -7   3  -7    3.73    2.24
  -7   3  -7    3.14    2.09
   7  -3   7    0.75    1.93
  -7   3  -7    2.64    2.10
   7  -3   7    0.25    1.72
   7  -3   8    3.53    2.22
  -7   3  -8   -0.03    1.74
  -7   3  -8   -0.14    1.40
  -7   3  -8    2.78    2.13
   7  -3   8    1.26    2.00
   7  -3   8   -0.54    1.87
   7  -3   9    1.59    1.89
  -7   3  -9    1.69    2.68
  -7   3  -9    1.23    2.27
  -7   3  -9    2.44    2.09
   7  -3   9   -0.76    2.09
   7  -3   9    7.40    2.94
   7  -3  10    4.91    2.51
  -7   3 -10   -0.95    1.83
  -7   3 -10    0.81    1.72
  -7   3 -11   -1.62    2.32
  -7   3 -11   -3.04    1.76
  -7   2  13   15.06    3.39
  -7   2  13    7.68    2.34
  -7   2  12   -1.69    1.59
   7  -2 -12    5.19    2.38
   7  -2 -12    3.76    2.92
  -7   2  12    2.73    2.56
  -7   2  11    2.74    2.13
   7  -2 -11    1.18    2.21
   7  -2 -11   -1.51    2.01
  -7   2  11    0.78    2.31
  -7   2  10   -1.97    1.84
   7  -2 -10    1.56    2.35
   7  -2 -10    1.89    2.07
  -7   2  10    1.43    1.86
  -7   2   9   -1.41    1.63
   7  -2  -9   -0.32    1.64
   7  -2  -9    0.96    1.89
   7  -2  -9    1.88    1.79
  -7   2   9    2.47    1.90
  -7   2   8    4.07    1.78
   7  -2  -8   -0.20    1.76
   7  -2  -8    0.08    1.70
   7  -2  -8    2.66    2.21
  -7   2   8    0.31    1.69
  -7   2   7   37.17    3.13
  -7   2   7   33.33    3.93
  -7   2   7   35.34    4.32
   7  -2  -7   33.19    4.18
   7  -2  -7   33.04    4.50
   7  -2  -7   33.24    4.07
  -7   2   6   18.41    2.42
  -7   2   6   16.58    2.95
   7  -2  -6   15.93    3.04
   7  -2  -6   14.66    2.94
   7  -2  -6   18.60    3.30
   7  -2  -6   16.96    2.64
  -7   2   6   20.69    2.49
  -7   2   6   16.88    3.14
  -7   2   6   16.06    2.48
  -7   2   5   17.37    2.25
  -7   2   5   13.69    2.55
   7  -2  -5   13.93    3.06
   7  -2  -5   14.40    2.80
   7  -2  -5   11.68    2.28
  -7   2   5   13.93    2.84
  -7   2   5   12.32    2.05
  -7   2   5   14.70    2.36
  -7   2   4    5.25    1.57
  -7   2   4    3.84    1.85
   7  -2  -4    4.66    2.27
   7  -2  -4    2.95    1.60
   7  -2  -4    2.86    1.48
  -7   2   4   -0.58    1.82
  -7   2   4    2.41    1.33
  -7   2   3   17.80    2.17
  -7   2   3   18.03    2.90
  -7   2   3   21.87    2.04
   7  -2  -3   20.20    3.14
   7  -2  -3   15.93    2.46
   7  -2  -3   16.60    2.54
   7  -2  -3   20.41    1.94
  -7   2   3   21.12    2.47
  -7   2   3   18.78    2.70
  -7   2   2    4.64    1.51
  -7   2   2    0.83    1.40
  -7   2   2    3.94    1.37
   7  -2  -2    1.92    1.80
   7  -2  -2    0.28    1.15
   7  -2  -2    2.12    1.65
  -7   2   2    1.76    1.17
  -7   2   2    2.03    1.70
  -7   2   1   12.43    2.57
  -7   2   1   12.75    2.06
  -7   2   1   11.65    2.44
  -7   2   1   16.16    2.38
   7  -2  -1   14.30    2.54
   7  -2  -1   14.77    2.24
   7  -2  -1    7.73    2.04
  -7   2   1   14.38    1.93
  -7   2   0   10.56    2.53
  -7   2   0    7.52    1.80
  -7   2   0    8.38    2.10
  -7   2   0    8.82    2.02
   7  -2   0    6.94    1.98
   7  -2   0    9.08    1.89
   7  -2   0    6.59    1.92
  -7   2   0    7.71    1.55
  -7   2  -1   -0.23    1.70
  -7   2  -1    0.71    1.29
  -7   2  -1    2.93    1.54
  -7   2  -1    2.34    1.70
   7  -2   1    4.26    1.65
   7  -2   1    1.35    1.06
   7  -2   1    0.00    1.47
   7  -2   1    1.69    1.76
  -7   2  -1   -0.25    0.90
  -7   2  -2    0.04    1.90
  -7   2  -2    2.32    1.93
  -7   2  -2    0.59    1.44
   7  -2   2   -0.36    1.08
   7  -2   2   -1.71    1.62
   7  -2   2   -1.14    1.56
  -7   2  -2    1.09    1.07
  -7   2  -3    3.54    1.87
   7  -2   3    1.96    1.45
  -7   2  -3    3.30    2.11
   7  -2   3    2.55    1.27
   7  -2   3    4.63    2.23
   7  -2   3    2.63    1.93
  -7   2  -3    2.20    1.71
  -7   2  -3    4.08    1.43
  -7   2  -4    6.95    1.63
   7  -2   4    8.83    2.49
  -7   2  -4    5.93    2.16
   7  -2   4    5.10    1.17
   7  -2   4    8.66    2.72
   7  -2   4    6.32    2.12
  -7   2  -4    9.53    2.68
   7  -2   5    2.22    1.58
  -7   2  -5   -0.35    1.70
  -7   2  -5    3.27    1.82
   7  -2   5    5.25    2.61
   7  -2   5    1.82    2.05
  -7   2  -5    0.37    2.00
   7  -2   6    3.93    2.27
  -7   2  -6   -2.00    1.87
  -7   2  -6    3.69    1.93
   7  -2   6   -0.79    1.92
   7  -2   6    0.20    1.80
  -7   2  -6   -1.09    2.05
   7  -2   7    3.59    2.17
  -7   2  -7   -1.23    2.23
  -7   2  -7    0.95    1.55
   7  -2   7    2.13    2.47
   7  -2   7    1.78    1.96
  -7   2  -7   -4.96    2.40
   7  -2   8    0.78    1.95
  -7   2  -8    0.80    2.06
  -7   2  -8    3.71    2.21
   7  -2   8    1.67    2.11
   7  -2   8    1.20    2.06
  -7   2  -8   -4.06    2.55
  -7   2  -9   41.68    5.09
   7  -2   9   49.05    5.69
  -7   2  -9   35.56    5.05
  -7   2  -9   50.02    5.51
   7  -2   9   44.68    5.82
   7  -2   9   45.61    5.82
  -7   2 -10    0.79    1.73
  -7   2 -10    4.77    2.63
  -7   1  13    6.97    2.44
   7  -1 -13   -0.95    1.92
   7  -1 -13    4.01    3.09
  -7   1  13    4.81    2.50
  -7   1  12    2.94    1.90
   7  -1 -12    5.07    2.42
   7  -1 -12    7.23    2.93
   7  -1 -12    3.23    2.31
  -7   1  12    2.49    1.97
  -7   1  11    5.05    1.82
   7  -1 -11    2.53    2.06
   7  -1 -11   12.37    3.09
   7  -1 -11    9.63    2.90
  -7   1  11    8.28    2.74
  -7   1  10    5.27    2.00
   7  -1 -10    3.18    2.20
   7  -1 -10    2.28    1.83
  -7   1  10    5.08    2.18
  -7   1   9    1.67    1.59
  -7   1   9    1.83    1.55
   7  -1  -9   -1.60    1.69
   7  -1  -9    4.61    2.53
  -7   1   9   -1.69    1.57
  -7   1   8  137.89    7.48
  -7   1   8  130.30    8.12
   7  -1  -8  120.09    7.86
   7  -1  -8  130.39    7.88
  -7   1   8  132.93    6.72
  -7   1   7    2.38    1.52
  -7   1   7    0.18    1.20
   7  -1  -7   -0.34    1.78
   7  -1  -7    3.42    2.11
   7  -1  -7   -0.05    1.19
  -7   1   7   -0.02    1.63
  -7   1   7    2.57    1.40
  -7   1   7    0.28    1.30
  -7   1   6    0.93    1.39
  -7   1   6    0.39    1.23
  -7   1   6    0.13    1.13
   7  -1  -6    2.20    2.15
   7  -1  -6   -0.98    1.46
   7  -1  -6    2.59    1.43
  -7   1   6    1.18    1.25
  -7   1   5    7.93    2.28
  -7   1   5    7.71    1.90
  -7   1   5    5.57    1.85
   7  -1  -5    8.36    2.55
   7  -1  -5    6.02    1.99
   7  -1  -5    4.68    1.58
  -7   1   5    6.49    1.77
  -7   1   4   -0.39    1.21
  -7   1   4    2.37    1.96
  -7   1   4   -0.93    1.27
   7  -1  -4    0.34    1.52
   7  -1  -4   -0.22    1.32
   7  -1  -4    0.06    1.38
   7  -1  -4    1.12    0.93
  -7   1   4   -0.60    1.18
  -7   1   3   -0.31    1.22
  -7   1   3    1.17    2.14
  -7   1   3    0.45    1.21
   7  -1  -3    0.51    1.75
   7  -1  -3    0.56    1.24
   7  -1  -3    2.55    1.53
   7  -1  -3    0.04    0.96
  -7   1   3    0.70    1.14
  -7   1   2   76.08    5.47
  -7   1   2   81.36    5.52
   7  -1  -2   78.08    5.50
   7  -1  -2   75.53    5.05
   7  -1  -2   70.36    4.96
  -7   1   2   77.58    4.68
  -7   1   2   73.86    4.73
  -7   1   1   54.20    4.79
  -7   1   1   53.29    4.55
   7  -1  -1   58.02    4.70
   7  -1  -1   44.00    3.84
   7  -1  -1   42.93    4.08
  -7   1   1   51.99    3.90
  -7   1   1   49.58    4.07
  -7   1   0    4.89    2.40
  -7   1   0    3.64    1.60
  -7   1   0    2.31    1.58
   7  -1   0   -0.95    1.30
   7  -1   0    1.08    1.19
   7  -1   0    5.41    2.17
   7  -1   0    2.91    1.60
  -7   1   0    1.27    1.14
  -7   1  -1    2.46    2.20
  -7   1  -1   -0.12    1.29
  -7   1  -1   -1.35    1.49
   7  -1   1    0.14    1.19
   7  -1   1    0.82    1.64
   7  -1   1   -0.93    1.45
  -7   1  -1    0.08    1.15
  -7   1  -2   34.36    4.40
  -7   1  -2   20.66    3.00
  -7   1  -2   27.48    3.68
   7  -1   2   25.10    2.98
   7  -1   2   26.73    3.87
   7  -1   2   26.07    3.48
  -7   1  -2   27.14    3.01
  -7   1  -3    5.75    2.58
   7  -1   3    3.01    1.76
  -7   1  -3    6.89    2.54
   7  -1   3    5.61    1.54
   7  -1   3    6.47    2.47
   7  -1   3    2.04    1.79
  -7   1  -3    5.75    1.83
  -7   1  -4   18.14    2.70
  -7   1  -4   16.32    3.17
   7  -1   4   19.74    3.30
  -7   1  -4   20.52    3.68
   7  -1   4   14.97    2.20
   7  -1   4   18.09    3.56
   7  -1   4   16.92    3.19
  -7   1  -5    7.45    1.96
  -7   1  -5    5.36    2.18
   7  -1   5    7.70    2.47
  -7   1  -5   11.55    2.83
  -7   1  -5   10.78    2.60
   7  -1   5    7.58    2.63
   7  -1   5    8.24    2.75
  -7   1  -6    7.05    2.67
   7  -1   6    7.32    2.42
  -7   1  -6    7.71    2.79
  -7   1  -6   10.69    2.70
   7  -1   6    5.07    2.56
   7  -1   6    9.93    2.76
   7  -1   7   10.87    2.80
  -7   1  -7    4.78    2.59
  -7   1  -7   13.91    3.09
   7  -1   7   16.18    3.63
   7  -1   7   11.28    3.17
  -7   1  -7    5.80    2.37
   7  -1   8    6.18    2.43
  -7   1  -8    6.69    2.68
  -7   1  -8    7.02    2.64
   7  -1   8   -2.73    2.12
   7  -1   8   -0.83    1.98
  -7   1  -8   -3.62    2.35
  -7   1  -9   49.44    5.84
  -7   1  -9   39.57    4.99
  -7   1 -10    9.35    2.76
   7   0 -14   -1.54    2.43
   7   0 -13   -1.94    2.21
  -7   0  13    2.94    2.34
  -7   0  12   17.19    3.10
   7   0 -12   13.83    3.26
   7   0 -12   13.06    3.15
   7   0 -12   14.32    3.42
  -7   0  12   17.71    3.52
  -7   0  11    1.65    1.70
  -7   0  11    0.19    1.39
   7   0 -11    4.96    2.72
   7   0 -11    5.14    2.33
   7   0 -11   -4.15    1.79
  -7   0  11   -2.19    1.88
  -7   0  10   76.80    5.60
  -7   0  10   72.55    6.23
   7   0 -10   64.19    6.08
   7   0 -10   68.74    5.68
   7   0 -10   67.11    6.16
  -7   0  10   72.78    5.66
  -7   0   9    1.13    1.65
  -7   0   9   -0.12    1.24
   7   0  -9   -0.60    2.15
   7   0  -9    1.82    1.84
   7   0  -9    2.63    1.88
  -7   0   9    0.21    1.62
  -7   0   9    1.51    1.84
  -7   0   8   42.23    3.68
  -7   0   8   34.01    3.73
  -7   0   8   38.81    4.48
   7   0  -8   41.03    4.88
   7   0  -8   39.16    4.11
   7   0  -8   33.57    4.33
  -7   0   8   40.59    4.32
  -7   0   8   42.04    4.18
  -7   0   7   -0.25    1.47
  -7   0   7   -0.87    1.35
   7   0  -7   -0.35    1.82
   7   0  -7   -2.38    1.85
  -7   0   7   -0.88    1.33
  -7   0   6    1.95    1.79
  -7   0   6   -0.22    1.16
   7   0  -6    0.14    1.93
   7   0  -6    0.80    1.41
   7   0  -6    0.44    1.24
  -7   0   6    1.41    1.44
  -7   0   5   17.19    2.75
  -7   0   5   16.99    2.54
   7   0  -5   22.38    3.57
   7   0  -5   17.78    2.97
   7   0  -5   14.01    2.19
   7   0  -5   16.64    2.10
  -7   0   5   17.33    2.69
  -7   0   4   -0.21    1.29
  -7   0   4   -1.31    1.28
   7   0  -4    1.30    1.66
   7   0  -4   -0.47    1.23
   7   0  -4    1.82    1.23
   7   0  -4   -0.18    0.78
  -7   0   4   -1.17    1.23
  -7   0   3    7.75    2.06
  -7   0   3    6.15    1.93
   7   0  -3    9.91    2.61
   7   0  -3    8.54    2.24
   7   0  -3    7.28    1.86
   7   0  -3    9.11    1.94
  -7   0   3    5.82    1.75
  -7   0   2    2.59    1.45
  -7   0   2    3.73    1.60
   7   0  -2    0.55    1.40
   7   0  -2    3.37    1.67
   7   0  -2    2.33    1.27
   7   0  -2    4.44    1.88
   7   0  -2    4.97    1.80
  -7   0   2    3.44    1.78
  -7   0   1    5.27    1.96
  -7   0   1    2.34    1.54
   7   0  -1    4.51    1.86
   7   0  -1    2.11    1.20
   7   0  -1    0.38    1.43
   7   0  -1    0.63    1.34
  -7   0   1    1.81    1.45
  -7   0   0   45.61    4.42
   7   0   0   43.89    4.09
   7   0   0   44.09    4.07
   7   0   0   46.03    4.36
  -7   0   0   45.00    4.06
  -7   0   0   47.66    4.40
  -7   0  -1    9.74    2.24
   7   0   1   11.36    2.22
   7   0   1   12.92    2.76
   7   0   1   14.63    2.76
  -7   0  -1   14.39    2.60
  -7   0  -2   38.28    4.66
   7   0   2   35.85    3.53
   7   0   2   33.76    3.81
   7   0   2   35.21    4.34
  -7   0  -2   35.62    3.74
  -7   0  -2   35.88    4.13
  -7   0  -3  135.59    8.12
   7   0   3  132.09    8.16
   7   0   3  128.08    6.34
   7   0   3  133.04    7.73
   7   0   3  135.90    8.21
  -7   0  -3  132.00    7.23
  -7   0  -3  131.27    7.79
  -7   0  -4    8.85    3.47
   7   0   4    7.25    2.52
  -7   0  -4    7.91    3.23
   7   0   4    6.60    2.70
   7   0   4    4.98    2.08
  -7   0  -4    3.42    1.39
  -7   0  -5   17.85    2.96
  -7   0  -5   15.86    3.54
   7   0   5   12.97    3.24
  -7   0  -5   17.19    3.49
  -7   0  -5   18.21    3.60
   7   0   5   12.05    3.12
   7   0   5   15.21    3.22
  -7   0  -6    2.74    2.67
   7   0   6    1.60    1.90
  -7   0  -6    3.82    2.38
  -7   0  -6    4.59    2.30
   7   0   6    1.49    2.09
   7   0   6   -0.05    1.91
  -7   0  -7    3.68    2.40
   7   0   7   -0.99    1.61
  -7   0  -7    0.97    1.95
   7   0   7    2.01    2.18
   7   0   7    0.09    1.88
  -7   0  -8   -0.76    2.17
  -7   0  -8    4.46    2.73
  -7   0  -8    3.21    2.01
   7   0   8   -2.71    2.54
  -7   0  -9    0.48    1.96
  -7  -1  14    7.57    2.63
  -7  -1  14    7.83    2.55
  -7  -1  13   -2.97    2.16
   7   1 -13   -4.63    2.42
   7   1 -13    2.24    2.02
  -7  -1  13    1.48    1.74
  -7  -1  12   -1.53    2.03
   7   1 -12   -3.46    2.15
   7   1 -12    0.41    2.11
   7   1 -12    1.73    1.89
  -7  -1  12    0.48    1.51
  -7  -1  11   -0.97    1.87
   7   1 -11    0.20    1.58
   7   1 -11    1.67    1.74
   7   1 -11   -1.09    1.91
  -7  -1  11    1.84    1.98
  -7  -1  11    0.52    1.56
  -7  -1  10   13.46    3.17
   7   1 -10   11.21    3.01
   7   1 -10   15.09    3.43
  -7  -1  10   15.12    3.35
  -7  -1  10   11.21    2.85
  -7  -1   9    3.92    2.06
  -7  -1   9   -0.12    1.27
   7   1  -9   -1.08    1.69
   7   1  -9    0.91    2.02
  -7  -1   9    3.49    1.84
  -7  -1   9   -0.56    1.59
  -7  -1   8  134.51    6.60
   7   1  -8  130.70    8.16
   7   1  -8  137.04    8.21
  -7  -1   8  134.22    7.92
  -7  -1   8  133.75    7.65
  -7  -1   7   47.86    3.95
   7   1  -7   41.85    4.88
   7   1  -7   41.96    4.58
   7   1  -7   41.45    3.45
  -7  -1   7   43.48    4.60
  -7  -1   7   42.36    4.31
  -7  -1   6    5.12    1.84
  -7  -1   6    5.42    1.73
   7   1  -6    4.73    2.07
   7   1  -6    7.94    2.22
   7   1  -6    6.40    1.56
  -7  -1   6    4.43    2.15
  -7  -1   5   29.10    3.21
   7   1  -5   29.49    3.90
   7   1  -5   31.98    4.06
   7   1  -5   29.32    2.82
   7   1  -5   30.35    3.06
  -7  -1   5   26.32    3.45
  -7  -1   5   34.28    3.84
  -7  -1   4    7.02    2.17
  -7  -1   4    7.29    1.76
   7   1  -4    8.04    2.32
   7   1  -4    7.44    2.34
   7   1  -4    5.71    1.43
   7   1  -4    9.94    2.06
   7   1  -4    8.16    1.91
  -7  -1   4    8.00    2.22
  -7  -1   3    7.72    2.29
  -7  -1   3    7.89    2.03
   7   1  -3    4.09    1.94
   7   1  -3    5.98    2.32
   7   1  -3    3.67    1.58
   7   1  -3    6.28    1.61
   7   1  -3    4.00    1.57
  -7  -1   3    6.80    2.27
  -7  -1   2   10.41    2.32
  -7  -1   2   14.41    2.60
   7   1  -2   10.10    2.27
   7   1  -2   10.18    2.29
   7   1  -2   14.17    2.43
   7   1  -2   11.87    2.11
   7   1  -2   11.71    2.42
  -7  -1   2   13.71    2.57
  -7  -1   1    4.48    2.02
   7   1  -1    1.94    1.46
   7   1  -1    4.82    1.88
   7   1  -1    3.91    1.48
  -7  -1   1    1.40    1.37
  -7  -1   0    3.41    1.87
   7   1   0    1.90    1.53
   7   1   0    3.98    2.12
   7   1   0    2.38    1.54
  -7  -1   0    2.05    1.54
   7   1   1  222.32    9.10
   7   1   1  223.27    9.01
   7   1   1  210.77    9.53
  -7  -1  -1  202.97    9.11
  -7  -1  -1  209.01    9.75
   7   1   2   57.81    4.69
   7   1   2   64.82    5.67
   7   1   2   60.00    5.11
  -7  -1  -2   53.14    5.07
  -7  -1  -2   47.09    4.99
   7   1   3   50.30    5.38
   7   1   3   49.04    4.29
   7   1   3   42.93    4.88
   7   1   3   45.77    4.70
  -7  -1  -3   54.29    5.17
  -7  -1  -3   46.17    4.99
   7   1   4   54.61    5.59
  -7  -1  -4   45.02    5.26
   7   1   4   43.44    5.19
   7   1   4   49.19    5.20
  -7  -1  -4   44.32    4.88
  -7  -1  -5    6.62    2.23
  -7  -1  -5   13.65    3.54
   7   1   5    8.14    2.63
  -7  -1  -5    4.38    2.15
   7   1   5    6.33    2.62
   7   1   5    6.26    2.48
  -7  -1  -6    4.69    2.99
   7   1   6   -1.11    1.66
  -7  -1  -6    0.23    2.64
  -7  -1  -6   -0.12    1.80
   7   1   6    1.71    2.46
   7   1   6    3.19    2.46
  -7  -1  -7    4.01    2.55
  -7  -1  -7   10.23    3.68
   7   1   7    5.40    3.25
  -7  -1  -8    0.54    1.96
  -7  -2  14    3.80    2.37
  -7  -2  14    2.57    2.03
  -7  -2  13   -0.67    1.79
   7   2 -13    1.37    1.92
  -7  -2  13    1.33    1.50
  -7  -2  13    4.91    2.71
  -7  -2  12   -1.47    1.92
   7   2 -12    0.08    2.00
  -7  -2  12    1.10    1.69
  -7  -2  12    2.79    2.14
   7   2 -11   -2.60    1.93
   7   2 -11    1.31    1.77
  -7  -2  11    0.22    1.52
  -7  -2  11    1.68    2.07
  -7  -2  10   46.66    5.09
   7   2 -10   43.92    5.09
   7   2 -10   43.46    5.27
  -7  -2  10   55.43    5.56
  -7  -2  10   50.84    5.35
   7   2  -9   39.91    4.85
   7   2  -9   39.46    4.84
  -7  -2   9   42.28    4.84
  -7  -2   9   42.22    4.76
  -7  -2   8    4.11    2.15
   7   2  -8    2.27    1.95
   7   2  -8    1.65    1.57
   7   2  -8    2.73    1.40
  -7  -2   8   -0.60    1.62
  -7  -2   7    2.42    2.22
  -7  -2   7    0.07    1.09
   7   2  -7   -2.95    2.05
   7   2  -7    1.93    1.85
   7   2  -7    0.86    0.95
  -7  -2   7    1.13    1.38
  -7  -2   6    9.14    2.59
  -7  -2   6   13.14    2.13
   7   2  -6    9.68    2.69
   7   2  -6    7.15    2.35
   7   2  -6   12.68    2.30
  -7  -2   6   11.46    2.93
  -7  -2   5   26.46    3.79
  -7  -2   5   29.08    3.06
   7   2  -5   23.44    3.56
   7   2  -5   24.82    3.75
   7   2  -5   29.39    3.40
  -7  -2   5   24.31    3.48
  -7  -2   4    6.60    2.32
   7   2  -4    4.68    2.00
   7   2  -4    3.71    1.69
   7   2  -4    5.91    1.83
   7   2  -4    5.10    1.73
  -7  -2   4    5.24    1.89
  -7  -2   3    9.49    2.65
   7   2  -3   10.91    2.59
   7   2  -3   10.66    2.64
   7   2  -3    7.13    1.98
   7   2  -3   11.10    2.35
  -7  -2   3    6.45    2.32
  -7  -2   2    7.75    2.44
   7   2  -2    9.39    2.54
   7   2  -2    8.41    2.13
   7   2  -2    8.14    2.27
  -7  -2   2   10.55    2.46
  -7  -2   1    0.95    1.79
   7   2  -1    3.00    1.72
   7   2  -1   -0.73    1.53
   7   2  -1    1.03    1.46
   7   2  -1    2.08    1.83
  -7  -2   1   -2.33    1.84
  -7  -2   0    3.28    2.00
   7   2   0    3.09    1.78
   7   2   0    5.41    2.09
   7   2   0    4.58    1.90
  -7  -2   0    2.35    1.50
  -7  -2  -1   16.44    3.38
   7   2   1   13.24    2.50
   7   2   1   11.85    2.89
   7   2   1   12.48    2.57
  -7  -2  -1   15.11    3.07
  -7  -2  -2   18.70    3.50
   7   2   2   18.25    2.99
   7   2   2   23.60    3.84
   7   2   2   18.06    2.87
  -7  -2  -2   19.35    3.68
  -7  -2  -3    2.37    1.64
   7   2   3    6.35    1.92
   7   2   3    8.61    3.02
   7   2   3    8.84    2.48
  -7  -2  -3    8.85    2.68
   7   2   4    4.24    2.37
  -7  -2  -4   -0.15    1.86
   7   2   4    7.67    2.65
   7   2   4    2.63    1.96
  -7  -2  -4    2.77    2.16
  -7  -2  -5    6.36    2.79
   7   2   5    8.72    2.73
  -7  -2  -5    5.79    2.46
   7   2   5    6.36    3.14
   7   2   5    4.23    2.26
  -7  -2  -6   24.77    4.38
  -7  -2  -6   35.90    5.28
   7   2   6   26.47    4.25
  -7  -3  13   -0.54    2.35
   7   3 -13   -1.55    2.18
  -7  -3  13    1.78    1.65
  -7  -3  12    7.70    2.82
   7   3 -12    2.44    1.95
   7   3 -12    3.86    2.56
  -7  -3  12    5.07    2.31
  -7  -3  12    5.26    2.41
  -7  -3  11   17.11    3.66
   7   3 -11   13.93    3.21
   7   3 -11   13.22    3.28
  -7  -3  11    9.26    2.34
  -7  -3  11   14.40    3.39
  -7  -3  10    2.46    2.25
   7   3 -10    0.16    2.14
   7   3 -10    0.95    1.74
  -7  -3  10    2.27    1.78
  -7  -3  10   -1.28    1.69
  -7  -3   9    1.07    1.93
   7   3  -9   -2.80    2.48
   7   3  -9   -0.23    1.68
   7   3  -9    1.51    1.17
  -7  -3   9    1.04    1.66
  -7  -3   8   -0.73    1.59
   7   3  -8    2.72    2.09
   7   3  -8   -1.79    1.88
   7   3  -8    1.24    1.22
  -7  -3   8    0.42    1.75
  -7  -3   7   -0.37    1.62
   7   3  -7   -0.44    2.15
   7   3  -7    0.52    1.87
   7   3  -7   -0.01    1.26
  -7  -3   7    1.11    1.66
  -7  -3   6    1.09    1.66
   7   3  -6    3.12    1.90
   7   3  -6    2.40    1.81
   7   3  -6    2.04    1.41
  -7  -3   6    3.07    2.22
   7   3  -5   86.02    6.81
   7   3  -5   84.79    6.58
   7   3  -5   82.06    5.89
  -7  -3   5   76.43    6.36
  -7  -3   5   79.52    6.56
  -7  -3   4   20.99    3.48
   7   3  -4   20.99    3.61
   7   3  -4   21.13    3.73
   7   3  -4   21.38    3.23
  -7  -3   4   22.74    3.55
  -7  -3   3    0.14    1.77
   7   3  -3    1.30    1.60
   7   3  -3    0.52    1.30
   7   3  -3    2.93    1.91
  -7  -3   3    1.39    1.55
  -7  -3   2    1.12    1.85
   7   3  -2   -0.97    1.44
   7   3  -2    2.66    2.19
   7   3  -2   -1.83    1.67
  -7  -3   2   -0.53    1.56
  -7  -3   1   13.04    3.02
   7   3  -1    8.02    2.34
   7   3  -1    8.56    2.27
   7   3  -1   15.71    3.22
  -7  -3   1    6.42    2.43
  -7  -3   0    5.51    2.78
   7   3   0    3.98    1.62
   7   3   0    4.06    2.13
   7   3   0    5.45    2.60
  -7  -3   0    4.09    1.93
  -7  -3  -1   -0.38    1.85
   7   3   1    0.05    1.30
   7   3   1    2.82    2.20
   7   3   1    4.54    2.64
  -7  -3  -1    2.50    1.80
  -7  -3  -2    2.13    2.19
   7   3   2    0.50    1.61
   7   3   2    5.38    2.52
  -7  -3  -2    3.06    2.19
  -7  -3  -3   -2.64    2.52
  -7  -3  -3   -1.26    1.76
   7   3   3    3.28    1.81
   7   3   3    5.40    2.83
  -7  -3  -3    3.03    2.32
   7   3   4   16.15    3.82
   7   3   4   15.51    3.33
  -7  -3  -4   23.32    4.28
   7   3   5    3.15    2.05
  -7  -4  12    2.69    2.39
   7   4 -12    5.30    2.73
  -7  -4  12    1.03    1.54
  -7  -4  11    4.28    2.43
   7   4 -11    8.33    2.87
   7   4 -11    7.44    2.98
  -7  -4  11    3.68    1.61
  -7  -4  11    4.08    2.30
  -7  -4  10    2.66    2.51
   7   4 -10    3.36    2.53
   7   4 -10   -2.23    2.29
   7   4 -10   -0.38    1.19
  -7  -4  10    1.99    2.14
  -7  -4   9    4.42    2.37
   7   4  -9    4.28    2.07
   7   4  -9    8.79    2.81
   7   4  -9    2.25    1.61
  -7  -4   9    2.57    1.88
  -7  -4   8    7.09    2.83
   7   4  -8    3.03    2.04
   7   4  -8    0.42    1.80
   7   4  -8    3.69    1.98
  -7  -4   8    2.28    2.01
  -7  -4   7    6.62    2.43
   7   4  -7    2.29    1.89
   7   4  -7    5.74    2.70
   7   4  -7    4.16    1.93
  -7  -4   7    4.36    2.30
  -7  -4   6   -0.06    1.74
   7   4  -6   -1.09    1.82
   7   4  -6    0.05    2.10
   7   4  -6    1.56    1.40
  -7  -4   6   -0.25    1.79
  -7  -4   5   -0.15    1.90
   7   4  -5    2.22    1.96
   7   4  -5   -0.28    1.97
   7   4  -5   -1.53    1.48
  -7  -4   5    3.32    2.18
  -7  -4   4   13.84    3.30
   7   4  -4   13.36    3.17
   7   4  -4   14.06    2.94
  -7  -4   4   11.51    2.90
  -7  -4   3    0.22    1.89
   7   4  -3    2.81    2.03
   7   4  -3    0.04    1.61
  -7  -4   3   -0.40    1.66
  -7  -4   2    4.76    2.56
   7   4  -2    3.30    1.79
   7   4  -2    1.79    1.49
   7   4  -2    3.62    2.06
  -7  -4   2    2.91    1.92
  -7  -4   1    1.95    2.17
   7   4  -1    1.79    2.01
   7   4  -1   -2.00    2.01
   7   4  -1    0.61    1.51
  -7  -4   1   -0.30    1.64
  -7  -4   0   15.02    3.83
   7   4   0   12.21    2.94
   7   4   0   14.60    3.03
   7   4   0   15.72    3.47
  -7  -4   0   12.88    3.44
  -7  -4  -1    1.88    2.25
   7   4   1    1.59    1.93
   7   4   1    4.87    2.30
   7   4   1    5.47    2.40
  -7  -4  -1    4.47    2.55
  -7  -4  -2    2.14    2.24
   7   4   2   -1.20    1.61
   7   4   2    0.07    1.78
   7   4   2    0.05    2.06
  -7  -4  -2    5.12    2.60
   7   4   3   -1.62    2.45
   7   5 -11   12.91    2.87
  -7  -5  10    5.25    2.65
   7   5 -10    2.78    2.10
   7   5 -10    2.99    2.04
  -7  -5   9   13.32    3.34
   7   5  -9    7.47    2.77
   7   5  -9    5.43    2.61
   7   5  -9   13.57    3.23
  -7  -5   9    7.13    2.65
  -7  -5   8   29.41    4.82
   7   5  -8   34.37    4.99
   7   5  -8   31.77    4.69
   7   5  -8   27.55    4.10
  -7  -5   8   40.97    5.51
  -7  -5   7   30.65    4.68
   7   5  -7   39.96    5.28
   7   5  -7   34.74    4.81
   7   5  -7   32.69    4.46
  -7  -5   7   38.37    5.19
  -7  -5   6   -0.82    2.22
   7   5  -6    0.94    1.70
   7   5  -6    2.24    1.76
  -7  -5   6    1.45    2.05
  -7  -5   5    3.78    2.18
   7   5  -5    3.04    2.07
   7   5  -5    5.00    2.21
  -7  -5   4   -0.87    2.28
   7   5  -4    0.67    2.02
   7   5  -4    0.79    1.61
  -7  -5   4    1.44    1.83
  -7  -5   3    3.85    2.89
   7   5  -3    2.11    1.73
   7   5  -3   -0.05    1.86
  -7  -5   3   -3.31    2.20
  -7  -5   2   10.01    3.04
   7   5  -2   11.33    3.23
   7   5  -2    4.15    2.16
  -7  -5   2    8.39    3.00
  -7  -5   1    1.27    2.32
   7   5  -1    4.13    2.13
   7   5  -1    1.92    2.20
  -7  -5   1    0.24    1.94
   7   5   0   17.80    3.65
   7   5   1   15.36    3.31
   7   5   2   13.29    3.14
   7   6 -10    3.82    1.92
   7   6  -9   29.42    4.52
   7   6  -8    6.20    2.78
   7   6  -7    1.28    2.19
   7   6  -6    3.09    2.32
  -8   9   1    5.28    2.49
  -8   9   1   -1.11    1.69
  -8   9   0   -3.21    2.36
  -8   9  -1    0.24    1.87
   8  -9   2   24.24    4.28
   8  -9   3   14.74    3.28
  -8   8   4   24.76    4.19
  -8   8   3   -0.33    1.39
   8  -8  -2   22.51    4.35
  -8   8   2   17.95    3.44
  -8   8   2   20.72    3.54
  -8   8   2   19.23    3.53
   8  -8  -1    0.66    2.64
  -8   8   1    2.28    2.09
  -8   8   1   -1.83    1.95
  -8   8   1    1.61    1.69
   8  -8  -1    4.63    2.45
  -8   8   0    2.44    1.74
  -8   8   0    1.29    2.37
   8  -8   0   -1.21    2.15
   8  -8   1    7.35    3.49
  -8   8  -1    3.26    2.11
  -8   8  -1    4.15    2.63
   8  -8   1    3.65    2.44
   8  -8   1   -1.97    2.36
   8  -8   2   18.01    4.07
  -8   8  -2   20.88    3.93
  -8   8  -2   12.26    2.98
   8  -8   2   15.19    3.36
   8  -8   3    4.22    3.34
  -8   8  -3   -0.29    1.66
  -8   8  -3    1.96    1.90
   8  -8   3    6.93    2.50
   8  -8   3    0.98    2.53
   8  -8   4    3.43    2.84
  -8   8  -4   -1.79    1.77
  -8   8  -4   -1.95    2.08
   8  -8   4    3.87    2.28
   8  -8   5    6.15    2.87
  -8   8  -5   -0.60    1.68
  -8   8  -5    0.37    2.50
  -8   8  -6   16.25    3.73
  -8   8  -7   19.22    4.21
  -8   7   5    1.47    1.90
  -8   7   4   32.30    4.85
   8  -7  -4   43.54    5.57
  -8   7   4   33.32    4.51
   8  -7  -3   13.31    3.72
  -8   7   3   12.82    3.29
  -8   7   3   11.57    2.73
   8  -7  -3   10.33    3.27
  -8   7   3   10.89    2.75
   8  -7  -2    9.36    3.80
  -8   7   2    7.18    2.59
  -8   7   2    5.09    2.07
   8  -7  -2    3.33    2.36
  -8   7   2    9.28    2.52
   8  -7  -1   17.87    4.02
  -8   7   1   10.89    3.06
  -8   7   1    9.86    2.63
   8  -7  -1   12.66    3.24
  -8   7   1    6.53    2.27
  -8   7   1   13.53    2.89
   8  -7   0    5.58    3.25
  -8   7   0   -0.45    1.59
  -8   7   0   -1.55    1.75
   8  -7   0   -0.63    1.91
   8  -7   0   -2.67    2.43
  -8   7   0    1.89    1.82
   8  -7   1   76.55    7.24
  -8   7  -1   75.26    6.74
   8  -7   1   77.01    6.38
  -8   7  -1   69.98    5.51
   8  -7   1   70.13    6.50
  -8   7  -1   68.29    6.28
   8  -7   2    1.77    2.55
  -8   7  -2   -1.78    1.66
   8  -7   2    5.15    2.38
  -8   7  -2    1.34    2.19
   8  -7   2   -0.31    2.21
   8  -7   3   11.25    3.44
  -8   7  -3    3.42    1.98
   8  -7   3    6.61    2.44
  -8   7  -3    0.44    1.69
   8  -7   3    6.35    2.82
   8  -7   4   12.11    3.52
  -8   7  -4    7.13    2.54
   8  -7   4    5.84    2.37
  -8   7  -4    5.51    2.41
   8  -7   4    6.33    2.80
  -8   7  -5    9.32    2.90
  -8   7  -5    5.91    2.50
   8  -7   5    4.13    2.04
  -8   7  -6    5.35    2.66
  -8   7  -6    7.58    3.04
   8  -7   6    6.59    2.94
   8  -7   6    2.94    2.62
  -8   7  -7    8.37    2.76
  -8   7  -7    9.62    2.72
  -8   7  -8   -0.71    1.62
  -8   7  -9   -0.55    2.30
   8  -6  -8   14.25    3.29
   8  -6  -7    3.33    2.11
  -8   6   7    2.67    2.15
  -8   6   6    1.87    1.94
   8  -6  -6    4.78    2.56
   8  -6  -6   -1.62    1.70
  -8   6   6   -0.14    1.88
  -8   6   5   12.20    3.24
   8  -6  -5   11.62    3.13
   8  -6  -5   12.42    2.61
  -8   6   5   11.75    2.95
  -8   6   4    2.60    1.90
  -8   6   4    3.84    1.76
   8  -6  -4   -0.08    1.76
  -8   6   4    1.13    1.40
  -8   6   3    2.23    1.63
  -8   6   3    2.66    1.83
   8  -6  -3    4.19    2.58
  -8   6   3    0.14    1.77
  -8   6   2    0.37    1.86
   8  -6  -2    0.70    2.15
  -8   6   2    2.81    1.70
  -8   6   2    2.96    1.72
  -8   6   1   50.34    5.48
   8  -6  -1   53.96    5.55
  -8   6   1   45.46    4.69
   8  -6  -1   46.71    5.30
  -8   6   1   44.22    4.76
  -8   6   0   42.79    5.15
   8  -6   0   37.18    4.59
  -8   6   0   29.65    4.12
   8  -6   0   33.46    4.50
  -8   6   0   30.10    3.79
  -8   6  -1  237.79   11.43
   8  -6   1  224.19   10.28
  -8   6  -1  224.22    9.88
   8  -6   1  245.99   11.53
  -8   6  -1  215.90   10.38
  -8   6  -2   10.18    2.73
   8  -6   2    9.31    2.65
  -8   6  -2    5.09    2.11
   8  -6   2    8.21    3.04
  -8   6  -2    7.38    2.14
  -8   6  -3   12.13    3.01
   8  -6   3    9.66    2.41
  -8   6  -3    7.00    2.38
   8  -6   3   12.87    3.33
  -8   6  -4    4.05    1.91
   8  -6   4    5.52    2.02
  -8   6  -4    5.12    2.46
   8  -6   4    3.72    2.26
  -8   6  -5    2.32    1.97
  -8   6  -5    1.12    1.65
  -8   6  -5   -0.81    1.78
   8  -6   5   -2.28    2.19
   8  -6   5   -1.65    2.10
  -8   6  -6    5.72    2.39
  -8   6  -6    3.31    1.95
  -8   6  -6    6.07    2.58
   8  -6   6    3.20    2.43
   8  -6   6    2.76    2.49
  -8   6  -7   10.36    2.78
  -8   6  -7    9.83    2.78
   8  -6   7   13.11    3.45
   8  -6   7   15.54    3.88
  -8   6  -8   11.87    3.08
  -8   6  -9   18.98    3.84
   8  -5  -9   68.26    6.60
   8  -5  -8    3.91    2.62
   8  -5  -8    0.60    2.07
  -8   5   8    0.68    1.71
  -8   5   7   15.32    3.43
   8  -5  -7   15.02    3.86
   8  -5  -7   14.97    3.20
  -8   5   7   12.56    3.19
  -8   5   6    5.92    2.52
   8  -5  -6    4.58    2.27
   8  -5  -6    6.75    2.27
  -8   5   6    4.51    2.08
  -8   5   5   12.16    3.01
   8  -5  -5   12.34    2.99
   8  -5  -5   10.69    2.47
  -8   5   5    9.33    2.61
  -8   5   4    2.17    1.99
   8  -5  -4    5.46    2.80
  -8   5   4    3.86    1.47
   8  -5  -4    2.16    1.38
  -8   5   4    3.39    2.11
  -8   5   3    2.10    1.51
   8  -5  -3    2.13    1.85
  -8   5   3    3.82    1.97
   8  -5  -3    3.15    1.47
   8  -5  -3    0.58    1.79
  -8   5   3    4.82    2.02
  -8   5   2    2.61    2.10
   8  -5  -2    4.62    2.43
  -8   5   2    1.99    1.61
   8  -5  -2    3.05    1.93
  -8   5   2    4.06    1.80
  -8   5   1  137.52    7.85
  -8   5   1  141.81    8.80
   8  -5  -1  144.00    8.34
  -8   5   1  139.92    8.00
   8  -5  -1  137.70    8.30
  -8   5   0   19.73    3.38
   8  -5   0   19.81    3.48
  -8   5   0   18.53    3.31
   8  -5   0   20.85    3.80
  -8   5   0   17.96    3.09
  -8   5  -1   41.18    4.63
  -8   5  -1   44.83    5.10
   8  -5   1   37.89    4.15
   8  -5   1   39.19    4.77
  -8   5  -2   36.68    4.56
   8  -5   2   28.65    3.75
  -8   5  -2   28.95    4.08
   8  -5   2   32.94    4.52
  -8   5  -3    0.73    1.73
  -8   5  -3   -0.06    1.23
   8  -5   3    2.75    1.49
  -8   5  -3    1.15    1.73
   8  -5   3    1.04    1.87
  -8   5  -4   11.36    2.87
  -8   5  -4   10.58    2.31
  -8   5  -4    7.30    2.65
   8  -5   4    6.09    2.35
   8  -5   4    5.17    2.31
  -8   5  -5    2.51    1.98
   8  -5   5    1.37    1.70
  -8   5  -5    0.60    2.00
  -8   5  -5   -0.59    1.68
   8  -5   5    1.79    2.41
   8  -5   5   -0.53    2.00
  -8   5  -6    0.34    2.27
   8  -5   6    1.75    1.84
  -8   5  -6    0.85    1.48
  -8   5  -6   -4.16    2.18
   8  -5   6    5.88    2.32
   8  -5   6    1.15    1.92
   8  -5   7    7.41    2.49
  -8   5  -7   14.75    3.19
  -8   5  -7   11.30    3.21
   8  -5   7   16.73    3.80
   8  -5   7   11.39    3.29
   8  -5   8    1.80    1.86
  -8   5  -8    1.08    2.00
  -8   5  -8    2.90    2.22
   8  -5   9    6.56    2.46
  -8   5  -9    6.18    2.54
  -8   4   9    0.96    1.59
   8  -4  -9   -1.57    2.13
   8  -4  -9    1.93    1.86
  -8   4   9    3.28    2.05
  -8   4   8    1.93    1.69
   8  -4  -8    0.39    2.28
   8  -4  -8    4.71    1.99
  -8   4   8    2.17    1.92
  -8   4   7   18.09    3.53
   8  -4  -7   18.71    3.69
   8  -4  -7   19.27    3.37
  -8   4   7   17.98    3.49
  -8   4   6    3.47    1.94
   8  -4  -6    6.07    2.43
   8  -4  -6    4.26    1.81
  -8   4   6    0.73    1.65
  -8   4   5   16.58    3.14
   8  -4  -5   22.55    3.84
  -8   4   5   19.92    2.91
   8  -4  -5   26.14    3.51
   8  -4  -5   19.32    3.19
  -8   4   5   19.13    3.65
  -8   4   4    5.48    2.27
   8  -4  -4    3.34    1.96
  -8   4   4    7.09    2.06
   8  -4  -4    5.83    2.01
   8  -4  -4    3.60    1.95
  -8   4   4    4.01    2.15
  -8   4   3   16.19    3.09
   8  -4  -3   16.48    3.45
  -8   4   3   19.84    3.12
   8  -4  -3   19.64    2.86
   8  -4  -3   18.52    3.11
  -8   4   3   18.33    3.27
  -8   4   2   27.23    4.02
   8  -4  -2   26.28    3.78
   8  -4  -2   28.39    3.13
  -8   4   2   25.94    3.61
   8  -4  -2   20.11    3.37
  -8   4   2   24.28    3.73
  -8   4   1   23.26    3.72
   8  -4  -1   15.70    2.94
   8  -4  -1   23.92    2.80
  -8   4   1   16.76    3.00
   8  -4  -1   17.02    3.19
  -8   4   0   37.85    4.31
  -8   4   0   39.18    4.50
   8  -4   0   36.56    4.30
   8  -4   0   36.84    4.01
   8  -4   0   31.10    4.39
  -8   4  -1   14.97    3.13
  -8   4  -1   12.42    2.18
   8  -4   1    8.51    2.25
  -8   4  -1   13.31    2.92
   8  -4   1    8.55    2.58
  -8   4  -2   -0.15    1.53
  -8   4  -2    2.39    1.42
   8  -4   2    4.02    1.88
  -8   4  -2    1.10    2.02
   8  -4   2    5.20    2.66
  -8   4  -3   18.97    3.43
  -8   4  -3   23.14    3.17
   8  -4   3   20.24    2.80
  -8   4  -3   25.59    3.89
   8  -4   3   20.88    3.91
   8  -4   3   28.41    4.13
  -8   4  -4   54.35    5.44
  -8   4  -4   60.07    5.77
  -8   4  -4   51.50    4.92
  -8   4  -4   62.11    5.04
   8  -4   4   51.40    5.62
   8  -4   4   45.57    5.54
  -8   4  -5    9.87    2.80
   8  -4   5    9.08    2.55
  -8   4  -5    8.52    2.49
  -8   4  -5   12.19    2.67
  -8   4  -5    9.62    2.81
   8  -4   5   11.71    3.12
   8  -4   5   10.29    2.95
   8  -4   6    4.65    2.25
  -8   4  -6    5.26    2.09
  -8   4  -6    5.74    2.05
  -8   4  -6    3.84    2.17
   8  -4   6    7.01    2.79
   8  -4   6    2.30    2.18
   8  -4   7    1.92    1.70
  -8   4  -7    1.05    1.56
  -8   4  -7    0.44    2.05
   8  -4   7    5.32    3.23
   8  -4   7   -1.45    2.10
   8  -4   8    1.14    1.86
  -8   4  -8    0.18    1.73
  -8   4  -8    1.14    2.33
   8  -4   9   13.20    3.35
  -8   3  11   12.07    3.10
  -8   3  10   -1.71    2.39
   8  -3 -10   -4.54    2.66
   8  -3 -10    1.22    2.14
   8  -3 -10   -0.28    1.84
  -8   3  10    1.48    1.95
  -8   3   9    0.95    1.84
   8  -3  -9    1.50    2.15
   8  -3  -9    3.75    2.29
   8  -3  -9   -0.11    1.67
  -8   3   9   -0.53    1.70
  -8   3   8    8.72    2.63
   8  -3  -8    7.63    2.70
   8  -3  -8    1.58    1.71
  -8   3   8    8.17    2.56
  -8   3   7   25.01    3.82
   8  -3  -7   29.94    4.60
   8  -3  -7   33.94    4.31
   8  -3  -7   33.75    3.90
  -8   3   7   27.68    4.09
  -8   3   6   41.79    3.91
  -8   3   6   36.76    4.55
  -8   3   6   37.25    4.58
   8  -3  -6   36.74    4.61
   8  -3  -6   36.80    4.40
   8  -3  -6   36.49    4.16
  -8   3   5    1.26    1.39
   8  -3  -5   -1.30    1.65
   8  -3  -5   -0.18    1.94
   8  -3  -5    1.27    1.66
  -8   3   5    1.33    1.29
   8  -3  -5    1.58    1.65
  -8   3   5    1.92    1.95
  -8   3   4    0.34    1.54
   8  -3  -4   -2.50    2.28
   8  -3  -4    3.84    2.09
   8  -3  -4    2.76    1.43
   8  -3  -4    3.98    1.99
  -8   3   4    3.86    1.89
  -8   3   4    0.91    1.81
  -8   3   3    0.63    1.36
   8  -3  -3    2.84    2.02
   8  -3  -3   -0.70    1.40
   8  -3  -3   -0.30    1.41
  -8   3   3    2.59    1.84
  -8   3   2   52.86    4.89
  -8   3   2   57.98    5.35
   8  -3  -2   57.50    5.10
   8  -3  -2   54.87    4.35
   8  -3  -2   58.20    5.36
  -8   3   1   -0.78    1.49
   8  -3  -1    0.86    1.82
   8  -3  -1    0.87    1.36
   8  -3  -1    0.85    1.56
  -8   3   1   -3.12    2.33
  -8   3   0   -0.81    1.61
  -8   3   0   -0.86    1.10
   8  -3   0    0.73    1.77
   8  -3   0    0.37    0.97
   8  -3   0   -1.57    2.00
  -8   3  -1    2.32    1.59
  -8   3  -1    2.24    1.50
   8  -3   1    4.43    1.67
   8  -3   1    1.52    1.96
  -8   3  -1    0.07    1.70
  -8   3  -2    8.10    2.59
  -8   3  -2    0.01    1.62
   8  -3   2    6.50    1.88
   8  -3   2    4.09    2.51
   8  -3   2    6.52    2.38
  -8   3  -2   -0.44    2.18
  -8   3  -3   -2.41    1.91
   8  -3   3    0.30    1.18
   8  -3   3    1.35    1.85
   8  -3   3   -2.31    1.99
  -8   3  -3   -1.21    2.47
  -8   3  -4    4.69    2.36
   8  -3   4    2.69    1.83
  -8   3  -4   -0.90    1.52
   8  -3   4    5.52    2.30
   8  -3   4   -2.00    2.12
  -8   3  -4   -2.35    2.42
   8  -3   5   11.62    2.73
  -8   3  -5    4.50    1.87
  -8   3  -5   10.75    2.45
   8  -3   5    9.25    3.08
   8  -3   5   11.81    3.20
  -8   3  -5    4.92    2.24
   8  -3   6    1.61    1.68
  -8   3  -6   -1.50    2.08
  -8   3  -6   -0.16    1.33
   8  -3   6   -1.14    2.17
   8  -3   6    1.63    2.21
  -8   3  -6   -0.74    2.15
   8  -3   7    3.84    2.12
  -8   3  -7   -3.22    1.95
  -8   3  -7   -1.38    1.71
  -8   3  -7    1.13    2.38
   8  -3   7   -0.30    2.17
   8  -3   7    1.68    2.05
   8  -3   8   23.01    3.99
  -8   3  -8   18.92    3.97
  -8   3  -8   23.44    3.84
  -8   3  -8   21.72    4.13
  -8   3  -9    7.72    2.40
  -8   2  12    2.57    1.97
   8  -2 -12    7.25    2.94
  -8   2  11    2.08    1.60
   8  -2 -11   11.56    4.07
   8  -2 -11    5.98    2.58
  -8   2  11    7.69    2.87
  -8   2  10   -0.27    1.88
   8  -2 -10    2.81    2.39
   8  -2 -10    5.43    2.74
  -8   2  10    0.88    1.74
  -8   2   9    4.88    2.19
   8  -2  -9    9.12    3.05
   8  -2  -9   11.40    2.96
  -8   2   9    4.02    2.21
  -8   2   9    7.92    2.31
  -8   2   8   14.34    2.95
   8  -2  -8   16.28    3.67
   8  -2  -8   14.81    3.01
  -8   2   8   19.55    3.71
  -8   2   8   17.27    3.02
  -8   2   7   16.21    3.08
   8  -2  -7   11.78    3.28
   8  -2  -7   12.59    2.72
   8  -2  -7   13.13    2.62
  -8   2   7   12.31    3.12
  -8   2   7   13.07    2.63
  -8   2   6    3.85    2.11
   8  -2  -6    3.66    2.12
   8  -2  -6    4.77    2.24
   8  -2  -6    7.72    2.18
  -8   2   6    6.38    1.74
  -8   2   6    4.56    2.26
  -8   2   6    5.30    1.81
  -8   2   5    5.55    2.23
   8  -2  -5    1.81    1.99
   8  -2  -5    4.44    1.89
   8  -2  -5   -0.26    1.32
  -8   2   5    0.45    1.50
  -8   2   5    0.46    1.17
  -8   2   4   18.27    3.12
   8  -2  -4   22.75    3.74
   8  -2  -4   21.02    3.19
   8  -2  -4   18.26    2.92
  -8   2   4   14.35    2.51
  -8   2   4   17.06    2.55
  -8   2   3   65.98    5.28
  -8   2   3   76.08    5.89
   8  -2  -3   73.36    5.88
   8  -2  -3   69.33    5.22
   8  -2  -3   74.11    5.58
  -8   2   3   73.30    4.69
  -8   2   3   78.60    4.74
  -8   2   2   64.12    5.19
  -8   2   2   67.93    5.59
  -8   2   2   66.21    4.24
   8  -2  -2   62.84    5.39
   8  -2  -2   65.18    4.92
   8  -2  -2   72.21    5.61
  -8   2   2   72.12    4.55
  -8   2   2   63.05    4.38
  -8   2   1    2.51    1.41
  -8   2   1   -0.01    1.47
  -8   2   1    5.92    1.87
   8  -2  -1    2.81    1.66
   8  -2  -1    4.06    1.66
   8  -2  -1    0.43    1.62
  -8   2   1    2.59    1.85
  -8   2   0   -0.33    1.24
  -8   2   0    2.79    1.62
  -8   2   0    2.28    1.53
   8  -2   0   -1.82    1.61
   8  -2   0    0.74    1.32
   8  -2   0   -0.95    1.75
   8  -2   0    1.01    1.64
  -8   2   0    2.79    2.10
  -8   2  -1   -1.77    1.70
  -8   2  -1   -0.53    1.38
  -8   2  -1    2.75    1.65
   8  -2   1    0.44    1.26
   8  -2   1    4.85    2.14
   8  -2   1    0.97    1.48
  -8   2  -1    1.68    1.84
  -8   2  -2    7.02    2.46
  -8   2  -2    3.87    1.70
   8  -2   2    7.97    1.94
   8  -2   2    6.90    2.47
   8  -2   2    7.27    2.35
  -8   2  -2    4.29    2.19
  -8   2  -3   24.28    3.66
   8  -2   3   25.70    2.97
   8  -2   3   25.93    4.18
   8  -2   3   22.10    3.74
  -8   2  -3   22.15    3.65
   8  -2   4   -1.27    1.46
  -8   2  -4    1.10    1.62
   8  -2   4    1.22    2.17
   8  -2   4   -0.45    1.81
  -8   2  -4   -2.81    2.18
   8  -2   5    3.69    2.05
  -8   2  -5   -0.69    1.89
  -8   2  -5    3.79    2.00
   8  -2   5    2.93    2.23
   8  -2   5    4.24    2.28
  -8   2  -5   -1.56    2.23
   8  -2   6    5.10    2.36
  -8   2  -6    4.34    2.32
  -8   2  -6    6.34    2.47
   8  -2   6    0.61    2.13
   8  -2   6    2.84    2.26
  -8   2  -6    0.67    2.01
   8  -2   7    2.34    1.93
  -8   2  -7   -1.38    2.55
  -8   2  -7   -2.21    1.68
   8  -2   7    4.30    2.93
   8  -2   7   -0.37    1.95
  -8   2  -7    0.90    2.59
  -8   2  -8   23.78    4.05
  -8   2  -8   22.63    3.80
   8  -1 -13   14.80    3.54
   8  -1 -12   11.37    3.19
  -8   1  11    9.73    2.48
   8  -1 -11    4.98    2.54
   8  -1 -11    9.03    2.86
   8  -1 -11    5.51    2.45
  -8   1  11    5.68    2.48
  -8   1  10   48.15    5.02
  -8   1  10   38.10    4.88
   8  -1 -10   49.03    5.21
   8  -1 -10   40.35    5.29
   8  -1 -10   43.80    5.39
  -8   1  10   46.06    5.20
  -8   1   9   13.52    2.69
   8  -1  -9   13.69    3.61
   8  -1  -9   15.70    3.55
  -8   1   9   10.25    3.03
  -8   1   9   10.01    2.77
  -8   1   8  116.51    7.29
  -8   1   8  112.80    7.91
   8  -1  -8  115.34    8.11
   8  -1  -8  124.01    8.26
  -8   1   8  122.01    7.41
  -8   1   7    3.62    1.73
  -8   1   7    3.30    1.86
   8  -1  -7   -0.90    1.85
   8  -1  -7    3.85    2.15
  -8   1   7    0.09    1.56
  -8   1   7    0.76    1.41
  -8   1   7    1.20    1.39
  -8   1   6    2.01    1.69
  -8   1   6    2.94    1.71
  -8   1   6    1.56    1.48
   8  -1  -6    0.19    1.95
   8  -1  -6    3.14    2.20
   8  -1  -6    3.55    1.57
  -8   1   6    2.13    1.37
  -8   1   5    4.31    2.20
  -8   1   5    4.78    1.91
  -8   1   5    7.41    2.16
   8  -1  -5    3.08    2.28
   8  -1  -5    2.81    1.79
   8  -1  -5    5.94    1.69
  -8   1   5    1.81    1.64
  -8   1   4   28.64    3.77
  -8   1   4   24.45    3.00
  -8   1   4   31.31    3.78
   8  -1  -4   29.10    4.19
   8  -1  -4   28.80    3.59
   8  -1  -4   27.22    3.35
  -8   1   4   27.92    3.39
  -8   1   3    2.37    2.09
  -8   1   3   -0.90    1.36
  -8   1   3    0.78    1.35
   8  -1  -3    4.87    2.59
   8  -1  -3    1.50    1.39
   8  -1  -3    4.80    2.15
  -8   1   3    0.67    1.14
  -8   1   2   53.06    4.97
  -8   1   2   60.79    5.21
   8  -1  -2   56.87    5.08
   8  -1  -2   54.86    4.74
   8  -1  -2   54.12    4.72
   8  -1  -2   60.53    4.37
  -8   1   2   55.82    4.36
  -8   1   2   62.38    4.81
  -8   1   1    8.08    2.68
  -8   1   1    6.73    2.07
  -8   1   1   10.39    2.69
   8  -1  -1    5.95    2.09
   8  -1  -1    4.14    1.74
   8  -1  -1    7.39    2.35
   8  -1  -1    7.32    2.21
  -8   1   1    6.73    1.81
  -8   1   0    7.76    2.55
  -8   1   0    3.93    1.95
  -8   1   0    3.66    1.87
   8  -1   0    5.52    2.02
   8  -1   0    1.71    1.64
   8  -1   0    4.05    1.84
  -8   1   0    2.77    1.41
  -8   1  -1   63.20    5.97
  -8   1  -1   63.28    5.66
  -8   1  -1   60.00    5.17
   8  -1   1   60.37    4.88
   8  -1   1   62.01    5.33
   8  -1   1   60.58    5.48
  -8   1  -1   66.35    4.84
  -8   1  -1   59.97    5.17
  -8   1  -2   40.75    5.01
  -8   1  -2   43.61    4.61
   8  -1   2   45.18    4.12
   8  -1   2   41.54    4.68
   8  -1   2   45.89    4.90
  -8   1  -2   46.67    4.16
  -8   1  -2   39.75    4.19
  -8   1  -3   12.23    3.31
  -8   1  -3   15.24    3.14
   8  -1   3    7.18    2.54
   8  -1   3    4.74    2.03
  -8   1  -3    7.98    2.20
  -8   1  -4   11.02    3.12
   8  -1   4    9.29    2.69
  -8   1  -4   10.46    2.84
   8  -1   4   11.24    3.09
   8  -1   4    9.16    2.66
  -8   1  -5    5.67    2.69
   8  -1   5    7.12    2.82
  -8   1  -5    4.25    2.06
  -8   1  -5    7.23    2.58
   8  -1   5    2.45    2.29
   8  -1   5    8.61    2.68
   8  -1   6    1.17    1.89
  -8   1  -6    1.71    1.97
  -8   1  -6    0.54    1.87
   8  -1   6    3.67    2.43
   8  -1   6    3.68    2.62
  -8   1  -6    1.68    2.12
   8  -1   7    1.67    2.05
  -8   1  -7    1.24    2.01
  -8   1  -7    7.89    2.72
   8  -1   7    1.08    2.20
  -8   1  -7    2.76    2.34
  -8   0  12    2.74    2.02
  -8   0  12    1.21    1.97
   8   0 -11    9.79    3.14
   8   0 -11    7.34    2.65
  -8   0  11    4.88    2.19
  -8   0  11    3.40    1.81
  -8   0  10   85.74    6.14
  -8   0  10   75.87    6.78
   8   0 -10   89.39    7.49
   8   0 -10  100.91    7.82
  -8   0  10   86.34    6.86
  -8   0  10   86.00    6.38
  -8   0   9   11.07    2.73
  -8   0   9   10.81    2.58
   8   0  -9   14.91    3.31
   8   0  -9   11.69    3.07
  -8   0   9   10.00    2.71
  -8   0   9   12.30    2.86
  -8   0   8  122.38    7.07
  -8   0   8  116.49    7.99
   8   0  -8  102.91    7.71
   8   0  -8  126.75    8.32
  -8   0   8  116.16    7.54
  -8   0   8  120.59    7.21
  -8   0   7    2.15    1.74
  -8   0   7    5.07    2.31
  -8   0   7   -1.14    1.21
   8   0  -7    2.52    2.41
   8   0  -7   -0.56    1.98
  -8   0   7    0.59    1.44
  -8   0   6    2.54    1.77
  -8   0   6    5.58    2.33
  -8   0   6    3.48    1.81
   8   0  -6    1.36    1.84
   8   0  -6    3.18    2.03
  -8   0   6    0.68    1.51
  -8   0   5   10.34    2.38
  -8   0   5   15.70    3.21
  -8   0   5    6.82    2.00
   8   0  -5    9.37    2.88
   8   0  -5    9.12    2.51
   8   0  -5   11.30    2.33
  -8   0   5   11.25    2.47
  -8   0   4   -1.48    1.40
  -8   0   4    3.51    2.60
  -8   0   4   -1.01    1.47
   8   0  -4    2.05    2.23
   8   0  -4    1.89    1.74
   8   0  -4    2.98    1.56
   8   0  -4    0.33    1.01
  -8   0   4    0.87    1.42
  -8   0   3    6.08    2.06
  -8   0   3   15.06    3.21
  -8   0   3    7.25    2.07
   8   0  -3   12.46    2.84
   8   0  -3    8.62    2.26
   8   0  -3    6.81    1.87
   8   0  -3    7.01    1.93
   8   0  -3    9.79    2.08
  -8   0   3    8.29    2.12
  -8   0   2   23.58    3.33
  -8   0   2   35.68    4.48
  -8   0   2   24.02    3.41
   8   0  -2   28.11    3.70
   8   0  -2   20.46    3.21
   8   0  -2   30.41    3.69
   8   0  -2   25.26    3.27
   8   0  -2   26.22    3.24
  -8   0   2   27.77    3.41
  -8   0   1   -1.61    1.42
  -8   0   1   -0.13    1.49
   8   0  -1    2.58    1.85
   8   0  -1    2.18    1.50
   8   0  -1    2.49    1.73
   8   0  -1    1.52    1.29
  -8   0   1   -1.42    1.79
  -8   0   0  142.81    8.58
   8   0   0  152.52    7.97
   8   0   0  138.12    7.60
   8   0   0  150.46    8.24
  -8   0   0  147.10    7.70
  -8   0   0  143.86    7.99
  -8   0  -1   78.63    6.64
   8   0   1   69.17    5.38
   8   0   1   72.83    5.80
   8   0   1   66.06    5.84
  -8   0  -1   64.75    5.23
  -8   0  -1   66.49    5.71
  -8   0  -2   91.39    7.13
   8   0   2   91.11    6.00
   8   0   2   99.15    6.86
   8   0   2   92.04    6.97
  -8   0  -2   98.13    6.55
  -8   0  -2   83.84    6.57
  -8   0  -3   16.70    3.89
  -8   0  -3   22.91    3.87
   8   0   3   20.78    3.88
   8   0   3   23.03    3.74
  -8   0  -3   14.49    2.86
  -8   0  -4   12.54    3.30
  -8   0  -4    4.20    2.26
  -8   0  -4   11.87    3.29
   8   0   4    7.13    2.88
   8   0   4    8.36    2.65
  -8   0  -4    6.70    2.43
  -8   0  -5   -1.90    1.63
  -8   0  -5   -0.06    2.06
   8   0   5   -1.65    1.64
  -8   0  -5    4.23    2.46
  -8   0  -5   -0.01    1.94
   8   0   5   -0.74    2.14
   8   0   5    0.61    1.90
  -8   0  -6    1.55    2.50
  -8   0  -6   -0.41    2.06
  -8   0  -6    0.08    1.89
   8   0   6   -0.52    2.00
  -8  -1  12    4.34    2.27
  -8  -1  12    2.40    2.15
  -8  -1  12    1.12    2.07
  -8  -1  11   11.91    2.93
   8   1 -11    9.35    3.11
   8   1 -11   14.99    3.62
  -8  -1  11   10.53    2.82
  -8  -1  11   12.32    3.07
  -8  -1  10   89.36    7.31
   8   1 -10   94.59    7.92
   8   1 -10   89.69    7.73
  -8  -1  10  101.66    7.68
  -8  -1  10   98.02    7.27
  -8  -1   9   38.22    4.91
   8   1  -9   41.59    5.29
   8   1  -9   39.77    4.94
  -8  -1   9   42.43    4.94
  -8  -1   9   35.66    4.41
  -8  -1   8   29.92    3.90
   8   1  -8   26.71    4.35
   8   1  -8   27.70    4.18
  -8  -1   8   26.45    3.95
  -8  -1   7   40.06    3.96
   8   1  -7   34.15    4.66
   8   1  -7   35.82    4.48
  -8  -1   7   37.99    4.45
  -8  -1   7   34.09    4.22
  -8  -1   6   -1.60    1.73
  -8  -1   6    0.10    1.21
   8   1  -6    2.08    2.16
   8   1  -6    0.47    1.72
  -8  -1   6   -0.17    1.42
  -8  -1   5   40.28    4.00
   8   1  -5   39.77    4.72
   8   1  -5   38.46    4.74
   8   1  -5   42.69    3.84
  -8  -1   5   40.92    4.42
  -8  -1   5   38.13    4.50
  -8  -1   4    7.91    2.39
  -8  -1   4    6.62    2.03
   8   1  -4    5.25    2.35
   8   1  -4    4.04    2.00
   8   1  -4    6.27    2.04
   8   1  -4   10.96    2.32
  -8  -1   4    7.56    2.16
  -8  -1   3   -3.21    1.86
  -8  -1   3    1.35    1.44
   8   1  -3   -1.20    1.75
   8   1  -3    0.58    1.54
   8   1  -3    2.48    1.68
   8   1  -3    1.32    1.40
  -8  -1   3    0.18    1.43
  -8  -1   2    3.78    1.86
   8   1  -2    0.90    1.70
   8   1  -2    1.06    1.35
   8   1  -2    3.19    1.74
   8   1  -2    2.25    1.82
  -8  -1   2    5.79    2.23
  -8  -1   1    5.57    2.21
   8   1  -1   15.47    2.98
   8   1  -1    6.72    2.20
   8   1  -1    5.33    1.67
   8   1  -1    9.83    2.46
  -8  -1   1   11.80    2.60
  -8  -1   0    7.44    2.75
   8   1   0    6.12    2.15
   8   1   0    6.91    2.41
   8   1   0    6.43    2.18
  -8  -1   0    6.88    2.17
   8   1   1   45.20    4.53
   8   1   1   55.09    5.38
   8   1   1   51.75    4.82
  -8  -1  -1   47.05    4.93
  -8  -1  -1   47.85    5.20
  -8  -1  -2   12.17    2.92
   8   1   2   16.21    2.69
   8   1   2   13.84    3.12
   8   1   2   13.90    2.82
  -8  -1  -2   15.66    2.98
  -8  -1  -3    0.52    1.92
  -8  -1  -3    6.48    3.46
   8   1   3    5.38    2.73
   8   1   3    3.82    2.07
  -8  -1  -3    1.85    1.94
  -8  -1  -4    3.48    2.22
   8   1   4   -2.43    2.05
   8   1   4    4.08    2.23
  -8  -1  -4   -0.12    1.49
  -8  -1  -5    0.86    1.83
  -8  -1  -5    5.81    2.88
  -8  -1  -5    5.80    2.91
   8   1   5    3.77    2.32
   8   1   6   -2.47    2.34
  -8  -2  13    3.52    1.94
  -8  -2  12    0.53    1.91
  -8  -2  12    1.05    2.16
  -8  -2  11   36.15    4.83
   8   2 -11   40.84    5.32
  -8  -2  11   31.95    4.59
  -8  -2  11   43.60    5.45
  -8  -2  10    3.69    2.48
   8   2 -10    3.86    2.37
   8   2 -10    5.18    2.48
  -8  -2  10    0.09    1.90
  -8  -2  10   -0.69    1.90
  -8  -2   9   21.16    3.68
   8   2  -9   20.37    3.95
   8   2  -9   17.54    3.68
  -8  -2   9   21.08    3.84
  -8  -2   8   12.73    3.19
   8   2  -8    5.61    2.59
   8   2  -8    7.26    2.52
  -8  -2   8    9.72    2.91
  -8  -2   7    3.42    2.18
   8   2  -7    1.51    1.86
   8   2  -7    8.46    2.71
  -8  -2   7    4.29    2.22
  -8  -2   6   18.20    3.48
   8   2  -6   18.55    3.50
   8   2  -6   22.69    3.75
   8   2  -6   18.91    2.86
  -8  -2   6   21.19    3.73
   8   2  -5   37.42    4.74
   8   2  -5   41.58    4.85
   8   2  -5   39.41    4.16
  -8  -2   5   33.84    4.26
  -8  -2   5   40.39    4.95
  -8  -2   4    2.46    1.74
   8   2  -4    4.01    2.04
   8   2  -4    3.13    1.92
   8   2  -4    4.63    1.92
  -8  -2   4    1.97    1.63
  -8  -2   3    3.58    2.12
   8   2  -3   10.71    2.89
   8   2  -3    8.22    2.60
   8   2  -3    6.71    2.12
   8   2  -3   11.39    2.64
  -8  -2   3   10.10    2.65
  -8  -2   2   12.17    3.02
   8   2  -2   16.56    3.44
   8   2  -2   14.53    2.71
   8   2  -2   22.26    3.55
  -8  -2   2   19.20    3.45
  -8  -2   1    2.42    2.12
   8   2  -1    2.15    1.63
   8   2  -1    3.97    2.34
   8   2  -1    1.78    2.03
  -8  -2   1    2.24    2.27
   8   2   0   55.40    5.28
   8   2   0   60.66    5.76
   8   2   0   58.17    5.80
  -8  -2   0   56.01    5.60
  -8  -2   0   49.74    5.64
  -8  -2  -1    7.97    2.87
   8   2   1    7.67    2.17
   8   2   1   12.18    3.10
  -8  -2  -1   10.22    2.92
  -8  -2  -2    1.81    1.85
   8   2   2    2.53    1.77
   8   2   2    8.46    3.04
  -8  -2  -2    4.92    2.68
  -8  -2  -3    3.77    2.34
   8   2   3    5.44    3.18
  -8  -2  -3    7.54    2.89
  -8  -2  -4    4.14    2.20
   8   2   5   11.99    3.49
  -8  -3  12    0.47    1.50
  -8  -3  11   35.78    5.11
  -8  -3  11   31.13    4.44
  -8  -3  10    1.38    2.20
   8   3 -10    1.74    2.49
   8   3 -10    2.88    2.56
  -8  -3  10    3.97    2.61
  -8  -3   9    2.46    2.35
   8   3  -9   -1.85    2.61
   8   3  -9   -0.94    2.09
  -8  -3   9    3.67    2.54
  -8  -3   8    9.42    2.90
   8   3  -8    8.07    2.35
   8   3  -8   10.03    3.25
  -8  -3   8    9.56    2.80
  -8  -3   7    7.50    2.70
   8   3  -7    5.38    2.71
   8   3  -7    2.59    1.93
   8   3  -7    1.67    1.30
  -8  -3   7    4.36    2.32
  -8  -3   6    5.53    2.52
   8   3  -6    4.81    2.42
   8   3  -6    6.56    2.54
   8   3  -6    6.44    2.03
  -8  -3   6    4.44    2.13
  -8  -3   5    7.92    2.85
   8   3  -5   11.47    3.18
   8   3  -5   11.82    3.00
   8   3  -5   10.75    2.71
  -8  -3   5   10.13    3.03
  -8  -3   4    0.50    1.71
   8   3  -4    6.10    2.39
   8   3  -4    3.06    1.68
  -8  -3   4    4.54    2.21
  -8  -3   3    2.12    2.04
   8   3  -3   -0.91    1.67
   8   3  -3    0.91    1.59
  -8  -3   3    2.81    1.83
  -8  -3   2    8.17    2.88
   8   3  -2    1.01    1.49
   8   3  -2    5.96    2.49
  -8  -3   2    6.05    2.67
  -8  -3   1   29.53    4.61
   8   3  -1   23.33    3.90
   8   3  -1   31.31    4.13
   8   3  -1   29.07    4.12
  -8  -3   1   24.53    4.07
  -8  -3   0    0.49    1.82
   8   3   0    1.12    1.71
   8   3   0    3.38    2.28
   8   3   0    2.10    1.78
  -8  -3   0    1.11    1.89
  -8  -3  -1    8.01    3.00
   8   3   1    1.05    1.75
   8   3   1   -0.62    1.87
   8   3   1    6.79    2.89
  -8  -3  -1    3.70    2.68
   8   3   2    0.80    1.99
  -8  -3  -2    4.91    2.32
  -8  -4  11   22.85    4.01
  -8  -4   9   -0.47    2.07
  -8  -4   8   20.09    4.04
   8   4  -8   19.43    3.45
  -8  -4   8   17.83    3.86
  -8  -4   7    4.80    2.94
   8   4  -7    4.21    2.57
   8   4  -7    3.00    2.62
   8   4  -7    5.40    2.06
  -8  -4   7    2.36    2.07
  -8  -4   6   14.85    3.42
   8   4  -6   17.73    3.84
   8   4  -6   18.48    3.70
   8   4  -6   14.05    2.92
  -8  -4   6   13.53    3.13
  -8  -4   5    6.53    2.75
   8   4  -5    2.22    2.43
   8   4  -5    0.20    1.62
  -8  -4   5    2.43    2.14
  -8  -4   4    4.45    2.38
   8   4  -4    6.36    2.62
   8   4  -4    3.51    2.03
  -8  -4   4    7.81    2.84
  -8  -4   3   18.34    3.83
   8   4  -3   16.42    3.48
   8   4  -3   21.19    3.77
  -8  -4   3   18.93    3.89
  -8  -4   2    1.63    2.13
   8   4  -2    0.26    1.56
   8   4  -2   -1.36    1.58
  -8  -4   2    0.66    2.06
   8   4  -1   26.76    4.18
   8   4  -1   29.76    4.49
  -8  -4   1   28.64    4.65
   8   4   0    1.03    1.71
   8   4   1    0.23    1.77
   8   4   1   -0.87    2.05
   8   5  -9   13.24    3.17
   8   5  -8   63.96    6.33
   8   5  -7   19.78    3.71
   8   5  -6    0.66    1.66
   8   5  -5    0.70    1.58
  -9   8   1    1.77    2.18
  -9   8   0    0.75    1.85
   9  -8   1    3.11    2.54
   9  -8   2    1.09    2.02
  -9   7   4    4.50    2.23
  -9   7   3   -3.58    1.93
  -9   7   2    2.89    2.09
   9  -7  -2    5.08    2.81
  -9   7   2    6.97    2.25
  -9   7   1    9.66    2.67
   9  -7  -1    8.71    2.96
   9  -7  -1    9.82    2.86
  -9   7   1    9.63    2.53
   9  -7   0   11.31    3.27
  -9   7   0    8.50    2.83
   9  -7   0   11.51    3.44
  -9   7   0    2.38    2.01
  -9   7  -1    9.42    3.06
   9  -7   1    9.20    2.98
  -9   7  -1   12.31    3.37
   9  -7   1    8.28    3.08
  -9   7  -2    3.73    2.51
   9  -7   2    5.09    2.42
  -9   7  -2    3.41    2.48
   9  -7   3    2.26    1.98
  -9   7  -3    0.97    1.95
  -9   6   5    7.01    2.62
   9  -6  -4    9.44    3.28
   9  -6  -4    3.18    2.15
  -9   6   4    5.32    2.37
  -9   6   3   34.66    5.01
   9  -6  -3   32.70    5.06
  -9   6   3   28.39    3.98
   9  -6  -3   27.98    4.44
  -9   6   3   28.79    4.21
  -9   6   2   10.43    2.94
   9  -6  -2   12.71    3.36
  -9   6   2   12.95    2.81
   9  -6  -2   13.14    3.33
  -9   6   2   13.19    3.07
  -9   6   1   40.14    5.21
  -9   6   1   34.58    4.55
   9  -6  -1   36.75    4.95
  -9   6   1   31.38    4.27
   9  -6  -1   38.14    5.01
  -9   6   0   12.96    3.05
   9  -6   0   11.72    2.96
  -9   6   0   11.81    2.79
   9  -6   0   18.16    3.79
  -9   6   0   16.67    3.22
  -9   6  -1    0.58    2.21
   9  -6   1   -1.52    2.25
  -9   6  -1    3.13    2.19
   9  -6   1    5.68    2.54
  -9   6  -1    0.28    1.34
  -9   6  -2    4.11    2.32
   9  -6   2    3.05    1.82
  -9   6  -2    0.15    1.75
   9  -6   2    6.18    2.58
  -9   6  -2    4.70    1.91
  -9   6  -3   11.29    3.23
  -9   6  -3    9.89    3.00
   9  -6   3    4.23    2.39
  -9   6  -4    0.96    1.87
  -9   6  -4   -1.14    2.21
   9  -6   4    5.56    2.81
   9  -6   4    0.58    2.42
   9  -5  -8   14.80    3.50
   9  -5  -7    4.65    2.17
  -9   5   6    5.65    2.62
   9  -5  -6    2.88    2.04
   9  -5  -6    3.51    2.11
  -9   5   6    2.54    1.98
  -9   5   5    7.64    2.61
   9  -5  -5    2.71    2.24
   9  -5  -5    3.24    1.73
  -9   5   5    2.55    2.16
  -9   5   4    8.90    3.01
   9  -5  -4    4.78    2.31
  -9   5   4    6.51    2.12
   9  -5  -4    8.35    2.88
  -9   5   4    8.93    2.79
  -9   5   3    0.07    1.78
   9  -5  -3   -0.93    2.04
  -9   5   3   -0.57    1.73
   9  -5  -3    2.80    2.21
  -9   5   3    0.12    1.66
  -9   5   2   36.74    4.53
  -9   5   2   39.47    4.97
  -9   5   2   33.30    4.43
   9  -5  -2   36.87    4.92
   9  -5  -2   38.89    4.95
  -9   5   1   -1.13    1.59
   9  -5  -1   -0.08    1.76
  -9   5   1   -2.01    1.85
   9  -5  -1   -0.89    2.14
  -9   5   1    1.72    1.66
  -9   5   0   68.05    6.21
  -9   5   0   82.62    7.13
   9  -5   0   77.14    6.52
   9  -5   0   81.02    6.34
   9  -5   0   69.41    6.58
  -9   5  -1   18.09    3.53
   9  -5   1   15.80    3.00
  -9   5  -1   20.37    3.67
   9  -5   1   20.12    3.90
  -9   5  -2    2.60    2.37
   9  -5   2    2.27    1.83
  -9   5  -2    1.09    1.76
   9  -5   2    5.59    2.36
  -9   5  -3    1.15    2.27
  -9   5  -3    0.35    1.72
   9  -5   3    0.25    2.05
   9  -5   3    3.31    2.11
  -9   5  -4    3.07    2.00
  -9   5  -4    4.09    2.31
   9  -5   4    2.58    2.08
   9  -5   4    1.05    1.99
  -9   5  -5    3.85    2.28
  -9   5  -5    4.04    2.11
  -9   5  -5   -0.13    1.82
   9  -5   5    5.47    2.92
   9  -5   5    1.83    2.13
  -9   5  -6    4.70    2.46
  -9   5  -7    1.00    2.17
  -9   4   8   23.82    4.19
   9  -4  -8   19.13    3.89
  -9   4   7    1.37    2.23
   9  -4  -7    0.33    2.25
   9  -4  -7    7.89    2.71
   9  -4  -7    2.36    1.76
  -9   4   7    1.34    1.88
  -9   4   6   -0.99    1.58
   9  -4  -6    1.87    1.90
   9  -4  -6    2.02    1.88
   9  -4  -6    1.30    1.59
  -9   4   6    1.46    1.88
  -9   4   5    0.59    1.83
   9  -4  -5    4.25    2.60
   9  -4  -5    3.47    2.35
   9  -4  -5    1.98    1.86
   9  -4  -5    0.64    1.63
  -9   4   5    1.39    1.86
  -9   4   4    1.73    1.87
   9  -4  -4   -0.06    2.00
   9  -4  -4    0.36    1.68
  -9   4   4   -0.81    1.40
   9  -4  -4   -0.64    1.74
   9  -4  -4    1.14    2.21
  -9   4   4    1.21    2.22
  -9   4   3    1.83    1.57
   9  -4  -3    2.48    1.97
  -9   4   3    3.15    1.92
   9  -4  -3    0.62    1.85
  -9   4   3    1.18    1.69
  -9   4   2   34.78    4.60
  -9   4   2   44.39    5.24
   9  -4  -2   45.48    5.18
   9  -4  -2   35.04    4.56
  -9   4   1   42.32    4.79
  -9   4   1   47.85    5.33
   9  -4  -1   38.17    4.53
   9  -4  -1   40.50    4.88
  -9   4   0    6.23    2.39
   9  -4   0    8.87    2.37
  -9   4   0    9.31    2.52
   9  -4   0    6.58    2.62
  -9   4  -1   -2.08    1.87
   9  -4   1    1.53    1.54
  -9   4  -1    1.72    2.21
   9  -4   1    1.21    1.78
  -9   4  -2   17.94    3.35
  -9   4  -2   18.20    3.47
   9  -4   2   16.38    3.33
   9  -4   2   23.73    4.04
  -9   4  -3    3.10    1.98
  -9   4  -3    8.51    3.15
   9  -4   3    6.98    3.00
   9  -4   3    5.34    2.59
  -9   4  -4    3.02    2.13
  -9   4  -4    0.83    2.00
  -9   4  -4    1.30    2.33
   9  -4   4   -1.61    2.30
   9  -4   4    0.74    1.99
  -9   4  -5    8.98    2.54
  -9   4  -5   13.43    3.91
   9  -4   5    6.00    3.01
   9  -4   5   11.01    3.39
   9  -4   6    5.09    2.19
  -9   4  -6    7.56    2.49
   9  -4   7   -3.03    1.78
  -9   4  -7    1.12    1.93
  -9   3   9    0.80    1.60
   9  -3  -9    3.54    2.19
  -9   3   8   23.42    4.04
   9  -3  -8   24.27    4.71
   9  -3  -8   18.57    3.62
  -9   3   8   17.17    3.68
  -9   3   7   -1.84    1.68
   9  -3  -7   -0.58    1.95
   9  -3  -7    0.13    1.82
  -9   3   7    0.11    1.61
  -9   3   6    6.63    2.50
   9  -3  -6    6.39    2.56
   9  -3  -6    8.76    2.57
   9  -3  -6   10.64    2.67
  -9   3   6    7.77    2.51
  -9   3   5    0.32    1.39
   9  -3  -5    3.12    2.08
   9  -3  -5    1.48    1.51
  -9   3   5    1.69    1.68
   9  -3  -5   -0.51    1.71
  -9   3   5    1.61    1.79
  -9   3   4   22.53    3.76
   9  -3  -4   29.56    4.25
   9  -3  -4   20.27    3.18
   9  -3  -4   19.99    3.46
  -9   3   4   30.16    3.98
  -9   3   4   22.64    3.86
  -9   3   3    1.44    2.01
   9  -3  -3    2.69    2.15
   9  -3  -3   -1.11    1.47
   9  -3  -3    0.89    1.76
  -9   3   3    0.61    1.69
  -9   3   2   -0.29    1.50
   9  -3  -2   -3.22    2.21
   9  -3  -2   -0.48    1.22
   9  -3  -2    1.10    1.89
  -9   3   2   -5.09    2.66
  -9   3   1   -0.65    1.43
   9  -3  -1   -3.16    2.05
   9  -3  -1   -0.77    1.70
  -9   3   1   -1.79    2.55
  -9   3   0    1.57    1.67
   9  -3   0    4.54    2.07
   9  -3   0   -1.26    1.66
  -9   3   0   -3.69    2.31
  -9   3  -1   -0.51    1.80
   9  -3   1    5.22    1.95
   9  -3   1    3.23    2.23
   9  -3   1    4.12    2.09
  -9   3  -1   -0.95    2.67
  -9   3  -2   -0.16    2.27
  -9   3  -2   -2.01    1.55
   9  -3   2    1.82    2.25
   9  -3   2   -1.14    1.83
  -9   3  -2   -1.18    1.86
  -9   3  -3   43.65    5.37
  -9   3  -3   33.95    4.13
   9  -3   3   39.55    5.55
   9  -3   3   35.18    5.03
  -9   3  -3   31.49    4.35
  -9   3  -4    2.97    1.75
  -9   3  -4    3.67    2.07
   9  -3   4    4.78    3.08
   9  -3   4    0.43    1.92
  -9   3  -4   -3.24    2.63
  -9   3  -5   -0.05    1.76
  -9   3  -5    5.58    2.50
   9  -3   5    5.53    2.97
   9  -3   5    4.10    2.56
  -9   3  -5    6.10    2.94
   9  -3   6   -1.19    1.92
  -9   3  -6   -3.85    2.57
  -9   3  -6   -2.11    1.88
  -9   3  -7    5.38    2.49
  -9   2  11    3.70    1.95
  -9   2  10    4.27    2.05
  -9   2   9    2.48    2.08
   9  -2  -9    5.18    2.79
  -9   2   9    5.10    2.98
  -9   2   8    2.04    1.87
   9  -2  -8    3.16    2.14
   9  -2  -8    3.07    2.08
  -9   2   8    4.31    2.62
  -9   2   7   18.87    3.38
   9  -2  -7   18.39    3.95
   9  -2  -7   16.81    3.52
  -9   2   7   15.17    3.46
  -9   2   6    1.89    1.77
   9  -2  -6    3.89    1.96
   9  -2  -6    4.46    2.41
  -9   2   6   -2.52    2.06
  -9   2   6    1.12    1.90
  -9   2   5    3.95    1.92
   9  -2  -5    3.00    2.37
   9  -2  -5    1.02    1.96
   9  -2  -5    1.16    1.60
  -9   2   5   -0.25    1.97
  -9   2   4    4.71    2.32
   9  -2  -4    4.89    2.42
   9  -2  -4    5.74    2.19
   9  -2  -4    2.93    1.74
  -9   2   4    6.75    2.27
  -9   2   3   14.55    2.95
   9  -2  -3   14.97    3.22
   9  -2  -3   11.57    2.62
   9  -2  -3   12.20    2.79
  -9   2   3    8.70    2.44
  -9   2   2    3.00    2.11
   9  -2  -2    3.44    2.05
   9  -2  -2    1.30    1.35
   9  -2  -2    2.31    2.08
  -9   2   2    2.58    1.93
  -9   2   1    0.41    1.56
   9  -2  -1    1.24    1.59
   9  -2  -1    1.24    1.46
   9  -2  -1   -2.93    1.94
   9  -2  -1    3.09    2.27
  -9   2   1   -0.72    2.33
  -9   2   0    9.84    2.78
   9  -2   0    7.53    2.11
   9  -2   0    7.45    2.76
   9  -2   0    7.22    2.44
  -9   2   0    6.07    2.47
  -9   2  -1    1.91    1.97
  -9   2  -1    2.17    1.76
   9  -2   1    3.55    1.84
   9  -2   1    3.40    1.83
   9  -2   1    1.96    1.80
  -9   2  -1   -1.66    2.29
  -9   2  -2    0.91    1.75
  -9   2  -2   -0.11    1.48
   9  -2   2    0.65    1.85
   9  -2   2   -0.84    1.62
  -9   2  -2    1.17    1.93
  -9   2  -3   -4.16    2.27
   9  -2   3    2.06    2.01
   9  -2   3    3.34    2.30
  -9   2  -3   -1.63    2.21
  -9   2  -4    3.89    2.49
  -9   2  -4   -1.08    2.16
   9  -2   4    3.62    2.50
   9  -2   4    1.20    2.39
  -9   2  -4    0.24    2.26
  -9   2  -5    0.03    2.01
  -9   2  -5   -0.03    1.66
   9  -2   5    2.62    2.37
  -9   2  -6    3.60    2.29
  -9   2  -6    9.78    2.96
  -9   1  11   25.11    4.16
  -9   1  10   17.01    3.09
  -9   1  10   16.59    3.29
  -9   1   9    2.32    1.52
   9  -1  -9    5.65    2.74
   9  -1  -9    0.62    1.86
  -9   1   9    1.45    2.19
  -9   1   9    1.70    1.90
  -9   1   8    2.61    1.55
   9  -1  -8    9.47    3.09
   9  -1  -8    3.54    2.12
  -9   1   8    7.27    2.67
  -9   1   8    3.22    2.02
  -9   1   7    3.97    1.96
   9  -1  -7    1.77    2.30
   9  -1  -7    1.01    1.75
  -9   1   7   -0.77    2.05
  -9   1   7    2.34    1.61
  -9   1   6    0.12    1.55
  -9   1   6    1.46    1.41
   9  -1  -6    0.63    2.00
   9  -1  -6   -1.11    1.90
  -9   1   6   -0.68    1.47
  -9   1   5    3.13    2.04
  -9   1   5   -0.15    1.51
   9  -1  -5    2.05    2.04
   9  -1  -5    3.80    2.06
  -9   1   5    2.77    1.63
  -9   1   4   12.37    3.00
  -9   1   4   11.68    2.72
   9  -1  -4   11.11    2.89
   9  -1  -4   16.01    3.23
   9  -1  -4   12.18    2.65
  -9   1   3   24.56    3.92
  -9   1   3   33.11    4.17
   9  -1  -3   26.72    3.95
   9  -1  -3   31.78    4.11
   9  -1  -3   31.76    4.05
  -9   1   3   31.43    3.72
  -9   1   2   17.24    3.48
  -9   1   2   14.71    2.80
  -9   1   2   14.72    3.02
   9  -1  -2   15.10    3.04
   9  -1  -2   15.27    2.83
   9  -1  -2   12.91    2.85
   9  -1  -2   16.11    3.03
  -9   1   1   25.31    3.98
  -9   1   1   29.02    3.65
  -9   1   1   24.50    3.76
  -9   1   1   32.16    3.92
   9  -1  -1   28.11    3.93
   9  -1  -1   27.16    3.65
   9  -1  -1   27.71    3.85
   9  -1  -1   24.83    3.66
  -9   1   0    4.11    2.62
  -9   1   0    1.33    1.47
  -9   1   0    2.63    1.88
  -9   1   0    6.54    2.31
   9  -1   0    5.08    2.04
   9  -1   0   -2.19    2.06
   9  -1   0    0.26    1.64
  -9   1  -1    7.33    2.65
  -9   1  -1    5.95    2.04
  -9   1  -1    9.24    2.73
   9  -1   1   10.37    2.60
   9  -1   1    7.96    2.57
   9  -1   1    9.65    2.69
  -9   1  -2   18.57    3.92
  -9   1  -2   16.65    3.43
   9  -1   2   17.94    3.75
   9  -1   2   18.01    3.43
  -9   1  -3    1.62    2.57
  -9   1  -3    5.35    2.48
   9  -1   3    5.02    2.71
   9  -1   3    4.61    2.41
  -9   1  -4    4.93    2.90
  -9   1  -4    3.80    2.29
  -9   1  -4    3.51    2.22
   9  -1   4    1.47    2.39
   9  -1   4    4.87    2.39
  -9   1  -5    6.39    2.77
  -9   1  -5    9.98    3.35
   9  -1   5   11.30    3.28
  -9   0  11   16.96    3.79
  -9   0  10    6.63    2.40
   9   0  -9    0.91    2.28
   9   0  -9    1.68    1.70
  -9   0   9   -0.62    2.14
  -9   0   9    1.66    1.85
  -9   0   8   -0.08    1.64
   9   0  -8    2.20    2.39
   9   0  -8   -1.77    1.93
  -9   0   8   -1.35    1.99
  -9   0   8    1.80    1.70
  -9   0   7    9.58    2.56
  -9   0   7    9.32    2.78
  -9   0   7    7.92    2.36
   9   0  -7   10.44    3.03
   9   0  -7    8.79    3.19
  -9   0   7    7.64    2.26
  -9   0   6    2.95    1.86
  -9   0   6    4.76    2.31
  -9   0   6    2.18    1.89
   9   0  -6    0.17    1.99
   9   0  -6    2.61    1.98
  -9   0   6    1.86    1.68
  -9   0   5   16.60    3.10
  -9   0   5   18.66    3.55
  -9   0   5   20.53    3.33
   9   0  -5   15.50    3.41
   9   0  -5   19.67    3.52
  -9   0   5   12.54    2.65
  -9   0   4   -3.01    1.98
  -9   0   4    3.68    2.69
  -9   0   4    1.26    1.60
   9   0  -4    1.37    1.97
   9   0  -4   -1.15    1.71
  -9   0   4   -0.58    1.34
  -9   0   3    3.63    2.10
  -9   0   3    6.21    2.61
  -9   0   3    1.61    1.70
   9   0  -3    0.29    1.62
   9   0  -3   -1.11    1.70
   9   0  -3   -1.75    1.64
  -9   0   3   -0.03    1.57
  -9   0   2    9.05    2.58
  -9   0   2   17.66    3.55
  -9   0   2   10.86    2.84
   9   0  -2    9.27    2.64
   9   0  -2   10.37    2.45
   9   0  -2   11.07    2.71
  -9   0   2    8.29    2.27
  -9   0   1   38.37    5.40
  -9   0   1   27.01    3.93
   9   0  -1   28.93    3.97
   9   0  -1   31.37    4.10
   9   0  -1   30.98    3.76
   9   0  -1   33.16    4.00
  -9   0   1   28.13    3.81
  -9   0   0   54.98    5.95
   9   0   0   48.07    4.94
   9   0   0   44.95    4.77
   9   0   0   41.41    4.99
  -9   0   0   50.55    4.88
  -9   0   0   44.90    4.98
  -9   0  -1    8.37    3.11
  -9   0  -1    2.41    2.11
   9   0   1    6.68    2.24
   9   0   1    6.89    2.51
   9   0   1    9.06    2.52
  -9   0  -1    6.51    2.23
  -9   0  -2    8.19    3.12
  -9   0  -2    2.98    1.76
   9   0   2   10.62    3.17
   9   0   2    7.53    2.59
  -9   0  -3    7.06    3.16
  -9   0  -3   14.34    3.47
   9   0   3    7.68    2.98
   9   0   3    8.45    2.73
  -9   0  -4    3.16    2.51
   9   0   4    1.69    2.28
  -9  -1  10    4.70    2.46
  -9  -1   9    5.68    2.76
   9   1  -9    7.19    2.64
  -9  -1   9    4.53    2.17
  -9  -1   9    7.02    2.40
  -9  -1   8   -0.49    1.75
   9   1  -8    4.98    2.67
   9   1  -8    1.87    2.14
  -9  -1   8    2.99    2.21
  -9  -1   7    7.74    2.54
   9   1  -7   14.51    3.54
   9   1  -7   13.66    3.35
  -9  -1   7   17.51    3.40
  -9  -1   6    4.93    2.37
   9   1  -6    4.80    2.44
   9   1  -6    1.31    2.23
  -9  -1   6    3.16    2.02
  -9  -1   5    9.62    2.77
  -9  -1   5    7.76    2.34
   9   1  -5    4.03    1.91
   9   1  -5    5.85    2.42
  -9  -1   5    5.81    2.28
  -9  -1   4    4.54    2.26
  -9  -1   4    3.72    1.93
   9   1  -4    1.64    1.83
   9   1  -4    0.16    1.60
  -9  -1   4   -0.78    1.76
  -9  -1   3    5.26    2.45
   9   1  -3    0.73    2.22
   9   1  -3    2.16    1.86
   9   1  -3    1.75    1.69
  -9  -1   3    3.77    1.94
  -9  -1   2    7.60    2.62
   9   1  -2    9.85    2.89
   9   1  -2    6.29    2.57
   9   1  -2    9.19    2.42
  -9  -1   2    6.18    1.98
   9   1  -1   65.69    5.96
   9   1  -1   61.23    5.78
   9   1  -1   65.91    5.85
  -9  -1   1   66.44    5.96
  -9  -1   1   59.84    5.91
   9   1   0  126.51    8.09
   9   1   0  114.86    8.08
   9   1   0  134.24    8.55
  -9  -1   0  119.77    7.97
  -9  -1   0  113.10    8.21
  -9  -1  -1   -0.74    2.04
   9   1   1    5.94    2.18
   9   1   1    0.59    2.15
  -9  -1  -1    2.31    1.92
  -9  -1  -2   -0.17    2.26
   9   1   2    5.54    2.92
  -9  -1  -2    5.65    2.44
  -9  -1  -3   -0.47    1.84
  -9  -2  10   18.36    3.84
  -9  -2   9    8.53    2.94
  -9  -2   9   11.05    3.34
  -9  -2   8    0.10    1.92
   9   2  -8    5.39    2.72
  -9  -2   8   -0.78    2.04
  -9  -2   7   10.46    3.20
   9   2  -7    9.78    3.10
   9   2  -7   12.23    3.19
  -9  -2   7   14.72    3.35
  -9  -2   6    1.67    2.24
   9   2  -6    1.65    2.00
   9   2  -6   -0.80    1.82
  -9  -2   6    1.32    1.74
  -9  -2   5    3.72    2.19
   9   2  -5    6.56    2.71
   9   2  -5    6.85    2.46
  -9  -2   5   -1.35    2.14
  -9  -2   4    2.12    2.11
   9   2  -4    4.79    2.28
   9   2  -4    0.79    2.21
   9   2  -4   -1.25    1.43
  -9  -2   4    1.54    1.75
  -9  -2   3    2.57    2.03
   9   2  -3    2.77    2.22
   9   2  -3    3.29    1.87
  -9  -2   3   -1.90    1.88
  -9  -2   2    5.87    2.49
   9   2  -2    4.84    2.29
   9   2  -2    2.69    2.18
  -9  -2   2    1.46    1.85
  -9  -2   1    2.99    2.16
   9   2  -1    1.96    1.58
   9   2  -1   -0.07    1.74
   9   2  -1    2.90    2.07
  -9  -2   1    3.83    2.11
  -9  -2   0    9.83    2.86
   9   2   0   10.11    2.78
   9   2   0    7.85    2.75
   9   2   0   15.27    3.38
  -9  -2   0   13.08    3.19
   9   2   1   14.76    3.45
   9   2   1   18.70    4.04
  -9  -2  -1   11.12    3.09
  -9  -3   7    6.74    2.66
  -9  -3   7    9.20    3.04
  -9  -3   6   12.20    3.15
  -9  -3   6    9.11    2.85
  -9  -3   5    0.07    2.35
   9   3  -5   -0.67    1.57
  -9  -3   5   -1.03    1.82
  -9  -3   4    1.72    1.95
   9   3  -4    8.75    2.85
   9   3  -4    3.18    1.73
  -9  -3   4    3.30    2.65
   9   3  -3    4.87    2.44
   9   3  -3    3.17    2.07
  -9  -3   3    6.16    2.55
   9   3  -2   -1.19    1.80
  -9  -3   2    0.19    1.72
   9   3  -1    6.39    2.43
   9   3   0   -0.29    1.76
   9   4  -6    4.00    1.78
   9   4  -5    4.25    2.31
 -10   7   2    9.93    2.71
 -10   7   1   12.41    3.17
 -10   6   2   16.96    3.32
 -10   6   2   14.86    3.36
 -10   6   1   53.09    5.79
  10  -6  -1   48.92    5.70
 -10   6   1   47.03    5.48
 -10   6   0    2.18    2.13
  10  -6   0    5.79    2.50
 -10   6   0    5.26    2.41
 -10   6  -1    3.14    1.89
  10  -5  -6   -0.55    1.83
  10  -5  -5    3.04    2.08
  10  -5  -4    2.12    2.29
 -10   5   3   42.77    5.40
  10  -5  -3   44.06    5.68
 -10   5   3   38.94    4.81
  10  -5  -3   47.15    5.81
 -10   5   2   62.60    6.08
 -10   5   2   68.08    6.54
  10  -5  -2   63.54    6.32
  10  -5  -2   67.75    6.53
  10  -5  -1    5.54    2.53
 -10   5   1    0.24    1.86
  10  -5  -1   -0.44    2.13
 -10   5   1    0.74    1.63
  10  -5   0   22.84    3.64
 -10   5   0   10.51    2.97
  10  -5   0   22.25    4.20
 -10   5  -1    2.89    2.46
  10  -4  -7    5.41    2.75
  10  -4  -5    6.85    2.52
 -10   4   4    7.30    2.62
  10  -4  -4   13.86    3.52
 -10   4   4    5.23    2.22
  10  -4  -4    7.93    2.80
 -10   4   4   11.23    3.49
 -10   4   3   47.13    5.19
 -10   4   3   57.86    6.32
 -10   4   3   52.84    5.85
  10  -4  -3   58.12    5.96
  10  -4  -3   55.34    5.89
 -10   4   2    0.02    1.76
  10  -4  -2    3.17    2.14
 -10   4   2    5.63    2.26
  10  -4  -2   -0.25    2.44
 -10   4   1    3.06    1.93
  10  -4  -1    7.29    2.86
 -10   4   1    4.23    2.28
  10  -4  -1    5.28    2.81
 -10   4   0    0.86    1.69
  10  -4   0   -0.21    1.50
 -10   4   0    3.60    2.00
  10  -4   0    4.37    2.57
 -10   4  -1    6.37    2.90
  10  -4   1    2.09    2.19
  10  -4   1    2.77    2.30
  10  -4   2   23.86    4.36
  10  -3  -7    0.92    1.94
 -10   3   6    0.23    2.06
  10  -3  -6    1.29    1.64
 -10   3   5    2.83    2.04
  10  -3  -5    2.46    2.26
  10  -3  -5    3.05    1.87
 -10   3   5    4.42    1.97
 -10   3   5    3.31    2.58
 -10   3   4   22.61    4.04
  10  -3  -4   14.81    3.38
  10  -3  -4   18.22    3.50
 -10   3   4   16.63    3.49
 -10   3   3    8.00    2.70
  10  -3  -3    7.37    2.84
  10  -3  -3    4.16    2.28
 -10   3   3   10.14    2.85
 -10   3   2    4.65    2.38
  10  -3  -2    4.79    2.34
  10  -3  -2   10.09    2.90
 -10   3   2    5.82    2.61
 -10   3   1    7.41    2.60
  10  -3  -1    8.15    2.56
  10  -3  -1    7.57    2.69
  10  -3  -1    6.89    2.77
 -10   3   1    3.53    2.02
 -10   3   0   15.78    3.50
  10  -3   0   11.97    2.78
  10  -3   0    6.90    2.84
  10  -3   0   14.19    3.28
 -10   3   0    4.48    2.26
 -10   3  -1   11.71    3.33
  10  -3   1   11.93    3.29
  10  -3   1    1.65    2.12
 -10   3  -1    2.26    2.26
  10  -3   2    3.17    2.57
  10  -3   2    1.36    1.84
 -10   3  -5    2.69    1.90
 -10   2   8    2.71    1.72
 -10   2   7   -0.84    1.54
  10  -2  -7   -2.77    2.15
 -10   2   6   20.11    3.64
  10  -2  -6   16.91    3.41
 -10   2   5    0.29    1.79
  10  -2  -5    1.89    2.72
  10  -2  -5    4.10    2.30
 -10   2   5   -4.03    2.46
 -10   2   4   35.02    4.65
  10  -2  -4   40.12    5.15
  10  -2  -4   32.78    4.50
 -10   2   4   30.17    4.24
 -10   2   3    3.17    2.00
  10  -2  -3    4.82    2.40
  10  -2  -3    5.42    2.12
  10  -2  -3    6.36    2.55
 -10   2   3    1.00    1.84
 -10   2   2   -1.87    2.06
  10  -2  -2    0.65    2.08
  10  -2  -2    3.74    2.34
  10  -2  -2   -0.86    1.94
 -10   2   2   -1.47    2.73
 -10   2   1    2.47    2.40
  10  -2  -1    0.91    1.76
  10  -2  -1    1.93    1.88
  10  -2  -1    2.31    1.91
 -10   2   1    3.01    2.24
 -10   2   0   19.77    3.84
  10  -2   0   15.57    3.33
  10  -2   0   16.09    3.47
  10  -2   0   20.52    3.71
 -10   2   0   10.66    3.37
 -10   2  -1    5.29    2.76
  10  -2   1    3.59    2.65
  10  -2   1    0.48    1.74
 -10   2  -1    2.34    2.06
  10  -2   2    4.89    2.86
  10  -2   2   -0.22    1.83
 -10   2  -3   -0.57    2.17
  10  -2   3   -0.46    1.89
 -10   2  -4    3.99    2.57
 -10   1   8    2.81    2.27
 -10   1   7    0.12    1.65
  10  -1  -7   -0.23    2.06
 -10   1   6   11.03    2.87
  10  -1  -6   11.55    3.30
 -10   1   6   11.70    3.00
 -10   1   5   13.63    3.04
  10  -1  -5   10.09    3.20
  10  -1  -5   13.67    3.38
 -10   1   5    8.00    2.88
 -10   1   4    8.15    2.81
 -10   1   4    6.24    2.51
  10  -1  -4    3.81    2.11
  10  -1  -4    7.01    2.49
 -10   1   3   12.25    3.38
 -10   1   3    7.52    2.31
  10  -1  -3    8.21    2.94
  10  -1  -3   10.03    2.68
 -10   1   2    2.40    2.10
 -10   1   2    0.06    1.92
  10  -1  -2    0.26    1.88
  10  -1  -2   -0.74    1.58
  10  -1  -2   -1.19    1.78
 -10   1   1   55.73    6.31
 -10   1   1   79.33    7.02
  10  -1  -1   56.79    5.68
  10  -1  -1   75.47    6.68
 -10   1   0    3.92    2.64
  10  -1   0   -0.95    1.67
  10  -1   0    0.00    1.91
  10  -1   0    0.11    1.71
  10  -1   1    4.36    2.58
  10  -1   1    3.66    2.07
 -10   1  -2    6.75    2.58
  10  -1   2    4.38    2.43
 -10   1  -3   -1.48    2.03
 -10   0   6   -2.00    1.97
  10   0  -6    3.03    2.41
 -10   0   5    3.68    2.09
 -10   0   5    2.83    1.88
  10   0  -5    2.58    2.09
  10   0  -5    0.93    2.41
 -10   0   4   16.21    3.69
 -10   0   4   14.23    2.91
  10   0  -4   13.53    3.46
  10   0  -4   13.03    3.36
 -10   0   3   12.43    3.73
 -10   0   3    7.23    2.52
 -10   0   3   10.20    2.94
  10   0  -3    4.62    2.35
  10   0  -3    8.48    2.72
 -10   0   2   20.22    4.27
 -10   0   2   19.88    3.71
  10   0  -2   22.05    3.90
  10   0  -1   85.93    7.12
  10   0  -1   91.70    7.15
 -10   0   1   82.94    6.91
 -10   0   0    1.83    1.91
  10   0   0    1.70    2.60
 -10   0  -1   19.32    3.89
  10   0   1   14.65    3.74
 -10  -1   8    6.28    2.52
 -10  -1   7   10.20    3.30
 -10  -1   7    7.62    2.82
 -10  -1   6   -1.11    2.08
 -10  -1   6    0.28    1.72
 -10  -1   5    2.65    2.11
 -10  -1   5    7.63    3.36
 -10  -1   5    0.95    1.88
 -10  -1   4    2.83    2.16
 -10  -1   4    6.01    3.55
  10   1  -4   -0.29    2.41
 -10  -1   4    3.70    2.24
 -10  -1   3   11.10    3.12
  10   1  -3   13.51    3.30
 -10  -1   3    4.88    2.14
 -10  -1   2    5.40    2.54
  10   1  -2   13.08    3.13
  10   1  -1    7.61    2.60
  10   1   0   16.58    3.74
  10   1   0   17.72    3.60
 -11   3   4    3.58    2.32
  11  -3  -2   -0.33    1.63
  11  -3  -1    0.55    1.73
TITL 2622 in P-1
REM P-1 (#2 in standard setting)
CELL 0.71073   7.931455   8.204701  12.347363 108.5132  98.0900 103.8048
ZERR    1.00   0.000471   0.000544   0.000758   0.0057   0.0050   0.0054
LATT  1
SFAC C H N O P Fe Sn I
UNIT 40.00 20.00 2.00 4.00 2.00 2.00 2.00 6.00
TREF
HKLF 4
END
_computing_structure_solution     'SHELXT 2014/4 (Sheldrick, 2014)'
;
_shelx_hkl_checksum              6748
_shelx_res_file
;
    2622.res created by SHELXL-2014/7
TITL 2622_a.res in P-1
REM Old TITL 2622 in P-1
REM SHELXT solution in P-1
REM R1 0.179, Rweak 0.005, Alpha 0.053, Orientation as input
REM Formula found by SHELXT: C18
CELL 0.71073 7.9315 8.2047 12.3474 108.513 98.09 103.805
ZERR 2 0.0005 0.0005 0.0008 0.006 0.005 0.005
LATT 1
SFAC C H
UNIT 36 44
L.S. 10
PLAN  20
TEMP -123.15
BOND $H
list 4
fmap 2
acta
OMIT -3 56
REM <olex2.extras>
REM <HklSrc "%.\\2622.hkl">
REM </olex2.extras>
WGHT    0.069000    0.305400
FVAR       0.80945
C1    1    0.888987    0.099899    0.669529    11.00000    0.02632    0.02313 =
         0.03340    0.01349    0.01235    0.01039
C2    1    0.978845    0.255137    0.766689    11.00000    0.02263    0.02965 =
         0.02688    0.01437    0.00670    0.00883
AFIX  43
H2    2    1.054109    0.247001    0.830548    11.00000   -1.20000
AFIX   0
C3    1    0.961393    0.422629    0.772882    11.00000    0.02377    0.02315 =
         0.02755    0.00900    0.01071    0.00477
C4    1    0.848673    0.431288    0.679604    11.00000    0.02831    0.01969 =
         0.03198    0.01341    0.01239    0.00847
AFIX  43
H4    2    0.834421    0.544482    0.683219    11.00000   -1.20000
AFIX   0
C5    1    0.755839    0.278380    0.580782    11.00000    0.02228    0.02753 =
         0.02711    0.01535    0.00988    0.00750
C6    1    0.778183    0.113771    0.576721    11.00000    0.02711    0.02174 =
         0.02626    0.00830    0.00876    0.00485
AFIX  43
H6    2    0.716774    0.008624    0.509405    11.00000   -1.20000
AFIX   0
C7    1    0.624006    0.551185    0.295469    11.00000    0.02432    0.01967 =
         0.02278    0.00668    0.00920    0.00443
AFIX  43
H7    2    0.701744    0.657869    0.356028    11.00000   -1.20000
AFIX   0
C8    1    0.516023    0.565103    0.201586    11.00000    0.02669    0.02319 =
         0.02815    0.01299    0.01362    0.01029
C9    1    0.403373    0.408065    0.113650    11.00000    0.02564    0.02865 =
         0.02588    0.01307    0.00741    0.01149
AFIX  43
H9    2    0.330708    0.415928    0.048563    11.00000   -1.20000
AFIX   0
C10   1    0.394596    0.238962    0.118819    11.00000    0.02503    0.02339 =
         0.02598    0.00718    0.00801    0.00504
C11   1    0.503868    0.230087    0.213643    11.00000    0.02784    0.01958 =
         0.02954    0.01190    0.00916    0.00815
AFIX  43
H11   2    0.498925    0.115575    0.218024    11.00000   -1.20000
AFIX   0
C12   1    0.620523    0.384546    0.302502    11.00000    0.02158    0.02527 =
         0.02435    0.01183    0.00885    0.00805
C13   1    0.739593    0.370696    0.403696    11.00000    0.02420    0.03170 =
         0.02979    0.01661    0.00672    0.00749
AFIX  23
H13A  2    0.821387    0.492177    0.453051    11.00000   -1.20000
H13B  2    0.813396    0.293402    0.372288    11.00000   -1.20000
AFIX   0
C14   1    0.635632    0.292921    0.480245    11.00000    0.02603    0.03574 =
         0.02981    0.01801    0.00772    0.00962
AFIX  23
H14A  2    0.562541    0.370668    0.512262    11.00000   -1.20000
H14B  2    0.553279    0.171706    0.430906    11.00000   -1.20000
AFIX   0
C15   1    0.517562    0.747541    0.197592    11.00000    0.04106    0.02510 =
         0.03875    0.01729    0.01571    0.01408
AFIX 137
H15A  2    0.431262    0.790680    0.239487    11.00000   -1.50000
H15B  2    0.485093    0.737337    0.115615    11.00000   -1.50000
H15C  2    0.637330    0.832974    0.235081    11.00000   -1.50000
AFIX   0
C16   1    0.269911    0.068789    0.024008    11.00000    0.03836    0.02892 =
         0.03322    0.00679    0.00154    0.00089
AFIX 137
H16A  2    0.338802    0.006686   -0.025458    11.00000   -1.50000
H16B  2    0.182639    0.099418   -0.024323    11.00000   -1.50000
H16C  2    0.207283   -0.010302    0.060203    11.00000   -1.50000
AFIX   0
C17   1    0.909464   -0.080873    0.663671    11.00000    0.04377    0.02677 =
         0.05043    0.01663    0.01070    0.01666
AFIX 137
H17A  2    0.995875   -0.065100    0.734058    11.00000   -1.50000
H17B  2    0.952054   -0.132943    0.593662    11.00000   -1.50000
H17C  2    0.793749   -0.161862    0.659492    11.00000   -1.50000
AFIX   0
C18   1    1.064237    0.591002    0.876957    11.00000    0.03499    0.02776 =
         0.03158    0.00483    0.00874    0.00367
AFIX 137
H18A  2    1.023470    0.584131    0.947163    11.00000   -1.50000
H18B  2    1.044290    0.696265    0.862271    11.00000   -1.50000
H18C  2    1.191918    0.602248    0.889208    11.00000   -1.50000
AFIX   0
HKLF 4
REM  2622_a.res in P-1
REM R1 =  0.0569 for    2598 Fo > 4sig(Fo)  and  0.0777 for all    3471 data
REM    167 parameters refined using      0 restraints
END
WGHT      0.0690      0.3054
REM Highest difference peak  0.279,  deepest hole -0.233,  1-sigma level  0.043
Q1    1   0.9720  0.6558  0.9082  11.00000  0.05    0.28
Q2    1   0.9375  0.1798  0.7127  11.00000  0.05    0.26
Q3    1   0.5817  0.3026  0.2449  11.00000  0.05    0.25
Q4    1   0.4359  0.5004  0.1752  11.00000  0.05    0.24
Q5    1   0.9809  0.3383  0.7621  11.00000  0.05    0.24
Q6    1   0.8075  0.3563  0.6220  11.00000  0.05    0.24
Q7    1   1.1244  0.5664  0.9445  11.00000  0.05    0.24
Q8    1   0.6146  0.4616  0.3018  11.00000  0.05    0.24
Q9    1   0.7905  0.1994  0.5680  11.00000  0.05    0.23
Q10   1   0.3373  0.1650  0.0743  11.00000  0.05    0.22
Q11   1   0.3939  0.3179  0.1207  11.00000  0.05    0.22
Q12   1   1.1621  0.6753  0.8551  11.00000  0.05    0.22
Q13   1   0.4216  0.2391  0.1781  11.00000  0.05    0.22
Q14   1   0.5457  0.5654  0.2563  11.00000  0.05    0.21
Q15   1   0.4628  0.2354  0.1556  11.00000  0.05    0.21
Q16   1   0.8420  0.1019  0.6231  11.00000  0.05    0.21
Q17   1   0.7071  0.2790  0.5277  11.00000  0.05    0.21
Q18   1   0.9068  0.0158  0.6690  11.00000  0.05    0.21
Q19   1   0.5237  0.6522  0.2029  11.00000  0.05    0.21
Q20   1   0.8877  0.4245  0.7354  11.00000  0.05    0.19
;
_shelx_res_checksum              35114
loop_
_space_group_symop_operation_xyz
'x, y, z'
'-x, -y, -z'
loop_
_atom_site_type_symbol
_atom_site_label
_atom_site_fract_x
_atom_site_fract_y
_atom_site_fract_z
_atom_site_U_iso_or_equiv
_atom_site_adp_type
_atom_site_calc_flag
_atom_site_occupancy
C C1 0.8890(2) 0.0999(2) 0.66953(14) 0.0257(3) Uani d 1
C C2 0.9788(2) 0.2551(2) 0.76669(14) 0.0251(3) Uani d 1
H H2 1.0541 0.2470 0.8305 0.030 Uiso calc 1
C C3 0.9614(2) 0.4226(2) 0.77288(13) 0.0248(3) Uani d 1
C C4 0.8487(2) 0.4313(2) 0.67960(14) 0.0249(3) Uani d 1
H H4 0.8344 0.5445 0.6832 0.030 Uiso calc 1
C C5 0.7558(2) 0.2784(2) 0.58078(13) 0.0238(3) Uani d 1
C C6 0.7782(2) 0.1138(2) 0.57672(13) 0.0254(3) Uani d 1
H H6 0.7168 0.0086 0.5094 0.030 Uiso calc 1
C C7 0.6240(2) 0.55118(19) 0.29547(13) 0.0225(3) Uani d 1
H H7 0.7017 0.6579 0.3560 0.027 Uiso calc 1
C C8 0.5160(2) 0.5651(2) 0.20159(13) 0.0238(3) Uani d 1
C C9 0.4034(2) 0.4081(2) 0.11365(13) 0.0252(3) Uani d 1
H H9 0.3307 0.4159 0.0486 0.030 Uiso calc 1
C C10 0.3946(2) 0.2390(2) 0.11882(13) 0.0255(3) Uani d 1
C C11 0.5039(2) 0.2301(2) 0.21364(13) 0.0245(3) Uani d 1
H H11 0.4989 0.1156 0.2180 0.029 Uiso calc 1
C C12 0.62052(19) 0.3845(2) 0.30250(13) 0.0225(3) Uani d 1
C C13 0.7396(2) 0.3707(2) 0.40370(14) 0.0273(4) Uani d 1
H H13A 0.8214 0.4922 0.4531 0.033 Uiso calc 1
H H13B 0.8134 0.2934 0.3723 0.033 Uiso calc 1
C C14 0.6356(2) 0.2929(2) 0.48025(14) 0.0288(4) Uani d 1
H H14A 0.5625 0.3707 0.5123 0.035 Uiso calc 1
H H14B 0.5533 0.1717 0.4309 0.035 Uiso calc 1
C C15 0.5176(2) 0.7475(2) 0.19759(15) 0.0321(4) Uani d 1
H H15A 0.4313 0.7907 0.2395 0.048 Uiso calc 1
H H15B 0.4851 0.7373 0.1156 0.048 Uiso calc 1
H H15C 0.6373 0.8330 0.2351 0.048 Uiso calc 1
C C16 0.2699(2) 0.0688(2) 0.02401(15) 0.0371(4) Uani d 1
H H16A 0.3388 0.0067 -0.0255 0.056 Uiso calc 1
H H16B 0.1826 0.0994 -0.0243 0.056 Uiso calc 1
H H16C 0.2073 -0.0103 0.0602 0.056 Uiso calc 1
C C17 0.9095(3) -0.0809(2) 0.66367(17) 0.0386(4) Uani d 1
H H17A 0.9959 -0.0651 0.7341 0.058 Uiso calc 1
H H17B 0.9521 -0.1329 0.5937 0.058 Uiso calc 1
H H17C 0.7937 -0.1619 0.6595 0.058 Uiso calc 1
C C18 1.0642(2) 0.5910(2) 0.87696(15) 0.0340(4) Uani d 1
H H18A 1.0235 0.5841 0.9472 0.051 Uiso calc 1
H H18B 1.0443 0.6963 0.8623 0.051 Uiso calc 1
H H18C 1.1919 0.6022 0.8892 0.051 Uiso calc 1
loop_
_atom_site_aniso_label
_atom_site_aniso_U_11
_atom_site_aniso_U_22
_atom_site_aniso_U_33
_atom_site_aniso_U_12
_atom_site_aniso_U_13
_atom_site_aniso_U_23
C1 0.0263(8) 0.0231(8) 0.0334(8) 0.0104(6) 0.0123(7) 0.0135(7)
C2 0.0226(7) 0.0296(8) 0.0269(8) 0.0088(6) 0.0067(6) 0.0144(7)
C3 0.0238(7) 0.0231(8) 0.0276(8) 0.0048(6) 0.0107(6) 0.0090(6)
C4 0.0283(8) 0.0197(7) 0.0320(8) 0.0085(6) 0.0124(7) 0.0134(6)
C5 0.0223(7) 0.0275(8) 0.0271(8) 0.0075(6) 0.0099(6) 0.0154(6)
C6 0.0271(8) 0.0217(7) 0.0263(8) 0.0049(6) 0.0088(6) 0.0083(6)
C7 0.0243(7) 0.0197(7) 0.0228(7) 0.0044(6) 0.0092(6) 0.0067(6)
C8 0.0267(8) 0.0232(8) 0.0281(8) 0.0103(6) 0.0136(6) 0.0130(6)
C9 0.0256(8) 0.0287(8) 0.0259(8) 0.0115(6) 0.0074(6) 0.0131(6)
C10 0.0250(8) 0.0234(8) 0.0260(8) 0.0050(6) 0.0080(6) 0.0072(6)
C11 0.0278(8) 0.0196(7) 0.0295(8) 0.0081(6) 0.0092(6) 0.0119(6)
C12 0.0216(7) 0.0253(8) 0.0244(7) 0.0080(6) 0.0088(6) 0.0118(6)
C13 0.0242(8) 0.0317(8) 0.0298(8) 0.0075(6) 0.0067(6) 0.0166(7)
C14 0.0260(8) 0.0357(9) 0.0298(8) 0.0096(7) 0.0077(7) 0.0180(7)
C15 0.0411(10) 0.0251(8) 0.0388(9) 0.0141(7) 0.0157(8) 0.0173(7)
C16 0.0384(10) 0.0289(9) 0.0332(9) 0.0009(8) 0.0015(8) 0.0068(7)
C17 0.0438(10) 0.0268(9) 0.0504(11) 0.0167(8) 0.0107(9) 0.0166(8)
C18 0.0350(9) 0.0278(9) 0.0316(9) 0.0037(7) 0.0087(7) 0.0048(7)
loop_
_atom_type_symbol
_atom_type_description
_atom_type_scat_dispersion_real
_atom_type_scat_dispersion_imag
_atom_type_scat_source
C C 0.0033 0.0016 'International Tables Vol C Tables 4.2.6.8 and 6.1.1.4'
H H 0.0000 0.0000 'International Tables Vol C Tables 4.2.6.8 and 6.1.1.4'
loop_
_geom_angle_atom_site_label_1
_geom_angle_atom_site_label_2
_geom_angle_atom_site_label_3
_geom_angle
C2 C1 C6 118.55(13)
C2 C1 C17 121.12(15)
C6 C1 C17 120.33(15)
C1 C2 H2 119.2
C1 C2 C3 121.61(14)
C3 C2 H2 119.2
C2 C3 C18 121.13(15)
C4 C3 C2 118.33(14)
C4 C3 C18 120.53(14)
C3 C4 H4 119.1
C3 C4 C5 121.72(14)
C5 C4 H4 119.1
C4 C5 C14 120.34(14)
C6 C5 C4 118.48(14)
C6 C5 C14 121.18(14)
C1 C6 H6 119.3
C5 C6 C1 121.30(14)
C5 C6 H6 119.3
C8 C7 H7 119.3
C12 C7 H7 119.3
C12 C7 C8 121.48(14)
C7 C8 C15 120.62(14)
C9 C8 C7 118.62(13)
C9 C8 C15 120.74(14)
C8 C9 H9 119.3
C8 C9 C10 121.40(14)
C10 C9 H9 119.3
C9 C10 C16 121.23(15)
C11 C10 C9 118.45(14)
C11 C10 C16 120.32(14)
C10 C11 H11 119.1
C10 C11 C12 121.74(14)
C12 C11 H11 119.1
C7 C12 C11 118.31(13)
C7 C12 C13 121.10(14)
C11 C12 C13 120.59(13)
C12 C13 H13A 109.0
C12 C13 H13B 109.0
C12 C13 C14 113.08(13)
H13A C13 H13B 107.8
C14 C13 H13A 109.0
C14 C13 H13B 109.0
C5 C14 C13 112.70(13)
C5 C14 H14A 109.1
C5 C14 H14B 109.1
C13 C14 H14A 109.1
C13 C14 H14B 109.1
H14A C14 H14B 107.8
C8 C15 H15A 109.5
C8 C15 H15B 109.5
C8 C15 H15C 109.5
H15A C15 H15B 109.5
H15A C15 H15C 109.5
H15B C15 H15C 109.5
C10 C16 H16A 109.5
C10 C16 H16B 109.5
C10 C16 H16C 109.5
H16A C16 H16B 109.5
H16A C16 H16C 109.5
H16B C16 H16C 109.5
C1 C17 H17A 109.5
C1 C17 H17B 109.5
C1 C17 H17C 109.5
H17A C17 H17B 109.5
H17A C17 H17C 109.5
H17B C17 H17C 109.5
C3 C18 H18A 109.5
C3 C18 H18B 109.5
C3 C18 H18C 109.5
H18A C18 H18B 109.5
H18A C18 H18C 109.5
H18B C18 H18C 109.5
loop_
_geom_bond_atom_site_label_1
_geom_bond_atom_site_label_2
_geom_bond_distance
C1 C2 1.388(2)
C1 C6 1.395(2)
C1 C17 1.510(2)
C2 H2 0.9500
C2 C3 1.393(2)
C3 C4 1.387(2)
C3 C18 1.505(2)
C4 H4 0.9500
C4 C5 1.393(2)
C5 C6 1.390(2)
C5 C14 1.510(2)
C6 H6 0.9500
C7 H7 0.9500
C7 C8 1.393(2)
C7 C12 1.391(2)
C8 C9 1.388(2)
C8 C15 1.510(2)
C9 H9 0.9500
C9 C10 1.395(2)
C10 C11 1.388(2)
C10 C16 1.508(2)
C11 H11 0.9500
C11 C12 1.392(2)
C12 C13 1.508(2)
C13 H13A 0.9900
C13 H13B 0.9900
C13 C14 1.527(2)
C14 H14A 0.9900
C14 H14B 0.9900
C15 H15A 0.9800
C15 H15B 0.9800
C15 H15C 0.9800
C16 H16A 0.9800
C16 H16B 0.9800
C16 H16C 0.9800
C17 H17A 0.9800
C17 H17B 0.9800
C17 H17C 0.9800
C18 H18A 0.9800
C18 H18B 0.9800
C18 H18C 0.9800

_cod_database_fobs_code 1549343
