#------------------------------------------------------------------------------
#$Date: 2018-08-11 05:33:18 +0300 (Sat, 11 Aug 2018) $
#$Revision: 209561 $
#$URL: file:///home/coder/svn-repositories/cod/cif/1/54/97/1549780.cif $
#------------------------------------------------------------------------------
#
# This file is available in the Crystallography Open Database (COD),
# http://www.crystallography.net/. The original data for this entry
# were provided by IUCr Journals, http://journals.iucr.org/.
#
# The file may be used within the scientific community so long as
# proper attribution is given to the journal article from which the
# data were obtained.
#
data_1549780
loop_
_publ_author_name
'P\'erez-Ben\'itez, Aar\'on'
'Bern\`es, Sylvain'
_publ_section_title
;
 Redetermination of ammonium metavanadate
;
_journal_coeditor_code           WM4083
_journal_issue                   8
_journal_name_full               IUCrData
_journal_paper_doi               10.1107/S2414314618010805
_journal_volume                  3
_journal_year                    2018
_chemical_formula_iupac          'N H4 +, V O3 -'
_chemical_formula_moiety         '(N H4)+ (V O3)-'
_chemical_formula_sum            'H4 N O3 V'
_chemical_formula_weight         116.98
_chemical_name_common            'Ammonium metavanadate'
_chemical_name_systematic        'Hydroxy(dioxido)vanadium ammoniate'
_space_group_crystal_system      orthorhombic
_space_group_IT_number           57
_space_group_name_Hall           '-P 2c 2b'
_space_group_name_H-M_alt        'P b c m'
_symmetry_space_group_name_Hall  '-P 2c 2b'
_symmetry_space_group_name_H-M   'P b c m'
_atom_sites_solution_hydrogens   difmap
_audit_creation_method           SHELXL-2018/3
_cell_angle_alpha                90
_cell_angle_beta                 90
_cell_angle_gamma                90
_cell_formula_units_Z            4
_cell_length_a                   4.9045(3)
_cell_length_b                   11.7945(5)
_cell_length_c                   5.8231(2)
_cell_measurement_reflns_used    39692
_cell_measurement_temperature    295.0(10)
_cell_measurement_theta_max      33.01
_cell_measurement_theta_min      2.73
_cell_volume                     336.84(3)
_computing_cell_refinement
;
X-AREA (Stoe & Cie, 2018)
;
_computing_data_collection
;
X-AREA (Stoe & Cie, 2018)
;
_computing_data_reduction
;
X-AREA (Stoe & Cie, 2018)
;
_computing_molecular_graphics
;
Mercury (Macrae <i>et al.</i>,  2008) and <i>CaRIne Crystallography</i>
(Boudias &
Monceau, 1998)
;
_computing_publication_material
;
publCIF (Westrip, 2010)
;
_computing_structure_refinement
;
<i>SHELXL2018/3</i> (Sheldrick, 2015b)
;
_computing_structure_solution
;
<i>SHELXT2018/2</i> (Sheldrick, 2015a)
;
_diffrn_ambient_temperature      295.0(10)
_diffrn_detector_area_resol_mean 5.81
_diffrn_measured_fraction_theta_full 0.994
_diffrn_measured_fraction_theta_max 0.998
_diffrn_measurement_device       'Eulerian four-circle diffractometer'
_diffrn_measurement_device_type  'Stoe Stadivari'
_diffrn_measurement_method       '\w scans'
_diffrn_radiation_monochromator  'Graded multilayer mirror'
_diffrn_radiation_type           AgK\a
_diffrn_radiation_wavelength     0.56083
_diffrn_reflns_av_R_equivalents  0.0267
_diffrn_reflns_limit_h_max       8
_diffrn_reflns_limit_h_min       -8
_diffrn_reflns_limit_k_max       19
_diffrn_reflns_limit_k_min       -19
_diffrn_reflns_limit_l_max       8
_diffrn_reflns_limit_l_min       -9
_diffrn_reflns_number            17208
_diffrn_reflns_theta_full        19.664
_diffrn_reflns_theta_max         27.500
_diffrn_reflns_theta_min         3.278
_exptl_absorpt_coefficient_mu    1.412
_exptl_absorpt_correction_T_max  0.6556
_exptl_absorpt_correction_T_min  0.2953
_exptl_absorpt_correction_type   multi-scan
_exptl_absorpt_process_details
;
(<i>X-AREA</i>; Stoe & Cie, 2018)
;
_exptl_crystal_colour            colourless
_exptl_crystal_density_diffrn    2.307
_exptl_crystal_description       prism
_exptl_crystal_F_000             232
_exptl_crystal_size_max          0.320
_exptl_crystal_size_mid          0.093
_exptl_crystal_size_min          0.089
_refine_diff_density_max         0.325
_refine_diff_density_min         -0.354
_refine_ls_extinction_method     none
_refine_ls_goodness_of_fit_ref   1.130
_refine_ls_hydrogen_treatment    refall
_refine_ls_matrix_type           full
_refine_ls_number_constraints    0
_refine_ls_number_parameters     40
_refine_ls_number_reflns         846
_refine_ls_number_restraints     0
_refine_ls_restrained_S_all      1.130
_refine_ls_R_factor_all          0.0190
_refine_ls_R_factor_gt           0.0144
_refine_ls_shift/su_max          0.000
_refine_ls_shift/su_mean         0.000
_refine_ls_structure_factor_coef Fsqd
_refine_ls_weighting_details
'w=1/[\s^2^(Fo^2^)+(0.0248P)^2^+0.0230P] where P=(Fo^2^+2Fc^2^)/3'
_refine_ls_weighting_scheme      calc
_refine_ls_wR_factor_gt          0.0403
_refine_ls_wR_factor_ref         0.0420
_reflns_number_gt                754
_reflns_number_total             846
_reflns_threshold_expression     'I > 2\s(I)'
_cod_data_source_file            wm4083sup1.cif
_cod_data_source_block           I
_cod_database_code               1549780
_shelx_estimated_absorpt_t_min   0.661
_shelx_estimated_absorpt_t_max   0.885
_shelx_hkl_file
;
   0   8  -7  224.68    7.23
  -1   6  -8  147.45    7.77
  -1   6  -7   63.47    5.33
  -2   3  -9   37.72    6.44
  -2  -2  -2   51.17    3.14
  -2  -9  -1    0.53    1.95
  -3  -1  -6  271.48   10.92
  -3 -15  -4   10.93    4.50
  -3  -3  -4   14.34    3.32
  -3 -11  -3  327.63   10.14
  -3 -10  -3  372.07   10.51
  -3  -9  -3  136.62    6.73
  -3  -8  -3  193.09    7.60
  -3  -7  -3    9.54    3.13
   1   9  -7   15.02    3.03
   1   9  -6    1.36    1.98
  -2   3  -8    4.85    4.53
  -2   3  -7   51.67    5.72
  -2   3  -6   37.10    4.46
  -2   0  -3   -0.55    1.76
  -3  -1  -8   35.18    6.36
  -3  -1  -7   27.78    5.56
  -3  -2  -5  395.94   11.75
  -3 -14  -4  136.93    8.01
  -3  -4  -4   55.39    4.97
   0   7  -5   -0.88    1.85
  -1   5  -9    6.59    4.52
  -1   5  -5   22.48    2.91
  -2   2  -9  101.27    8.57
  -2   2  -5  380.43   10.10
  -2   1  -4    1.57    2.57
  -2 -15  -2    1.37    3.17
  -2  -3  -2  190.78    5.69
  -3  -2  -8   56.32    7.57
  -3  -2  -7  196.39   10.80
  -3  -2  -6  113.63    7.57
  -3  -3  -5  442.43   12.75
  -3 -13  -4   58.91    6.12
  -3  -5  -4  664.48   14.41
  -1   5  -8   44.67    5.58
  -1   4  -4   17.23    2.55
  -1   3  -3  471.60    7.68
  -2   2  -8   88.49    7.66
  -2 -17  -3   35.14    5.06
  -3  -3  -8   -1.73    5.50
  -3  -3  -6  113.71    8.11
  -3 -14  -5   23.47    5.69
  -3  -4  -5  377.80   12.18
  -3 -12  -4  133.41    7.88
  -3 -11  -4   10.60    4.26
  -3  -7  -4  383.36   11.59
  -3  -6  -4  549.10   13.44
   0   7  -8    0.27    3.82
  -1   5  -7   10.23    3.77
  -1   5  -6   28.73    3.71
  -2   1  -9   -0.28    5.32
  -2   2  -7  204.95    9.47
  -2   2  -6   50.93    4.86
  -2  -1  -3   88.10    4.43
  -2 -14  -2  233.20    7.70
  -3  -4  -8   13.12    6.38
  -3  -3  -7  198.29   10.72
  -3  -4  -6   28.09    5.83
  -3 -13  -5    2.80    4.84
  -3  -5  -5   71.75    6.62
  -3 -10  -4    2.63    3.90
  -3  -9  -4   80.09    6.31
  -3  -8  -4  245.33    9.60
   0   7  -7   -0.64    3.15
   0   7  -6    2.28    2.55
  -1   4  -9  118.94    8.40
  -2   1  -8   12.62    5.41
  -2   1  -5    6.12    3.03
  -2   0  -4 1925.48   20.93
  -2  -4  -2  362.80    7.75
  -3  -6  -8  155.78   11.28
  -3  -5  -8  132.70   10.12
  -3  -5  -7   39.17    6.99
  -3 -13  -6   98.21    8.83
  -3  -5  -6  105.32    8.35
  -3 -12  -5   52.50    6.67
  -3 -11  -5  202.73   10.25
  -3  -6  -5   31.79    5.40
   0   6  -9   22.17    5.27
   0   6  -4  613.01    8.26
  -1   4  -8    0.67    4.17
  -1 -16  -1  210.89    6.15
  -2   0  -9   -1.33    4.69
  -2   1  -7    1.59    4.26
  -2   1  -6  112.98    7.07
  -2 -16  -3  209.77    8.67
  -2  -2  -3  802.88   12.63
  -2 -13  -2  118.27    5.79
  -2  -5  -2    1.78    2.21
  -3  -7  -8  113.78    9.85
  -3 -11  -7  116.38    9.87
  -3  -7  -7    6.93    5.76
  -3  -6  -7   18.31    6.16
  -3 -12  -6   89.14    8.51
  -3 -11  -6   56.05    7.40
  -3  -7  -6   76.76    7.85
  -3 -10  -5  258.28   11.25
  -3  -9  -5   86.10    7.48
  -3  -8  -5  111.49    7.78
  -3  -7  -5   -1.30    3.58
   1   8  -8   77.25    5.45
  -1   3  -9   26.12    5.87
  -1   4  -5  267.86    7.73
  -2  -1  -9    3.49    5.84
  -2   0  -8  382.73   14.30
  -2 -12  -2  214.35    7.27
  -3 -10  -7  137.51   10.09
  -3  -9  -7   71.90    8.04
  -3  -8  -7   73.20    7.92
  -3 -10  -6    2.13    4.74
  -3  -9  -6    2.81    4.72
  -3  -8  -6  153.13    9.46
   0   6  -8  165.73    8.25
  -1   4  -7  189.59    8.38
  -1   4  -6   61.86    4.80
  -2  -2  -9  112.02    9.76
  -2   0  -7    0.60    4.30
  -2   0  -6  540.44   13.99
  -2   0  -5    0.62    2.53
  -2  -1  -4   -0.21    2.48
  -2 -15  -3    1.70    3.97
  -2 -11  -2   56.98    4.25
  -2  -7  -2   64.22    4.29
  -2  -6  -2 1005.13   13.34
   1   8  -7   85.81    5.07
   1   8  -5  178.22    4.73
  -1   3  -8    1.88    4.16
  -1   3  -4    3.72    2.09
  -1   2  -3 1815.43   15.50
  -2  -1  -8    7.59    5.21
  -2 -16  -4    5.53    4.64
  -2 -14  -3    9.31    3.92
  -2  -3  -3  153.79    5.96
  -2 -10  -2    1.69    2.26
  -2  -9  -2   36.05    3.54
  -2  -8  -2  822.23   12.64
   1   8  -6  346.78    7.70
   0   5  -9    1.57    4.54
   0   6  -7   89.65    5.83
   0   6  -6  748.52   12.82
   0   6  -5  162.10    5.40
  -1   2  -9  152.16    9.84
  -1 -15  -1   16.71    3.09
  -2  -4  -9  129.21   10.73
  -2  -3  -9   32.65    6.88
  -2  -2  -8   88.85    8.64
  -2  -1  -7   -0.54    3.86
  -2  -1  -6  111.63    7.43
  -2  -1  -5    5.61    2.97
  -2 -15  -4   -0.14    4.39
  -2  -2  -4  278.86    8.70
  -2  -4  -3  960.47   14.45
  -1   3  -7   54.83    5.60
  -1   3  -6   35.12    4.19
  -1   3  -5  156.08    6.39
  -2  -3  -8    2.55    5.83
  -2 -13  -3   -1.04    3.22
   0   4  -9  187.42   10.24
   0   5  -8    1.29    4.38
  -1   1  -9    6.32    5.46
  -1   2  -8  131.89    8.59
  -1 -17  -2    0.22    2.99
  -2  -4  -8   11.01    6.29
  -2  -2  -6   51.26    5.56
  -2 -15  -5    0.32    4.83
  -2  -2  -5  414.70   11.59
  -2 -14  -4  257.99   10.44
  -2  -3  -4   18.40    3.26
  -2 -12  -3   85.62    5.69
  -2  -5  -3   69.90    4.56
   1   7  -8   26.86    4.61
  -1   0  -9   -0.48    5.32
  -1   2  -7  343.78   11.68
  -1   2  -4  568.30   10.38
  -1 -18  -3   41.47    5.29
  -1 -14  -1   43.54    3.61
  -2  -6  -8  133.26   10.59
  -2  -5  -8   51.99    7.89
  -2  -3  -7   55.41    6.89
  -2 -14  -6  121.90    9.45
  -2  -3  -6   36.51    5.65
  -2 -14  -5    5.65    4.89
  -2  -3  -5  100.32    6.66
  -2 -13  -4   20.56    4.94
  -2  -4  -4   23.57    3.82
  -2 -11  -3   50.54    4.78
  -2 -10  -3  335.17    9.85
  -2  -7  -3   22.67    3.53
  -2  -6  -3  170.49    6.62
   1   6  -9   20.53    5.35
   0   5  -7    1.58    3.68
   0   5  -4    0.03    1.80
  -1   1  -8    8.25    5.37
  -1   2  -6   46.39    4.80
  -1   2  -5  731.18   13.36
  -1   1  -3   46.46    3.00
  -2  -9  -8   34.06    7.63
  -2  -8  -8   91.40    9.65
  -2  -7  -8   33.93    7.13
  -2 -12  -7   33.04    7.11
  -2  -5  -7   26.11    6.75
  -2  -4  -7  273.11   12.23
  -2 -13  -6   62.62    7.79
  -2  -4  -6   84.21    7.27
  -2 -13  -5    2.50    4.74
  -2  -4  -5  497.48   13.34
  -2 -12  -4  236.17    9.84
  -2  -5  -4  192.58    7.93
  -2  -9  -3    5.61    3.26
  -2  -8  -3  466.12   11.09
   2   9  -6    9.25    2.52
   1   7  -7    3.80    3.42
   0   3  -9    1.19    5.19
   0   4  -8   10.79    4.84
   0   5  -6    1.99    2.96
  -1  -1  -9   -0.35    5.72
  -1 -16  -2    5.44    3.46
  -2 -11  -7   35.31    7.32
  -2 -10  -7  147.66   10.86
  -2  -9  -7   14.30    6.50
  -2  -8  -7  124.80    9.86
  -2  -7  -7    3.88    5.93
  -2  -6  -7   40.61    6.67
  -2 -12  -6  100.87    8.92
  -2  -5  -6    6.17    5.00
  -2 -12  -5   69.38    7.11
  -2  -5  -5   54.79    5.83
  -2 -11  -4   -3.41    3.65
  -2 -10  -4    4.04    3.73
  -2  -6  -4  352.87   10.60
   0   5  -5    1.96    2.30
  -1  -2  -9  163.07   11.33
  -1   0  -8  423.33   14.77
  -1   1  -7    4.40    4.14
  -1 -17  -3    5.98    4.30
  -1 -13  -1    8.16    2.46
  -2 -11  -6   29.72    5.97
  -2 -10  -6   -2.60    5.16
  -2  -9  -6    1.39    5.31
  -2  -8  -6  296.16   12.64
  -2  -7  -6    2.50    5.22
  -2  -6  -6  344.02   12.70
  -2 -11  -5   33.11    5.94
  -2 -10  -5  243.27   10.83
  -2  -7  -5    3.35    4.23
  -2  -6  -5   83.85    6.67
  -2  -9  -4  154.77    7.87
  -2  -8  -4  306.45   10.33
  -2  -7  -4   35.11    4.45
   2   8  -8   79.82    5.73
   1   5  -9    6.31    5.05
   1   6  -8  153.33    8.26
   0   2  -9  160.82   10.37
   0 -16   0    3.34    2.03
  -1  -3  -9   28.36    7.57
  -1  -1  -8    8.54    5.76
  -1   1  -6   84.18    6.04
  -1   1  -4   36.94    3.55
  -1 -15  -2   17.49    3.99
  -1  -1  -2  696.23    8.97
  -2  -9  -5    9.11    4.27
  -2  -8  -5  266.15   10.67
   1   7  -6   14.17    3.20
   0   3  -8   -0.90    4.29
   0   4  -7  467.64   12.56
  -1  -4  -9  124.29   10.64
  -1   0  -7    1.49    4.18
  -1   1  -5   14.43    2.98
  -1 -17  -4   -1.93    4.54
  -1   0  -3   -0.82    1.61
  -1 -12  -1  175.86    5.57
   1   7  -5    0.63    2.04
   0   1  -9   -2.65    5.26
  -1  -6  -9   16.81    7.18
  -1  -5  -9    1.12    5.75
  -1  -2  -8  132.65    9.46
  -1  -1  -7    2.79    4.56
  -1   0  -6  361.78   11.40
  -1 -16  -3  214.76    9.06
   1   4  -9  116.17    8.62
   0   4  -6  217.29    7.90
  -1  -3  -8    0.53    4.97
  -1 -16  -5  141.58    9.59
  -1   0  -5   -0.15    2.77
  -1 -16  -4   29.73    5.85
  -1   0  -4 1885.08   19.94
  -1 -14  -2  273.64    8.42
  -1  -2  -2    6.48    1.84
  -1 -11  -1  134.11    4.91
   2   8  -7  104.33    5.63
   1   5  -8   39.14    5.71
   1   6  -7   68.64    5.42
   0   0  -9    1.01    5.70
   0   2  -8  159.97    9.35
   0   3  -7    2.10    3.79
   0   4  -5 1024.51   14.40
   0   4  -4   25.46    2.66
  -1  -5  -8   39.82    7.64
  -1  -4  -8    1.35    5.19
  -1  -2  -7  344.53   12.93
  -1  -1  -6   87.38    6.56
  -1 -15  -3   12.70    4.34
  -1  -1  -3   47.91    3.49
   2   7  -8   29.79    5.06
  -1 -10  -8   15.49    6.42
  -1  -9  -8    5.00    6.57
  -1  -8  -8   87.69    9.60
  -1  -7  -8   25.29    7.35
  -1  -6  -8  176.17   11.37
  -1 -13  -7   -0.84    5.76
  -1  -3  -7   58.77    7.18
  -1 -14  -6  149.06   10.45
  -1 -15  -5    7.04    5.31
  -1  -1  -5   13.56    3.56
  -1 -15  -4    0.77    4.45
  -1 -13  -2   76.38    5.06
  -1  -9  -1   71.73    3.74
  -1  -7  -1   14.17    2.21
   1   3  -9   25.10    6.09
   0  -1  -9   -2.14    5.12
   0   1  -8    4.29    5.29
   0   3  -6   -0.86    3.21
   0 -18  -2   99.88    6.22
   0 -17  -1    7.80    3.08
  -1 -12  -7   50.37    7.55
  -1 -11  -7   24.84    7.18
  -1  -4  -7  213.36   11.13
  -1 -13  -6   38.48    7.07
  -1  -2  -6   41.06    5.11
  -1 -14  -5   18.40    5.60
  -1 -14  -4  352.76   12.37
  -1  -1  -4   38.85    3.76
  -1 -14  -3   41.15    4.95
  -1 -12  -2   26.73    3.56
  -1  -3  -2  454.06    7.93
  -1  -8  -1  348.63    6.81
   1   4  -8    1.29    4.63
   0  -2  -9  184.19   11.60
   0   2  -7  409.40   12.59
  -1 -10  -7  208.70   12.32
  -1  -9  -7   18.00    6.94
  -1  -8  -7   88.44    9.12
  -1  -7  -7   -0.40    5.94
  -1  -6  -7   63.05    7.86
  -1  -5  -7   12.28    5.47
  -1 -12  -6   33.53    6.73
  -1  -3  -6   38.05    5.44
  -1  -2  -5  762.93   15.31
  -1 -13  -3    5.89    3.83
  -1  -2  -3 1843.78   18.07
   2   8  -6  271.45    7.31
   1   2  -9  144.25    9.99
   1   5  -7   10.63    4.12
   0  -4  -9  212.95   13.10
   0  -3  -9   -1.94    5.61
   0   3  -5    6.05    3.03
  -1 -11  -6   16.13    6.06
  -1  -4  -6   65.18    6.49
  -1 -13  -5    1.43    4.32
  -1 -13  -4   15.87    4.70
  -1  -2  -4  576.69   11.81
  -1 -11  -2   58.34    4.31
  -1  -4  -2  157.64    5.07
   1   6  -5  109.18    4.72
   0  -6  -9   24.99    7.84
   0  -5  -9   -2.02    6.42
   0  -1  -8   -0.08    5.93
   0   1  -7    1.43    4.12
   0   2  -6   39.42    4.54
   0   3  -4   -0.59    2.03
   0 -18  -3   72.07    6.41
  -1 -10  -6   -1.14    4.63
  -1  -9  -6    0.91    5.47
  -1  -7  -6   12.38    5.81
  -1  -5  -6   31.53    5.32
  -1 -12  -5  106.65    7.95
  -1 -11  -5   46.46    6.29
  -1  -3  -5  151.00    7.47
  -1 -12  -4  132.74    7.88
  -1  -3  -4    3.27    2.96
  -1 -12  -3  134.00    6.88
  -1  -3  -3  470.94    9.61
  -1 -10  -2    5.52    2.68
   2   6  -8  121.59    7.67
   2   7  -7    6.78    3.71
   1   1  -9   -1.07    5.47
   1   3  -8   -2.24    4.26
   0  -2  -8  164.48   10.76
   0 -17  -2   -0.84    3.56
   0 -16  -1  516.50   10.26
  -1 -10  -5  370.34   13.07
  -1  -5  -5   18.57    4.35
  -1  -4  -5  265.37    9.69
  -1 -11  -4    3.02    3.93
  -1 -11  -3   98.18    6.08
  -1  -4  -3  325.03    8.37
  -1  -9  -2   -4.61    2.16
  -1  -6  -2 2377.59   19.78
  -1  -5  -2  255.71    6.49
   2   4  -9  125.75    9.25
   1   4  -7  204.56    8.97
   0  -3  -8    1.80    5.99
   0   0  -7   -1.90    4.19
   0 -17  -4    0.36    5.01
   0 -17  -3   -1.12    4.45
  -1  -9  -5   20.65    4.83
  -1  -8  -5  177.22    9.14
  -1  -7  -5   -0.77    3.90
  -1  -6  -5  133.15    7.58
  -1 -10  -4   84.28    6.28
  -1  -5  -4  309.90    9.64
  -1  -4  -4   14.83    3.21
  -1 -10  -3  538.28   12.34
  -1  -5  -3   38.26    3.78
  -1  -8  -2 1048.33   14.02
  -1  -7  -2   44.68    3.73
   2   8  -5  250.26    6.04
   1   0  -9   -0.62    5.56
   1   2  -8  140.80    9.22
   1   5  -6   27.10    3.81
   1   6  -4  540.79    7.90
   0 -10  -8   17.61    7.27
   0  -9  -8   -4.71    6.35
   0  -5  -8   -0.56    6.00
   0  -4  -8    7.30    5.52
   0  -1  -7   -2.87    4.50
   0   1  -6   -0.62    3.33
   0   2  -5  907.29   14.68
  -1  -9  -4   24.80    4.18
  -1  -8  -4  227.64    8.98
  -1  -7  -4  141.12    7.25
  -1  -6  -4  572.05   13.10
  -1  -9  -3   54.80    4.80
  -1  -8  -3  245.46    8.17
  -1  -7  -3    0.88    2.69
  -1  -6  -3  317.03    8.77
   2   3  -9   34.91    6.90
   2   5  -8   59.93    6.68
   1  -1  -9    3.68    6.07
   0  -8  -8  127.77   10.61
   0  -7  -8   -3.14    5.64
   0  -6  -8  174.64   11.47
   0 -13  -7    1.17    6.09
   0 -15  -6   -2.06    5.60
   0 -16  -5  270.87   12.67
   0 -16  -2    6.24    3.89
   0 -15  -1   -2.10    3.01
   3   7  -8  106.52    7.35
   1  -2  -9  159.61   11.51
   1   1  -8    4.22    5.18
   1   3  -7   50.47    5.79
   0 -12  -7   52.91    7.87
   0 -11  -7    0.02    6.28
   0  -2  -7  396.91   13.68
   0 -14  -6  179.64   11.58
   0   0  -6 1097.53   19.26
   0 -15  -5   -6.94    5.40
   0 -16  -4   10.31    4.90
   0   2  -4  696.53   11.20
   0 -16  -3  465.49   13.37
   3   8  -7   53.39    4.93
   3   9  -6    2.54    2.71
   2   2  -9  108.86    9.41
   2   6  -7   45.31    5.19
   2   7  -6    1.24    3.12
   1  -4  -9  117.84   10.77
   1  -3  -9   16.98    6.63
   1   5  -5   21.80    3.12
   0 -10  -7  235.86   13.28
   0  -4  -7  494.65   16.12
   0  -3  -7    0.28    4.45
   0 -13  -6    0.57    5.99
   0   1  -5   -0.32    2.66
   0   2  -3 2332.83   16.80
   0 -13   0   -2.81    2.45
   2   4  -8    5.55    5.33
   1  -6  -9   20.35    7.65
   1  -5  -9    6.32    6.29
   1   0  -8  399.56   14.83
   1   4  -6   59.10    4.79
   0  -9  -7   -1.17    5.59
   0  -8  -7  244.72   12.98
   0  -7  -7   -4.32    5.83
   0  -6  -7   96.86    9.04
   0  -5  -7   -0.27    4.96
   0 -12  -6  146.30   10.39
   0  -1  -6   -1.46    3.35
   0 -14  -5    7.79    5.42
   0 -15  -4   -1.09    4.78
   0 -15  -3   -2.72    4.25
   0 -15  -2   -1.35    3.46
   2   1  -9    1.34    5.79
   1  -1  -8    3.09    5.98
   1   2  -7  334.75   11.72
   0 -11  -6   -1.14    5.67
   0  -2  -6   43.91    5.43
   0 -13  -5   -1.00    4.85
   0   0  -5    0.20    2.81
   0   1  -4    3.85    2.64
   0 -14  -1   19.52    3.30
   3   6  -8  145.55    8.72
   2   0  -9   -1.28    6.22
   2   5  -7   20.81    4.97
   1  -2  -8  140.57   10.34
   0 -10  -6    2.26    5.83
   0  -3  -6    0.00    4.06
   0 -14  -4  492.75   14.68
   2   3  -8    3.44    4.82
   1 -10  -8   21.39    7.66
   1  -3  -8    0.77    5.98
   1   1  -7    6.36    4.41
   1   3  -6   37.86    4.40
   1   5  -4  299.80    6.54
   1 -18  -1   34.81    4.31
   0  -9  -6   -8.89    4.58
   0  -8  -6  613.34   17.72
   0  -7  -6   -1.37    5.55
   0  -6  -6  772.53   18.91
   0  -5  -6   -0.82    4.88
   0  -4  -6  230.60   10.24
   0 -12  -5  113.86    8.67
   0  -1  -5   -3.46    2.96
   0 -13  -4   -6.86    4.26
   0 -14  -3   22.53    4.53
   0 -14  -2  391.48   10.48
   2  -1  -9   -0.80    5.98
   2   6  -6  346.81    9.58
   1  -9  -8    7.93    6.52
   1  -8  -8   92.19   10.20
   1  -7  -8   33.90    8.25
   1  -6  -8  158.41   11.84
   1  -5  -8   36.27    7.77
   1  -4  -8   -3.74    5.15
   1 -13  -7    3.73    6.65
   1   4  -5  269.02    7.80
   1 -18  -3   37.92    6.16
   1 -18  -2  112.32    7.18
   0 -11  -5   -3.06    4.75
   0  -2  -5  959.03   17.10
   0   0  -4 6098.70   35.27
   0   1  -3   -2.08    1.66
   0 -13  -1   -0.31    2.48
   3   5  -8  134.32    8.88
   3   7  -7    2.03    3.94
   2  -3  -9   37.63    8.38
   2  -2  -9  105.88    9.81
   2   2  -8   89.69    8.02
   2   7  -5    5.95    2.66
   1 -12  -7   58.99    8.97
   1   0  -7   -3.08    3.46
   1 -16  -5  137.83   10.12
   1 -17  -4    0.18    5.05
   0 -10  -5  453.99   14.50
   0 -12  -4  524.11   14.62
   0 -13  -3   -0.71    3.43
   0 -13  -2   -3.53    2.98
   3   8  -6  131.53    6.07
   2  -4  -9  133.15   11.19
   2   1  -8    3.94    5.82
   2   4  -7  264.53   10.27
   1 -11  -7   30.96    7.98
   1  -1  -7    7.61    5.02
   1 -14  -6  142.02   11.01
   1   2  -6   45.75    4.85
   0  -9  -5    2.07    4.24
   0  -8  -5  636.36   16.37
   0  -4  -5 1017.79   18.56
   0  -3  -5   -1.14    3.13
   0 -11  -4   -1.44    3.75
   0  -1  -4   -5.76    2.98
   3   9  -5   75.76    3.98
   1 -10  -7  209.41   12.56
   1  -9  -7   16.76    7.13
   1  -2  -7  335.03   13.18
   1 -13  -6   24.37    7.09
   1 -15  -5    6.62    6.02
   1 -17  -3   10.01    5.22
   1 -17  -1   13.87    3.85
   0  -7  -5   -6.27    3.41
   0  -6  -5  172.35    8.56
   0  -5  -5   -2.73    3.42
   0 -10  -4   71.95    6.13
   0 -12  -3  125.13    6.94
   0   0  -3   -0.20    1.86
   0 -12  -1  174.73    5.98
   3   4  -8   14.08    5.97
   2   0  -8  365.91   14.67
   2   3  -7   47.24    6.15
   1  -8  -7   87.08    9.29
   1  -7  -7    3.15    6.37
   1  -6  -7   61.82    8.17
   1  -5  -7    4.55    6.00
   1  -4  -7  207.51   11.49
   1  -3  -7   55.57    6.76
   1   1  -6   91.27    6.34
   1   3  -5  159.83    6.49
   1 -16  -4   31.80    6.19
   1 -17  -2   -0.88    4.05
   0  -9  -4   -4.02    3.39
   0  -2  -4  710.35   13.10
   0 -11  -3   -1.42    3.25
   0 -12  -2  339.07    9.35
   3   6  -7   16.97    4.84
   2  -1  -8    2.38    6.11
   2   5  -6    4.72    3.39
   1 -12  -6   40.61    7.00
   1   0  -6  357.60   11.63
   1 -14  -5   22.26    6.39
   1   4  -4   16.63    2.62
   0  -8  -4  600.23   14.25
   0  -3  -4   -2.00    2.83
   3   3  -8    0.46    5.43
   2  -9  -8   24.53    8.23
   2  -8  -8  104.32   10.99
   2  -3  -8    0.34    6.05
   2  -2  -8   78.16    8.75
   2   2  -7  203.03    9.99
   1 -11  -6   20.62    6.05
   1 -15  -4   -1.63    4.95
   1 -16  -3  207.12    9.91
   1 -16   0   47.20    4.07
   0  -7  -4   -2.27    2.94
   0  -6  -4  648.01   14.07
   0  -5  -4   -2.55    2.99
   0  -4  -4   22.86    3.53
   0 -10  -3  646.48   13.83
   0  -1  -3   -0.36    1.79
   0 -11  -2   -1.07    2.47
   0 -11  -1   -2.74    2.27
   2  -7  -8   35.11    7.90
   2  -6  -8  127.29   11.26
   2  -5  -8   65.15    9.10
   2  -4  -8    9.20    6.09
   2   6  -5   76.00    4.49
   1 -10  -6   -3.49    4.94
   1  -1  -6   90.38    6.87
   1 -13  -5    2.64    5.29
   1   2  -5  758.43   13.80
   1 -16  -2    6.97    4.32
   0  -9  -3   -5.38    2.97
   3   2  -8   61.65    7.71
   3   5  -7   34.98    5.79
   3   7  -6   66.55    5.37
   2 -12  -7   38.54    7.81
   2   1  -7   -2.08    4.30
   2   4  -6   84.97    5.93
   1  -9  -6   -4.87    5.00
   1  -3  -6   39.93    5.75
   1  -2  -6   46.90    5.46
   1 -12  -5  114.99    9.17
   1 -14  -4  366.06   13.48
   1 -15  -3   14.70    5.35
   1 -16  -1  234.51    8.27
   0  -8  -3 1265.34   18.16
   0  -2  -3 2401.78   20.42
   0 -10  -2    0.27    2.39
   3   1  -8   25.01    7.08
   2 -11  -7   38.23    7.92
   2   0  -7    0.22    4.40
   2 -14  -6  117.75   10.80
   2   7  -4   34.45    2.70
   1  -7  -6   10.67    5.28
   1  -6  -6  673.31   17.95
   1  -5  -6   27.32    5.95
   1  -4  -6   72.79    6.69
   1 -11  -5   46.09    6.80
   1   1  -5   15.72    3.37
   0  -7  -3   -7.63    2.73
   0  -6  -3  439.68   10.33
   0  -4  -3 2531.81   22.59
   0  -3  -3   -3.54    2.21
   0 -10  -1  912.41   12.17
   4   7  -7   14.64    4.69
   2 -10  -7  144.45   11.34
   2  -9  -7   15.51    7.33
   1 -13  -4   12.93    5.19
   1   3  -4    3.85    2.03
   1 -15  -2   20.76    4.66
   0  -5  -3   -4.15    2.22
   4   4  -8    7.52    5.66
   3  -1  -8   33.23    7.44
   3   0  -8  191.51   11.75
   3   4  -7  193.51    9.69
   3   8  -5  114.46    5.26
   2  -8  -7  117.55   10.67
   2  -2  -7  216.75   11.53
   2  -1  -7   -2.03    4.04
   2 -13  -6   71.31    8.78
   2   3  -6   33.55    4.52
   2 -15  -5    0.72    6.04
   1 -10  -5  381.41   13.69
   1   0  -5   -0.49    2.77
   1 -14  -3   37.45    5.29
   0  -8  -2 2470.93   21.99
   4   3  -8    0.95    5.71
   3  -7  -8   98.26   11.22
   3  -2  -8   56.72    8.71
   3   6  -6  290.63    9.71
   2  -7  -7    1.22    5.68
   2  -6  -7   42.77    7.88
   2  -5  -7   21.55    7.05
   2  -4  -7  270.50   13.27
   2  -3  -7   51.30    7.33
   2 -12  -6   99.15    9.99
   2   5  -5   52.67    4.16
   2 -16  -4    1.60    5.73
   2 -18  -2   50.26    6.37
   1  -9  -5   26.36    5.38
   1  -1  -5   13.32    3.73
   1 -12  -4  140.34    8.68
   1 -15   0    5.58    3.06
   4   6  -7    3.66    4.89
   3  -6  -8  158.33   12.33
   3  -4  -8   15.37    6.77
   3  -3  -8    2.59    5.94
   3   3  -7  192.11   10.06
   2 -11  -6   25.03    7.46
   2   2  -6   52.93    5.35
   2 -14  -5    7.52    6.15
   2 -17  -3   32.79    6.32
   2 -18  -1   60.43    5.84
   1  -8  -5  181.57    9.47
   1  -7  -5   -0.47    4.24
   1  -2  -5  772.55   15.82
   1 -11  -4    4.44    4.30
   1   2  -4  562.76   10.40
   1 -13  -3    2.99    3.84
   1 -14  -2  283.69    9.89
   0  -6  -2 3162.87   23.14
   0  -5  -2   -5.32    2.08
   0  -3  -2   -3.67    1.64
   0  -8  -1 2141.91   17.20
   4   2  -8    9.87    6.15
   3 -11  -7  110.99   11.51
   2 -10  -6   -3.55    5.85
   2   1  -6  110.72    7.52
   1  -6  -5  129.13    7.81
   1  -5  -5   23.50    4.86
   1  -4  -5  285.81   10.59
   1  -3  -5  170.85    8.19
   0  -4  -2 1476.09   14.56
   4   1  -8   56.22    8.28
   3   2  -7  181.47   10.10
   2  -9  -6   13.16    6.86
   2 -13  -5   -2.06    5.46
   2 -15  -4    2.64    5.57
   1 -10  -4   86.70    6.92
   1 -12  -3  138.71    7.61
   3 -10  -7  154.84   12.30
   2 -15  -4   -1.30    7.23
   2 -14   0  381.75   12.69
   2 -13   1    2.58    3.52
   1  -4  -8   -0.04    5.12
   1  -3  -8    1.16    5.22
   1   0  -8  419.50   12.68
   1   1  -8    6.44    4.43
   1  -8  -7   90.51    9.49
   1 -10  -6    6.49    6.53
   1 -11  -5   51.93    8.32
   1 -12  -4  149.23   10.15
   1 -12  -3  146.98    9.73
   1 -12  -2   37.19    5.77
   1  -9   1   75.13    4.22
   0  -4  -5 1042.95   18.02
   0  -6  -4  638.93   14.58
   3 -14   2  181.21    8.04
   2 -12  -7   40.46    8.55
   2 -13  -6   66.04   10.25
   2 -14  -5    7.81    7.68
   2 -15  -3    1.95    5.83
   2 -11   2   49.93    3.91
   1  -2  -8  139.28    8.81
   1  -1  -8    5.47    4.97
   1  -7  -7   -0.62    5.83
   1   5  -7    9.04    2.66
   1 -11  -1  152.18    7.82
   0  -3  -5   -1.22    3.24
   0  -2  -5  926.42   15.25
   0   0  -5   -0.49    2.49
   0   1  -5   -0.75    2.14
   0  -5  -4   -3.34    3.01
   0  -6  -3  444.19   11.30
   0  -6  -2 3151.20   26.45
   0  -5  -1   -2.67    1.62
   3 -12   3   75.29    4.50
   2  -9  -8   35.26    8.69
   2 -11  -7   25.77    8.44
   1  -6  -7   65.74    7.77
   1  -9  -6   -0.52    5.42
   1 -11  -4    1.95    4.67
   1 -10   0  215.86    7.74
   0  -1  -5   -2.63    2.34
   3 -16  -4    3.57    7.27
   2  -4  -9  134.19   10.74
   2 -12  -6  105.20   11.11
   2 -13  -5    2.20    6.85
   2 -14  -4  273.53   14.44
   2 -14  -3    7.54    6.44
   1  -8  -6  375.36   14.89
   1 -11  -3  106.48    7.92
   0  -4  -4   26.69    3.58
   0  -5  -3   -1.20    2.44
   0  -5  -2   -5.30    2.14
   3 -16  -3  136.64   11.89
   2  -3  -9   30.88    6.93
   2  -2  -9  105.11    9.26
   2   2  -9   92.00    7.33
   2  -8  -8   98.65   10.54
   2 -10  -7  147.07   12.38
   1  -5  -7    5.21    5.09
   1   4  -7  196.88    6.46
   1  -9  -5   27.74    6.61
   1 -10  -4   89.70    8.03
   1 -10  -1  728.96   15.00
   1  -8   1  351.78    7.41
   0  -3  -4   -1.91    2.52
   0  -4  -3 2514.32   23.04
   2  -1  -9    0.06    5.34
   2   0  -9   -1.59    5.15
   2   1  -9    0.31    5.04
   2  -7  -8   36.71    8.32
   2 -11  -6   29.96    8.08
   2 -13  -4   26.81    7.74
   1  -4  -7  202.74   10.30
   1  -7  -6   18.31    6.06
   1 -10  -3  558.31   15.57
   1  -9   0   69.22    4.56
   0  -2  -4  700.36   11.98
   0  -4  -2 1455.23   15.61
   3 -15  -4   17.74    7.90
   2  -6  -8  126.04   10.61
   2  -9  -7   21.83    7.82
   2 -12  -5   78.17    9.17
   2 -13  -3    3.07    5.93
   1  -3  -7   48.57    6.09
   1  -2  -7  351.07   11.99
   1   3  -7   53.96    4.58
   1  -6  -6  667.00   17.78
   1  -8  -5  174.48   10.05
   1  -9  -4   30.63    5.66
   0  -1  -4   -1.12    2.41
   0   0  -4 5920.07   29.27
   0  -3  -3   -2.66    2.43
   3 -13  -6  126.73   12.74
   3 -14  -5   21.98    8.42
   2 -10  -6   -1.18    6.50
   2 -10   2    1.83    2.24
   1  -1  -7    0.84    3.94
   1   0  -7   -0.01    3.97
   1   2  -7  330.82    9.49
   0  -3  -2   -3.92    1.77
   3 -11  -7  118.37   12.42
   2  -5  -8   58.70    8.22
   2  -8  -7  131.83   10.93
   2 -11  -5   32.82    7.86
   1   1  -7    2.51    3.39
   1  -5  -6   24.97    5.38
   1  -7  -5   -1.59    4.30
   1  -9  -3   60.94    5.81
   1  -9  -2   -1.08    3.29
   1  -9  -1   86.01    5.64
   0  -2  -3 2355.73   19.19
   3 -12  -6  100.21   11.68
   3 -13  -5   10.64    7.60
   3 -14  -4  161.43   12.13
   3 -11   3  343.50    7.82
   2  -4  -8   10.44    6.12
   2  -7  -7    3.88    6.22
   2  -9  -6    6.77    6.65
   2 -12  -3   88.08    8.36
   1  -4  -6   61.38    6.16
   1  -8  -4  236.69   10.26
   1  -8   0  427.53    9.32
   3 -10  -7  154.10   13.15
   2  -3  -8   -0.36    5.18
   2 -11  -4   -5.90    5.41
   1  -6  -5  127.68    8.00
   1  -8  -3  268.01   10.16
   3  -7  -8  119.71   11.43
   3 -13  -4   69.26    9.56
   3 -14  -2  206.20   11.70
   3 -12   2  200.14    7.81
   2  -2  -8   92.45    8.38
   2  -6  -7   43.51    7.57
   1  -3  -6   31.48    4.76
   1  -7  -4  132.83    7.67
   1  -8  -2 1107.18   18.14
   1  -8  -1  367.38    9.75
   3  -9  -7   65.19   10.13
   3 -11  -6   69.58    9.49
   3 -12  -5   54.61    9.26
   2  -1  -8    5.13    5.64
   2  -8  -6  299.34   13.88
   2 -11  -3   54.37    6.58
   1  -2  -6   45.60    5.28
   1  -5  -5   24.73    4.64
   4 -15  -1   37.52    7.35
   3  -6  -8  142.46   11.95
   3 -13   0   90.73    7.26
   2   0  -8  364.06   12.97
   2   1  -8    3.67    5.08
   2   2  -8   81.34    6.81
   2   3  -8    1.08    4.10
   2   4  -8    8.46    3.86
   2  -5  -7   21.02    6.54
   2  -9  -5    9.68    5.32
   2 -10  -4    7.30    4.88
   2 -11  -2   57.77    6.09
   2 -11  -1   61.72    5.94
   2 -10   1  442.68   10.15
   2  -9   2   38.42    3.10
   1  -1  -6   84.79    6.02
   1  -6  -4  576.56   14.25
   1  -7  -3    4.00    3.52
   4 -13  -5    2.34    7.77
   4 -14  -4   30.64    7.97
   3  -8  -7   75.68   10.02
   3 -10  -6    0.09    6.14
   3 -12  -4  156.12   11.87
   3 -13  -1   28.58    5.87
   2  -4  -7  265.09   12.21
   2  -7  -6    1.54    4.92
   1  -4  -5  284.31   10.13
   1  -7   0  389.32    8.30
   3  -5  -8  147.34   11.59
   3 -12   1   97.85    6.52
   2  -8  -5  281.86   12.81
   2 -10  -3  347.83   12.87
   1   0  -6  357.81   10.09
   1  -7  -2   50.88    4.56
   1  -7  -1   15.03    3.08
   4 -11  -6   69.44   10.49
   4 -14   0   35.47    6.36
   3  -4  -8   14.66    6.88
   3  -7  -7    4.59    6.93
   3  -9  -6    4.50    6.87
   3 -10   3  378.99    8.00
   2  -3  -7   52.17    6.73
   2  -6  -6  353.38   13.72
   2  -9  -4  170.61    9.78
   2 -10  -2    0.33    3.72
   2 -10   0   19.06    3.69
   1   1  -6   84.65    5.27
   1   2  -6   47.45    4.03
   1   5  -6   26.27    2.97
   1  -3  -5  152.89    7.42
   1  -5  -4  309.81   10.07
   1  -6  -3  319.78    9.98
   4  -9  -7   92.58   11.39
   4 -12  -5   22.70    8.34
   4 -13  -4  111.64   10.83
   3 -12   0  224.58    9.92
   3 -11   2  140.85    6.44
   2  -2  -7  210.06   10.41
   2 -10  -1  449.94   12.35
   1   3  -6   34.53    3.40
   1   4  -6   63.93    3.95
   5 -14   2   35.25    6.06
   3  -3  -8    0.88    6.00
   3  -6  -7   16.64    7.13
   3  -8  -6  142.50   11.25
   3 -12  -1  113.56    8.21
   2  -5  -6    4.58    4.90
   2  -7  -5    4.95    4.44
   2  -8  -4  300.03   12.12
   2  -9  -3    6.92    4.15
   2  -9   1    5.26    2.63
   1  -2  -5  774.36   14.71
   1  -4  -4   18.44    3.72
   1  -6  -2 2463.15   24.04
   5 -13   3   -0.61    3.97
   4  -8  -7   12.03    7.93
   4 -10  -6   -1.19    6.48
   4 -12  -4   33.91    8.36
   4 -13   1    2.20    4.60
   3  -2  -8   59.47    7.96
   2  -1  -7   -1.40    4.21
   1  -5  -3   43.24    4.39
   1  -6   0 1010.58   12.15
   4 -11  -5  106.44   10.70
   4 -13   0  194.23   10.42
   3  -1  -8   24.71    6.82
   3  -5  -7   38.57    7.76
   3  -9  -5   88.41    9.15
   3 -10  -4    5.47    5.86
   3 -11   1  467.74   11.97
   2   0  -7   -1.07    4.15
   2  -4  -6   88.62    7.43
   2  -6  -5   85.05    7.44
   2  -9  -2   41.42    4.85
   1  -1  -5   15.30    3.33
   1  -6  -1  483.01    9.67
   4  -7  -7   14.67    7.56
   4  -9  -6   39.66    8.96
   3  -7  -6   69.37    8.43
   3 -11  -2  157.87    9.65
   2   1  -7   -1.18    4.00
   2  -7  -4   37.47    5.61
   2  -8  -3  478.01   13.82
   2  -9  -1    2.07    3.18
   2  -9   0  337.00    9.45
   1  -3  -4    4.44    2.93
   4  -4  -8    8.43    6.91
   4 -10  -5   77.72   10.17
   4 -11  -4   23.31    7.58
   4 -12  -3   29.63    7.05
   3   0  -8  173.04   10.43
   3  -4  -7  192.64   11.74
   3  -8  -5  131.80   10.20
   3 -11  -1  470.39   14.21
   3 -11   0   27.69    4.66
   2   2  -7  202.72    8.77
   2  -3  -6   35.20    5.54
   1   0  -5    1.96    2.66
   1  -5  -2  262.19    7.78
   5 -11  -5  127.60   12.48
   5 -12  -4   40.16    8.98
   5 -13   2  117.78    8.20
   4  -3  -8   -1.36    6.18
   4  -6  -7    3.15    6.88
   4 -11   3  160.04    6.81
   4 -10   4    6.32    2.72
   3   1  -8   28.55    6.50
   3  -9  -4   88.04    8.15
   3 -10   2    9.12    3.14
   2   3  -7   49.50    5.45
   2  -5  -5   54.56    5.88
   1  -4  -3  316.94    8.76
   4  -8  -6   25.20    7.39
   4 -12   1   31.16    5.55
   3   2  -8   57.17    7.10
   3  -3  -7  205.53   11.66
   2   4  -7  263.63    8.87
   2   7  -7    6.15    2.98
   2  -2  -6   56.25    5.77
   2  -6  -4  349.40   11.93
   2  -8  -2  822.26   16.40
   1   1  -5   15.20    2.91
   1  -2  -4  569.14   11.52
   5  -9  -6    6.77    7.00
   5 -13  -1    0.14    5.89
   5 -13   1   -0.09    5.38
   5 -12   3    9.07    4.43
   4  -2  -8   13.24    6.96
   4  -5  -7   75.82    9.59
   4  -9  -5  116.43   10.46
   4 -10  -4    7.79    6.86
   4 -12   0   40.76    5.95
   3   3  -8    0.06    4.94
   3   4  -8   11.86    5.24
   3  -5  -6   98.21    8.97
   3  -7  -5    5.80    5.52
   3 -10  -2   11.61    4.44
   3  -9   3  139.42    5.12
   2   5  -7   21.96    3.92
   2   6  -7   39.56    4.11
   2  -4  -5  495.77   13.97
   2  -7  -3   20.57    4.01
   2  -8  -1  704.61   14.03
   2  -8   1  678.18   11.14
   1  -5  -1   66.08    3.69
   5 -10  -5   43.62    9.48
   5 -11  -4   21.27    8.23
   5 -12  -3   15.70    6.88
   4  -1  -8   50.12    8.46
   4  -7  -6   59.55    9.05
   3   5  -8  120.56    7.66
   3  -2  -7  169.28   10.44
   3  -8  -4  245.44   11.96
   3  -9  -3  150.06    9.21
   3 -10  -1  521.79   14.29
   3 -10   1  523.36   12.14
   2  -1  -6  120.41    7.32
   2  -8   0  524.15   11.02
   1   2  -5  741.97   11.52
   1  -3  -3  466.98   10.02
   5  -8  -6    8.91    8.00
   4  -4  -7   60.00    8.84
   4 -11  -2  148.13   10.29
   4 -11   2  136.34    7.40
   3  -1  -7   21.43    6.06
   3 -10   0   10.47    3.74
   2  -5  -4  187.27    8.71
   1  -1  -4   39.09    3.69
   1  -4  -2  155.96    5.64
   5 -12  -2  144.44   10.97
   5 -12   2  138.61    8.73
   4   0  -8   28.71    6.96
   4  -6  -6   40.13    8.10
   4  -8  -5   19.36    6.70
   4  -9  -4  187.87   12.11
   4 -10  -3   89.36    9.22
   4 -11  -1  180.73   10.10
   3  -4  -6   31.76    5.87
   3  -6  -5   28.69    5.73
   3  -9  -2    5.46    4.37
   2   0  -6  544.02   13.49
   2  -3  -5  100.48    6.83
   2  -6  -3  171.13    8.05
   2  -7  -2   73.31    5.44
   1   3  -5  150.90    5.29
   6 -13   0  207.09   12.50
   5  -5  -7   32.40    8.47
   5  -9  -5   68.36    9.52
   5 -10  -4   12.98    7.67
   5 -12  -1   19.76    6.68
   4   1  -8   59.06    8.11
   4  -3  -7  188.14   12.15
   4 -11   0   42.01    6.07
   4 -11   1  181.57    8.88
   3   0  -7    0.62    5.06
   3  -7  -4  389.68   14.13
   3  -8  -3  197.12   10.14
   5  -7  -6   82.49   10.09
   5 -12   0   69.61    7.74
   5 -12   1   16.99    5.61
   4  -7  -5   17.14    7.03
   4 -10   3   83.00    5.45
   3  -3  -6  107.55    8.51
   3  -5  -5   75.56    7.57
   3  -9   2    3.00    2.77
   2   1  -6  109.72    6.67
   2  -7  -1   24.86    3.71
   1   4  -5  257.82    6.17
   1   0  -4 1822.40   18.11
   5  -4  -7   55.68    9.28
   5  -8  -5   15.69    7.62
   5 -11  -2   57.43    8.60
   5 -11   3  189.25    8.57
   4   2  -8   12.62    6.04
   4  -2  -7   38.48    7.97
   4  -5  -6   77.32    8.63
   4 -10  -2   -0.23    4.30
   3   1  -7   20.78    5.67
   3  -9  -1  159.02    7.96
   2  -2  -5  407.44   11.86
   2  -4  -4   30.98    4.18
   1  -2  -3 1829.22   18.17
   1  -4  -1  187.64    5.33
   6 -10  -4    5.99    6.97
   6 -11  -3  135.00   11.68
   6 -12  -1    2.96    6.56
   5  -6  -6   21.11    8.22
   5  -9  -4   33.07    8.39
   4   3  -8   -5.81    5.32
   4  -8  -4   67.32    7.82
   4  -9  -3  192.71   10.98
   3  -2  -6  116.47    8.47
   3  -6  -4  566.54   16.19
   3  -9   0  154.03    7.40
   3  -9   1  157.47    6.89
   2   2  -6   52.59    4.98
   2  -5  -3   80.44    5.80
   2  -6  -2 1021.66   16.78
   2  -7   0   16.16    2.93
   2  -7   1   24.66    2.82
   1  -3  -2  439.78    8.57
   6 -12   0   -0.33    6.12
   6 -12   1    4.05    5.82
   5  -3  -7  128.05   11.50
   5 -11  -1  231.45   12.38
   4   4  -8    6.95    5.96
   4  -1  -7    7.57    6.34
   4  -4  -6   -2.06    6.04
   4  -6  -5    3.71    6.19
   4 -10  -1  100.12    7.87
   4  -9   4  157.74    5.71
   3   2  -7  188.05    9.44
   3  -4  -5  377.40   13.49
   3  -7  -3   12.28    4.74
   3  -8  -2  375.61   12.21
   2  -1  -5    5.38    3.77
   6  -8  -5   -1.43    6.75
   5  -7  -5    0.75    6.89
   5 -11   0   16.00    5.67
   5 -11   2   51.20    6.34
   4 -10   0   18.89    4.61
   4 -10   2   -2.24    3.27
   3   3  -7  187.59    9.38
   2   3  -6   28.76    3.98
   2  -3  -4   20.35    3.86
   1   1  -4   36.10    3.18
   6  -9  -4   53.25    9.00
   6 -10  -3   22.29    7.58
   5  -2  -7   22.53    7.72
   5  -5  -6   78.05    9.45
   5  -8  -4   69.83    9.42
   5 -10  -2    0.89    5.98
   5 -11   1  237.20   10.97
   4   0  -7    3.19    5.82
   4  -7  -4  221.40   11.69
   4  -8  -3   19.12    6.03
   4  -9  -2  100.74    7.92
   4 -10   1  104.33    6.74
   3  -1  -6  263.01   11.26
   3  -8  -1  284.14   10.05
   3  -8   3  188.71    5.55
   1  -1  -3   47.39    3.36
   6  -7  -5   14.97    8.09
   6 -11  -1  153.23   11.46
   6 -11   3  124.42    8.34
   5  -9  -3   96.04    9.41
   4  -3  -6   27.60    6.43
   4  -5  -5  168.94   10.97
   3   4  -7  177.10    9.03
   3  -3  -5  453.69   14.28
   3  -5  -4  670.72   16.78
   2   4  -6   70.96    5.04
   2   0  -5   -1.65    3.19
   2  -4  -3  948.70   16.22
   2  -6  -1  311.07    8.57
   6 -11   0   78.38    8.92
   5  -1  -7   22.39    7.26
   5  -4  -6   -0.13    6.65
   5  -6  -5   -2.14    5.76
   5 -10  -1   95.99    8.95
   4   1  -7   10.98    6.00
   4  -9  -1  204.05    9.99
   3   5  -7   33.19    5.53
   3   0  -6  369.68   12.66
   3  -6  -3   49.46    5.48
   3  -7  -2  162.28    8.10
   3  -8   0  442.52   11.38
   2  -5  -2    2.80    2.58
   6  -8  -4    8.29    6.94
   6 -11   1  162.42   10.44
   6 -11   2   68.57    7.38
   5  -7  -4  219.86   13.28
   5 -10   3   69.83    6.22
   4  -2  -6   56.49    7.88
   4  -6  -4  127.41    9.21
   4  -9   3  163.33    6.78
   3   6  -7   13.31    4.45
   3  -8   1  281.86    8.48
   3  -8   2  357.33    8.48
   2   5  -6    0.57    3.09
   2  -2  -4  272.71    9.04
   1   2  -4  543.97    8.89
   1  -2  -2    7.05    1.98
   6  -6  -5    3.12    7.39
   5   0  -7    2.06    6.36
   5  -3  -6   33.90    8.12
   5  -9  -2   19.53    6.10
   5 -10   0   19.94    5.60
   4   2  -7   34.01    6.50
   4  -4  -5   99.27    8.46
   4  -7  -3   45.26    6.20
   4  -8  -2   33.47    5.45
   4  -9   0  309.87   11.06
   3   7  -7    2.27    3.64
   3   1  -6  238.24   10.31
   3  -2  -5  384.79   12.74
   3  -4  -4   58.50    6.12
   2   6  -6  358.74    8.92
   2   1  -5    7.48    3.34
   6  -7  -4  222.00   14.29
   6 -10  -1   30.81    7.07
   5  -5  -5   62.07    8.46
   5 -10   1   88.73    7.33
   5 -10   2    0.42    4.25
   4  -1  -6  271.63   12.67
   4  -9   1  208.39    8.82
   4  -9   2   98.04    6.05
   3   8  -7   57.26    5.29
   3  -7  -1   13.75    3.67
   2  -6   1  316.16    6.91
   1   0  -3   -0.50    1.83
   6  -3  -6    2.93    7.14
   6 -10   0    8.17    6.06
   5   1  -7   18.63    7.08
   5  -6  -4  133.85   10.98
   5  -9  -1  111.38    8.91
   4   3  -7  171.05   10.25
   4  -5  -4  375.89   14.30
   3  -5  -3   89.42    6.40
   3  -6  -2  967.35   17.99
   2   7  -6   -1.59    2.92
   2  -1  -4    2.63    2.90
   2  -3  -3  156.45    6.68
   6  -5  -5  117.60   11.23
   6 -10   1   46.23    7.44
   6 -10   3   25.65    5.89
   5  -2  -6   53.48    8.10
   5  -4  -5  124.75   10.90
   5  -8  -2   18.58    6.24
   5  -9   4   40.72    4.75
   4   4  -7   61.23    7.61
   4  -3  -5  352.88   13.79
   4  -6  -3    3.27    4.76
   4  -8  -1   17.44    4.34
   3   2  -6  116.49    7.46
   3  -1  -5   42.37    5.35
   2   8  -6  256.83    7.12
   2   2  -5  404.36   10.20
   2  -4  -2  358.64    9.32
   2  -5  -1  135.28    5.64
   6  -2  -6   29.04    8.43
   6  -6  -4   54.38    9.41
   6  -9  -1  271.71   13.83
   6 -10   2   -0.59    5.42
   5   2  -7   16.71    6.96
   5  -9   0   54.63    6.64
   4   0  -6   99.47    8.69
   4  -7  -2   71.92    6.58
   3  -3  -4   18.64    4.05
   3  -7   0  764.52   14.20
   2   9  -6    7.40    2.88
   6  -4  -5   18.31    8.40
   6  -7  -3   22.14    7.81
   5   3  -7  137.74   11.00
   5  -1  -6  139.70   11.00
   5  -5  -4  203.24   12.40
   4   5  -7   79.22    7.93
   4  -2  -5   53.42    6.97
   4  -4  -4   38.23    6.35
   4  -8   0   95.29    6.64
   4  -8   4   61.66    4.19
   3   3  -6  100.26    6.98
   7  -7  -3   -3.33    7.01
   6  -9   0   74.91    8.38
   5  -3  -5  224.58   13.02
   5  -8  -1   36.98    6.46
   5  -9   1   98.33    7.37
   5  -9   2   13.33    4.75
   5  -9   3   94.54    6.57
   4   6  -7    2.85    5.16
   4   1  -6  266.73   12.11
   3   0  -5    0.29    3.45
   3  -4  -3  709.66   15.62
   3  -7   1   13.15    3.14
   2   3  -5  103.17    5.64
   2   0  -4 1831.90   20.86
   2  -2  -3  796.78   13.74
   7  -9   0   13.65    6.99
   6  -1  -6  171.77   12.71
   6  -9   4   41.84    5.77
   5   4  -7   49.29    8.17
   5   0  -6   89.60    9.54
   5  -6  -3    1.06    4.71
   5  -7  -2  162.40   10.36
   4   7  -7   12.29    5.67
   4  -5  -3  263.37   11.52
   4  -7  -1   65.34    6.10
   4  -8   1   18.68    3.91
   3   4  -6   26.93    4.98
   3  -2  -4  243.69    9.71
   3  -5  -2  399.96   11.39
   3  -6  -1   63.36    4.95
   3  -7   3    8.95    2.33
   2  -5   0  506.69    9.28
   7  -5  -4   50.49    9.31
   6  -3  -5  286.03   15.40
   6  -6  -3    5.89    6.91
   6  -8  -1    7.39    6.47
   6  -9   1  255.11   12.23
   5   5  -7   38.18    7.45
   4   8  -7    7.45    5.25
   4   2  -6   57.01    7.22
   4  -1  -5    5.30    4.99
   4  -6  -2   74.47    6.51
   4  -8   2   29.07    4.11
   4  -8   3   19.62    3.57
   3  -7   2  158.73    5.71
   7  -6  -3    2.87    6.65
   7  -9   1   90.76    9.45
   6   0  -6    2.45    7.38
   6  -7  -2  281.29   14.01
   6  -9   2   72.08    7.53
   6  -9   3  225.52   10.63
   5   1  -6  125.82   10.40
   5  -2  -5   36.77    7.21
   5  -4  -4   70.61    8.09
   5  -8   0   98.49    7.85
   4   9  -7   67.91    7.03
   4  -3  -4    3.12    4.13
   3   5  -6   92.83    6.86
   3   1  -5   44.18    5.18
   2  -3  -2  190.82    6.62
   2  -4  -1 1372.54   16.05
   7  -4  -4   -1.48    7.43
   6  -2  -5   11.61    7.94
   6  -4  -4   15.71    7.47
   5  -5  -3   54.56    7.61
   3  -3  -3  914.36   17.24
   3  -6   0 1157.70   16.87
   2   4  -5  491.79   10.47
   7  -8   0    0.77    6.35
   6   1  -6  168.45   12.82
   6  -8   0   12.04    5.91
   5   2  -6   58.34    8.09
   5  -1  -5   37.97    7.61
   5  -6  -2   37.85    6.52
   5  -7  -1    1.98    4.06
   5  -8   1   41.43    5.55
   4   3  -6   20.28    5.30
   4   0  -5    0.47    4.50
   4  -4  -3  144.98    8.83
   4  -7   0  273.70    9.87
   3   6  -6  275.89    9.90
   3  -1  -4  101.95    6.64
   2   1  -4    1.35    2.57
   2  -1  -3   82.57    4.88
   2  -5   1  121.76    4.30
   7  -5  -3   71.03    9.71
   6  -5  -3  201.00   12.54
   6  -6  -2   11.01    7.02
   6  -7  -1   30.87    7.15
   5  -3  -4   17.77    5.64
   5  -8   2   18.40    4.78
   4  -2  -4   31.01    5.66
   4  -5  -2  215.80    9.81
   4  -6  -1    5.89    3.81
   3   2  -5  398.32   11.89
   3  -4  -2  100.18    6.07
   3  -5  -1  108.16    6.13
   7  -3  -4   12.03    8.04
   7  -8   1   -0.12    5.97
   6   2  -6   29.85    8.15
   6  -1  -5   37.63    8.02
   6  -3  -4    1.84    6.13
   6  -8   1   -0.07    5.01
   4   4  -6    0.03    4.39
   5  -4  -3  204.89   11.06
   4  -3   3  547.44   10.52
   1  -5   7    5.72    5.16
  -3  -2  -2  423.82    8.24
  -4  -3  -2   60.15    5.03
   5  -5   4  186.25    7.65
  -2  -2  -3  754.99    5.31
  -4  -5  -4  360.05    8.15
   1  -2  -4  559.73   12.58
  -2  -5  -6    7.98    2.93
  -4  -4  -3  151.36    6.50
   4  -2   1   77.17    5.64
   3  -1   0  102.73    5.73
   3  -1   1  127.19    5.60
   2  -1  -2  386.21   10.02
  -1  -2  -4  578.37    7.67
  -1  -1   3   48.99    4.30
  -2  -1   2  386.60   10.08
  -4  -3  -1  807.85   15.48
  -5  -7  -4  177.00    8.04
   2  -3   5  103.23    3.78
  -1  -3  -5  166.24    5.61
  -2  -1  -1  385.98    6.84
  -3  -3  -3  876.94   10.44
   4  -2   2  153.24    6.68
   3  -1  -1  122.79    6.62
   2  -6   7   42.91    5.20
   1  -1  -3   47.89    4.27
   1   0   0 4785.86   19.39
  -1  -6  -7   60.29    6.06
  -2  -1   1  400.04    9.44
  -3  -4  -4   59.85    3.40
  -3  -2  -1 1375.06   16.76
   3  -1   2  943.67   12.00
   1  -4   6   64.20    5.69
  -1  -2   4  571.90   12.87
  -2  -1   0   60.91    3.91
  -3  -2   0  601.10   12.55
  -3  -2   1 1383.83   20.22
   4  -3   4    2.59    3.17
   2  -1  -3   91.51    6.47
   1   0  -1   -1.56    1.98
   1   0   1    0.40    1.00
   1  -1   3   46.04    2.17
   0  -1   3   -2.08    2.04
  -2  -2   3  803.37   15.95
  -4  -7  -5   19.53    4.23
  -4  -4  -2    1.31    4.02
   0  -3   5    2.31    4.16
  -1  -4  -6   68.37    5.14
   5  -4   4   62.65    5.48
   2   0  -1    0.37    2.95
   2   0   0 6475.06   31.88
   0  -2   4  708.44   12.12
  -1  -1   2  709.81   11.29
   5  -3   3  296.93    9.80
   4  -2   3   71.41    4.83
   1  -3   5  158.07    6.09
  -4  -5  -3  260.73    8.90
   4  -1   1    2.72    3.54
   2   0   1   -0.19    1.92
   1  -1  -4   43.30    4.75
   1   0  -2  754.85   11.36
  -2  -2   2   55.24    5.26
  -4  -6  -4  140.98    6.72
   3   0  -1    0.19    3.78
   3   0   0 1833.14   20.91
   2   0  -2 2483.94   24.80
   1  -2   4  566.66    8.46
  -3  -3  -2  612.68   10.70
  -3  -3   1 1569.46   22.41
  -1  -5  -7    9.68    4.44
  -1  -2   3 1892.80   21.10
  -1  -3   4    3.34    3.96
   4  -1   2  833.54   13.93
   2  -5   6    8.26    4.25
   2  -7   7    5.65    5.17
   1  -5   6   27.11    5.66
  -1  -1  -3   50.98    1.96
  -3  -3  -1 1582.49   18.94
  -4  -5  -2  223.36    9.10
   3   0   1    0.10    2.89
   2   0  -3   -0.68    3.35
   1   0  -3   -0.16    2.81
  -1  -1   1  156.06    4.94
  -2  -2   1 1103.07   15.81
   3  -1   3   75.82    3.34
   0  -4   5 1072.23   17.81
   1  -1  -5   15.07    4.43
  -4  -6  -3    2.39    5.00
   5  -2   3   42.80    5.56
  -2  -3   2  181.72    8.10
  -4  -8  -5   15.19    4.69
   5  -3   4   16.21    4.34
   4   0   1    0.14    3.44
   0  -1   2   -1.26    1.62
   0  -3   4   -2.84    3.12
  -1  -3  -6   37.26    4.20
  -1  -2  -5  743.61    9.75
  -2  -2  -2   53.94    2.80
  -2  -2   0  557.60   10.10
  -3  -4  -3  683.10   10.66
  -4  -7  -4  211.69    8.58
   1   0  -4 1812.61   21.43
   1  -4   5  275.66    8.50
  -1  -4   4   20.29    4.83
  -2  -2  -1 1066.50   12.08
   3   1  -1  122.64    6.75
   3   0   2 1388.06   14.21
   2   1  -2  385.39   10.18
   2   1  -1  389.08    9.33
   1  -6   6  642.82   14.93
   0  -2   3 2414.05   19.64
  -1  -4  -7  200.35    7.25
  -1  -2   2    4.09    2.52
  -1  -3   3  476.16   11.41
  -3  -7  -6   59.33    3.81
   4  -1   3    5.88    3.55
   3   1   0  106.30    6.00
   2   1  -3   82.16    6.19
   0  -5   5   -1.89    4.57
  -1  -1   0   72.94    2.90
   2   1   0   66.86    4.14
  -3  -4  -2  105.69    5.50
  -3  -4  -1 1049.21   16.26
   4   0   2  159.81    6.85
   4  -2   4   32.64    3.16
   3  -6   6  274.33    7.70
   2  -4   5  520.13    9.28
   2  -6   6  359.69   10.25
   1   0  -5   -0.79    4.27
   1   1  -2  731.97   11.58
  -2  -3   1  168.57    6.93
  -3  -5  -4  681.02   10.30
   1   1  -3   48.82    4.66
   1   1  -1  162.25    5.10
  -2  -4   2  367.41   11.07
  -4  -9  -5   98.43    6.99
   3   1   1  127.36    5.73
   5  -1   3   51.46    5.45
   4   1   1    1.06    3.92
   3  -4   5  362.64    6.25
   1  -3   4    2.12    2.77
   0  -4   4   27.32    4.40
  -1  -1  -4   40.36    2.52
  -3  -6  -5   25.27    3.56
  -3  -5   0 1563.29   22.32
   1   1  -4   43.29    4.77
   1  -5   5   25.33    4.93
  -1  -4   3  328.53   10.11
   3   2  -1 1359.21   20.09
  -2  -3   0  124.47    5.47
  -3  -5  -3   89.77    5.32
  -3  -5  -1  109.46    6.74
   5  -2   4   21.46    4.09
   2   2  -3  770.75   15.67
   2   2  -2   50.73    4.78
   2   1   1  414.67    7.35
   2  -7   6   -2.49    5.27
  -1  -2   1 4077.48   24.37
  -1  -3   2  466.41   10.26
  -3  -5  -2  394.62   10.22
   3   2   0  596.74   12.52
   2   2  -1 1109.99   15.76
  -1  -1  -1  150.38    2.82
  -2  -4   1 1396.87   19.19
   1   1  -5   14.53    4.43
   0  -3   3    0.04    2.75
  -1  -3  -7   47.55    4.51
  -1  -2  -6   45.19    3.91
   0  -5   4    1.87    4.07
  -2  -3  -1  171.02    5.69
   4   1   2  833.91   13.84
   3  -7   6   60.05    5.94
   1  -2   3 1819.84   13.22
   1  -6   5  112.24    7.39
  -1  -5   3   43.57    4.97
  -3  -6  -4  569.76   10.96
  -3  -6  -1   62.91    6.16
   4   2   1   70.03    5.92
   4   0   3   -0.21    3.24
   2  -5   5   49.26    5.04
   1   2  -3 1866.92   20.61
  -3  -8  -6  125.10    5.99
   5   0   3    0.15    4.41
   3   3  -1 1598.97   22.23
   2   2   0  580.28   10.35
   1   2  -2    5.80    2.90
   0  -1  -7   -0.50    4.70
   0  -2   2    4.28    2.11
  -1  -1  -5   16.17    2.68
  -2  -3  -2  192.70    5.24
  -2  -4   0   63.51    4.82
  -2  -5   1  133.28    7.28
  -3  -7  -5    1.26    3.87
  -3  -6  -2  977.47   16.41
   3   2   1 1395.98   17.07
   3   1   2  968.33   12.06
   1  -4   4   15.14    3.49
  -1  -4   2  160.30    6.91
  -2  -3  -3  155.09    4.06
  -3  -6  -3   51.50    5.07
   2   3  -2  186.80    8.01
   0  -6   4  640.29   14.69
   3  -8   6  122.63    7.92
   3   3   0   82.62    5.78
   0  -4   3 2565.39   23.39
  -1  -3   1 1235.28   14.65
  -3  -7  -4  379.73   10.31
  -3  -7  -2  163.20    8.32
   2   3  -1  158.15    6.66
   1   2  -1 4101.37   24.46
  -1  -2   0 1654.82   13.40
  -3  -7  -3    9.75    4.74
  -2  -4  -1 1391.01   16.20
  -2  -5   0  540.50   12.05
   4   3   1  813.33   15.80
  -1  -5   2  263.20    8.90
   1   3  -4    5.06    3.81
   1   3  -3  499.36   11.37
   2   0  -3   -1.53    3.77
   2   3  -1  171.26    7.69
   2   4   0   62.38    5.17
   1  -5  -4  312.31    6.96
  -1  -9  -2   -2.29    3.39
   3   6   1   59.20    6.10
   2  -2  -4  267.62    9.71
   0   1   5   -1.33    3.55
   2   2  -2   53.57    5.22
   1   0  -2  754.32   11.37
  -1 -10  -2    5.82    4.30
   2   5   1  133.57    6.24
   0   0   6 1081.90   18.50
  -1 -12  -2   36.07    6.57
  -1 -11  -2   62.17    6.42
  -1  -6  -1  471.58    9.60
  -1  -2   2    3.42    2.80
   3   7   3    7.96    4.57
  -1  -4   0  512.31    9.62
  -1  -2   3 1845.49   22.25
   3   7   2  156.83    8.20
   3   7   4  384.81    9.99
   2   1  -3   89.31    6.71
   1   3   5  152.19    4.74
   0   1   4    5.20    3.17
  -1  -3   1 1203.01   15.42
   2  -1  -4   -1.29    4.60
  -1  -7  -1   11.68    3.63
   2   4  -1 1426.98   20.80
   1  -4  -4   14.95    3.37
   1   1   7    6.41    5.42
  -1  -3   4    4.20    4.78
   4   8   5    9.25    5.24
   2   3  -2  190.22    8.89
   2   5   0  541.88   12.65
   2   6   3  181.86    6.03
   1   2   6   48.28    5.20
   0  -7  -3   -3.37    1.72
   0   1   2    0.46    1.50
  -1  -5   0 1289.27   16.62
  -1  -3   2  468.87   11.17
   3   7   5    2.05    3.78
   2   6   2 1015.63   14.72
   2   3   7   50.46    5.03
   1   2  -1 4105.31   26.60
   1   3   0   66.61    3.95
   1   4   2  157.85    4.03
   0   1   3    0.79    2.09
   0   0   5   -0.93    3.77
  -1  -8  -1  360.47   10.27
   2  -9  -6    5.80    4.23
  -1 -10  -1  710.57   15.99
  -1  -9  -1   78.68    6.53
  -1  -4   1  196.95    7.31
   2   0  -4 1828.28   25.17
   2   2  -3  773.09   16.67
   2   6   4  364.32    6.44
   1   1  -2  730.12   12.22
   0 -14  -3   17.39    6.26
  -1  -6   0 1057.72   16.44
  -1  -4   2  168.58    8.03
  -1  -4   3  339.32   11.69
   2  -8  -6  259.05    8.28
   2   6   1  308.71    9.41
   0 -13  -3   -2.13    5.20
   3   8   2  360.29   11.95
   3   8   3  199.67    8.95
   2   4  -2  342.86   11.89
   2   5  -1  133.21    7.92
   2   4   6   80.24    4.18
   1  -3  -4    4.21    3.43
  -1  -7   0  395.24   11.27
  -1  -5   1   65.45    5.34
   2  -7  -6   -2.23    4.91
   2  -2  -5  396.56   12.57
   1   4   1  202.47    5.68
   0 -12  -3  121.37    7.31
   0  -8  -3 1276.41   12.09
   0   0   4 6033.79   35.94
   0  -1   5   -4.15    4.42
  -1  -8   0  455.54   12.79
  -1  -5   2  281.44   10.35
   2   6   0  572.94   13.77
   0 -11  -3   -2.36    4.52
   0 -10  -3  666.87   11.77
   0  -9  -3   -8.67    3.16
  -1  -9   0   67.72    6.84
   3   8   4  242.48    8.56
   2  -6  -6  328.00   10.39
   1   0  -3    0.34    3.35
   1   1   6   89.13    6.89
  -1  -7   1    9.95    5.06
  -1  -6   2 2489.36   30.39
   2  -1  -5    3.63    5.37
   1   3  -1 1229.37   16.14
   0  -2   5  944.27   18.93
   1   2  -2    6.23    3.53
   2  -5  -6    6.07    5.46
   2   6  -1  325.68   11.78
   2   7   1   28.35    4.97
   2   7   2   72.49    5.56
   2   2   7  185.41    8.54
   1   4   0  521.83   10.19
   0   0   3    1.27    2.62
   0  -1   4   -2.47    4.03
   1 -14  -4  357.02   11.32
   1   2   5  749.93   11.74
   3   9   3  140.93    8.52
   2  -4  -6   77.28    7.30
   2   7   0   11.08    4.85
   2   7   3   21.71    3.93
   1   1  -3   50.96    5.23
   1   3   4    2.75    2.02
   1   0   6  350.65   11.89
   0 -12  -2  346.89   12.53
   0  -2   4  691.15   15.10
   1  -6  -5  118.87    4.55
   0   0   2 9767.09   32.79
   2   1   7   -1.87    6.07
   1 -13  -4   13.27    5.57
   1   3  -2  441.96   11.18
   1   4  -1  197.97    7.73
   0 -11  -2   -0.21    5.27
   0  -1   3   -3.19    3.12
   0  -3   4   -3.20    4.46
   3   8   5  116.45    4.76
   1  -5  -5   18.13    3.78
   3   9   4   89.89    6.39
   2   8   1  697.73   15.38
   1   2  -3 1837.03   23.03
   1   5   1   64.42    4.16
   1   1   5   10.95    4.23
   0 -10  -2   -1.30    4.24
   2   8   2  835.65   15.08
   2   3   6   31.57    4.96
   1  -4  -5  275.29    7.79
   1   0  -4 1877.63   22.67
   1   5   0 1276.40   16.97
   0  -2   3 2461.24   24.96
   1 -12  -4  141.02    7.41
   1   5   2  266.62    5.73
   0  -9  -2   -9.22    3.71
   3  10   3  387.58   12.18
   1  -3  -5  159.50    7.07
   1   4  -2  157.69    7.69
   0  -8  -2 2547.29   22.49
   0  -3   3   -0.54    4.19
   1   1  -4   37.77    5.28
   1   3  -3  480.84   13.02
   1   5  -1   65.59    5.42
   1   0   5   -0.49    4.33
   0  -4   3 2624.39   29.76
   0 -10  -1  959.77   18.57
   0  -5   3   -1.82    4.52
   2   9   1    4.61    5.22
   2   8   3  455.07    9.81
   0  -6  -2 3097.67   19.16
   0  -9  -1   -7.07    4.52
   3   3   7  171.75    8.54
   2  -5  -7   22.64    6.07
   2   2   6   57.90    6.30
   1 -11  -4    0.55    4.27
   1   2  -4  541.68   14.10
   1 -13  -3    4.03    6.54
   1   4  -3  342.24   11.86
   1   5  -2  258.90   10.01
   1   6   0 1056.96   16.64
   1  -1   5   15.40    5.23
   2  -6  -7   38.28    5.58
   2  -4  -7  253.88   10.59
   2   9   2   41.56    5.66
   1   6   1  499.06   10.27
   1   2   4  554.87    9.03
   1  -2   5  767.23   17.52
   0  -8  -1 2255.83   24.42
   0  -9   0   -3.89    4.73
   0  -6   2 3252.66   34.28
   0  -3   2   -0.73    3.36
   3  10   4    2.88    4.87
   1   0  -5   -0.88    4.96
   1   6  -1  484.75   12.71
   0  -8   0 1316.86   20.88
   0  -8   1 2247.91   29.49
   0  -5   2   -3.79    4.01
   0  -4   2 1529.15   20.62
   3  11   3  353.40   12.18
   2   1   6  109.62    8.05
   0  -7  -1   -6.27    3.32
   0  -7   1   -7.50    3.95
   3   2   7  166.32    9.52
   1   1  -5   12.69    5.56
   1 -12  -3  151.33    8.97
   1   6  -2 2368.15   29.47
   0  -7   0   -4.07    3.75
   0  -6   1  932.83   17.03
   2   0   6  532.69   14.95
   0  -6  -1  901.31   12.89
   0  -5   1   -2.13    3.79
   1   7  -1    9.83    4.33
   1   6   2 2486.30   18.15
   1   1   4   32.17    3.92
   0  -4   1 4761.59   31.81
   0  -3   1   -5.66    2.86
   0  -2   1 4084.69   23.21
   2  10   2    1.00    4.96
   1   7   1   15.37    3.82
   0  -5  -1   -5.90    2.43
   0  -5   0   -1.28    2.86
   1 -11  -3   99.87    7.52
   1   0   4 1898.43   20.81
   1  -1   4   37.14    5.15
   1   8   0  454.39   12.56
   1  -3   4    0.36    4.56
   1  -2   4  555.87   13.57
   0   1  -1   -0.62    1.72
   0  -3   0    2.60    1.97
   3  -2  -4  249.79    7.23
   2  -2  -3  807.77   10.53
   1   4  -3  338.85    6.22
   1   8  -3  264.44    8.78
   1  -3  -1 1215.15   12.66
   0  -1   6    0.83    1.90
  -1   5   3   43.29    4.24
  -1   6   3  314.94    9.12
  -1   5   4  320.56    8.62
  -1   6   4  555.28   11.91
   2  -6  -1  319.37    9.74
   1  -6   2 2486.94   24.17
   1  -6   5  123.75    6.59
   0   3  -1   -1.84    1.68
  -1   4   4   15.31    3.20
  -1   6   5  112.16    6.41
   2  -4  -2  337.89    8.66
   1  -5   6   34.65    5.02
   1  -4   7  198.09    7.11
   0  -2   5  892.65    8.38
  -1   6   2 2463.02   23.98
  -1   7   2   47.30    4.92
  -1   4   3  309.86    7.60
  -1   5   5   22.35    3.90
   4   0  -5    0.34    3.37
   1  -6   3  318.04    9.19
   1  -6   4  570.71   12.10
  -1   5   2  261.69    7.75
  -1   4   5  275.18    7.44
   3  -4  -3  706.78   13.70
   1   3  -3  483.34    5.80
   1  -4   0  509.97    9.35
   1  -5   1   60.30    4.24
  -1   4   2  164.34    5.80
  -1   3   3  475.98    8.25
  -1   3   4    4.75    2.51
  -1   6   6  658.76   13.15
   3  -1  -4   93.89    4.62
   0  -2   2    7.18    1.47
  -1   7   1   11.78    3.64
  -1   5   6   28.39    4.69
   4  -3  -4    5.14    4.65
   2  -1  -3   86.13    3.57
   2  -5  -1  139.05    6.61
   0   8  -2 2429.79   25.52
  -1   3   5  159.39    5.20
   2  -6   0  577.39   13.00
   1   0  -2  726.18    5.12
   1  -5   2  254.16    7.71
   1  -5   5   20.45    4.04
   0   6  -2 3182.34   25.10
  -1   5   1   63.23    4.52
  -1   4   6   64.07    4.67
   2  -3  -2  195.58    6.38
  -1   3   2  455.72    7.99
   4   1  -5    9.03    3.64
   3  -3  -3  925.03   14.68
   1  -2  -1 4087.39   20.14
   1  -5   3   45.68    4.40
   1  -5   4  311.01    8.79
   1  -4   6   68.55    5.38
   1  -3   7   51.88    4.83
   0   5  -2   -7.38    2.60
   0  -2   4  679.81    7.42
   0   1   8   -0.03    0.15
  -1   7   0  379.95   10.66
  -1   2   4  578.56    7.61
  -1   6   7   52.75    5.40
   4  -2  -4   25.58    5.28
   2   9  -5    3.79    4.41
   0  -2   3 2318.48   12.94
  -1   4   1  196.73    6.03
  -1   2   3 1914.85   13.69
   2   8  -5  256.31    7.82
   2  -6   1  339.43   10.52
   1  -4   1  192.09    6.07
  -1   6   0 1061.87   15.76
  -1   5   7    6.54    3.92
   5   0  -5   -2.67    4.81
   3   0  -4  752.69   10.27
   2  -4  -1 1424.48   17.52
   1  -3   0   64.20    3.57
  -1   3   6   34.07    3.35
   2   7  -5    4.00    3.20
   2  -5   0  539.26   11.88
  -1   5   0 1294.91   16.16
   3  -4  -2  108.56    6.37
   1  -4   5  269.35    8.12
  -1   3   1 1264.16   13.05
  -1   2   2    4.43    1.91
   1   6  -4  565.93    9.76
   1  -4   2  156.30    5.82
   1  -1   8    5.74    3.55
   0   8  -3 1208.87   17.97
  -1   7  -1   11.68    4.02
  -1   4   7  201.54    5.97
   4  -1  -4  201.12    8.04
   3  -2  -3  804.69   12.99
   2   6  -5   80.03    3.87
   0   7  -3   -5.79    3.42
   5   1  -5   32.90    5.66
   4   2  -5   49.42    4.32
   2   0  -3   -0.26    1.83
   2  -2  -2   51.80    3.58
   1  -4   3  327.90    8.29
   1  -4   4   16.30    3.44
   1  -3   6   41.53    4.77
  -1   4   0  527.61    9.66
   2  -5   1  125.44    6.46
   1  -2   7  328.86    8.50
  -1   6  -1  488.24   10.91
   0   6  -3  446.24    9.69
   0   1   8    0.06    0.12
   2  -3  -1  174.52    6.25
   2  -4   0   57.11    4.46
   1   5  -4  307.58    6.36
  -2   6   3  166.53    7.30
  -2   6   4  358.79   10.16
   3  -3  -2  625.46   12.61
   2  -5   2    8.22    3.46
   1  -3   1 1196.29   13.17
   0  -1   5   -0.46    1.70
  -1   5  -1   66.64    4.63
  -2   6   2  988.73   16.32
  -2   6   5   76.48    6.23
   3  -4  -1 1066.48   17.55
   2  -5   3   68.35    5.77
  -1   1   3   49.49    2.23
  -1   1   4   43.07    1.97
   4   0  -4   48.08    5.24
   3   4  -5  351.85    4.93
   3   1  -4   94.87    4.09
   1  -3   5  154.09    6.24
  -1   7  -2   40.66    4.97
  -1   3   0   64.09    3.64
  -1   2   1 4194.47   20.74
  -2   5   3   75.89    5.28
  -2   5   4  191.51    7.33
   5   2  -5   27.56    5.07
   3  -1  -3   80.03    4.70
   1  -1  -1  152.16    3.58
   1  -2   0 1639.55   13.38
  -2   6   1  329.31    9.94
   2  10  -6    0.62    4.40
   2  -4   1 1432.00   18.51
   1  -3   2  458.06    8.67
   1   0   8  372.64    8.73
  -2   5   5   54.25    5.27
  -2   6   6  343.09    9.81
   1   8  -5  178.15    7.26
   1  -3   4    5.37    2.86
   1  -2   6   45.64    4.63
   0   8  -4  588.75   12.79
  -1   6  -2 2440.12   23.95
  -1   4  -1  201.71    6.36
   4   3  -5  323.43    7.58
   1  -3   3  496.38    9.37
   3  -2  -2  418.20   10.00
   2   9  -6    6.86    3.92
   2  -1  -2  376.03    7.20
   2  -3   0  132.49    5.84
   2  -4   2  342.65    9.62
   2  -4   4   29.30    4.64
   1  -1   7    5.95    3.82
   0   0   6 1064.48    9.54
  -2   5   1  134.35    6.47
  -2   4   3  951.98   13.78
  -2   4   4   28.86    3.75
   4  -1  -3    0.19    3.95
   3  -3  -1 1561.33   20.14
   2  -4   3  949.89   16.15
   1   4  -4   18.59    2.14
   0  -1   2   -1.54    0.97
   0  -1   4    4.32    1.70
  -1   1   2  749.02    7.17
  -2   6   0  527.43   12.31
  -2   5   6    7.23    4.14
   5   3  -5  196.45    8.06
   4   1  -4  197.21    7.54
   2  -2  -1 1072.31   13.40
   1   7  -5    1.66    3.54
  -1   5  -2  258.63    7.92
  -2   4   2  342.33    8.68
  -2   4   5  526.11    9.95
  -2   6   7   35.85    4.71
   3   0  -3    0.30    2.98
   1  -2   5  765.47   12.18
  -1   7  -3    7.15    3.79
   2  -3   1  170.57    6.75
   1  -2   1 4137.33   22.35
   0  -1   3   -1.87    1.27
  -2   5   0  517.96   11.54
  -2   4   1 1407.73   17.30
   3   2  -4  240.78    5.95
   3  -3   0   80.26    6.00
   2   1  -3   83.13    3.03
  -1   3  -1 1213.80   13.34
  -1   2   0 1627.27   13.47
   2  -3   4   14.08    4.37
   1   1   8    4.86    4.47
  -2   3   3  164.95    5.70
  -2   3   4   19.36    3.10
   5   4  -5  106.62    6.94
   4   4  -5  100.00    5.30
   4   0  -3   -1.59    3.87
   3  -1  -2  912.89   13.91
   2  -3   2  190.87    7.34
   1  10  -6   -0.53    4.32
   1  -2   4  551.94   10.06
   1  -1   6   89.53    5.70
  -1   6  -3  317.44    9.18
  -2   3   2  192.59    6.31
   2  -3   3  150.96    6.97
   1  -2   2    4.19    2.37
   1   0   7   -1.29    4.16
  -1   4  -2  163.54    5.93
  -2   4   6   81.35    4.54
   4   2  -4   29.95    4.76
   2  -2   0  595.08   10.61
   1  -2   3 1889.10   17.16
  -2   5  -1  135.49    6.80
  -2   4   0   66.80    4.65
  -1   1   1  160.50    3.77
  -2   3   1  169.61    6.15
   2  -1  -1  388.10    7.79
  -1   5  -3   41.55    4.05
   3  -2   0  618.27   13.06
   1  -1   0   72.87    2.83
   5   4  -1  263.88    9.43
   2  -3   2  195.07    7.32
   0  -4   4   24.46    3.40
  -4   0   5    0.80    2.96
   3   0   0 1850.60   19.32
   2   7  -3   23.01    2.05
   0   8  -3 1281.75   17.12
  -2   2   0  594.39    9.99
  -2  -1   2  395.79    5.16
   4   3  -1  804.27   13.08
   3   2  -1 1379.43   14.14
   1   7  -3    4.49    2.67
  -2   4  -1 1421.99   17.85
   5   8  -2   14.78    4.09
   4   1   0  372.94   10.34
   2  13  -4   17.72    4.67
   1  -4   4   14.44    4.01
  -4   1   3    4.11    3.51
   4   6  -2   68.49    4.11
   3  -1   1  125.02    6.50
   0  -4   5 1030.77   15.07
  -1   5  -2  264.29    7.78
  -4   2   2  144.04    6.71
   5   5  -1   67.79    5.99
   2  12  -4  224.58    7.39
   2   0   0 6454.05   29.29
   0   7  -3   -3.22    3.44
   0  -4   6  205.74    8.55
  -2   0   1   -0.04    1.91
  -3   3   0   87.60    5.68
  -4   0   4   47.37    4.16
   2  -3   3  160.12    7.50
   0  -3   3    1.82    2.04
  -3   0   2 1363.83   14.06
   4  11  -3  137.85    4.36
   3   5  -2  398.09    5.97
   1  11  -4    3.57    4.65
  -1  -3   4    5.24    2.11
  -3  -1   3   71.28    3.28
   5   9  -2   17.22    4.26
   4   2   0   42.25    5.02
   2  -2   2   52.83    4.67
   1  -3   3  496.34   10.24
  -2   3  -1  170.35    6.43
  -3   1   1  127.96    5.46
   4   4  -1  180.84    6.91
   3   1   0  111.72    5.37
   2  11  -4    1.09    3.31
   2   2  -1 1051.81    9.22
   2  -1   1  398.22    8.72
   1   0   0 4648.87   17.41
  -1   7  -3    5.11    3.76
  -1   2  -1 4214.73   22.98
  -2   5  -2    7.49    3.89
  -5   1   5   34.86    4.71
   1  10  -4   86.48    5.80
  -1   4  -2  168.20    6.17
  -1  -3   7   49.98    5.43
  -2   1   0   63.57    3.77
  -4   1   2  819.66   13.82
   3   3  -1 1617.00   15.25
   3   0   1    1.50    3.31
   1   6  -3  321.84    6.32
   1  -2   2    8.33    2.55
   0  -2   2    4.62    1.71
  -1  -3   5  156.74    5.51
  -3   2   0  596.13   11.91
  -4   0   3    0.13    3.24
   5  10  -2   -1.16    4.15
   4   7  -2   64.23    4.35
   1  -3   4    5.33    3.42
   0  -3   4   -1.34    2.54
  -1  -3   6   34.29    4.39
  -5   1   4   93.28    6.12
   2  -2   3  802.63   15.05
   1  -1   1  156.94    4.43
  -1   6  -3  318.37    9.50
  -4  -1   5    9.45    2.56
   4   3   0   10.04    4.10
   2  10  -4   10.87    3.01
   0  -3   5    7.05    3.51
  -2   4  -2  337.77    9.83
   1   9  -4   31.18    4.32
  -2   2  -1 1095.08   14.72
  -2  -2   7  198.14    6.72
   4   5  -1  382.95    9.46
   3   2   0  599.54   11.09
   2  -1   2  387.29    9.62
   1  -2   3 1856.93   19.38
  -3   0   1    0.71    2.32
  -4   1   1   -0.28    3.29
  -4  -1   4  195.22    5.49
   3   1   1  121.11    6.30
   2   1   0   64.58    3.45
   2   0   1    1.65    2.64
  -1   5  -3   40.97    4.69
  -1   3  -2  471.02    9.28
  -1   0   0 4790.15   18.19
  -3   1   0  105.09    5.58
  -4   0   2  153.32    6.33
  -5   0   5    0.62    3.59
  -1  -2   7  326.49   10.26
  -3  -1   2  938.63   10.91
  -5   0   4   43.23    5.01
   4   8  -2   25.27    3.94
   4   4   0   58.18    5.51
   1  -2   4  581.33   12.41
  -2   3  -2  192.96    7.55
  -2  -2   6   54.66    4.05
  -3   2  -1 1368.78   19.12
   2  -1   3   79.23    5.58
   1   8  -4  223.99    6.70
   0  -2   3 2441.09   18.08
   4   6  -1    2.46    3.63
   3   6  -2  968.52    9.89
   3   4  -1 1052.94   12.54
   1  12  -5   97.28    6.56
  -1   1  -1  155.51    4.64
  -1  -2   3 1806.87   11.03
  -2   0   0 6461.13   29.54
  -3  -1   7   21.77    3.46
  -4  -1   3    1.73    2.97
  -5   0   3   -3.14    4.31
   2   9  -4  160.38    4.14
   1  -1   2  725.34   10.79
   0  -2   4  727.03   11.80
   0  -2   5  950.79   15.18
  -1  -2   6   47.61    4.92
  -2  -1   1  408.53    6.26
  -2  -2   4  259.94    3.83
  -2  -2   5  409.18    6.59
   1   5  -3   43.28    2.59
  -2   1  -1  384.72    8.64
  -4   0   1   -1.92    3.36
   3   3   0   81.00    4.93
   3   2   1 1378.74   18.48
   2   0   2 2528.42   23.69
   1  11  -5   44.99    5.34
  -1   4  -3  330.09    9.07
  -1  -2   5  754.13   11.40
   4   5   0  720.37   14.22
  -1  -2   4  564.05    8.33
  -3   1  -1  116.71    6.34
  -3   0   0 1803.06   19.22
   4   9  -2   97.75    5.41
   1  -1   3   47.77    4.18
  -1   2  -2    7.37    2.67
  -2   2  -2   52.16    4.45
  -4  -1   2  824.98   12.66
   4   7  -1   65.27    5.48
   2   3  -1  167.27    4.06
   2   1   1  395.93    8.67
   2   0   3   -2.14    3.16
   1   7  -4  128.16    5.05
   1  -1   4   40.94    4.68
  -2  -1   7    0.25    4.23
  -3  -1   1  122.34    4.96
   1   0   1    0.81    1.58
   2   2   0  562.71    8.74
   1  10  -5  348.86    9.08
  -1   5  -4  304.20    9.86
  -5  -1   4   88.29    5.02
   3   5  -1  103.52    4.75
   0  -1   2   -0.79    1.52
   0  -1   5    0.80    3.69
  -1   3  -3  481.30   10.49
  -4  -1   1   -1.88    3.24
  -5  -1   3   51.33    4.99
   4  10  -2   -0.38    3.66
   3   4   0  104.71    5.50
   2   1   2  385.12    9.66
  -1  -1   6   87.58    6.12
   4   8  -1   13.44    4.30
   2   1   3   90.32    6.31
   0  -1   4    0.82    2.98
  -2   1  -2  386.03    9.81
  -2   0  -1   -0.10    2.24
  -3   0  -1    0.99    2.85
  -3  -1   6  254.41    5.99
  -5  -1   2  240.85    8.85
   3   7  -2  167.57    5.07
   1   9  -5   24.00    4.27
   1   1   0   69.74    2.42
   1   0   2  761.45   11.15
   0  -1   3   -1.64    2.16
  -2  -1   6  120.24    5.79
  -3  -1   0  104.40    5.39
   1   0   3    0.27    2.96
   1   0   4 1879.66   22.32
  -2   2  -3  802.30   15.27
  -2  -1   0   63.72    3.48
  -3  -2   2  455.79    7.24
   4  11  -2  129.69    6.77
  -1   4  -4   16.16    3.94
  -4  -2   3   66.88    4.09
   4   9  -1  204.99    8.52
   3   4   1 1034.79   16.62
   2   2   1 1055.64   14.00
  -1   1  -2  726.04   10.93
  -1   0  -1   -0.54    1.84
  -1  -1   5   15.23    3.49
  -2   0   7   -1.32    4.75
  -4  -2   2  163.71    6.09
   3   6  -1   67.64    4.37
   3   5   0 1578.53   18.58
   2   2   2   56.11    4.88
   0   0   5    1.45    3.91
  -1   2  -3 1903.16   19.99
   2   2   3  766.26   15.21
  -1   0   6  364.60   10.82
  -3  -2   1 1406.17   14.73
   2   3   0  120.77    4.64
  -2   0  -2 2538.43   24.00
  -4  -2   1   82.67    5.31
   1   1   4   34.70    4.52
  -1   3  -4    7.48    3.62
  -2   1  -3   82.33    5.71
   2   3  -2  193.45    7.36
   1  -6  -7   54.28    3.18
  -1  -8  -5  171.44    7.84
   2   3   2  193.37    6.61
   1  -1  -5   18.65    2.43
   1   2   0 1669.78   14.15
  -1  -6  -4  583.34   11.11
  -1  -3  -1 1175.84   12.65
  -1  -3   1 1228.68   13.83
  -1  -6   4  580.32   13.08
   3   3   4   13.96    4.28
   3   2   5  400.36   10.03
   1   1   3   50.55    2.33
   0  -7   6    1.88    5.29
   2   2  -4  291.73    8.80
   1   2  -1 4104.28   22.93
   1   2   1 4137.29   21.29
   0  -7  -6   -1.30    3.82
  -1  -3   0   63.60    3.56
  -1  -5   3   42.29    4.41
   3   4   3  683.64   14.21
   2   2   4  288.10    7.02
  -1  -5  -3   44.85    3.89
  -1  -4  -2  161.61    5.56
  -1  -4   2  161.10    6.18
   3   1   6  260.56    7.49
   2   3  -3  155.05    6.88
   2   4   0   64.55    5.10
   1  -7   7   -0.17    4.58
   0  -3   4   -1.22    2.20
   0  -5   5   -0.37    3.75
  -1  -7  -4  122.59    6.47
   2   4  -1 1399.13   18.77
   2   4   1 1392.66   17.96
   2   3   3  156.65    5.97
   2   1   5    8.23    2.77
   1  -4   6   63.90    4.26
   2  -2  -7  190.74    5.78
   2   0  -6  523.44   10.47
   1   2  -2    5.20    2.20
  -1  -6   3  329.45   10.07
   2   4  -2  359.10   10.13
   0  -8  -6  609.23   12.09
  -1  -8  -4  238.01    9.17
  -1  -6  -3  316.18    8.83
  -1  -4  -1  196.41    6.22
  -1  -4   1  196.75    6.46
  -1  -5   2  271.13    8.45
   3   4   4   54.33    5.87
   1   2   2    6.77    1.99
  -1  -4   0  511.10    9.83
   3   3   5  446.33   10.78
   2   4   2  350.21    9.14
   0  -9  -6   -6.11    5.04
   0  -5  -5   -1.40    2.86
   0  -2   3 2336.03   14.51
   0  -6   5  167.10    7.45
  -1  -5  -2  258.03    7.49
   2   3  -4   18.32    3.89
   1  -7  -7    0.65    3.46
   1  -2   5  721.56    7.24
   0  -3  -4   -1.01    1.58
   0  -1   2   -2.28    0.99
  -1  -7  -3    5.04    3.95
  -1  -6   2 2469.93   25.75
   2   4  -3  939.93   16.06
   1   1  -4   34.27    3.14
   0  -4   4   23.89    3.40
   0  -7   5   -0.01    4.58
  -1  -5   1   64.83    4.64
   2   5  -1  123.14    6.89
   2   5   0  534.98   12.19
   1  -5   6   23.68    4.33
  -1  -8  -3  272.53    9.90
  -1  -6  -2 2479.00   24.00
  -1  -5  -1   68.14    4.70
  -1  -5   0 1307.35   16.85
   2   5   1  125.04    6.57
   1   3  -1 1225.52   13.99
   1   3   0   60.54    3.57
  -1  -7   2   45.95    5.33
   3   2   6  128.12    5.84
   2   1  -6  119.64    6.15
   2   5  -2    3.34    3.41
   2   4   3  946.19   14.15
   2   3   4   17.25    3.27
  -1  -7  -2   45.25    5.21
  -1  -6   1  487.30   11.57
   3   5   4  626.48   13.94
   2  -1  -7    1.72    3.19
   2  -5   7   21.49    4.14
   1  -8  -7   72.13    5.45
   1   0  -5    1.30    2.13
   1   3   1 1265.86   13.32
   1  -6   6  644.12   12.90
   0  -6  -5  176.15    6.39
   0  -5   4   -1.39    3.11
  -1  -6  -1  482.79   11.08
  -1  -6   0 1068.25   16.51
  -1  -7   1    8.71    4.45
   2   4  -4   25.80    4.41
   2   5   2    2.80    3.32
   1   3  -2  453.20    8.93
  -1  -7  -1    8.38    4.09
   3   4   5  356.36   10.09
   2   5  -3   68.27    5.87
   1  -7   6    8.84    5.48
   0  -7  -5   -2.75    4.05
   0  -3   3   -1.29    2.23
   0  -6   4  636.79   13.11
  -1  -7   0  393.30   11.14
   2   6   0  555.61   13.10
   2  -6   7   36.55    5.19
   0  -8  -5  626.90   13.35
   2   6   1  318.52   10.11
   2   2   5  421.12    7.22
   0  -7   4   -0.82    4.47
   2   2  -6   52.40    5.29
   1  -3   5  154.42    5.02
   2   5   3   77.40    5.37
   1   3   2  450.79    7.80
   1   2   3 1918.35   12.71
   0  -4  -4   23.85    2.68
   3   3   6  107.50    5.72
   2   0  -7   -0.22    3.31
   2   6   2 1024.13   16.90
   2   4   4   28.54    3.92
   1   4  -1  206.03    6.61
   1   4   0  533.21    9.94
   0  -4   3 2511.60   20.63
   3   5   5   70.86    6.27
   1   4  -2  167.68    6.45
   0  -2  -3 2348.01   10.48
   0  -2   2    6.93    1.74
   1   4   1  199.95    6.27
   0  -5  -4   -3.22    2.58
   0  -5   3   -4.27    3.19
   1   1  -5   13.68    2.74
   1  -4   5  269.58    7.25
   0  -7   3   -3.68    4.29
   0  -6   3  424.98   10.72
   2   3  -6   32.46    4.99
   0  -8  -4  594.18   13.34
   0  -7  -4   -3.04    3.80
   0  -6  -4  630.39   11.34
   2   6   3  188.05    7.83
   1  -4  -6   59.84    3.39
   1   4  -3  322.26    8.54
   1  -6   5  105.32    6.62
   1  -5   5   20.17    4.05
   2   1  -7   -1.97    3.48
   2  -2   6   48.83    3.30
   1   5  -1   74.30    4.81
   1   5   0 1304.73   16.70
   0  -3   2    0.18    2.08
   3   4   6   28.74    4.60
   2   5   4  184.24    7.06
   2   3   5  109.50    4.72
   1  -8  -6  350.48   10.36
   1   5  -2  255.27    8.15
   1   4   2  160.23    5.56
   1  -7  -6    8.28    4.37
   1  -6  -6  647.23   11.04
   1  -5  -6   29.42    3.71
   1   5   1   71.60    4.70
   0  -3  -3   -4.67    1.77
   0  -4   2 1520.15   15.85
   0  -8  -3 1265.92   19.21
   0  -7   2   -5.62    3.56
   0  -6   2 3186.64   27.71
   0  -5   2   -4.78    2.88
   1   2  -5  761.75   10.47
   1   3   3  478.49    7.53
   0  -7  -3   -6.38    3.19
   0  -6  -3  428.54    9.78
   0  -4  -3 2511.18   17.84
   2   2  -7  196.84    6.92
   2  -3   6   33.41    3.77
   1   5  -3   42.32    4.37
   1   6  -1  501.52   11.52
   1   6   0 1066.88   16.30
   0  -5  -3   -2.96    2.61
   2   6   4  351.85    9.82
   2  -6   6  333.97   10.32
   2  -5   6    2.98    4.32
   2  -4   6   78.99    5.19
   1   6  -2 2436.78   25.10
   0  -8  -2 2535.78   27.32
   0  -7   1   -8.26    3.80
   3   5   6   93.08    5.93
   2   4   5  515.63    9.24
   1   6   1  496.40   11.12
   1   5   2  258.25    7.40
   0  -7  -2   -7.55    3.66
   0  -8  -1 2254.20   26.09
   0  -6   1  936.60   15.04
   0  -2   1 4046.97   17.83
   3  -5   7   29.56    5.20
   1  -7   4  118.54    7.37
   0  -6  -2 3200.31   26.11
   0  -7  -1   -6.57    3.56
   0  -7   0   -1.48    3.83
   0  -5   1   -2.49    2.55
   0  -4   1 4845.17   27.33
   0  -3   1   -5.13    2.04
   1   3  -5  151.08    5.82
   1   5  -4  320.15    9.25
   1   6  -3  315.07    9.67
   1   7  -1    8.30    3.69
   1   7   0  394.05   11.00
   1  -6   4  551.20   12.27
   0  -5  -2   -6.95    2.75
   0  -6   0 1214.46   16.76
   1  -8  -5  171.24    8.50
   1   4   3  320.54    7.09
   1  -5   4  316.03    8.84
   0  -6  -1  936.55   14.54
   2   7   4   34.95    5.13
   1   7   1   11.96    3.95
   1   6   2 2468.99   23.42
   0  -4  -2 1490.81   14.24
   0  -5   0   -0.06    2.40
   0  -5  -1   -1.88    2.29
   0  -4   0   90.78    4.28
   4   3  -5  332.00   10.33
   2   5  -3   62.52    5.35
   1   7  -1   13.93    3.98
   0  -7   2   -1.61    3.82
   0   9   4   -1.40    4.64
   0   9   5   -3.16    4.93
   0  -2   8  143.55    7.47
   0  -1   8   -2.30    4.38
   0   1   8    0.46    3.45
   2  -8  -2  868.38   15.53
   0  -5   1   -1.24    2.62
   0   6   1  945.27   14.12
   0   8   2 2535.31   25.94
   1   3  -2  451.02    8.63
   1  -6  -1  501.07   10.39
   0   9   6   -3.79    4.64
   3  -3  -4   14.44    1.96
   3  -8  -3  215.50    8.58
   1   4  -2  164.17    6.40
   1  -8   0  451.75   12.37
   0   7   1   -6.86    3.20
   0  -6   2 3199.86   29.15
   0   8   7  205.83    6.96
   4  -7  -4  211.18    7.76
   2  -3  -3  151.03    3.29
   0   3   0    0.63    1.98
   0  -4   1 4749.88   28.11
   2  -7  -2   73.15    5.40
   1   5  -2  262.07    8.42
   0   4   0   97.00    4.44
   0  -6   3  459.41   12.18
   1   6  -2 2430.54   25.63
   1  -5  -1   68.84    4.14
   0   8   1 2197.57   24.88
   0  -5   2   -4.11    2.84
   3  -7  -3    8.11    4.05
   1  -7   0  398.80   10.77
   0   5   0   -2.82    2.35
   0  -2   7  374.24   10.67
   0   6   0 1180.24   16.46
   0  -3   1   -0.10    1.87
   0  -5   3   -2.06    3.48
   0  -5   4    0.80    4.20
   0   7   0    1.58    3.90
   0  -4   2 1531.47   17.39
   0  -1   7   -1.59    4.21
   4  -6  -4  124.57    6.15
   2  -6  -2 1004.37   14.35
   2  -8  -1  684.33   14.86
   0  -4   5 1021.07   17.23
   0  -3   6    1.15    4.49
   1  -4  -1  193.70    5.52
   1  -6   0 1089.35   16.24
   0   0   7    3.30    4.05
   2   5  -4  186.23    8.18
   1  -7   1   10.68    4.03
   0  -4   3 2608.95   24.19
   0  -4   4   23.01    4.06
   0  -2   6   39.74    5.44
   3   3  -5  425.21   10.42
   3  -6  -3   52.09    4.60
   0  -2   1 4127.25   19.88
   0  -3   5    0.84    3.77
   3   2  -5  377.46    8.81
   2   2  -4  275.58    7.01
   0  -3   2   -1.11    2.35
   0   1   7   -2.67    3.62
   2  -7  -1   30.00    4.54
   2  -5  -2    4.34    2.68
   1   5  -3   35.60    4.50
   1   6  -3  309.55   10.15
   1  -5   0 1269.63   16.14
   1  -6   1  495.41   12.04
   0   6  -1  920.83   15.28
   0   7  -1   -8.50    3.99
   0  -3   3    2.81    2.77
   0  -3   4    0.45    2.87
   0  -1   6   -4.52    4.03
   4   4  -6    1.44    5.05
   4  -5  -4  367.21    8.72
   3   1  -5   47.44    3.82
   2   1  -4   -1.40    2.40
   1   4  -3  316.53    8.64
   0   4  -1 4777.55   28.69
   0  -2   5  912.50   14.38
   0   2   7  368.80    7.89
   4   3  -6   15.84    4.84
   4  -7  -3   45.10    6.14
   3  -7  -2  163.31    7.88
   1  -6   2 2494.56   27.58
   0   3  -1   -2.61    1.89
   5  -6  -4  107.46    7.31
   3  -5  -3   89.80    5.06
   2  -6  -1  310.84    9.15
   1  -3  -1 1179.16   10.99
   0  -2   2    8.74    2.35
   0  -2   4  674.41   11.56
   0   0   6 1069.41   14.41
  -1   6   3  323.30    7.59
  -1   7   3    3.45    3.32
  -1   8   3  249.15    8.39
  -1   7   4  137.09    5.76
   4   2  -6   59.03    4.71
   2  -7   0   16.77    4.67
   0   3   7    0.48    3.28
  -1   9   3   53.92    5.51
  -1   6   4  582.75    8.90
  -1   8   4  227.40    7.58
  -1   9   4   28.84    5.13
   1  -5   1   58.11    4.67
   0  -2   3 2360.83   19.34
   0  -1   5   -0.69    3.05
  -1   6   2 2459.19   21.22
  -1   7   2   42.68    4.42
  -1   8   2 1046.52   16.57
  -1   9   2   -4.13    3.81
  -1   5   3   39.71    3.12
  -1  10   4   82.85    6.88
   2  -2  -3  760.19    6.04
   1  -4   0  526.51    9.67
   0   7  -2   -4.49    4.11
   0   2  -1 4218.22   20.63
  -1   5   4  316.89    5.55
  -1   8   5  164.99    6.40
   5  -3  -5  196.05    6.36
   2  -4  -2  355.67    7.41
   1  -5   2  276.67    9.37
   0   6  -2 3101.55   29.06
  -1   8   1  364.52   10.71
  -1   5   2  265.58    6.71
  -1   7   5    1.61    3.12
  -1   9   5   25.41    4.62
  -1  10   5  359.72   10.29
   4  -6  -3    4.93    5.04
   3  -6  -2  968.78   15.98
   1  -5   3   38.10    5.24
   0   5  -2   -6.53    3.43
   0   1   6   -2.63    3.58
   4  -4  -4   33.14    4.37
   2  -6   0  563.15   12.99
   0  -1   4    1.05    2.80
  -1   6   1  493.91   10.47
  -1   4   3  335.84    5.38
  -1   6   5  124.92    3.90
   2  -5  -1  127.50    6.03
   1   5  -4  305.28    9.89
   0   4  -2 1531.41   17.65
   0   0   5   -1.34    3.03
   5  -5  -4  198.09    8.58
   1   1  -3   50.69    2.89
   0   4   7  447.99    7.78
  -1   5   1   70.17    4.44
  -1   4   2  162.77    4.66
   3   4  -6   31.49    5.29
   3  -4  -3  697.58   10.83
   1  -4   1  204.88    6.90
   1  -4   4   18.78    4.66
   0  -1   3   -1.64    2.16
  -1   7   0  387.39   10.71
  -1  10   6    1.54    4.17
   2   3  -5   98.33    5.72
   2  -6   1  311.35   10.75
   1   4  -4   12.54    3.86
   1  -4   3  330.45   10.14
   0  -1   2   -3.25    1.54
  -1   6   0 1062.61   16.16
  -1   9   6   -2.33    3.46
  -1  11   6   15.78    4.85
   1  -4   2  170.30    6.96
   0   3  -2   -0.53    2.43
   3   3  -6   91.59    5.78
   3  -6  -1   67.99    6.27
   1  -3   0   69.73    3.73
   0   2   6   43.46    4.08
  -1   4   1  198.59    5.70
   4  -5  -3  250.43    9.03
   3  -5  -2  400.56   10.13
   2  -5   0  514.30   11.77
  -1   7  -1   13.41    4.62
  -1   5   0 1287.73   16.33
   1  -3   4    6.98    3.94
   0   5  -3   -1.54    3.59
   1  -2  -1 4057.42   17.00
   0   0   4 6028.47   28.74
   0   1   5    0.69    2.81
  -1   6  -1  495.98   12.03
   5  -4  -4   60.55    6.05
   2  -3  -2  189.36    5.16
   2  -4  -1 1411.83   16.22
   2  -5   1  130.27    7.28
   1  -2   5  750.69   15.28
   1  -3   1 1253.80   14.88
   1  -3   3  480.63   11.35
   1   1   7    6.75    5.78
   0   4  -3 2553.48   24.21
  -1   4   0  532.91    9.80
   1   5  -5   18.20    5.45
   1  -3   2  469.73   10.33
   0   2  -2    8.90    2.26
  -1   5  -1   70.56    5.26
   3  -5  -1  112.58    6.89
   1  -2   4  592.39   12.94
  -1   3   1 1256.81   11.60
   2  -4   0   67.83    4.99
  -1   6  -2 2424.52   26.98
   0  -2  -4  714.56   13.09
  -1  -6   6  629.74   12.14
  -4   7  -2   71.49    5.88
   1  -4  -1  206.12    6.38
   1  -8   3  269.02    4.49
  -1  -3   5  162.55    6.96
  -3   6  -1   74.36    5.08
  -3   6   0 1185.29   17.78
   1  -4   0  527.61    8.24
   0  -5   4   -0.57    1.91
  -1  -1   4   41.71    4.34
   1  -4  -2  161.68    6.39
  -1  -7   6   12.18    4.50
  -2   4   1 1390.35   17.43
   0  -3   3    0.75    1.66
  -1   2   1 4093.07   22.70
   1  -4  -3  327.68    9.79
   0  -1  -4    0.95    2.87
  -1   0   3   -2.50    2.71
   1 -13   4   12.70    3.03
  -1  -4   5  289.48    8.53
  -1  -8   6  349.86    9.18
  -2   3   2  187.48    7.32
  -2   2   3  777.11   14.86
  -3   2  -7  160.24    5.75
  -4   6  -3    4.23    3.69
   1  -3  -2  454.70    9.65
   1  -3  -1 1223.54   13.44
   1 -12   4  146.21    4.04
  -1   1  -5   18.74    3.28
  -1   1   2  703.03   10.53
  -2   4   0   69.61    4.14
  -3   5  -3   90.91    4.00
  -5   6  -4  119.84    6.46
   1  -4   1  203.34    4.17
  -1  -2   4  560.69   10.86
  -2   2  -6   53.06    4.04
  -2   3  -5  106.87    3.28
  -2   4  -2  331.84    5.48
  -3   5   0 1603.85   20.08
  -4   6  -2   67.58    5.56
   2 -10   1  447.78   10.73
   1  -3  -3  467.18   10.77
  -1   2  -4  571.08    7.48
  -1  -9   6   -0.48    4.04
  -2   4  -1 1384.24   13.28
   2  -8   0  539.23   11.67
   1  -3   0   65.13    3.03
   0  -1  -5    1.82    3.30
  -1  -5   5   19.73    4.14
  -2   1  -7   -0.50    3.91
  -3   5  -1  111.72    5.63
   2  -9   1    5.84    3.37
   2 -12   2  207.42    7.88
   0   0  -4 6003.85   32.51
  -2   3   1  179.81    6.59
  -3   5  -2  394.38    8.30
  -1   2   0 1627.38   11.60
  -1 -10   6   -0.50    3.77
  -2   1   3   86.41    5.63
   2  -7   0   14.60    3.40
   2 -11   2   52.16    5.01
   1  -2  -2    5.17    2.74
   0  -6   4  608.89    7.42
  -1  -1   3   52.84    3.79
   2  -6  -1  325.13    9.40
   2  -8   1  702.60   11.85
   1  -2  -3 1843.65   19.94
   0  -2   2    7.56    1.23
  -1   1  -6   84.54    5.52
  -1  -3   4    6.78    3.00
  -4   5  -4  373.04    8.09
   2 -10   2    3.68    3.67
   1  -2  -1 4230.35   23.18
  -1  -6   5  116.92    5.95
  -1 -11   6   19.54    3.99
   1  -2  -4  541.83   12.21
   0   0  -5   -2.14    3.16
   0 -11   5   -0.64    2.51
  -1   0   2  755.31   10.48
  -3   4   0  101.45    6.06
   2  -6   0  561.36   10.88
  -1   2  -5  769.55   10.13
  -1   1   1  155.47    4.51
  -2   3   0  127.70    5.01
   2  -5  -1  136.61    6.29
   0  -4   3 2481.58   13.52
  -2   0   3   -0.47    2.91
  -4   5  -3  255.72    7.84
  -4   5  -2  224.63    8.12
  -5   5  -4  187.08    7.78
   2  -7   1   26.84    3.32
   2  -9   2   37.57    3.86
   2 -14   3   10.10    3.94
  -2   2  -7  209.31    6.48
  -2  -2   4  284.46    9.55
  -3   3   1 1600.30   21.03
   2  -4  -2  338.52    9.76
   2 -13   3   -1.08    3.42
   1  -1  -3   50.26    4.13
  -1  -4   4   14.77    3.19
  -1  -7   5    1.56    3.64
  -2   2   1 1065.27   14.38
  -2   1   2  397.06    9.71
  -3   4  -1 1054.40   14.67
   1  -1  -4   34.70    4.30
   1  -1  -2  728.95   10.76
  -1  -2   3 1869.52   17.48
   2  -5   0  527.91   10.08
   0  -7   4   -1.46    2.20
  -1   1  -7    5.87    4.10
   2  -4  -1 1396.48   17.16
   2 -12   3   92.13    4.73
  -3   4  -2   98.34    4.78
   1  -2   0 1688.10   12.04
  -1   2  -6   46.81    4.19
  -1   2  -1 3930.95   13.01
  -1  -8   5  184.67    7.21
  -2   3  -1  168.10    4.86
  -2  -1   3   86.75    5.42
  -2  -3   4   21.85    4.35
   2  -3  -2  202.17    7.57
   2  -6   1  326.27    7.33
   2  -8   2  862.26   10.92
   1  -3   1 1280.57    8.59
  -3   4  -3  699.99    9.64
  -5   4  -5  107.03    6.11
  -1  -5   4  311.42    8.09
  -3   2   1 1402.63   19.40
   1  -1  -1  159.86    4.51
  -1  -1   2  740.72   10.08
  -2   0   2 2593.52   23.65
  -4   4  -2    4.22    3.66
   1   0  -4 1839.12   20.11
   1   0  -3    0.35    2.47
  -1  -9   5   29.78    4.67
  -4   4  -3  150.87    6.83
   2  -2  -3  755.64   14.24
   2  -3  -1  168.25    6.33
   2  -4   0   65.83    4.03
  -1  -3   3  472.25    8.97
  -2   2   0  590.63    9.65
  -2   1   1  402.99    8.93
  -2  -4   4   27.73    4.50
   3  -9   1  164.66    7.32
  -3   3  -1 1600.84   17.89
   2  -2  -2   56.23    4.66
   1   0  -2  765.33   10.41
  -1   0   1    2.34    1.55
   0  -5   4   -3.66    2.79
  -1  -4  -2  156.77    5.97
  -1   6  -2 2463.02   14.44
  -1  -7  -1   12.25    2.77
  -1  10   0  205.40    4.86
  -1 -10   1  729.79    7.36
  -2 -11  -1   54.07    5.04
   0  -5   3    0.52    2.29
  -1  -9   0   65.15    3.55
  -1  11   1  151.27    5.94
  -1 -10   4   91.38    4.52
  -2   9  -3    6.90    3.33
   0   5   1   -2.92    1.68
   0   6   2 3103.95   24.47
  -2 -13   4   21.19    3.00
  -3  10  -4    2.38    4.38
   0   6   3  446.14   11.30
   0  -4   4   27.73    3.93
  -1  -5  -2  247.42    7.58
  -1 -10   3  525.60    6.56
  -1  -9   5   19.89    4.66
  -2   5  -4  191.58    7.85
  -2  14   1    6.69    4.29
  -1  -8  -1  360.91    8.32
  -1  11   2   62.18    5.52
  -2 -13   0   33.88    4.69
   0   4   1 4795.88   22.75
   0  -4   2 1444.73   11.01
   0   5   2   -7.25    2.65
   0  -4   3 2472.99   19.21
   0   5   3   -3.38    3.00
   0  -3   4   -1.88    3.04
  -2   6  -4  333.31    9.66
   0   4   3 2590.42   25.41
   0  -2   4  689.53   13.31
  -1  -1  -3   49.24    4.70
  -1   0  -3    0.60    2.69
  -1   1  -3   48.17    4.04
  -1   2  -3 1882.37   19.22
  -3  13  -3   11.31    2.80
   0   4   2 1547.55   16.75
   0   0   4 6225.72   40.90
  -1  -2  -3 1854.84   21.10
  -1   3  -3  476.10    9.78
  -1   7  -2   53.64    2.59
  -1  10   1  739.94   11.80
  -2 -14   1   11.78    3.28
  -2 -12   5   65.18    5.18
  -3  11  -4   10.14    4.31
   0   3   3   -4.93    3.12
  -1  -7  -2   52.44    4.78
  -1 -10   0  220.17    5.89
  -1  10   2    5.54    3.88
  -1  -8   5  163.29    7.46
  -2  10  -3  338.68    6.91
  -2  12  -1  110.87    3.45
   0  -3   2   -1.24    1.86
   0   3   2   -2.64    2.52
   0  -2   3 2445.63   20.88
   0   2   3 2405.15   23.34
  -1  -4  -3  321.88    9.69
  -1   4  -3  322.01    7.87
  -1  -9  -1   87.33    4.93
  -1  -9   4   26.72    3.83
   0  -1   3   -2.59    2.38
   0   0   3   -2.36    2.46
   0   1   3   -6.51    2.63
  -2  13   1   -1.94    4.02
   0   2   1 4199.00   19.17
   0   2   2    8.86    2.40
  -1  -8  -2 1063.79   16.19
  -1   9   0   66.76    3.17
  -2 -14   0  360.06    8.96
   0  -2   2    6.94    1.89
   0   1   2   -2.43    2.10
   0   0   2 9999.00   36.36
  -1 -10  -1  715.40   12.06
  -1   9   1   75.36    4.60
  -1   9   2   -3.90    3.16
  -2 -11   5   27.70    5.10
  -3  12  -4  133.80    5.89
  -1  -9  -2   -2.31    3.67
  -1  -8   4  227.34    7.15
  -1   2  -4  548.72   12.34
  -1 -11   0   12.05    3.01
  -2   9  -4  159.04    6.59
  -2 -13   3    1.13    2.21
  -1   3  -4    4.89    3.81
  -1  -9   3   53.34    3.33
  -2  12   0  376.14    8.14
  -2 -12   4  221.81    6.60
  -1 -10  -2    5.50    3.90
  -1   8   2 1084.47   16.14
  -1  -7   4  127.91    6.02
  -2  12   1  115.49    6.42
  -1   4  -4   13.03    3.79
  -1 -11  -1  153.24    6.36
  -2 -15   0    6.58    3.84
  -3  14  -1   51.22    4.11
   0  -3   0   -0.61    0.92
  -1   8   1  365.04    8.15
  -1   8   0  442.79    6.77
  -1   7   2   44.53    4.72
  -1  -6   4  547.94   11.22
  -3  14   0  195.38    7.46
   0  -2  -1 4240.91   19.54
   0  -1  -1   -0.10    1.33
  -1   5  -4  303.43    8.65
  -1   7  -3    6.66    2.44
   0   0  -1   -0.68    1.25
  -1  -8   3  237.75    5.89
  -1   5   3   40.29    4.96
  -1  -5   4  308.53    8.97
  -2  10  -4    7.95    3.29
   0  -4  -1 4855.28   23.18
   0  -4   0   93.67    2.33
  -1 -12  -1  196.27    7.17
  -1 -12   0  177.06    5.47
  -1  -4   4   11.27    3.86
  -2  11   1   54.89    5.25
  -2 -11   4   -1.99    3.63
   0  -3  -2   -0.95    2.51
   0  -2  -2   10.26    2.40
  -1   6   2 2478.04   23.04
  -1  -3   4    1.71    3.40
  -1  -2   4  563.03   12.56
  -1  -1   4   29.13    4.93
  -2   9  -5    6.18    4.36
   0  -4  -2 1514.39   16.41
   0   0  -2 9776.23   35.93
   0  -5  -1   -3.04    2.08
  -1   7   1   14.03    2.78
  -1   4   3  338.82    9.80
   0  -5  -2   -2.97    2.80
  -2  11   0   -1.30    3.29
   0  -4  -3 2508.89   24.61
   0  -2  -3 2356.89   22.75
   0  -1  -3   -1.91    2.66
   0  -6  -2 3191.90   25.04
   0  -6  -1  944.14   11.25
  -1  -7   3    4.48    2.65
  -1   3   3  474.76   11.24
  -2 -10   4   10.51    4.22
   0  -5  -3   -7.52    3.64
   0   0  -3   -0.30    2.45
  -1 -13  -1   10.41    4.07
  -1   5   2  253.80    7.73
   0  -6  -3  430.20   11.13
   0   1  -3   -5.28    2.62
   0  -7  -2   -5.32    3.48
  -1   2   3 1882.18   21.35
  -2  10   1  452.97   10.66
   0   2  -2    5.73    1.91
  -1   1   3   46.82    4.77
   0   0  -4 5923.19   39.53
   0   2  -3 2468.58   21.03
  -1   0   3    0.75    2.73
   7  -7  -1    1.65    7.18
   6  -6  -3   -2.26    7.13
   6  -5   3  190.43    9.41
   5  -3  -1  399.65   14.10
   5  -3   2   98.90    6.28
   5  -4   4   63.73    4.97
   4  -9  -7   79.45   10.51
   4  -7  -6   47.79    8.78
   4  -4  -4   29.22    6.53
   4  -3  -3  568.32   16.61
   3  -3  -4   13.42    4.72
   3  -1  -1  121.40    6.27
   2  -7  -7    3.56    5.65
   2  -5  -6    4.11    4.44
   1  -9  -8    9.08    6.27
   7  -7   3    4.11    5.84
   6  -7  -4  211.77   14.46
   6  -5  -2  215.62   13.36
   5  -8  -6    6.46    7.90
   5  -5  -4  206.53   13.46
   5  -4  -3  204.65   12.23
   4  -5  -5  154.63   11.14
   4  -2   3   64.42    4.04
   3  -4  -5  369.15   14.09
   3  -2  -3  805.52   17.16
   2  -9  -8   35.27    8.22
   1  -3  -5  160.26    7.50
   1  -2  -4  558.15   11.59
   7  -6  -1    4.16    6.97
   7  -6   0    5.88    6.75
   7  -6   1    6.51    6.23
   7  -6   2   27.71    7.24
   6  -8  -5   -2.71    8.04
   6  -4  -1   33.95    7.20
   6  -4   0   22.37    6.18
   6  -4   1   29.01    5.94
   6  -4   2    1.02    4.91
   5  -6  -5   -0.19    7.42
   5  -3  -2  103.44    8.96
   5  -3   3  302.69    9.37
   4  -2  -2  151.74    8.46
   3  -7  -7    4.21    6.54
   2  -2  -4  271.69    9.84
   1  -6  -7   66.87    7.37
   7  -7  -3    0.71    7.87
   6  -5  -3  194.30   13.70
   4  -8  -7   12.15    7.94
   4  -6  -6   53.59    8.43
   3  -5  -6  101.43    9.28
   3  -1  -2  929.80   17.02
   2  -6  -7   40.43    7.38
   2  -3  -5  110.36    7.52
   1  -8  -8   87.43    8.85
   7  -6  -2   34.27    9.02
   6  -7  -5   10.03    8.47
   6  -4  -2   -6.50    6.73
   6  -5   4  144.63    7.58
   5  -7  -6   95.62   10.96
   5  -4  -4   59.45    9.16
   5  -2   0   34.36    5.26
   5  -2   1   58.28    5.74
   4  -4  -5  107.09    9.96
   4  -3  -4    2.03    4.64
   4  -1   0  373.25   10.93
   4  -1   1   -1.59    3.00
   2  -8  -8   83.89    9.91
   2  -1  -3   83.70    5.60
   1  -4  -6   59.55    5.88
   0  -8  -8  127.76    8.10
   7  -5  -1   74.82    9.72
   7  -5   0   50.91    8.40
   7  -5   1   73.98    8.61
   7  -6   3    3.13    5.57
   6  -4   3   22.87    5.59
   5  -5  -5   58.99    9.71
   5  -3  -3  325.34   14.34
   5  -2  -1   57.65    6.64
   4  -7  -7   15.34    8.05
   4  -2  -3   68.79    6.77
   4  -1  -1    0.44    3.56
   3  -6  -7   19.15    7.11
   3  -3  -5  440.83   15.22
   3  -2  -4  254.62   11.01
   2  -4  -6   78.49    7.22
   2   0  -1    1.61    2.32
   7  -6  -3    9.34    7.38
   7  -5   2   85.83    8.89
   6  -6  -5    2.34    8.23
   6  -4  -3   22.76    8.64
   6  -3  -1  489.78   17.34
   6  -3   0    0.48    5.02
   6  -3   1  476.57   15.10
   5  -6  -6   22.58    8.88
   5  -2  -2  162.82   10.32
   5  -2   2  167.00    7.78
   4  -5  -6   86.24    9.47
   4  -1   2  813.76   13.34
   3  -4  -6   25.62    6.66
   3  -1  -3   82.62    6.63
   7  -5  -2   78.26   10.08
   6  -3  -2    3.14    6.81
   6  -3   2    4.37    4.93
   4  -1  -2  860.81   18.78
   3   0   0 1809.37   19.85
   2  -7  -8   34.64    8.12
   2  -5  -7   17.95    6.58
   1  -7  -8   24.31    6.75
   1  -5  -7   11.09    5.00
  -1  -6  -7   53.55    4.27
   7  -5  -3   63.99   10.56
   7  -4  -1    0.21    6.74
   7  -4   0   11.35    6.70
   5  -4  -5  124.61   11.80
   5  -3  -4   16.79    6.32
   5  -3   4   17.99    3.69
   4  -6  -7    1.30    7.22
   4  -3  -5  370.91   15.78
   4  -2  -4   35.60    6.70
   3   0  -1   -2.68    2.52
   3   0   1   -1.03    2.23
   2  -2  -5  416.49   13.15
   2   0  -2 2504.71   23.58
   7  -4  -2    1.74    7.40
   7  -4   1    1.38    5.82
   7  -5   3   52.98    7.05
   6  -5  -5  127.70   12.96
   6  -4  -4   17.19    7.64
   6  -3  -3  397.53   17.91
   5  -5  -6   84.70   11.07
   5  -2  -3   51.01    7.30
   5  -1   0  125.01    7.90
   5  -2   3   50.88    4.92
   4  -4  -6   -0.47    6.91
   4  -1  -3    3.88    4.57
   3  -7  -8  114.48   11.21
   3  -5  -7   33.34    7.72
   2  -3  -6   28.77    5.93
   2  -1  -4    1.47    3.44
   1  -2  -5  768.24   14.72
   1  -1  -4   36.33    4.00
   0  -7  -8    0.16    4.33
   0  -5  -7    2.87    4.11
   7  -5  -4   47.07   10.37
   7  -4   2    0.89    6.01
   6  -2  -1   16.57    6.53
   6  -2   0   10.54    5.58
   6  -4   4   14.07    4.41
   5  -1  -1   65.12    6.49
   5  -1   1   70.71    6.27
   3  -3  -6  102.84    9.25
   3  -2  -5  388.63   14.34
   3  -1  -4  100.37    7.63
   3   0  -2 1355.80   20.58
   1  -3  -6   38.63    5.06
   7  -4  -3   -1.95    7.71
   6  -2  -2   93.57   10.05
   6  -2   1   18.81    5.45
   6  -3   3  396.24   12.10
   5  -3  -5  233.71   14.78
   5  -2  -4   22.15    7.43
   5  -1  -2  239.22   11.75
   4  -5  -7   74.42   10.20
   4   0  -1   -0.65    3.47
   4   0   0   49.69    4.89
   2  -6  -8  128.82   10.69
   2  -4  -7  289.81   13.14
   7  -3  -2   -2.00    7.15
   7  -3  -1  154.86   12.01
   7  -3   0    6.17    6.35
   7  -3   1  157.12   10.92
   6  -4  -5   12.86    8.01
   6  -3  -4   -0.49    6.68
   5  -4  -6   -2.44    6.73
   4  -3  -6   27.86    8.11
   4  -2  -5   61.17    8.32
   4  -1  -4  204.25   11.43
   4   0  -2  164.93    9.06
   4   0   1   -2.65    2.93
   4  -1   3    3.22    2.45
   3  -6  -8  141.88   11.99
   3  -4  -7  180.74   12.09
   3   0  -3   -0.09    3.86
   2   0  -3   -0.22    2.57
   1  -4  -7  217.10   10.19
   7  -4  -4   10.43    8.57
   7  -4   3    1.70    5.48
   6  -2  -3   16.25    7.27
   6  -2   2   92.87    7.47
   5  -5  -7   38.94    9.85
   5  -1  -3   45.64    7.01
   5  -1   2  220.87    8.62
   1   0  -3   -1.36    2.05
   7  -3  -3  148.09   13.21
   7  -3   2    2.06    5.65
   6  -3  -5  268.72   16.66
   6  -1  -1   72.76    8.39
   6  -1   0  457.90   15.64
   5  -2  -5   39.59    8.95
   4  -4  -7   70.56   10.04
   4   0  -3    0.56    4.65
   3  -1  -5   49.55    6.76
   2  -5  -8   52.88    8.37
   2  -2  -6   58.32    6.83
   2  -1  -5   12.66    4.36
   0  -6  -8  152.34    7.93
   7  -2  -1   28.31    8.00
   7  -2   0    3.94    6.16
   6  -4  -6   -2.22    8.08
   6  -2  -4    7.48    7.23
   6  -1  -2  416.31   16.93
   6  -1   1   66.69    7.39
   5  -3  -6   32.42    8.37
   5  -1  -4  100.73   10.08
   5   0  -2  235.56   11.94
   5   0  -1    0.94    3.94
   5   0   0   71.02    6.48
   3  -5  -8  141.74   11.81
   3  -2  -6  111.18    9.35
   7  -3  -4   13.92    7.99
   7  -2  -2    3.53    6.61
   7  -2   1   27.25    7.10
   6  -1  -3   60.02    9.68
   5  -4  -7   54.66   10.32
   5   0   1    1.47    3.95
   4  -2  -6   56.32    9.21
   4  -1  -5   10.68    6.26
   4   0   2  160.79    6.29
   3  -3  -7  188.53   12.24
   3   0  -4  751.28   17.89
   3   1  -1  124.08    6.29
   3   1   0  109.22    5.57
   2  -3  -7   56.07    7.28
   2   0  -4 1866.91   24.20
   2   1  -1  386.24    8.72
   1  -2  -6   48.24    5.20
   1  -1  -5   15.28    3.69
   0  -4  -7  479.36   11.53
   7  -2  -3   23.54    8.83
   6  -2  -5   10.75    8.51
   6  -2   3   17.51    4.98
   6  -3   4    2.13    3.79
   5   0  -3   -0.52    5.62
   5  -2   4   19.33    3.51
   4   0  -4   52.42    7.33
   4   1  -1    1.24    3.63
   3   1  -2  933.19   17.22
   2   1  -2  376.87    9.54
   7  -3   3  135.89    8.95
   6  -3  -6    3.47    7.56
   6  -1  -4  279.02   16.25
   6   0  -1    0.81    5.40
   6  -1   2  412.01   13.09
   5  -2  -6   55.90   10.04
   5  -1  -5   41.13    8.94
   5  -1   3   49.18    4.56
   4   1  -2  813.32   18.55
   4   1   0  367.70   10.99
   3  -4  -8   15.89    7.48
   2  -4  -8   11.20    6.68
   1  -3  -7   50.04    5.98
   1   0  -4 1857.26   20.56
   7  -2  -4    8.96    7.77
   7  -1  -1   43.06    8.31
   7  -1   0  157.85   11.24
   7  -2   2   -2.19    5.81
   6   0  -2   15.01    6.87
   6   0   0   17.83    5.84
   5  -3  -7  147.02   13.41
   5   0  -4   50.83    8.32
   4  -4  -8   13.21    8.24
   4   1  -3   -0.09    4.47
   3  -1  -6  262.21   12.94
   3   0  -5   -0.34    4.69
   3   1  -3   71.17    6.02
   3   1   1  128.58    5.31
   7  -1  -3   44.11    9.54
   6   0  -3   -0.56    7.00
   5   1  -2  252.57   12.34
   5   1  -1   75.04    7.27
   5   0   2  225.96    8.70
   4  -1  -6  286.29   14.78
   4   0  -5   -0.43    5.91
   4   1   1   -2.40    3.00
   3  -2  -7  189.40   12.18
   2  -2  -7  211.67   11.27
   2  -1  -6  119.07    8.10
   2   0  -5   -1.29    3.56
   2   1  -3   83.40    5.35
   0  -5  -8    1.16    4.14
   8  -2   0    1.99    7.00
   7  -1   1   53.55    7.51
   6  -1  -5   28.28    8.57
   6   0   1   -1.42    4.36
   5  -1  -6  152.45   13.28
   5   1  -3   57.25    8.11
   5   1   0  118.27    7.78
   3  -3  -8   -0.72    7.22
   3   1  -4   87.98    7.23
   7  -1  -4  125.85   12.52
   7   0  -1    2.19    6.48
   6   0  -4   11.49    7.40
   5  -2  -7   17.84    8.01
   5   0  -5    0.36    6.50
   4  -3  -8    0.32    7.79
   4   1  -4  199.36   11.06
   2  -3  -8    1.66    6.11
   0  -2  -6   37.01    3.86
   8  -1  -1   33.87    8.57
   7   0  -3   -7.00    7.48
   7   0   0   26.53    7.13
   7  -2   3   14.83    5.68
   6   1  -2  415.38   16.91
   6   1  -1   67.09    8.27
   6  -1   3   50.72    5.79
   5   1   1   69.80    5.98
   4   0  -6  105.03   10.66
   3   0  -6  352.39   14.45
   2   1  -4    0.49    2.89
   1  -2  -7  345.63   11.78
   1  -1  -6   85.96    6.19
   0  -3  -7   -0.38    3.62
   8  -1   0  122.29   11.31
   7  -1   2  115.34    9.05
   6   0  -5   -0.24    7.03
   6   1  -3   56.13    8.87
   6   1   0  457.20   15.62
   6   0   2    9.82    4.90
   6  -2   4    6.04    3.82
   4  -1  -7    4.73    7.16
   4   1  -5    5.69    6.22
   4   2  -2  145.51    8.55
   4   2  -1   72.22    6.01
   4   0   3   -0.66    2.25
   3  -1  -7   23.28    7.10
   3   1  -5   53.17    6.63
   3   2  -2  421.92   11.93
   3   2  -1 1360.69   19.49
   1   0  -5    1.42    2.85
   7   0  -4   17.37    8.34
   7   0   1    2.18    5.87
   6   1  -4  270.99   15.96
   5  -1  -7   24.19    8.88
   5   0  -6   85.47   10.53
   5   1  -5   41.91    9.21
   5   2  -2  173.97   10.36
   5   2  -1   55.54    6.66
   4  -2  -8   16.66    8.48
   4   2  -3   65.41    6.89
   4   2   0   51.06    5.07
   4   1   2  824.49   13.30
   3  -2  -8   59.13    8.94
   3   2  -3  772.44   16.89
   2  -1  -7   -1.73    5.08
   2   0  -6  512.46   14.90
   8  -1   1   31.79    7.31
   7   1  -2  105.50   11.26
   7   1  -1   53.86    8.79
   6   1   1   68.99    6.99
   5   2  -3   48.32    7.25
   5   2   0   39.45    5.52
   5   0   3    0.49    3.35
   4   2  -4   27.78    6.43
   3   2   0  587.43   11.93
   2  -4  -9  113.69    9.94
   2   1  -5    5.92    3.99
   2   2  -2   49.12    4.46
   8   0  -1    3.31    6.99
   7   1  -3   39.92    8.77
   7   1   0  163.62   11.32
   6   2  -3   15.18    7.87
   6   2  -2   90.57    9.73
   6   2  -1   22.76    6.71
   5   2  -4   21.55    7.24
   5   1   2  230.93    8.75
   4   0  -7    4.86    7.30
   4   1  -6  280.99   15.02
   3   2  -4  234.36   10.31
   2  -2  -8   79.15    8.32
   2   2  -3  778.84   15.10
   2   2  -1 1046.57   14.46
   1   1  -4   40.58    4.05
   0  -4  -8    6.40    3.82
   8   0   0   17.56    7.70
   7   1  -4  135.24   12.85
   7   0   2    3.76    5.70
   7  -1   3   38.45    6.09
   5   0  -7   -3.80    7.53
   5   1  -6  134.67   12.66
   5  -1   4   91.92    4.72
   4  -1  -8   58.31   10.02
   4   2  -5   54.44    8.00
   4   2   1   75.29    5.46
   3   0  -7   -4.62    5.77
   3   1  -6  255.40   12.49
   7   1   1   55.66    7.82
   6   2  -4    1.43    6.79
   6   2   0   11.32    5.59
   5   2  -5   30.00    8.62
   5   2   1   54.51    5.90
   4   3  -2   79.27    7.07
   3  -1  -8   37.54    8.08
   3   2  -5  392.89   14.05
   2  -3  -9   27.28    7.21
   2   2  -4  271.86    9.97
   1  -1  -7    7.50    4.35
   1   0  -6  361.22   11.04
   8   1  -1   35.51    8.65
   8   0   1    3.93    6.02
   7   2  -3   21.27    8.58
   7   2  -2    1.43    6.33
   7   2  -1   29.53    7.93
   6   1   2  407.96   12.85
   6   0   3    0.54    4.10
   5   3  -3  309.19   14.16
   5   3  -2   98.09    8.44
   5   3  -1  409.15   14.40
   4   3  -3  587.00   16.93
   4   3  -1  809.90   17.58
   3   3  -2  596.75   14.53
   3   2   1 1388.99   16.24
   2   0  -7   -3.10    4.65
   2   1  -6  105.68    7.70
   0  -1  -6    3.45    3.00
   8   1   0  114.56   10.96
   7   2  -4    8.69    7.72
   7   2   0    8.22    6.72
   6   3  -3  412.17   18.16
   6   3  -2   -1.13    6.55
   6   2   1   19.57    5.80
   5   2  -6   75.35   10.66
   5   3  -4   19.80    7.21
   4   0  -8   33.05    8.83
   4   1  -7   11.35    7.58
   4   2  -6   68.03    9.47
   4   3  -4   -0.50    4.49
   3   3  -3  899.16   18.62
   3   3  -1 1599.59   21.59
   2  -1  -8    2.25    6.10
   1   1  -5   18.62    3.91
   0  -2  -7  389.04    9.89
   6   3  -4   -4.44    7.75
   6   3  -1  496.01   17.41
   6  -1   4  268.51    8.38
   5   3   0   42.09    5.67
   4   3   0   12.23    3.76
   3   0  -8  188.72   12.67
   3   1  -7   25.46    7.00
   3   2  -6  113.98    9.25
   3   3  -4   16.75    4.98
   2   2  -5  392.18   12.61
   8   1   1   34.81    7.79
   7   3  -3  138.20   12.80
   7   3  -2    1.67    7.35
   7   1   2  106.86    8.72
   6   3   0   -4.93    4.86
   5   3  -5  225.42   14.09
   4   3  -5  339.93   14.71
   2  -2  -9   91.18    9.19
   0  -3  -8   -0.27    3.58
   7   3  -1  168.95   12.33
   7   2   1   26.06    6.92
   7   0   3    1.09    4.84
   6   3  -5  262.95   16.14
   5   4  -3  210.06   12.51
   5   4  -2   10.37    5.92
   5   2   2  159.29    7.68
   4   2  -7   41.33    8.66
   3   3  -5  428.35   14.98
   3   3   0   81.71    5.25
   2   3  -3  153.65    7.44
   2   3  -2  195.05    7.55
   1   2  -3 1855.08   19.39
   1   2  -2    6.99    2.06
   8   2   0   -1.48    6.55
   6   4  -3   27.75    8.78
   6   4  -2    3.71    6.99
   5   4  -4   63.44    9.12
   5   4  -1  272.46   12.24
   5   3   1  409.24   12.58
   5   1   3   53.98    4.78
   4   1  -8   53.79    9.88
   4   3  -6   22.64    7.69
   4   4  -4   25.83    6.42
   4   4  -3  143.10    9.27
   4   4  -2    3.85    4.06
   4   2   2  151.14    6.19
   2   0  -8  338.61   14.09
   2   1  -7    0.66    4.82
   2   2  -6   51.54    6.43
   2   3  -4   16.66    4.19
   1   0  -7   -0.44    3.98
   1   1  -6   88.47    6.28
   1   2  -4  576.86   12.01
   7   3   0   13.99    6.52
   6   3  -6    0.66    7.40
   6   4  -4   18.36    7.67
   6   4  -1   36.89    7.40
   6   3   1  495.57   15.36
   6   2   2   85.23    7.14
   6   1   3   56.26    5.79
   5   4  -5  127.53   11.89
   4   4  -1  184.25    9.01
   4   3   1  816.67   15.21
   4   1   3    4.86    2.54
   3   1  -8   34.66    7.77
   3   2  -7  181.21   11.65
   3   4  -3  700.59   16.99
   2   3  -1  170.93    6.48
   7   4  -2    1.83    7.42
   5   4   0  119.87    8.43
   4   4  -5  110.58    9.81
   3   3  -6  100.45    8.97
   3   4  -4   59.39    6.74
   3   4  -2   98.90    6.69
   2  -1  -9   -0.22    6.06
   7   4  -1    4.49    6.93
   7   3   1  155.73   10.61
   7   2   2    0.84    5.61
   6   4   0   27.92    6.30
   5   3  -7  134.89   12.49
   4   2  -8   11.10    7.84
   4   3  -7  170.37   12.83
   4   4   0   50.17    5.23
   3   4  -1 1082.16   18.24
   2   3  -5  110.76    7.30
   1   2  -5  746.20   14.63
   0  -1  -7   -0.35    3.32
   7   1   3   37.79    6.04
   6   4  -6    1.29    7.45
   6   5  -4  169.80   13.54
   6   5  -3  180.02   13.25
   6   5  -2  229.66   13.81
   5   5  -4  199.66   13.19
   5   5  -3   65.69    8.06
   5   5  -2  169.62   10.94
   4   4  -6    1.63    6.84
   4   5  -3  260.92   12.41
   3   4  -5  387.21   14.55
   2   1  -8    7.68    6.21
   2   2  -7  197.24   10.68
   0   0  -6 1032.36   14.54
   7   4   0   10.59    6.43
   6   5  -1  223.66   12.67
   6   0   4    4.80    3.54
   5   5  -5   51.88    9.51
   5   5  -1   69.26    7.67
   4   5  -4  344.12   14.39
   4   5  -2  217.21   10.52
   3   2  -8   53.23    8.38
   3   3  -7  184.12   11.80
   3   3   1 1600.97   17.93
   2   3  -6   30.84    5.84
   1   1  -7    5.55    4.61
   0  -2  -8  157.01    6.86
   7   5  -4   45.20    9.47
   7   5  -2   85.47   10.10
   6   3   2    1.18    5.07
   5   4   1  268.86   10.66
   5   3   2  100.05    6.59
   4   3  -8   -2.37    7.51
   4   5  -5  145.37   11.01
   4   5  -1  380.71   12.82
   3   4  -6   27.70    6.70
   2   0  -9    0.91    6.13
   2   4  -4   31.77    4.78
   2   4  -3  962.22   17.45
   2   3   0  128.24    5.08
   1   2  -6   42.24    5.08
   7   5  -1   66.90    9.40
   6   4   1   28.86    6.01
   4   4  -7   57.60    9.27
   3   5  -4  674.78   17.99
   3   5  -3   91.71    7.35
   3   4   0  104.19    5.95
   2   4  -2  348.38    9.93
   1   3  -3  474.82   10.36
   7   4   1   -0.98    5.87
   7   3   2   -2.98    5.44
   6   6  -4   53.00    9.99
   6   6  -3   -0.05    6.47
   6   6  -2   19.56    7.89
   6   5   0  236.47   12.08
   6   2   3   16.93    4.66
   5   6  -4  121.53   11.29
   5   6  -3    2.06    5.33
   5   6  -2   40.47    7.39
   5   5   0  297.75   11.96
   5   2   3   45.51    4.68
   4   5  -6   68.10    9.21
   4   4   1  182.46    7.96
   4   3   2   67.85    4.78
   3   5  -5   68.63    7.79
   3   5  -2  410.45   12.52
   2   4  -5  489.99   14.33
   1   3  -4    4.93    2.96
   7   6  -2   28.97    8.87
   7   5   0   55.42    8.31
   5   6  -5   -0.22    6.97
   4   6  -4  145.56   10.80
   4   6  -3    1.25    5.29
   3   3  -8    1.40    6.40
   3   4  -7  182.08   11.90
   2   2  -8   84.25    8.32
   2   3  -7   46.00    6.54
   1   3  -5  159.30    7.57
   1   3  -2  449.56    9.18
   7   2   3   18.58    5.38
   6   6  -1    4.71    6.38
   5   6  -1   -0.26    4.91
   4   4  -8   14.01    7.61
   4   5  -7   70.73    9.70
   4   6  -5    3.17    6.56
   4   6  -2   70.95    7.01
   4   5   0  716.20   16.11
   3   5  -6   98.89    9.24
   3   5  -1  113.01    6.91
   2   1  -9    2.42    6.23
   2   4  -6   74.46    6.92
   2   4  -1 1380.09   17.75
   0   0  -7   -2.96    3.23
   1   2  -7  343.06   11.51
   0  -1  -8    1.28    3.62
   7   5   1   58.09    7.97
   6   7  -4  201.31   14.12
   6   7  -3   17.06    7.33
   6   7  -2  271.80   14.93
   6   6   0   75.47    8.31
   6   5   1  227.92   11.07
   6   4   2    1.26    4.52
   5   7  -4  203.53   13.20
   5   7  -3    1.64    6.51
   5   5   1   70.30    6.63
   4   6  -6   47.84    8.12
   4   6  -1    6.87    4.55
   4   2   3   70.24    4.07
   3   4  -8   22.35    7.63
   3   6  -4  543.52   16.65
   3   6  -3   45.11    6.06
   2   5  -4  200.34    9.24
   2   5  -3   72.74    5.98
   1   3  -6   33.02    4.88
   7   6   0    5.28    6.42
   7   4   2   -0.31    5.54
   6   1   4  257.56    7.71
   5   7  -5    2.07    6.32
   5   7  -2  155.82   10.55
   5   6   0  183.88   10.12
   5   4   2   11.99    4.08
   4   7  -4  221.12   12.66
   3   5  -7   36.49    7.69
   3   6  -5   28.27    6.62
   3   6  -2  962.95   19.34
   2   3  -8    0.17    5.89
   2   4  -7  257.98   12.09
   2   5  -5   50.78    6.00
   6   7  -1   29.10    7.54
   6   3   3  406.32   11.65
   4   7  -5   20.03    7.69
   4   7  -3   47.66    6.82
   3   6  -6  298.61   14.06
   3   5   0 1584.87   20.93
   3   4   1 1070.60   15.23
   2   2  -9   94.78    8.98
   2   5  -2    5.80    3.03
   1   4  -4   18.39    3.83
   7   3   3  132.47    8.26
   6   8  -4   14.74    8.33
   6   8  -3    4.43    7.78
   5   7  -1   -2.13    4.29
   4   7  -6   54.54    9.03
   4   7  -2   69.33    7.08
   4   6   0  182.68    8.97
   4   5   1  380.36   11.09
   2   5  -6   11.26    4.92
   1   2  -8  128.32    8.42
   1   4  -5  279.19    9.80
   1   4  -3  313.28    8.91
   6   8  -5   -1.01    7.02
   6   8  -2    5.50    7.40
   6   6   1    6.66    5.46
   5   8  -5   14.54    8.03
   5   8  -4   72.67    9.48
   5   8  -3   30.57    8.07
   5   3   3  310.01    8.95
   4   4   2    1.82    3.01
   3   5  -8  145.07   11.55
   3   6  -1   66.19    5.90
   3   3   2  606.14    9.76
   2   4   0   71.14    4.13
   1   3  -7   47.06    5.78
   7   7   0  141.40   11.12
   7   6   1    4.12    5.64
   7   5   2   76.82    8.24
   6   7   0  273.49   13.32
   6   5   2  213.27   10.14
   5   8  -2   14.67    6.67
   5   6   1    0.43    4.34
   4   7  -1   62.87    6.65
   3   6  -7   13.55    6.77
   3   7  -5    4.01    5.71
   3   7  -4  383.72   14.28
   3   7  -3   10.42    5.03
   2   3  -9   31.92    7.06
   2   4  -8   14.34    5.89
   2   5  -7   26.43    6.42
   2   6  -4  334.62   11.85
   2   5  -1  133.58    6.40
   1   4  -6   63.05    5.95
   0   1  -7   -1.61    3.08
   7   8  -1    5.66    7.20
   6   8  -1    3.16    6.60
   5   7   0  273.20   12.13
   4   8  -5   17.59    7.55
   4   8  -4   68.54    8.27
   4   8  -3   20.04    5.80
   3   7  -6   73.22    8.89
   2   6  -5   80.97    7.10
   2   6  -3  171.97    8.22
   1   4  -2  154.48    5.87
   6   9  -4   37.17    8.77
   5   9  -4   44.72    9.01
   5   8  -1   29.10    6.71
   5   5   2  162.24    7.95
   4   8  -6   26.86    8.32
   4   8  -2   30.69    6.33
   3   7  -2  161.97    8.79
   2   6  -6  335.00   13.20
   7   4   3    0.30    4.81
   6   9  -2   60.51    9.44
   6   4   3   20.75    4.93
   5   9  -5   79.49   10.17
   5   9  -3  101.27   10.16
   3   6  -8  138.06   11.35
   3   7  -7    3.50    6.36
   3   6   0 1190.21   18.87
   2   6  -2 1007.24   17.67
   1   3  -8   -0.64    4.66
   1   4  -7  208.41    9.69
   1   5  -4  295.61    9.61
   7   8   0   -0.11    6.18
   7   7   1    2.14    5.59
   6   8   0   10.45    6.28
   6   7   1   27.22    6.08
   5   9  -6   13.90    7.35
   5   9  -2   17.56    7.12
   4   9  -4  177.34   12.30
   4   7   0  272.50   11.03
   4   6   1    3.48    3.47
   4   3   3  584.20    9.84
   3   8  -5  124.14    9.97
   3   8  -4  234.01   12.11
   3   7  -1   17.34    4.38
   3   5   1  111.44    5.70
   2   4  -9  110.23    9.62
   2   5  -8   61.77    7.66
   2   6  -7   36.09    7.05
   1   5  -5   24.03    4.34
   7   6   2   34.50    7.01
   6   9  -1  257.50   14.30
   6   6   2   12.07    5.29
   5   8   0  103.91    8.54
   5   7   1   -1.06    4.36
   4   9  -5  122.05   10.84
   4   9  -3  185.31   11.66
   4   8  -1   16.90    4.82
   3   8  -6  144.68   11.12
   3   8  -3  207.01   10.56
   2   7  -5    5.97    4.87
   2   7  -4   38.78    5.62
   1   5  -6   31.13    5.21
   1   5  -3   44.73    4.13
   0   1  -8   -0.91    3.61
   0   3  -4    1.98    2.28
   5  10  -3   76.17   10.01
   5   9  -1  102.43    9.48
   5   4   3  202.22    7.63
   4   9  -6   19.53    7.29
   4   9  -2   93.61    8.64
   4   5   2  216.89    7.81
   3   7  -8  123.44   11.10
   3   8  -2  367.37   13.01
   2   7  -6    3.25    4.94
   2   7  -3   22.39    4.66
   2   6  -1  332.49    9.85
   2   5   0  522.69   10.72
   1   4  -1  200.16    5.99
   6  10  -2   -0.96    6.29
   5   6   2   44.12    5.52
   3   8  -7   74.01    9.37
   2   6  -8  118.89    9.77
   1   4  -8   -1.33    4.76
   1   5  -2  259.52    7.95
   0   3  -3    2.13    2.09
   7   8   1    3.72    5.82
   7   5   3   56.63    6.58
   6   9   0   66.84    8.57
   5  10  -2   -2.01    6.42
   4  10  -5   68.63    9.91
   4  10  -4    9.05    7.33
   4   8   0  103.32    7.63
   3   9  -5   82.19    9.21
   3   9  -4   92.82    8.97
   3   4   2   98.66    4.54
   2   7  -7    1.49    5.63
   2   7  -2   76.30    6.16
   1   5  -7    8.47    4.89
   7   7   2  169.32   10.51
   6  11  -3  122.88   11.79
   6   5   3  178.80    8.54
   4  10  -3   92.61    9.69
   4   9  -1  220.49   11.27
   4   7   1   60.93    5.67
   3   9  -3  148.97    9.57
   3   8  -1  278.86   10.91
   3   7   0  783.04   16.01
   2   4   1 1376.34   14.49
   1   6  -5  119.28    7.20
   1   6  -4  554.49   13.35
   6  11  -2   72.15   10.32
   6   7   2  264.62   11.53
   5  11  -3  191.77   13.63
   5  10  -1   81.62    9.23
   5   9   0   56.75    7.22
   5   8   1   37.19    5.81
   4  10  -2   -0.36    5.46
   3   9  -7   68.60    9.34
   3   6   1   72.17    5.16
   2   8  -6  282.20   12.80
   2   8  -5  257.09   11.57
   2   8  -4  301.94   11.89
   1   6  -6  624.63   15.56
   1   6  -3  327.07    9.92
   0   2  -8  153.86    6.93
   3   9  -2    2.07    4.13
   2   8  -3  461.72   13.72
   1   5  -8   38.68    6.44
   0   4  -5 1010.14   15.12
   7   6   3   -0.74    4.94
   5  11  -2   43.96    8.00
   5   7   2  168.68    8.67
   5   5   3   58.80    5.16
   4  11  -5  100.91   10.49
   4  11  -4   24.73    7.22
   4   6   2   74.69    5.36
   4   4   3  136.97    5.50
   3  10  -5  239.53   13.16
   3  10  -4    4.47    5.85
   2   8  -7  106.63    9.21
   2   7  -1   25.86    3.95
   2   6   0  547.97   11.56
   1   6  -7   57.77    6.64
   0   4  -4   19.92    2.94
   7   8   2   12.62    6.30
   5  12  -4   44.97    8.89
   4  11  -3  168.94   11.69
   4  10  -1  104.73    8.95
   4   9   0  307.45   12.26
   3  10  -3  383.98   14.68
   2   9  -5    9.65    5.57
   2   8  -2  822.40   17.23
   1   7  -5   -1.20    3.48
   1   7  -4  138.11    7.48
   1   6  -2 2446.86   24.51
   1   5  -1   65.26    4.04
   6  12  -2   25.84    7.72
   6   8   2   -0.71    5.59
   6   6   3    3.23    4.39
   5  12  -3   17.20    7.26
   5  11  -1  233.32   13.33
   4  11  -2  148.99   11.04
   4   8   1   14.64    4.28
   3  10  -7  121.68   11.16
   3   9  -1  162.20    8.79
   3   8   0  452.37   12.82
   2   8  -8   78.69    8.87
   2   9  -6    9.47    6.03
   2   9  -4  145.65    8.98
   1   7  -6   14.76    4.69
   0   4  -3 2501.86   20.57
   5  12  -2  142.38   12.04
   4  12  -4   35.28    8.63
   3  11  -5  178.03   12.39
   3  10  -2   11.51    4.85
   3   5   2  398.35    8.88
   2   9  -7   18.89    6.94
   2   9  -3   12.50    4.41
   1   5  -9    5.67    5.17
   1   6  -8  143.65    9.23
   1   7  -3    5.07    3.41
   0   3  -8   -1.56    3.56
   4  12  -3   28.81    8.08
   3  11  -4   11.51    6.23
   3   7   1   12.80    3.40
   2   5   1  128.67    5.15
   1   7  -7   -1.68    4.29
   0   5  -5    0.66    2.94
   7   7   3    2.16    5.01
   5   8   2   12.63    4.79
   5   6   3   -1.09    3.62
   4  11  -1  182.76   11.20
   4  10   0   18.64    5.38
   4   7   2   64.71    5.36
   3  11  -3  380.03   15.00
   2  10  -4   10.12    5.29
   2   9  -2   44.16    5.58
   1   8  -5  174.82    8.94
   0   5  -6    2.51    3.49
   0   5  -4   -1.03    2.71
   6   9   2   64.97    7.65
   6   7   3   18.30    5.04
   5  12  -1   21.52    6.68
   3  10  -1  547.36   16.00
   3   9   0  147.08    8.15
   2   9  -8   34.98    7.24
   2   7   0   16.40    3.26
   1   7  -8   23.85    6.16
   1   8  -6  333.72   12.42
   1   7  -2   55.72    5.05
   5  13  -2  116.01   10.79
   4  13  -4  127.17   11.30
   4   5   3  241.23    7.12
   3  12  -5   60.35    8.53
   3  11  -2  145.31    9.61
   2  10  -3  346.16   12.92
   1   6  -9   20.43    5.69
   1   8  -7   74.69    7.65
   1   8  -3  260.30    9.73
   1   6  -1  486.25   10.42
   0   4  -2 1497.50   14.76
   4  13  -3    1.32    6.04
   3   8   1  289.27    9.95
   0   5  -3   -0.61    2.31
   5   9   2   17.83    5.29
   4  12  -1   35.05    6.86
   3   6   2  967.93   14.37
   2  10  -2    1.46    4.26
   2   9  -1    6.94    3.51
   2   6   1  328.82    8.46
   1   9  -6    1.48    4.54
   1   9  -5   24.19    5.31
   0   6  -6  728.98   14.84
   0   6  -5  164.59    7.18
   6  10   2   -0.65    5.83
   5   7   3    0.26    3.85
   4  14  -4   23.39    7.60
   4   8   2   28.44    4.31
   3  12  -2  201.15   11.78
   3  11  -1  465.28   15.14
   3  10   0   13.90    4.57
   2  11  -3   55.21    7.13
   2   8   0  561.19   13.01
   1   8  -8   72.47    7.60
   1   8  -2 1104.10   18.34
   1   5   0 1270.11   14.37
   0   6  -4  639.07   12.70
   6   8   3    1.01    4.56
   5   4   4   59.04    3.82
   4  14  -3    5.80    6.44
   1   9  -7   21.13    5.89
   1   9  -3   60.41    5.88
   1   7  -1   13.59    3.32
   0   6  -7   81.46    6.13
   4   6   3    3.59    2.84
   1  10  -5  375.01   13.53
   0   7  -5   -3.13    3.45
   0   6  -3  442.75   10.15
   4  14  -2   68.90    8.92
   3   7   2  163.32    6.81
   2  11  -2   58.24    6.38
   2  10  -1  428.18   13.04
   1   9  -8    8.06    5.52
   0   7  -6    4.67    4.25
   0   7  -4   -1.45    3.36
   0   5  -2   -0.81    2.19
   6  11   2   68.81    7.81
   6   9   3  200.69    9.90
   5   8   3   26.83    5.01
   4   9   2   99.03    6.65
   3  13  -2  206.07   12.03
   2  12  -3   82.64    7.78
   2   9   0  353.58   11.00
   2   7   1   24.86    3.49
   1  10  -7  189.28   10.82
   1   9  -2   -2.36    3.33
   1   6   0 1060.19   14.29
   0   7  -7    0.66    4.16
   3  14  -3   43.00    7.73
   1  10  -3  526.14   14.53
   1   8  -1  366.82   10.42
   4  15  -2   28.72    7.43
   1  10  -8   16.82    5.75
   1  11  -5   53.26    6.44
   0   8  -6  593.62   14.59
   0   8  -5  596.01   14.14
   0   7  -3   -5.51    2.61
   3  14  -2  201.04   12.24
   2  13  -3   -0.07    4.93
   1  11  -7   23.65    6.45
   0   8  -4  609.07   13.82
   0   6  -2 3168.56   25.14
   3  15  -3   47.30    8.15
   2  10   0   14.98    3.90
   1  10  -2    5.53    3.40
  -3   6  -3   50.61    5.13
  -3   0  -1    1.01    2.25
  -3  -2   0  613.21   10.66
  -4   0  -1    1.49    3.11
  -4  -2   0   47.95    4.33
  -5   7  -3   -1.12    5.41
  -5   3  -2  109.99    8.20
  -5  -3   1  389.76   11.02
  -6   9  -3  211.03   13.21
  -7   3  -1  145.51   11.27
  -7  -1   1   45.52    6.99
  -3  14  -4  132.99    9.02
  -3  15  -4   10.47    5.62
  -4   6  -3    4.72    3.95
  -6   8  -3    4.16    6.73
  -6   4  -2   -0.98    5.40
  -6   1  -1   71.26    7.77
  -6  -1   0  421.98   14.12
  -7   6  -2   27.88    7.54
  -8   2   0   -0.30    6.28
  -2   6  -3  182.35    6.87
  -2   0  -1    0.01    1.64
  -3  12  -4  124.82    8.26
  -3  13  -4   53.94    6.92
  -3  16  -4    1.56    4.90
  -3   2  -2  434.90   10.92
  -4  12  -4   21.81    6.55
  -4  13  -4  105.96    8.94
  -4  14  -4   22.85    6.23
  -4   2  -2  159.37    7.97
  -5   6  -3   -1.81    5.23
  -5   0  -1   -1.28    3.33
  -5  -2   0   34.52    4.66
  -5  -6   4  104.44    5.27
  -7   5  -2   85.42   10.12
  -7   2  -1   27.21    7.58
  -7   0   0   22.71    6.88
  -7  -3   2    1.90    5.07
  -8   0   1   -0.74    5.78
  -2  16  -4    3.53    4.02
  -3  11  -4   11.06    5.05
  -3   5  -3   87.84    6.12
  -4  11  -4   24.73    6.07
  -4   5  -3  253.49   10.64
  -4  -5   2  202.09    6.36
  -5  12  -4   34.62    7.96
  -5   2  -2  170.51    9.55
  -6   7  -3   19.49    6.67
  -6   3  -2    3.25    6.10
  -6  -3   1  457.73   13.74
  -6  -4   2    0.81    3.83
  -6  -5   3  165.72    8.14
  -7  -2   1   30.45    6.39
  -7  -4   3   -2.42    4.65
  -8   1   0  124.51   10.91
  -2   2  -2   56.33    3.93
  -3  10  -4    4.49    4.56
  -4  10  -4    5.20    5.33
  -4  -1  -1   -0.29    3.04
  -5  11  -4   12.63    6.58
  -5   5  -3   56.50    6.92
  -6   6  -3   -1.50    6.66
  -6   0  -1   -2.92    4.94
  -7   4  -2    4.82    6.76
  -7  -5   4   33.20    5.57
  -8  -1   1   26.27    6.86
  -2   5  -3   67.53    4.66
  -3  -1  -1  124.82    5.82
  -3  -4   1 1025.17   12.34
  -4   9  -4  166.73   10.03
  -4   4  -3  140.50    8.60
  -4   1  -2  812.14   16.96
  -4  -6   3    4.53    2.45
  -5  10  -4    7.69    6.38
  -5  -1  -1   63.43    6.21
  -5  -4   1  257.78    9.25
  -5  -5   2  151.61    6.87
  -6   2  -2   88.07    9.09
  -6  -2   0   11.20    5.03
  -7   7  -3    2.02    6.93
  -7   1  -1   54.39    7.79
  -7  -1   0  149.60   10.40
  -3   9  -4   89.13    6.80
  -3   4  -3  679.59   14.78
  -3   1  -2  971.64   16.17
  -4   8  -4   68.55    7.36
  -4  -3   0   10.16    3.01
  -5   9  -4   37.60    7.66
  -5   4  -3  210.19   11.40
  -5   1  -2  236.11   11.01
  -6   5  -3  190.80   12.06
  -6  -6   4   43.88    4.72
  -7   3  -2    1.39    5.92
  -7  -4   2    1.16    5.12
  -8   0   0   13.43    6.99
  -2  10  -4    4.69    3.61
  -3  -3   0   86.14    4.63
  -5   8  -4   54.19    8.31
  -5  -3   0   39.31    4.84
  -5  -6   3    0.44    3.07
  -6   9  -4   44.39    8.58
  -6  10  -4    2.99    6.05
  -6   4  -3   18.85    7.66
  -6  -1  -1   57.87    7.22
  -6  -4   1   25.71    5.37
  -7   6  -3    1.27    6.33
  -7   0  -1    0.70    6.26
  -7  -3   1  161.35   10.09
  -7  -5   3   50.15    6.55
  -2   9  -4  159.29    7.26
  -4   7  -4  189.89   10.46
  -4   3  -3  573.54   15.41
  -5   7  -4  189.12   11.96
  -5   3  -3  319.24   13.54
  -6   8  -4   13.96    7.62
  -6   1  -2  416.80   15.54
  -6  -5   2  202.63    9.12
  -7   5  -3   63.53    9.82
  -7   2  -2   -1.30    5.79
  -7  -2   0    3.14    5.70
  -8   1  -1   31.40    8.25
  -8  -1   0  113.83   10.47
  -1  13  -4    9.92    3.45
  -1  14  -4  339.56    8.36
  -2   4  -3  969.95   14.98
  -3   7  -4  379.28   12.24
  -3   3  -3  922.06   17.09
  -4   0  -2  167.17    8.42
  -4  -2  -1   80.76    5.78
  -5   0  -2  231.89   10.93
  -5  -2  -1   70.49    6.37
  -6   3  -3  404.86   16.75
  -6  -3   0    1.98    4.50
  -6  -6   3    0.64    3.96
  -1  12  -4  141.35    5.85
  -2   8  -4  312.42    9.66
  -2   1  -2  391.67    8.87
  -2  -1  -1  397.09    7.92
  -4   6  -4  130.31    9.06
  -5   6  -4  111.35   10.04
  -6   7  -4  186.37   12.69
  -6   0  -2   10.39    6.55
  -7   4  -3   -5.19    6.22
  -7   1  -2  116.41   10.63
  -7  -1  -1   50.00    7.96
  -7  -4   1    3.02    5.50
  -8   0  -1   -1.18    6.60
  -1  11  -4   -1.03    3.00
  -3   6  -4  553.84   14.48
  -3   0  -2 1407.24   19.35
  -3  -2  -1 1444.51   18.03
  -4  13  -5   -1.10    5.87
  -4   2  -3   74.29    6.55
  -4  -5   1  375.91    9.25
  -5   2  -3   48.34    6.58
  -5  -5   1   63.78    5.42
  -6   6  -4   42.35    8.97
  -6  -2  -1   17.94    5.15
  -7   3  -3  136.03   11.95
  -7  -3   0    6.93    5.67
  -7  -5   2   76.94    7.54
  -8  -2   0   -0.66    6.04
  -4  11  -5   84.14    8.80
  -4  12  -5   18.30    6.49
  -4  -4   0   47.20    4.43
  -4  -6   2   64.78    4.10
  -5  11  -5  118.77   10.66
  -5   5  -4  204.72   11.89
  -5  -1  -2  243.26   11.16
  -5  -4   0  118.00    7.07
  -5  -6   2   39.35    4.26
  -6   5  -4  164.03   12.43
  -6   2  -3   13.72    6.62
  -6  -5   1  227.53   10.14
  -7   0  -2    0.47    6.49
  -1  10  -4   84.55    4.83
  -1   5  -3   41.90    3.21
  -2   7  -4   33.38    4.45
  -2   3  -3  162.17    6.64
  -3  13  -5    9.75    5.72
  -3  14  -5   24.88    6.11
  -3   2  -3  824.51   16.13
  -4  10  -5   49.82    7.59
  -4  -1  -2  831.10   17.23
  -5  10  -5   44.89    8.29
  -5   1  -3   53.44    7.24
  -5  -3  -1  383.78   12.63
  -6  -1  -2  415.55   15.75
  -6  -4   0   24.59    5.36
  -6  -6   2   15.03    4.62
  -7   2  -3   23.53    8.12
  -7  -2  -1   27.21    7.06
  -7  -6   3    6.00    4.65
  -8  -1  -1   36.53    8.00
  -3  11  -5  165.04    9.73
  -3  12  -5   42.94    6.79
  -3   5  -4  658.29   15.65
  -4   9  -5   90.95    8.81
  -4   4  -4   28.96    6.07
  -4   1  -3    4.96    3.66
  -4  -3  -1  803.06   15.71
  -5   9  -5   61.05    8.85
  -5   4  -4   63.67    7.87
  -6   4  -4   11.88    7.68
  -6   1  -3   60.23    8.74
  -6  -3  -1  498.99   15.90
  -7   5  -4   41.47    9.36
  -7  -5   1   52.06    7.11
  -3  10  -5  226.54   10.74
  -3  -4   0   98.19    4.91
  -3  -5   1  103.07    4.31
  -5   8  -5   16.29    7.11
  -5  -7   3    1.41    3.02
  -6   8  -5   -4.39    6.69
  -7   1  -3   42.23    8.69
  -7  -1  -2  108.33   10.33
  -7  -4   0    5.94    5.49
  -7  -6   2   24.06    6.20
  -1   9  -4   22.66    3.16
  -2   6  -4  353.51   10.10
  -2   0  -2 2618.72   22.49
  -3   4  -4   51.98    5.68
  -3   1  -3   77.79    5.97
  -3  -1  -2  956.46   16.13
  -4   8  -5   10.83    5.81
  -5   7  -5   -3.76    6.15
  -5   3  -4   18.12    5.79
  -5   0  -3   -3.27    5.02
  -5  -2  -2  162.61    9.40
  -6   3  -4    0.41    6.87
  -6  -2  -2   90.69    8.99
  -6  -7   3   17.42    4.20
  -7   4  -4    5.27    6.84
  -7  -3  -1  152.01   10.79
  -2  14  -5    7.78    3.97
  -3   9  -5   75.40    7.13
  -3  -3  -1 1614.41   19.23
  -4   7  -5   20.45    6.11
  -4   3  -4    1.66    4.10
  -4   0  -3    0.32    3.92
  -4  -2  -2  144.29    7.91
  -4  -7   3   47.16    3.35
  -5  -5   0  294.81   10.39
  -5  -6   1    1.04    3.39
  -6   7  -5   13.23    6.78
  -6   0  -3   -1.96    5.57
  -6  -5   0  231.10   10.57
  -6  -6   1    2.73    4.47
  -7   3  -4    5.79    7.81
  -1   4  -3  330.37    7.45
  -2   5  -4  200.57    8.00
  -2   2  -3  801.21   13.75
  -2  -2  -1 1056.57   12.94
  -3   8  -5  119.51    8.33
  -4  -5   0  708.57   13.77
  -5   6  -5   -2.53    5.40
  -5   2  -4   13.65    6.24
  -5  -4  -1  260.00   10.60
  -6   6  -5    2.12    7.22
  -6   2  -4   -0.22    6.92
  -6  -4  -1   26.31    6.08
  -7   0  -3    0.62    6.14
  -7  -2  -2   -2.65    5.49
  -7  -5   0   46.56    7.41
  -7  -7   3    2.23    4.41
  -3   3  -4   15.09    4.29
  -4   6  -5    6.08    5.43
  -4   2  -4   31.11    5.77
  -4  -4  -1  180.12    7.97
  -4  -6   1    3.90    2.63
  -5   5  -5   57.92    8.85
  -5  -1  -3   55.93    7.33
  -5  -7   2  150.99    6.78
  -6   5  -5  131.58   12.17
  -6  -1  -3   56.83    8.73
  -6  -7   2  239.10    9.66
  -7   2  -4    4.67    7.68
  -7  -4  -1   -0.48    5.80
  -7  -6   1    5.13    5.56
  -3   7  -5    1.34    4.25
  -3   0  -3   -4.10    3.25
  -4   5  -5  148.81    9.94
  -5   1  -4  102.28    9.36
  -5  -3  -2   97.75    7.60
  -6   1  -4  285.19   15.28
  -6  -3  -2    1.58    4.94
  -7  -1  -3   37.32    8.63
  -3  -2  -2  441.70   11.23
  -4  -1  -3    3.27    3.64
  -4  -3  -2   71.32    6.18
  -5   4  -5  118.60   10.82
  -6   4  -5   16.11    7.56
  -7   1  -4   99.69   11.42
  -7  -3  -2   -2.71    5.42
  -2   9  -5    8.64    4.12
  -2   4  -4   23.34    3.74
  -2   1  -3   81.19    5.12
  -2  -1  -2  387.54    9.07
  -3   6  -5   28.90    5.29
  -3   2  -4  243.53    9.98
  -4  11  -6   54.60    7.99
  -4   4  -5   90.92    8.54
  -4   1  -4  196.79   10.18
  -4  -7   2   62.14    3.95
  -5   9  -6    4.60    6.84
  -5  -2  -3   57.41    7.31
  -5  -5  -1   60.53    6.16
  -5  -6   0  174.20    8.48
  -6   3  -5  251.39   15.27
  -6  -2  -3   16.58    7.20
  -6  -5  -1  213.32   11.06
  -6  -6   0   70.65    6.76
  -1   3  -3  487.59    9.09
  -2   8  -5  262.27    9.53
  -3  -5   0 1555.21   17.20
  -4   9  -6   24.28    6.97
  -4  10  -6   -2.95    5.44
  -5   8  -6    4.70    7.15
  -5   3  -5  202.54   12.92
  -5   0  -4   40.48    7.32
  -6   0  -4    7.75    6.74
  -6  -4  -2    1.15    5.94
  -6  -7   1   23.33    5.13
  -7   0  -4   17.11    8.63
  -7  -2  -3   17.93    7.00
  -7  -5  -1   61.77    7.96
  -7  -6   0    7.73    5.57
  -3   5  -5   63.75    6.47
  -3  -1  -3   80.97    6.13
  -3  -4  -1 1076.59   15.94
  -4   8  -6   20.10    6.80
  -4  -2  -3   72.98    6.76
  -5   7  -6   83.48   10.00
  -5  -4  -2    6.12    4.21
  -5  -7   1    1.05    3.42
  -6   2  -5    9.83    7.94
  -6  -8   3    4.07    3.74
  -7  -4  -2    1.50    5.53
  -7  -7   1    0.52    4.81
  -2   7  -5    1.56    3.62
  -2   3  -4   17.30    3.54
  -3  11  -6   57.42    7.35
  -3  12  -6   79.17    7.78
  -3   1  -4   98.00    7.03
  -4   3  -5  341.11   13.82
  -4   0  -4   51.95    6.32
  -4  -5  -1  383.73   11.26
  -4  -6   0  189.27    7.49
  -5   6  -6   10.10    7.36
  -5   2  -5   32.47    8.01
  -5  -8   3   27.07    3.63
  -6  -1  -4  289.81   15.31
  -6  -3  -3  390.21   16.36
  -7  -1  -4  130.48   12.29
  -7  -3  -3  127.43   11.46
  -2  -3  -1  173.41    5.68
  -3  10  -6    0.09    5.36
  -3  -3  -2  619.75   13.33
  -3  -6   1   67.07    3.71
  -4  -4  -2    1.25    3.59
  -5  -1  -4  109.13    9.13
  -5  -3  -3  301.09   12.95
  -6   1  -5   39.45    9.17
  -6  -6  -1    3.33    4.98
  -6  -7   0  254.63   11.26
  -6  -8   2    2.30    4.09
  -7  -6  -1    1.62    5.50
  -7  -8   2    8.27    5.13
  -2   6  -5   77.89    6.07
  -2   0  -3   -0.49    2.75
  -3   9  -6   -0.73    5.29
  -4   6  -6   36.02    7.34
  -4   2  -5   53.06    7.37
  -4  -7   1   52.89    4.27
  -5   5  -6   66.40    8.89
  -5   1  -5   38.00    8.07
  -5  -6  -1   -3.61    3.43
  -5  -8   2   15.72    3.84
  -6   4  -6    0.19    7.64
  -6  -2  -4   11.48    7.46
  -6  -5  -2  213.01   11.61
  -7  -7   0  123.60    9.21
  -2  -2  -2   49.81    4.04
  -3   8  -6  132.17    9.18
  -3   3  -5  417.84   13.72
  -4  -1  -4  191.02   10.18
  -4  -3  -3  575.75   15.83
  -5   4  -6    0.77    6.99
  -5  -5  -2  159.70    9.44
  -5  -7   0  275.25   10.06
  -6   0  -5   -4.82    6.98
  -6  -4  -3   24.86    7.73
  -6  -8   1    0.67    4.79
  -7  -2  -4   -0.93    6.44
  -7  -4  -3    1.00    7.10
  -1  11  -5   49.76    4.34
  -1  12  -5   98.59    5.01
  -1   5  -4  304.19    8.02
  -2   2  -4  268.15    9.03
  -3   7  -6   54.37    7.07
  -3   0  -4  738.14   16.77
  -3  -2  -3  806.65   16.42
  -4   5  -6   78.33    8.64
  -4   1  -5    9.14    5.76
  -5   0  -5   -0.20    6.54
  -5  -2  -4   15.83    5.72
  -5  -4  -3  196.01   11.21
  -6   3  -6   -4.28    6.46
  -7  -8   1    5.32    5.34
  -1  10  -5  382.66    9.18
  -2   5  -5   46.07    5.09
  -3  -5  -1  107.06    5.70
  -4   4  -6    2.83    6.07
  -4  -6  -1    5.31    3.46
  -5   3  -6   26.20    7.36
  -5  -8   1   32.92    4.74
  -6   2  -6   32.33    9.07
  -6  -3  -4    2.81    7.18
  -6  -6  -2   11.02    6.06
  -6  -7  -1   20.27    6.00
  -7  -3  -4    1.38    7.36
  -7  -7  -1   -1.15    5.59
  -2  12  -6   85.22    6.37
  -3   6  -6  268.58   11.82
  -3   2  -5  384.80   13.33
  -3  -4  -2   97.07    6.13
  -4  -2  -4   27.35    5.97
  -4  -5  -2  207.65    9.21
  -5  -3  -4   15.11    6.37
  -6  -1  -5   42.24    8.48
  -6  -5  -3  190.82   12.35
  -7  -5  -3   53.74    9.14
  -7  -8   0   -0.23    5.68
  -1   9  -5   27.48    3.97
  -1   4  -4   15.99    3.06
  -2   4  -5  500.28   13.07
  -2   1  -4    0.60    3.22
  -2  -1  -3   91.40    5.38
  -3   5  -6   90.85    8.24
  -3  -1  -4   96.23    7.18
  -3  -6   0 1123.32   14.81
  -4   9  -7   73.33    8.99
  -4   3  -6   23.95    7.10
  -4   0  -5    0.31    4.52
  -4  -4  -3  141.58    8.81
  -4  -7   0  266.22    8.69
  -5   2  -6   50.38    8.51
  -5  -1  -5   47.42    7.94
  -5  -6  -2   40.43    6.12
  -5  -7  -1   -0.65    3.86
  -6   1  -6  179.14   14.23
  -6  -8   0    8.94    5.03
  -2   9  -6    5.89    4.80
  -3   1  -5   48.39    6.30
  -3  -3  -3  930.87   17.82
  -4   8  -7   14.40    6.58
  -4  -8   2   25.86    3.20
  -5   1  -6  141.51   12.01
  -5  -5  -3   61.75    7.52
  -6  -2  -5   13.34    8.07
  -6  -4  -4   17.74    7.90
  -6  -9   2   53.13    5.47
  -7  -4  -4    4.44    6.54
  -1   1  -3   52.84    3.72
  -2   8  -6  279.31   10.63
  -2  -3  -2  192.64    6.92
  -2  -4  -1 1417.09   15.72
  -3   4  -6   30.15    6.02
  -4   7  -7    9.32    6.54
  -4   2  -6   73.53    9.06
  -4  -1  -5    7.11    5.59
  -4  -3  -4   -0.17    4.83
  -5   5  -7   38.72    8.59
  -5  -2  -5   24.85    7.99
  -5  -8   0   87.61    6.40
  -6   0  -6   10.47    8.80
  -6  -7  -2  230.48   12.30
  -7  -6  -3    1.24    6.82
  -7  -9   1   78.54    7.60
  -2   3  -5   98.82    6.70
  -3  11  -7   93.77    8.45
  -4   6  -7   -2.63    5.96
  -4  -6  -2   69.12    6.14
  -5   4  -7   49.81    9.38
  -5  -4  -4   65.09    8.03
  -6  -3  -5  262.46   15.61
  -6  -6  -3    1.93    5.57
  -6  -8  -1    3.55    5.12
  -6  -9   1  241.32   10.08
  -7  -5  -4   44.00    8.92
  -1   3  -4    6.44    2.83
  -2   7  -6   -0.98    4.36
  -2   0  -4 1837.20   23.50
  -3   9  -7   54.88    7.58
  -3  10  -7  127.43    9.51
  -3   3  -6  116.83    8.81
  -3   0  -5   -1.55    4.53
  -3  -2  -4  239.87   10.15
  -3  -5  -2  407.21   11.32
  -3  -7   1   10.49    2.45
  -4   5  -7   62.60    8.75
  -4   1  -6  276.77   14.12
  -4  -5  -3  255.10   11.21
  -4  -7  -1   64.76    5.52
  -4  -8   1   14.63    3.20
  -5   3  -7  122.77   11.78
  -5   0  -6   95.24   10.26
  -5  -6  -3    1.82    5.14
  -5  -7  -2  157.46    9.51
  -5  -9   2   16.09    3.77
  -6  -1  -6  160.27   13.67
  -6  -5  -4  157.61   12.27
  -1  -1  -2  721.75   10.35
  -2   6  -6  361.87   12.08
  -2  -2  -3  787.48   14.53
  -3   8  -7   64.56    8.08
  -3  -6  -1   66.18    4.78
  -4  -2  -5   52.72    7.77
  -5  -3  -5  215.15   13.44
  -5  -8  -1   30.22    5.29
  -5  -9   1   99.42    6.37
  -6  -9   0   71.60    7.35
  -7  -7  -3   -1.55    6.31
  -2   2  -5  388.42   11.78
  -3   7  -7    6.45    5.95
  -3   2  -6  117.87    9.03
  -4   4  -7   57.17    8.65
  -4   0  -6   90.98    9.93
  -4  -4  -4   32.34    5.90
  -4  -8   0   87.93    5.64
  -5   2  -7   12.23    8.02
  -5  -1  -6  128.99   11.30
  -5  -5  -4  202.79   12.08
  -6  -2  -6   26.88    9.40
  -6  -4  -5   16.00    8.22
  -6  -7  -3   24.22    7.27
  -6  -8  -2    2.17    5.66
  -2   5  -6    6.38    4.46
  -3   6  -7   15.14    6.12
  -3  -1  -5   37.21    5.99
  -3  -3  -4   15.25    4.74
  -4   3  -7  161.39   11.92
  -6  -6  -4   52.12    9.08
  -6  -9  -1  237.35   11.66
  -1   2  -4  581.58   11.51
  -1   0  -3   -0.81    1.90
  -2   1  -5    8.78    3.86
  -2  -1  -4    1.35    3.08
  -2  -4  -2  359.74    9.38
  -3  -7   0  750.65   12.37
  -4  -3  -5  324.12   14.29
  -4  -6  -3    3.48    4.55
  -4  -7  -2   68.75    6.18
  -5   1  -7   19.66    7.39
  -5  -2  -6   63.30    9.15
  -5  -4  -5  122.06   10.66
  -5  -7  -3    1.39    5.49
  -5  -8  -2   16.15    5.57
  -5  -9   0   50.02    5.65
  -6  -3  -6    3.57    7.89
  -1   5  -5   23.76    3.66
  -2   4  -6   77.89    6.53
  -2  -3  -3  157.27    7.24
  -2  -5  -1  134.64    5.50
  -3   5  -7   31.05    6.80
  -3   1  -6  268.47   12.20
  -3  -6  -2  939.80   17.06
  -4   2  -7   38.87    8.13
  -4  -1  -6  295.99   14.36
  -4  -5  -4  360.55   14.16
  -4  -8  -1   14.95    4.29
  -5   0  -7   -0.83    7.16
  -5  -6  -4  116.61   10.33
  -6  -5  -5  112.79   11.10
  -6 -10   1   29.62    5.62
  -3   4  -7  177.05   10.97
  -3  -2  -5  403.94   14.26
  -3  -5  -3   84.48    6.43
  -5  -3  -6   34.28    8.71
  -5  -5  -5   49.82    8.76
  -5  -9  -1   90.94    7.52
  -6  -7  -4  214.88   13.77
  -6  -9  -2   60.55    7.91
  -6 -10   0    1.50    5.24
  -1   4  -5  268.99    8.66
  -2   3  -6   27.62    4.92
  -2   0  -5    0.53    3.53
  -2  -2  -4  277.00   10.00
  -3   0  -6  351.07   14.13
  -3  -4  -4   58.32    6.04
  -3  -7  -1   13.51    3.32
  -4   1  -7   10.96    6.32
  -4  -2  -6   64.28    9.01
  -4  -4  -5  105.27    9.06
  -5  -1  -7   20.74    8.50
  -6  -4  -6    2.77    7.01
  -6  -6  -5    3.66    7.60
  -1   1  -4   41.96    4.11
  -1  -2  -2    7.53    2.03
  -2   8  -7  116.55    8.17
  -3   3  -7  198.78   11.68
  -4   0  -7   -3.64    6.37
  -4  -6  -4  127.31    9.49
  -4  -7  -3   54.31    6.40
  -4  -9   1  197.33    6.98
  -5  -7  -4  221.09   12.95
  -5  -8  -3   26.81    6.68
  -6 -10  -1   28.22    6.76
  -1   9  -6   -4.32    3.28
  -1  10  -6    1.30    3.17
  -1  11  -6   17.51    3.45
  -1  -1  -3   48.87    3.74
  -2   7  -7    0.04    4.85
  -2   2  -6   53.17    5.94
  -3   2  -7  178.46   11.23
  -3  -1  -6  262.73   12.74
  -3  -3  -5  434.96   14.75
  -4   4  -8   12.97    6.98
  -4  -3  -6   19.04    7.36
  -4  -8  -2   29.26    4.91
  -4  -9   0  310.75    9.51
  -4  -9   2   94.50    4.38
  -5  -2  -7   17.51    8.57
  -5  -4  -6    2.23    6.39
  -5  -6  -5   -2.39    6.53
  -5  -9  -2   12.02    5.24
  -5 -10   1   77.05    5.83
  -6  -8  -4    6.63    7.27
  -1   3  -5  164.29    7.11
  -2   6  -7   43.02    6.27
  -2  -1  -5    8.72    4.12
  -2  -4  -3  962.66   16.73
  -2  -5  -2    0.35    2.77
  -2  -6   0  549.22    8.90
  -3   7  -8  115.08    9.95
  -3  -5  -4  666.84   17.17
  -3  -6  -3   48.61    5.25
  -4   3  -8   -0.96    6.54
  -4  -1  -7    6.30    6.96
  -4  -5  -5  161.43   10.64
  -5 -10   0   19.60    4.74
  -5 -10   2   -0.96    2.95
  -6  -7  -5   13.88    7.69
  -6 -10  -2    1.74    5.96
  -1   0  -4 1911.05   21.62
  -2   1  -6  114.79    8.00
  -2  -3  -4   16.11    3.79
  -3   6  -8  135.75   10.41
  -3   1  -7   18.20    6.75
  -3  -7  -2  165.89    7.68
  -3  -8   1  265.16    6.54
  -4   2  -8    6.61    7.15
  -4  -9  -1  200.89    8.87
  -5  -3  -7  135.74   12.64
  -5  -5  -6   74.45   10.10
  -5 -10  -1   78.45    7.22
  -1   2  -5  784.43   14.93
  -2   5  -7   20.33    5.36
  -3   5  -8  132.71   10.58
  -3  -2  -6  122.58    9.22
  -3  -4  -5  381.02   14.07
  -3  -8   0  431.58    9.62
  -4  -2  -7   40.32    8.58
  -4  -4  -6    1.44    5.98
  -4  -7  -4  199.39   11.26
  -4  -8  -3   15.08    5.31
  -5  -7  -5   -0.05    6.80
  -5  -8  -4   57.11    7.94
  -5  -9  -3   97.14    9.01
  -6  -9  -4   44.67    8.50
  -6 -11   0   73.57    7.21
  -2   4  -7  251.83   11.12
  -2  -2  -5  394.40   12.84
  -2  -6  -1  323.34    8.19
  -3   4  -8   14.68    6.82
  -3   0  -7    0.40    6.21
  -3  -8  -1  285.99    9.16
  -4   1  -8   47.86    8.93
  -4  -6  -5    2.66    5.60
  -4  -9  -2   86.92    7.16
  -5  -4  -7   54.12   10.01
  -5 -10  -2   -3.66    5.02
  -6  -8  -5   -2.64    6.96
  -6 -10  -3   33.95    7.89
  -6 -11  -1  133.98    9.46
  -1   5  -6   26.13    4.40
  -1  -2  -3 1874.31   20.02
  -1  -3  -2  455.67    8.99
  -2   3  -7   49.98    6.86
  -2   0  -6  523.50   15.41
  -2  -4  -4   25.91    4.72
  -2  -5  -3   71.49    5.66
  -3   3  -8   -0.58    6.40
  -3  -3  -6  105.66    9.39
  -3  -6  -4  556.96   15.94
  -3  -7  -3    9.54    4.20
  -4   0  -8   30.03    8.47
  -4  -3  -7  181.41   13.06
  -4  -5  -6   77.02    9.59
  -5  -6  -6   16.22    7.34
  -1   1  -5   18.01    3.69
  -1  -1  -4   39.76    4.41
  -2  -6  -2 1020.45   16.19
  -3  -1  -7   22.21    7.29
  -3  -5  -5   67.25    7.28
  -4  -8  -4   67.85    7.99
  -5  -8  -5   14.50    7.57
  -5  -9  -4   39.33    7.92
  -6 -11  -2   61.49    7.88
  -1   4  -6   60.75    5.23
  -2   2  -7  187.01   10.27
  -2  -1  -6  107.15    8.09
  -2  -3  -5  106.17    7.66
  -3   2  -8   55.87    8.41
  -3  -8  -2  365.44   11.32
  -4  -1  -8   59.60    9.41
  -4  -7  -5   15.43    6.24
  -4  -9  -3  169.53    9.95
  -4 -10   0   13.95    4.00
  -5  -5  -7   41.57    8.90
  -5  -7  -6   84.94   10.84
  -5 -10  -3   69.82    8.26
  -5 -11  -1  214.25   10.31
  -5 -11   0   18.81    4.79
  -5 -11   1  219.81    8.26
  -6 -10  -4    3.98    6.41
  -1   3  -6   39.19    5.01
  -2   8  -8   76.19    7.45
  -3   1  -8   38.47    7.80
  -3  -2  -7  186.10   12.32
  -3  -4  -6   21.31    6.00
  -3  -7  -4  378.17   13.73
  -4  -4  -7   64.33    9.14
  -4  -6  -6   43.09    8.51
  -4 -10  -1   89.50    6.41
  -4 -10   1  103.59    5.49
  -6 -11  -3  104.89   10.04
  -6 -12   0    4.52    5.17
  -1   0  -5   -0.47    2.94
  -1  -3  -3  491.28   10.88
  -2   6  -8  121.56    8.97
  -2   7  -8   33.50    6.55
  -2   1  -7   -1.56    4.76
  -2  -2  -6   47.92    6.50
  -2  -5  -4  205.14    9.34
  -2  -6  -3  178.66    8.17
  -3  -6  -5   24.29    5.71
  -3  -8  -3  205.91    9.68
  -4  -2  -8   14.55    7.02
  -4 -10  -2    3.66    4.21
  -5  -9  -5   67.16    9.54
  -5 -10  -4    6.70    6.35
  -5 -11  -2   41.40    6.54
  -6 -12  -1    1.09    5.45
  -1   2  -6   40.99    5.23
  -1  -2  -4  568.95   12.65
  -2   5  -8   51.52    7.47
  -2  -4  -5  502.85   14.98
  -2  -7  -1   30.71    3.61
  -2  -7   0   16.09    2.60
  -3   0  -8  161.81   11.98
  -3  -3  -7  200.75   12.88
  -3  -5  -6  100.76    9.72
  -3  -9  -1  157.59    7.29
  -3  -9   0  153.70    6.23
  -4  -5  -7   74.45   10.07
  -4  -8  -5   15.34    6.90
  -4  -9  -4  182.49   11.38
  -5  -8  -6    2.32    7.14
  -1   9  -7   13.05    4.06
  -1  -1  -5   14.75    3.84
  -1  -4  -2  155.97    5.69
  -2   4  -8    6.98    5.67
  -2   0  -7   -1.74    4.67
  -3  -1  -8   24.46    7.69
  -3  -9  -2    1.43    3.90
  -4  -3  -8    0.80    6.31
  -4  -7  -6   50.29    8.18
  -4 -10  -3   86.15    7.96
  -5 -11  -3  171.17   11.02
   0   7  -5   -4.04    2.25
  -1   1  -6   84.50    6.42
  -2   3  -8    4.08    5.75
  -2  -1  -7    1.55    5.05
  -2  -3  -6   28.77    5.48
  -2  -7  -2   67.62    5.15
  -3  -4  -7  190.17   12.77
  -3  -7  -5    0.29    5.35
  -3  -8  -4  233.98   11.27
  -3  -9   1  157.45    5.29
  -4  -4  -8    9.68    7.81
  -4  -6  -7   -2.57    7.25
  -5 -10  -5   46.22    8.69
   0   6  -5  164.93    5.43
  -1   5  -7    8.80    4.33
  -1  -3  -4    4.83    3.37
  -1  -4  -3  325.80    9.28
  -2   2  -8   83.92    8.59
  -2  -5  -5   48.66    6.42
  -2  -6  -4  367.23   12.19
  -3  -2  -8   56.09    9.10
  -3  -6  -6  299.97   14.17
  -3  -9  -3  147.67    8.77
  -4  -8  -6   23.08    7.67
  -4  -9  -5  104.55   10.07
  -4 -10  -4   10.69    6.12
  -4 -11  -1  175.81    8.57
  -5  -9  -6   13.56    6.98
  -5 -11  -4   18.58    7.04
  -5 -12  -2  114.18    8.95
  -5 -12  -1   15.97    5.57
  -5 -12   0   61.71    6.14
   0   2  -4  685.93   10.92
  -1   4  -7  197.12    9.18
  -1   0  -6  350.60   11.70
  -1  -2  -5  750.49   16.05
  -2  -2  -7  204.30   11.44
  -2  -4  -6   81.73    8.04
  -2  -7  -3   21.84    3.87
  -4 -11  -2  119.26    8.03
  -4 -11   0   41.77    4.59
  -1   3  -7   52.76    6.16
  -2   1  -8    6.38    6.03
  -3  -3  -8   -3.19    6.61
  -3  -5  -7   23.35    7.04
  -3  -7  -6   59.31    8.74
  -3  -8  -5  117.07    9.64
  -4  -7  -7   12.01    7.02
  -4 -11  -3  152.63    9.90
  -5 -11  -5  130.14   11.34
  -5 -12   1   14.08    3.96
   0   0  -3   -0.03    1.81
  -1   2  -7  339.93   12.17
  -1  -1  -6   85.82    6.78
  -1  -4  -4   15.16    3.92
  -1  -5  -2  269.99    7.73
  -1  -5  -1   71.12    3.66
  -2   0  -8  342.66   14.78
  -2  -3  -7   55.81    7.95
  -2  -6  -5   88.35    7.38
  -2  -7  -4   32.76    5.38
  -2  -8  -1  691.12   12.49
  -3  -9  -4   83.82    7.55
  -3 -10  -2    9.93    3.93
  -3 -10  -1  498.97   12.19
  -4  -9  -6   35.31    8.22
  -4 -10  -5   67.35    9.19
  -4 -11   1  174.28    6.52
  -5 -12  -4   37.34    7.71
   0   1  -4   -1.61    2.42
  -1  -3  -5  164.25    8.33
  -2  -5  -6    9.68    4.98
  -2  -8  -2  828.04   15.35
  -3  -4  -8    6.95    7.27
  -3  -6  -7   12.48    6.49
  -3 -10  -3  403.05   13.54
  -3 -10   0   14.26    3.20
  -4  -8  -7   18.72    8.04
  -4 -11  -4   27.12    6.86
   0   3  -5    2.66    2.73
  -1   1  -7    2.91    4.30
  -1  -2  -6   48.12    5.88
  -1  -5  -3   41.29    4.11
  -2   4  -9  121.83    9.49
  -2  -1  -8    2.58    6.06
  -2  -4  -7  267.42   13.40
  -2  -8  -3  453.44   12.70
  -2  -8   0  549.77    9.52
  -3  -8  -6  134.67   11.11
  -3  -9  -5   92.87    9.39
  -4 -12  -2   63.77    7.09
  -4 -12  -1   33.13    5.52
  -5 -13  -2   98.46    8.45
  -5 -13  -1    0.22    4.96
   0   2  -5  920.01   14.39
  -1   0  -7   -1.83    4.02
  -2   2  -9   99.53    9.46
  -2  -2  -8   86.13    9.29
  -2  -6  -6  342.20   14.23
  -2  -7  -5    4.22    4.37
  -3  -5  -8  129.68   11.40
  -3  -7  -7    2.05    6.76
  -3 -10  -4    6.13    5.35
  -4  -9  -7   73.14   10.29
  -4 -10  -6   -0.69    6.62
  -4 -11  -5   93.61   10.02
  -4 -12  -3   31.15    6.34
  -5 -13   0   68.19    6.25
   0   0  -4 6106.83   34.94
   0  -1  -3   -1.92    2.02
  -1   4  -8   -3.32    4.64
  -1   5  -8   39.34    6.13
  -1  -4  -5  263.99   10.25
  -1  -5  -4  316.22   10.41
  -2   1  -9   -0.63    6.19
  -2  -8  -4  300.49   11.59
  -4 -12  -4   29.62    6.84
  -4 -12   0   37.02    4.90
   0   6  -6  759.54   12.27
   0   7  -6   -1.51    2.97
   0   1  -5   -4.30    2.86
  -1   3  -8    1.60    5.35
  -1  -1  -7    4.07    4.81
  -1  -3  -6   38.73    5.40
  -1  -6  -3  318.24    9.78
  -1  -6  -2 2455.07   23.07
  -2   0  -9    1.72    5.99
  -2  -3  -8    0.71    6.16
  -2  -5  -7   21.46    6.47
  -2  -9  -2   43.89    4.72
  -3  -6  -8  133.36   11.66
  -3  -8  -7   65.63    9.41
  -3  -9  -6   -2.21    5.62
  -3 -10  -5  249.96   13.29
  -3 -11  -3  359.77   13.06
  -3 -11  -2  140.12    7.85
  -3 -11  -1  453.62   11.84
   0   8  -6  598.67    9.49
   0  -1  -4   -6.01    2.88
  -1   2  -8  133.58    8.84
  -1  -5  -5   22.85    4.87
  -1  -6  -1  498.19    9.09
  -2  -7  -6   -1.83    4.84
  -2  -8  -5  262.36   11.88
  -2  -9  -3    9.92    4.22
  -2  -9  -1    2.64    2.97
  -3 -11  -4   15.84    6.04
  -3 -10   1  514.86    8.87
  -4 -11  -6   54.26    8.46
  -4 -12  -5   14.78    7.20
  -5 -14  -2   25.81    6.44
   0   3  -6   -0.09    2.91
   0   0  -5   -0.53    2.59
  -1   1  -8    5.85    5.24
  -1  -2  -7  337.96   13.17
  -1  -4  -6   68.36    6.95
  -2  -1  -9   -3.45    6.01
  -2  -4  -8    6.66    5.94
  -2  -6  -7   41.52    7.35
  -2  -9  -4  166.50    9.40
  -3  -7  -8  120.33   11.35
  -3 -10  -6   -2.89    6.28
  -4 -13  -3    1.52    5.28
  -5 -14  -1   11.78    5.23
   0   2  -6   43.29    4.64
   0  -2  -3 2390.77   20.77
  -1   0  -8  396.61   14.51
  -1  -3  -7   50.22    6.94
  -2  -2  -9  103.61   10.30
  -2  -5  -8   52.22    8.59
  -2  -8  -6  282.34   13.78
  -3  -9  -7   59.97    8.95
  -3 -11  -5  199.90   12.27
  -3 -11   0   24.97    3.73
  -4 -13  -1   -0.65    4.14
   0   1  -6   -2.36    3.66
   0  -1  -5   -2.62    2.75
   0  -2  -4  695.55   13.01
  -1  -1  -8    5.84    6.03
  -1  -5  -6   27.98    5.90
  -1  -6  -5  116.80    7.72
  -1  -7  -3    4.63    3.32
  -1  -7  -2   52.92    4.44
  -2  -3  -9   35.40    8.00
  -2  -7  -7    4.04    6.43
  -2  -9  -5    9.80    4.99
  -3 -12  -3   71.39    7.17
  -3 -12  -2  193.55    9.44
  -4 -13  -5   -4.95    5.74
  -4 -12   1   27.69    3.68
  -5 -14   0    4.05    4.25
  -1   4  -9  109.74    8.65
  -1   5  -9    7.54    5.33
  -1  -4  -7  199.05   11.13
  -1  -7  -4  135.08    7.80
  -2  -6  -8  121.33   11.10
  -2 -10  -4    7.31    4.94
  -2 -10  -3  319.92   11.30
  -2 -10  -2    2.27    3.25
  -2  -9   0  336.81    7.72
  -3 -10  -7  130.30   12.00
  -3 -11  -6   53.71    8.88
  -3 -12  -4  142.35   10.04
   0   0  -6 1052.83   18.25
   0  -2  -5  904.46   16.39
   0  -3  -3   -1.79    2.56
  -1   2  -9  147.26    9.90
  -1   3  -9   21.76    6.33
  -1  -2  -8  135.21    9.95
  -1  -6  -6  650.26   17.96
  -2  -4  -9  112.05   10.76
  -2  -8  -7  125.63   10.69
  -2  -9  -6   10.22    5.96
  -3 -12  -5   61.42    8.58
  -3 -12  -1  102.34    6.49
  -4 -14  -3    1.95    5.20
  -4 -13   0  192.47    7.90
   0   3  -7    0.95    3.91
   0   4  -7  473.74   11.83
   0   7  -7   -2.85    3.02
   0  -1  -6   -3.86    3.40
   0  -3  -4   -2.84    2.34
   0  -3  -2   -1.35    1.85
  -1   1  -9    5.23    5.92
  -1  -3  -8   -2.50    5.49
  -1  -5  -7   -0.34    5.65
  -1  -7  -5    4.85    4.09
  -1  -7  -1   13.14    2.54
  -2  -7  -8   28.92    8.28
  -2 -10  -5  238.76   11.91
  -2 -10  -1  427.41   10.39
   0   1  -7    0.27    3.96
   0   2  -7  387.76   11.56
   0  -3  -5    1.08    3.54
  -1   0  -9    1.30    5.55
  -1  -8  -4  228.52    9.87
  -1  -8  -3  246.68    9.05
  -2  -9  -7   14.73    7.18
  -2 -10  -6    0.14    6.00
  -2 -11  -4   -0.75    4.51
  -2 -11  -3   49.05    5.94
  -3 -11  -7  122.06   11.20
  -3 -13  -4   53.03    7.45
  -3 -13  -3   11.74    5.22
  -4 -14  -1    7.45    4.71
   0   0  -7   -1.97    4.07
   0   8  -7  211.85    6.51
   0  -2  -6   38.18    5.02
   0  -4  -4   23.74    3.93
   0  -4  -3 2579.24   23.58
  -1  -1  -9    0.35    5.83
  -1  -4  -8   -0.38    5.64
  -1  -6  -7   58.98    7.97
  -1  -7  -6   15.06    5.38
  -1  -8  -5  179.41    9.89
  -1  -8  -2 1069.66   16.37
  -2  -8  -8   90.98   10.34
  -2 -11  -5   32.71    7.02
  -2 -11  -2   63.66    5.50
  -3 -13  -5    4.68    6.37
  -3 -13  -2  220.79    9.96
   0  -3  -6   -1.45    3.72
   0  -4  -5 1022.12   18.49
  -1  -2  -9  146.92   10.84
  -1  -5  -8   38.02    7.55
  -3 -12   0  215.59    7.46
  -3 -11   1  469.17    8.48
  -4 -15  -3   23.02    6.03
   0  -1  -7   -2.04    3.87
   0  -4  -2 1511.49   15.67
  -1  -3  -9   20.99    7.23
  -1  -7  -7    0.01    5.85
  -1  -8  -6  349.27   13.87
  -1  -9  -4   30.51    5.28
  -1  -9  -3   60.45    5.52
  -2  -9  -8   32.06    8.28
  -2 -10  -7  147.25   11.30
  -2 -11  -6   23.83    7.16
  -2 -10   0   17.22    2.84
  -3 -13  -6   95.10    9.78
  -3 -13  -1   23.91    4.53
   0   2  -8  159.06    8.76
   0   3  -8    1.55    4.29
   0   4  -8    3.75    4.18
   0  -2  -7  382.39   13.08
   0  -4  -6  210.93    9.85
   0  -5  -5    0.47    3.88
   0  -5  -4    0.27    2.77
   0  -5  -3   -3.84    2.67
  -1  -4  -9  119.97   10.41
  -1  -6  -8  161.83   11.48
  -1  -9  -5   27.52    5.45
  -1  -8  -1  363.92    8.50
  -2 -12  -5   61.14    8.09
  -2 -12  -4  257.30   11.89
  -2 -11  -1   58.20    4.64
  -3 -14  -5   25.58    7.03
  -3 -14  -4  151.79   10.32
  -3 -14  -3   43.61    6.53
  -4 -14   0   29.20    4.42
   0   0  -8  732.42   17.97
   0   1  -8    2.37    4.60
   0  -3  -7    4.96    5.01
  -1  -8  -7   88.16    9.20
  -1  -9  -6   -3.95    5.60
  -2 -11  -7   27.58    7.36
  -2 -12  -6  102.39    9.91
   0  -1  -8   -5.00    4.82
   0  -4  -7  462.93   14.96
   0  -5  -6   -1.17    4.46
   0  -6  -4  600.76   13.88
   0  -5  -2   -3.90    2.20
  -1  -5  -9    6.49    6.34
  -1  -7  -8   28.87    6.99
  -1 -10  -5  366.56   13.91
  -1 -10  -4   90.73    7.28
  -1 -10  -3  504.45   13.40
   0  -2  -8  160.46    9.86
   0  -6  -5  159.40    8.31
   0  -6  -3  450.18   10.84
  -1  -6  -9   16.41    7.14
  -1  -8  -8   79.82    9.41
  -1  -9  -7   15.64    6.85
  -1 -10  -6   -1.50    5.59
  -2 -12  -7   42.68    8.60
  -2 -13  -5    0.69    5.78
  -2 -13  -4   25.81    6.40
  -3 -15  -4   14.53    6.15
   0  -6  -6  754.92   18.24
   2 -17  -2   14.44    7.24
   2 -12  -2  210.66   10.49
   2 -11  -2   59.08    6.44
   2  -9   0  326.60    9.62
   2  -9   1    4.27    2.95
   2 -10   2    0.64    2.34
   2 -16   3  216.18    9.19
   2 -15   3   -1.49    3.92
   2 -13   3    1.58    3.54
   1 -16  -5  130.97   11.75
   1 -12  -5  114.17    9.86
   1 -11  -5   48.44    8.00
  -2  -7  -8   33.06    6.44
   2 -15  -3    0.79    6.52
   2 -14  -3    4.53    6.35
   2 -18  -2   47.43    7.95
   2 -10  -2   -1.04    3.79
   2  -9  -1   -0.12    3.31
   2 -17   3   35.29    5.80
   2 -12   3   85.42    5.18
   1 -10  -5  373.16   14.71
   1  -7  -4  148.34    7.91
   1  -5  -3   47.21    4.47
   1  -4  -2  163.73    5.86
   0 -13  -7   -2.97    6.60
   0  -7  -6    5.45    5.10
  -1  -6  -7   63.26    6.65
  -2  -6  -8  113.58    8.75
  -3  -1  -7   22.94    3.48
   2 -17  -3   33.05    8.47
   2 -16  -3  212.01   13.13
   2 -13  -3   -1.19    4.94
   2 -12  -3   93.31    8.68
   2  -8   0  540.15   11.55
   2  -8   1  682.93   11.72
   2  -9   2   37.76    3.45
   2 -11   3   53.08    4.17
   1  -9  -5   20.91    6.17
   0 -12  -7   43.56    7.90
   0 -11  -7   -4.00    6.46
   0  -4  -5 1032.18   17.23
  -1 -10  -8   12.87    6.74
  -1  -3  -6   38.19    4.32
   2 -11  -3   48.14    6.41
   2  -9  -2   43.37    5.13
   2  -8  -1  692.15   14.13
   1 -14  -6  138.05   12.28
   1 -13  -6   30.12    8.19
   1  -8  -5  167.46    9.64
   1  -6  -4  557.17   13.77
   0 -10  -7  227.01   12.95
   0  -6  -6  748.56   17.37
  -1  -9  -8    7.76    6.67
  -1  -5  -7   11.49    4.80
   2 -16  -4    0.43    6.90
   2 -15  -4    1.21    6.99
   2 -14  -4  255.45   14.26
   2 -13  -4   21.37    7.84
   2 -10  -3  341.52   12.80
   2 -10   3  333.29    7.48
   1 -12  -6   41.08    8.21
   1 -11  -6   15.89    6.86
   0  -9  -7    4.86    6.21
   0  -2  -4  684.57   11.50
  -2  -5  -8   48.23    6.39
   2 -12  -4  252.98   13.03
   2  -9  -3    8.72    4.81
   2  -7  -1   28.96    3.97
   2  -7   0   13.48    3.00
   2  -8   2  833.93   11.39
   2 -14   4  232.61    7.31
   1 -10  -6   -4.66    5.74
   1  -7  -5    1.85    4.27
   1  -4  -3  325.28    9.03
   0  -8  -7  236.60   12.12
   0  -5  -6    1.83    4.21
   2 -11  -4    0.75    4.82
   2  -7   1   29.83    3.15
   2 -13   4   19.14    3.46
   1  -5  -4  299.65    9.83
   1  -3  -2  446.72    8.85
   0  -3  -5    2.87    2.97
  -1  -7  -8   24.49    6.66
  -1  -4  -7  203.58    9.09
  -2  -2  -7  197.25    7.41
   2 -15  -5    6.27    6.95
   2 -14  -5   10.64    7.33
   2 -13  -5   -1.79    6.55
   2 -10  -4    7.82    4.88
   2  -8  -3  444.08   13.30
   2  -7  -2   70.26    5.50
   1  -9  -6   -4.24    4.78
   1  -6  -5  122.62    7.70
   0  -7  -7   -0.39    4.91
   3 -17  -1   53.20    8.39
   3 -16  -1  165.74   11.25
   3 -15  -1   65.32    8.17
   3 -14  -1   55.68    7.43
   3 -17   0    3.83    6.05
   3 -16   0    5.77    5.39
   3 -15   0   13.58    6.03
   2 -12  -5   83.15    9.61
   2  -9  -4  167.53    9.69
   2  -6  -1  318.22    8.98
   2  -9   3   10.65    2.50
   2 -12   4  238.20    6.24
   1 -13  -7   -3.51    5.95
   1 -12  -7   48.19    9.00
   1  -8  -6  371.70   14.42
   0 -10  -8   15.65    6.93
  -1  -6  -8  150.92    9.72
   3 -17  -2   -1.03    6.56
   3 -16  -2    7.91    6.79
   3 -15  -2   70.38    9.10
   3 -14  -2  189.92   11.99
   3 -13  -1   26.80    6.05
   3 -18   0   58.84    8.16
   3 -14   0  207.64   10.56
   3 -13   0   81.77    7.28
   3 -17   1   50.74    7.66
   3 -16   1  153.13    9.95
   3 -15   1   45.06    6.96
   2 -11  -5   33.48    7.19
   2  -7  -3   20.39    4.11
   2  -6   0  532.11   10.29
   1 -11  -7   22.88    7.96
   1  -4  -4   12.14    3.48
   0  -6  -7   80.89    7.36
   0  -4  -6  205.21    8.80
   3 -16  -3  138.84   11.95
   3 -15  -3   36.20    8.49
   3 -14  -3   36.49    7.99
   3 -13  -2  230.61   12.13
   3 -12  -2  187.65   10.87
   3 -12  -1  107.49    8.33
   3 -12   0  221.29    9.99
   3 -14   1   49.09    6.02
   3 -13   1   26.48    5.23
   2 -14  -6  126.93   12.31
   2 -10  -5  257.55   12.85
   2  -8  -4  313.74   12.21
   2  -6  -2 1008.45   16.91
   1 -10  -7  194.26   12.68
   1  -7  -6   12.84    5.68
   1  -5  -5   23.20    4.49
   1  -3  -3  466.34   10.08
   0  -9  -8   -1.03    5.86
  -1  -3  -7   51.42    5.70
   3 -13  -3    8.51    6.93
   3 -11  -2  154.19    9.67
   3 -11  -1  484.94   14.63
   3 -11   0   25.84    4.86
   3 -12   1  103.45    7.10
   3 -17   2    2.28    5.35
   3 -16   2    5.57    5.29
   2 -13  -6   60.20    9.21
   2 -12  -6  102.68   10.90
   2  -9  -5    9.17    6.06
   2  -6   1  321.73    7.16
   1  -9  -7   14.37    6.89
   0  -8  -8  124.70   10.05
   0  -2  -5  925.90   14.69
   0  -1  -4    5.73    2.39
  -1  -5  -8   35.41    6.42
  -1   0  -5   -0.11    2.07
   3 -16  -4    1.91    7.16
   3 -15  -4    7.60    7.43
   3 -14  -4  148.81   12.11
   3 -12  -3   74.42    8.45
   3 -10  -1  506.71   14.33
   3 -15   2   76.33    6.93
   3 -14   2  195.38    9.12
   2 -11  -6   23.03    7.84
   2  -7  -4   43.55    5.48
   2  -6  -3  166.43    7.90
   1  -6  -6  663.28   17.35
   0  -5  -7   -1.25    4.31
  -2  -1  -7   -1.59    2.91
   3 -13  -4   58.72    8.69
   3 -11  -3  365.25   14.47
   3 -10  -2   10.45    4.48
   3 -10   0   14.69    4.08
   3 -11   1  476.11   12.48
   3 -13   2  216.25    9.10
   2 -10  -6   -1.37    6.45
   2  -8  -5  260.89   11.99
   2  -5  -2    3.77    3.13
   2  -5  -1  128.41    5.67
   1  -8  -7   85.43    8.90
   1  -4  -5  276.75    9.96
   1  -3  -4    4.05    2.92
   1  -2  -2    7.53    2.13
   0  -7  -8   -1.74    5.52
   0  -3  -6    1.53    3.14
   3 -12  -4  145.27   11.03
   3 -10  -3  407.90   15.02
   3  -9  -1  156.48    8.24
   2  -6  -4  354.18   12.08
   2  -5   0  524.02    9.65
  -1  -4  -8    1.62    4.80
   3 -14  -5   27.41    7.92
   3 -13  -5    4.70    7.51
   3 -11  -4   13.27    6.36
   3  -9  -2    4.28    3.92
   3  -9   0  155.44    7.57
   3 -10   1  532.73   12.55
   3 -12   2  197.26    8.04
   2 -12  -7   40.56    8.77
   2  -9  -6   10.17    6.03
   2  -7  -5    4.96    4.41
   2  -5  -3   74.49    5.54
   1 -10  -8   17.94    7.11
   1  -7  -7   -1.46    5.14
   1  -5  -6   28.05    5.27
   0  -6  -8  157.10   10.14
   0  -4  -7  468.69   13.66
   3 -12  -5   54.35    9.04
   3 -10  -4    3.89    5.11
   3  -9  -3  148.13    9.24
   3 -16   3  118.16    7.15
   3 -15   3   37.90    4.97
   2 -11  -7   25.13    8.11
   2  -8  -6  299.51   13.92
   1  -9  -8    2.52    6.55
   1  -2  -3 1857.80   18.79
  -1  -6  -9   16.90    6.31
   3 -11  -5  188.66   12.80
   3  -9  -4   79.04    8.43
   3  -8  -2  396.64   12.60
   3  -8  -1  275.68    9.88
   3 -11   2  141.13    6.63
   3 -14   3   41.84    4.86
   2 -10  -7  145.15   11.99
   2  -6  -5   77.33    7.20
   2  -5  -4  202.16    9.10
   1  -6  -7   56.94    7.18
   0  -2  -6   45.87    4.64
   0  -1  -5   -1.15    2.67
  -2  -2  -8   79.42    5.55
   4 -16  -2    8.57    6.79
   4 -15  -2   22.69    7.49
   4 -16  -1   22.52    7.31
   4 -15  -1   36.02    7.10
   3 -13  -6  102.18   11.59
   3 -10  -5  275.68   14.52
   3  -8  -3  199.78   10.04
   3  -8   0  451.20   11.60
   3  -9   1  160.24    7.06
   2  -9  -7   15.86    7.25
   2  -7  -6   -0.96    5.49
   2  -4  -2  358.37    9.47
   2  -4  -1 1397.71   16.54
   1  -8  -8   74.35    8.96
   1  -4  -6   61.19    5.92
   1  -3  -5  157.65    7.55
   0  -5  -8   -1.49    5.54
   4 -15  -3   28.42    7.85
   4 -14  -3    3.56    6.79
   4 -14  -2   61.94    8.75
   4 -13  -2  315.77   14.57
   4 -14  -1    8.53    5.94
   4 -16   0    0.15    5.35
   4 -15   0    0.85    5.67
   3 -12  -6   86.90   10.32
   3  -8  -4  242.93   12.06
   3  -7  -2  168.54    8.53
   3 -10   2    8.02    3.28
   3 -13   3   11.02    3.76
   2  -4  -3  936.65   16.39
   1  -2  -4  550.16   11.53
   0  -3  -7    2.08    4.30
  -1  -5  -9    4.22    5.29
   4 -14  -4   31.53    8.39
   4 -13  -3   -1.19    6.57
   4 -12  -2   70.66    8.59
   4 -13  -1   -1.48    5.30
   4 -14   0   29.92    6.23
   3 -11  -6   65.51    9.21
   3  -9  -5   81.26    8.84
   3  -7  -3    9.51    4.70
   3  -7  -1   10.71    3.25
   2  -8  -7  114.67   10.29
   2  -5  -5   53.05    6.12
   2  -4   0   63.89    3.62
   1  -7  -8   32.03    7.26
   1  -5  -7   10.24    5.02
   4 -13  -4  138.06   11.94
   4 -12  -3   30.18    7.75
   4 -12  -1   28.98    6.34
   4 -13   0  183.36   10.10
   4 -15   1   38.06    6.53
   3 -10  -6    0.91    6.79
   3  -8  -5  127.91    9.94
   3  -7   0  779.61   14.47
   3  -8   1  284.97    8.54
   3 -12   3   76.67    5.11
   2  -6  -6  346.03   13.45
   2  -4  -4   25.66    4.09
   0  -4  -8    5.18    5.20
  -1   0  -6  350.27    7.84
  -2   0  -7   -0.30    2.52
   4 -12  -4   23.95    8.02
   4 -11  -3  151.30   11.20
   4 -11  -2  137.27    9.92
   4 -11  -1  187.06   10.28
   4 -12   0   31.85    6.02
   4 -14   1    8.69    5.27
   3  -9  -6   -5.46    6.29
   3  -7  -4  396.26   14.06
   3  -6  -2  959.98   18.11
   2  -7  -7    3.65    6.11
   1  -6  -8  151.48   10.33
   1  -3  -6   39.01    5.01
   0  -6  -9   24.12    6.48
  -1  -1  -7    6.97    3.37
   4 -13  -5    0.03    7.23
   4 -11  -4   20.97    7.63
   4 -10  -2   -5.50    4.66
   4 -13   1   -0.40    4.53
   3 -11  -7  109.93   11.10
   3  -6  -3   45.42    5.32
   3  -6  -1   71.15    5.42
   3  -9   2    1.24    2.67
   2  -9  -8   33.32    7.46
   2  -5  -6    5.09    4.86
   2  -4  -5  474.19   13.78
   2  -3  -3  163.79    7.17
   2  -3  -2  192.01    6.97
   1  -4  -7  197.55    9.91
   1  -2  -5  769.02   14.74
   1  -1  -3   45.85    3.48
   0  -1  -6    0.35    3.08
   4 -12  -5   14.33    7.14
   4 -10  -3   91.18    8.69
   4 -10  -1   99.59    7.95
   4 -11   0   36.71    5.54
   4 -16   2   10.91    5.25
   3 -10  -7  148.85   12.44
   3  -8  -6  141.54   11.17
   3  -7  -5   -1.44    4.52
   3  -6  -4  552.69   16.11
   3 -11   3  360.30    8.58
   2  -8  -8   84.73    9.84
   2  -6  -7   37.71    7.00
   2  -3  -1  164.18    5.81
   0  -5  -9   -0.81    5.47
   0  -2  -7  380.91   11.29
   4 -11  -5   93.24   10.54
   4 -10  -4    7.11    6.12
   4  -9  -3  168.84   10.63
   4  -9  -2   94.52    8.07
   4 -12   1   32.19    5.58
   4 -15   2   25.34    5.47
   3  -9  -7   63.41    9.56
   2  -3  -4   19.50    3.98
   1  -5  -8   43.49    6.88
   1  -1  -4   39.66    3.99
   0  -3  -8   -0.31    4.65
   4 -10  -5   71.55    9.77
   4  -9  -4  183.71   11.90
   4  -9  -1  211.60   10.07
   4 -10   0   12.92    4.25
   4 -14   2   55.72    6.37
   3  -7  -6   69.54    8.93
   3  -6  -5   28.77    6.37
   3  -5  -3   88.67    6.75
   3  -6   0 1138.97   16.67
   3  -7   1   12.18    2.79
   2  -7  -8   31.51    7.69
   4 -11  -6   60.96    9.85
   4  -8  -3   17.95    5.81
   4 -11   1  179.16    8.62
   3  -8  -7   69.19    9.57
   3  -5  -4  660.42   16.91
   3  -5  -1  102.48    6.06
   2  -5  -7   17.66    6.19
   2  -4  -6   76.40    6.77
   2  -3  -5  102.53    6.94
   1  -6  -9   15.17    6.57
   1  -3  -7   55.92    6.27
   1  -2  -6   45.56    5.00
   5 -14  -2   27.27    7.78
   5 -15  -1   37.33    7.66
   4 -10  -6    2.61    7.40
   4  -9  -5  117.87   10.35
   4  -8  -4   66.79    8.54
   4  -8  -2   28.87    5.21
   4  -9   0  314.88   11.14
   4 -13   2  302.73   10.61
   3  -6  -6  305.14   14.01
   3  -8   2  360.35    8.31
   3 -10   3  394.35    8.35
   2  -6  -8  129.48   10.70
   1  -4  -8    2.18    4.86
   1  -1  -5   18.84    3.70
   0  -4  -9  203.08   10.69
   5 -13  -3   -0.98    5.77
   5 -13  -2  110.99   10.36
   5 -14  -1   10.74    6.34
   4  -8  -1   14.45    4.55
   4 -10   1   99.91    6.71
   3  -7  -7    0.98    6.62
   3  -5  -5   68.32    6.97
   2  -2  -3  786.37   14.11
   2  -3   0  123.82    4.48
   5 -12  -4   40.93    8.94
   5 -12  -3   18.14    7.55
   5 -12  -2  140.17   11.03
   5 -13  -1   -1.61    5.58
   5 -15   0   41.46    6.96
   4  -9  -6   28.28    7.41
   4  -8  -5   16.34    6.46
   4  -7  -4  200.38   11.48
   4  -7  -3   54.35    6.46
   4  -7  -2   74.32    6.98
   4 -12   2   73.75    6.26
   3  -4  -3  669.31   15.35
   3  -4  -2  102.81    6.43
   2  -4  -7  274.66   12.27
   2  -3  -6   34.95    5.42
   2  -2  -4  272.07    9.33
   2  -2  -2   50.29    3.85
   1  -5  -9    6.64    6.07
   0  -2  -8  168.81    8.62
  -1  -1  -8    4.88    3.77
  -1   0  -7   -0.51    2.76
   5 -11  -4   16.51    7.62
   5 -11  -3  194.55   12.86
   5 -11  -2   51.63    7.94
   5 -12  -1   12.82    6.14
   5 -14   0    3.96    5.45
   4  -8  -6   21.38    7.54
   4  -8   0   87.07    6.37
   3  -6  -7   13.02    6.67
   3  -5  -6  105.33    9.09
   3  -4  -4   59.26    5.93
   3  -5   0 1552.50   18.72
   3  -6   1   70.21    4.41
   2  -5  -8   55.66    7.89
   1  -2  -7  339.24   11.68
   5 -11  -5  113.41   11.64
   5 -13   0   72.45    7.78
   4  -9  -7   70.65   10.23
   4  -7  -5   20.20    6.47
   4  -7  -1   64.03    5.75
   4  -9   1  212.26    8.58
   4 -11   2  134.09    7.13
   3  -7  -8  125.14   11.31
   3  -4  -5  376.72   13.61
   3  -4  -1 1041.31   16.38
   2  -2  -5  390.30   11.81
   2  -2  -1 1062.70   13.37
   1  -3  -8    2.37    4.87
   1  -1  -6   81.69    5.73
   0  -3  -9   -0.05    4.95
   5 -10  -4   16.29    7.35
   5 -10  -3   73.35    8.73
   5 -10  -2    2.61    5.93
   5 -11  -1  233.21   11.93
   5 -12   0   62.13    7.46
   5 -15   1   42.64    6.72
   4  -7  -6   56.82    8.74
   4  -6  -4  135.86    9.37
   4  -6  -3    2.98    4.24
   4  -6  -2   69.83    6.51
   3  -7   2  160.01    5.58
   1  -4  -9  105.01    9.26
   1   0  -4 1881.44   19.16
   5 -10  -5   53.61    8.91
   5  -9  -4   37.38    8.12
   5  -9  -3   95.82    9.69
   5 -10  -1   81.96    8.09
   5 -14   1    8.31    5.39
   4  -8  -7   12.59    7.45
   4  -6  -5    6.32    6.08
   4  -7   0  276.55    9.96
   3  -5  -7   33.10    7.40
   3  -4  -6   34.10    6.55
   3  -3  -4   15.03    4.46
   3  -3  -3  902.40   17.41
   3  -9   3  142.99    5.03
   2  -4  -8    7.69    5.60
   2  -3  -7   50.13    6.59
   2  -2  -6   55.00    5.77
   5  -9  -5   73.92    9.86
   5  -9  -2   20.95    6.37
   5 -11   0   21.08    5.50
   5 -13   1    1.83    5.21
   4  -6  -1    3.57    3.60
   4 -10   2   -4.90    3.15
   3  -6  -8  147.35   11.61
   3  -3  -2  600.05   13.34
   2  -1  -3   85.51    5.14
   1   0  -5   -0.39    2.75
   5  -8  -4   63.25    8.95
   5  -8  -3   35.32    7.55
   5  -9  -1   97.89    8.04
   4  -7  -7   14.54    6.63
   4  -6  -6   43.48    7.59
   4  -5  -4  339.39   13.37
   4  -5  -3  248.49   10.94
   4  -5  -2  216.69    9.72
   4  -8   1   15.02    3.52
   4 -13   3    0.03    3.33
   3  -4   0   97.25    5.16
   2  -1  -4    2.67    2.68
   1  -2  -8  128.74    8.46
   1  -1  -7    4.36    4.08
   5  -9  -6   14.30    7.14
   5  -8  -5   13.09    7.23
   5  -8  -2   15.72    5.89
   5 -10   0   13.93    4.82
   5 -12   1   13.67    5.45
   4  -5  -5  164.30   10.36
   3  -5  -8  138.36   11.06
   3  -4  -7  190.29   11.48
   3  -3  -6  115.53    8.78
   3  -5   1  111.95    5.05
   2  -3  -8    3.37    5.37
   2  -2  -7  190.70   10.05
   2  -1  -5   10.25    3.70
   2  -1  -2  377.15    8.83
   1  -3  -9   26.82    6.33
   5  -8  -6    4.89    7.28
   5  -7  -4  206.95   12.66
   5  -7  -3    1.33    5.78
   4  -6  -7    0.84    6.56
   4  -5  -6   73.61    9.02
   4  -6   0  188.48    8.12
   4 -12   3   26.71    4.09
   3  -3  -1 1580.09   19.51
   2  -4  -9  126.37   10.12
   1   0  -6  331.55    9.91
  -1   0  -8  382.03    9.11
   6 -11  -3  141.07   11.84
   6 -12  -2   24.21    7.39
   5  -7  -5    4.05    6.60
   5  -7  -2  167.72   10.07
   5  -8  -1   36.39    6.05
   5  -9   0   53.31    6.47
   5 -11   1  228.63   10.30
   5 -14   2   29.44    5.67
   4  -4  -5  112.02    9.17
   4  -4  -4   28.59    5.54
   4  -4  -3  149.37    8.92
   4  -5  -1  376.43   11.43
   4  -9   2   97.39    5.71
   3  -2  -5  394.27   13.13
   3  -2  -4  254.43    9.92
   3  -2  -3  805.30   16.00
   2  -1  -6  114.28    7.22
   6 -10  -4    3.67    7.09
   6 -11  -2   75.49    9.34
   6 -12  -1    0.55    5.86
   5  -7  -6   91.90   10.63
   4  -5  -7   78.67    9.58
   4  -4  -2    1.67    3.74
   4  -7   1   62.59    4.85
   3  -4  -8   14.48    6.66
   3  -3  -7  186.04   11.21
   3  -2  -2  428.11   11.13
   3  -6   2  987.00   12.15
   1  -1  -8    6.31    5.08
  -1   1  -7    5.77    2.70
   6 -10  -3   29.57    7.53
   5  -6  -5   -1.38    6.52
   5  -6  -4  120.12    9.98
   5  -6  -3   -2.95    5.26
   5  -7  -1   -1.76    4.10
   5 -10   1   77.68    6.90
   5 -13   2  100.36    7.19
   4  -4  -6   -4.88    5.71
   3  -2  -6  119.56    8.63
   2  -2  -8   91.37    8.26
   2  -1  -1  399.69    8.15
   1  -2  -9  155.50    9.54
   6  -9  -4   44.40    8.76
   6  -9  -3  227.39   13.63
   6 -10  -2   -0.39    5.48
   6 -11  -1  145.41   10.71
   6 -13   0  196.44   11.31
   5  -6  -6   15.51    7.47
   5  -6  -2   44.02    6.60
   5  -8   0   91.21    7.17
   4  -3  -4   -2.60    4.62
   4 -11   3  148.89    6.25
   2  -3  -9   29.57    6.63
   2  -1  -7    0.05    3.98
   2   0  -5   -0.12    3.46
   2   0  -4 1823.18   21.75
   2   0  -3    0.04    2.58
   1   0  -7    0.97    3.69
   1   1  -4   43.55    3.61
   6  -9  -2   70.98    8.67
   6 -10  -1   26.27    7.38
   6 -12   0   -1.55    5.32
   5  -5  -4  206.98   12.33
   5 -12   2  130.43    7.66
   4  -4  -7   71.61    9.03
   4  -3  -5  366.32   14.01
   4  -3  -3  585.04   15.52
   4  -4  -1  183.80    8.28
   4  -5   0  738.69   14.74
   4  -8   2   24.79    3.71
   3  -3  -8   -1.31    5.60
   3  -2  -7  179.06   10.57
   3  -1  -4   91.27    6.53
   3  -3   0   75.32    4.55
   1   1  -5   18.47    3.23
   1   1  -3   52.02    3.25
   6  -8  -5   -1.27    7.46
   6  -8  -4    5.20    6.45
   6  -8  -3   -1.91    6.66
   5  -5  -5   61.06    8.30
   5  -5  -3   59.89    7.01
   5  -6  -1   -1.31    4.04
   5  -9   1   97.39    7.02
   4  -3  -6   19.59    6.61
   4  -3  -2   65.28    5.90
   4  -6   1    6.36    3.20
   3  -1  -5   47.35    5.68
   3  -1  -3   77.73    5.80
   3  -2  -1 1379.43   17.93
   3  -4   1 1037.56   13.38
   2   0  -6  530.81   13.71
   0   1  -7    1.17    3.17
   6  -8  -2    1.62    6.00
   6  -9  -1  265.56   12.81
   6 -11   0   71.78    7.84
   5  -5  -6   72.52    8.94
   5  -5  -2  166.03    9.78
   5  -7   0  292.36   11.03
   5 -11   2   49.00    5.75
   4  -4  -8   13.81    6.76
   3  -1  -6  266.11   11.51
   2  -2  -9  103.66    9.16
   2  -1  -8    5.18    5.62
   2   0  -2 2510.52   21.58
   1  -1  -9    2.37    5.18
   1   1  -6   85.69    5.40
   6  -7  -5    9.79    7.44
   6  -7  -4  219.06   13.31
   6  -7  -3   27.45    7.65
   6 -10   0    6.82    5.82
   5  -5  -7   40.93    8.69
   5  -4  -5  115.78   10.37
   5  -4  -4   71.41    8.54
   4  -3  -7  176.84   11.74
   4  -2  -5   56.61    7.20
   4  -2  -4   31.56    5.70
   4 -10   3   84.16    4.91
   3  -2  -8   61.20    7.92
   3  -1  -2  916.61   15.67
   1   0  -8  407.13   12.35
   6 -12   1    6.21    5.32
   5  -4  -6    0.09    6.66
   5  -4  -3  194.89   10.61
   5  -8   1   36.35    5.21
   4  -2  -6   68.04    8.30
   4  -2  -3   71.56    6.18
   4  -3  -1  798.70   15.88
   4  -4   0   51.06    4.67
   3  -1  -7   20.47    5.88
   2   0  -7   -2.21    3.98
   0   2  -5  916.91   11.09
   6  -6  -5   -6.13    6.68
   6  -6  -4   54.26    8.89
   6  -7  -2  263.51   12.97
   6  -8  -1    1.57    5.38
   5  -4  -2   10.56    4.98
   5  -5  -1   66.58    6.58
   5  -6   0  161.99    8.39
   5 -10   2   -1.43    4.01
   4  -3  -8    0.35    6.20
   4  -7   2   74.90    4.80
   3   0  -5    1.24    3.79
   3   0  -4  756.81   16.01
   2   1  -5    7.44    3.63
   2   1  -4    1.65    2.77
   1   1  -7    4.97    3.59
   0   0  -9   -1.07    3.55
   6  -6  -3    3.36    5.74
   6  -9   0   68.99    7.35
   6 -11   1  140.75    9.26
   5  -4  -7   63.55    8.74
   5  -3  -5  226.50   12.94
   5  -3  -4   17.92    6.48
   4  -2  -7   39.03    7.40
   4  -2  -2  158.28    7.96
   4  -5   1  385.29    9.97
   3   0  -6  363.34   12.80
   3  -5   2  399.84    7.57
   2  -1  -9    1.54    5.37
   0   1  -8    2.24    3.68
   6  -5  -5  124.59   11.54
   6  -5  -4  172.06   12.28
   6  -6  -2   16.55    6.73
   6  -7  -1   22.92    6.27
   5  -3  -6   27.43    7.54
   5  -3  -3  310.97   12.98
   5  -7   1   -1.89    3.55
   4  -1  -5    2.80    4.83
   4  -1  -4  198.29    9.95
   3  -1  -8   28.29    6.42
   3   0  -3    0.69    2.81
   3  -1  -1  128.40    5.96
   3  -2   0  602.13   11.01
   2   0  -8  349.03   12.84
   2   1  -6  112.59    6.80
   2   1  -3   86.92    4.93
   0   2  -6   40.65    3.38
   6  -5  -3  198.73   12.25
   6  -8   0    5.16    5.06
   6 -10   1   26.01    6.33
   5  -3  -7  131.94   11.38
   5  -4  -1  266.24   10.95
   5  -9   2   19.11    4.52
   4  -2  -8   14.02    6.71
   4  -1  -6  286.06   12.87
   4  -1  -3    2.18    3.96
   4  -9   3  174.06    6.01
   3   0  -7    0.64    4.62
   2   0  -1   -0.22    1.65
   1   2  -5  745.59   12.37
   6  -6  -1    3.18    5.29
   5  -2  -5   35.74    7.61
   5  -2  -4   19.31    6.08
   5  -3  -2  105.37    7.67
   5  -5   0  296.43   10.72
   4  -1  -7    6.66    5.98
   4  -2  -1   86.78    5.99
   4  -3   0   10.58    3.19
   3   0  -2 1350.76   18.66
   3  -3   1 1569.84   16.07
   2   1  -7    2.51    3.84
   1   2  -4  551.60    9.80
   7  -7  -3    0.74    6.36
   7  -8  -2    9.64    6.80
   7  -9  -1   91.50    9.51
   6  -4  -6   -3.75    6.76
   6  -4  -4   16.04    6.47
   6  -5  -2  214.17   11.65
   6  -9   1  263.69   11.25
   5  -2  -6   56.51    8.01
   5  -2  -3   50.37    6.87
   4  -1  -2  806.66   16.63
   4  -6   2   70.14    4.49
   3   1  -5   48.85    5.41
   0   2  -7  379.69    8.54
   6  -4  -3   23.01    6.62
   6  -7   0  298.63   12.25
   6 -12   2   19.24    5.10
   5  -2  -7   19.90    7.47
   5  -6   1    0.39    3.55
   5  -8   2   12.47    4.06
   4  -1  -8   53.21    8.04
   4   0  -6   97.61    8.70
   4   0  -5   -2.58    4.36
   4   0  -4   51.01    6.12
   4  -4   1  184.70    7.13
   3   0  -8  172.11   10.41
   3   1  -6  244.94   10.62
   3   1  -4   94.22    6.36
   2   0  -9   -0.88    5.09
   2   1  -2  391.62    8.60
   1   2  -3 1850.72   16.14
   7  -7  -2  176.44   12.14
   7  -8  -1    6.11    6.06
   6  -3  -6    1.30    6.68
   6  -3  -4    0.16    6.24
   6  -4  -2    3.46    5.76
   6  -5  -1  237.10   11.64
   5  -1  -5   36.03    7.21
   5  -2  -2  183.02    9.68
   5  -3  -1  400.32   12.90
   5 -11   3  179.62    7.12
   4   0  -3   -1.26    3.54
   3   1  -3   78.85    5.63
   2   1  -8    8.00    5.09
   2   2  -5  400.63   10.74
   6  -3  -3  406.53   15.99
   6  -6   0   75.86    7.67
   6  -8   1   -1.07    4.88
   6 -11   2   67.31    6.40
   5  -1  -6  140.00   10.82
   5  -1  -4  102.73    8.29
   5  -4   0  122.19    7.37
   4   0  -7   -0.97    5.22
   4  -8   3   14.87    2.97
   3   1  -7   25.53    5.58
   2   2  -6   50.06    5.00
   2   2  -4  268.72    8.36
   7  -5  -4   47.28    8.30
   7  -6  -2   29.36    7.68
   7  -7  -1    1.58    5.71
   7  -9   0    9.34    5.66
   5  -1  -3   46.12    6.61
   4  -1  -1    2.14    3.14
   3   0  -1   -1.32    2.54
   3  -1   0  114.11    5.19
   2   2  -7  206.51    9.22
   7  -5  -3   54.02    8.17
   6  -2  -6   26.58    8.11
   6  -2  -5   10.06    6.34
   6  -2  -4    9.72    6.84
   6  -3  -2    4.54    5.78
   6  -4  -1   30.96    6.28
   6 -10   2    1.95    4.37
   5  -5   1   66.09    5.45
   5  -7   2  160.46    7.37
   5 -10   3   60.15    4.93
   4   0  -8   36.05    7.29
   4   1  -6  288.50   12.68
   4   1  -5    8.26    4.95
   4   0  -2  175.32    8.30
   4  -2   0   46.37    4.40
   3   1  -8   38.69    6.47
   3  -4   2   99.00    4.02
   2   1  -9    0.13    5.07
   2   2  -3  810.64   13.18
   0   2  -8  151.59    5.92
   7  -4  -4    3.79    6.11
   7  -5  -2   85.63    9.28
   7  -8   0   -4.37    5.20
   6  -2  -3   12.91    6.62
   6  -5   0  254.75   11.16
   6  -7   1   29.35    5.39
   5   0  -6  102.65    9.77
   5   0  -5   -2.31    5.49
   5   0  -4   41.98    6.75
   5  -1  -2  252.39   10.98
   5  -2  -1   58.43    6.11
   4   1  -7   10.78    6.15
   4   1  -4  192.27    9.37
   4  -5   2  207.86    6.77
   3   2  -6  117.46    7.78
   3   2  -5  390.93   12.13
   3   2  -4  248.32    9.30
   3   1  -2  941.84   15.53
   7  -4  -3    1.37    6.40
   7  -6  -1   -0.27    5.43
   6  -9   2   67.70    6.51
   5  -3   0   40.01    5.07
   4   1  -3    6.06    3.90
   4  -3   1  822.85   13.87
   3   2  -7  183.99    9.90
   3  -2   1 1380.50   14.97
   2   2  -8   89.08    7.33
   7  -3  -4    4.15    7.11
   7  -7   0  132.26    9.56
   6  -1  -6  185.48   12.82
   6  -1  -5   41.29    7.55
   6  -1  -4  295.52   14.44
   6  -2  -2   84.99    8.38
   6  -3  -1  485.16   15.49
   5   0  -3   -0.67    3.91
   4   1  -8   57.39    8.04
   2   1  -1  396.36    7.92
   7  -3  -3  145.14   11.35
   7  -4  -2    0.37    5.98
   7  -5  -1   76.94    8.48
   7  -9   1   99.97    8.38
   6  -4   0   24.41    5.65
   6  -6   1    0.44    4.20
   5   1  -5   32.30    6.83
   5  -4   1  280.23    9.67
   5  -6   2   42.69    4.78
   5  -9   3   95.81    5.46
   4   2  -5   52.56    6.51
   4   0  -1    0.15    3.06
   4  -7   3   52.32    3.68
   3   2  -8   60.67    7.24
   3   2  -3  822.79   15.37
   2   3  -6   33.21    4.54
   2   3  -5  107.03    6.00
   1   3  -4    3.14    2.17
   0   3  -6    0.72    2.16
   7  -6   0    4.04    5.70
   6  -1  -3   49.89    7.34
   6  -8   2   -2.04    4.46
   5   1  -6  128.47    9.87
   5   1  -4   94.66    8.35
   5   0  -2  229.05   10.53
   5  -1  -1   67.19    6.28
   4   2  -7   42.95    7.24
   4   2  -6   55.44    6.72
   4   2  -4   34.95    5.33
   4   1  -2  799.94   16.45
   4  -1   0  371.77   10.20
   2   2  -9   87.94    7.53
   2   3  -7   62.71    5.92
   2   3  -4   14.81    3.04
   2   2  -2   52.63    3.59
   1   2  -9  132.63    7.11
   7  -2  -4    2.84    6.08
   7  -3  -2   -1.48    5.83
   7  -8   1    1.61    5.30
   6   0  -6    8.95    6.29
   6   0  -5   -1.90    5.45
   5  -2   0   33.53    4.69
   3   3  -6  103.47    7.27
   3   3  -5  427.17   12.48
   3   1  -1  128.64    5.92
   0   3  -7    2.01    2.45
   7  -2  -3   20.70    7.19
   7  -4  -1    2.64    5.63
   6  -1  -2  423.76   15.05
   6  -2  -1   15.03    4.96
   5   1  -3   48.76    6.07
   4   2  -8   15.57    6.16
   4   2  -3   62.88    6.01
   4  -4   2    1.08    2.46
   3   3  -7  183.10    9.68
   3   3  -4   16.17    3.83
   3   2  -2  449.63   11.02
   3   0   0 1824.18   18.81
   7  -1  -4  118.27   10.97
   7  -5   0   60.91    7.38
   7  -7   1    0.98    5.21
   6   0  -3   -0.42    5.13
   6  -3   0    2.15    4.45
   6  -7   2  258.63   10.05
   5   2  -6   58.44    8.13
   5   2  -5   33.79    7.07
   5  -3   1  398.52   11.40
   5  -8   3   29.03    3.95
   4  -2   1   78.73    4.91
   2   3  -8    2.99    4.47
   2   3  -3  165.26    6.32
   1   3  -3  477.82    8.26
   7  -2  -2    4.60    6.30
   7  -3  -1  161.73   10.69
   6   1  -6  166.57   11.71
   6   1  -5   36.83    7.25
   5   2  -4   16.35    5.75
   5   1  -2  227.36   10.45
   5   0  -1   -0.99    3.59
   5  -5   2  158.80    7.03
   4   3  -6   26.05    6.04
   4   3  -5  341.92   12.77
   3   3  -8   -0.49    5.18
   3  -3   2  613.04    9.02
   7  -1  -3   40.97    7.44
   6   0  -2   11.49    6.11
   6  -1  -1   68.05    7.33
   6  -4   1   21.79    5.37
   5  -1   0  118.66    7.08
   4   3  -7  159.36   10.06
   4   3  -4    0.98    4.09
   4   2  -2  162.47    8.03
   3   3  -3  893.79   16.01
   3  -1   1  126.01    5.00
   2   4  -6   75.98    5.55
   7  -4   0    7.26    5.42
   7  -6   1    3.87    4.75
   6   1  -3   53.11    7.84
   6  -2   0   12.09    4.96
   6  -6   2    8.19    4.62
   5   2  -3   45.23    5.98
   4   3  -8    0.18    5.22
   4   0   0   41.40    4.06
   4  -6   3    2.05    2.49
   3   4  -6   29.67    5.16
   2   4  -7  263.11    9.62
   2   4  -5  500.88   11.62
   7   0  -3   -0.14    6.05
   7  -1  -2  105.71    9.73
   7  -2  -1   29.96    6.90
   6   2  -5   13.94    6.86
   5   3  -6   30.38    6.82
   5   3  -5  226.84   11.99
   5  -7   3    0.88    3.05
   4   3  -3  558.64   14.61
   3   4  -7  185.70    9.63
   3   4  -5  358.23   11.47
   2   4  -4   29.02    3.80
   7  -3   0    9.88    5.48
   7  -5   1   69.64    7.35
   7  -8   2    6.16    4.96
   6   2  -4    3.59    5.57
   6  -9   3  183.54    7.54
   5   3  -4   19.09    5.65
   5   1  -1   69.08    6.25
   5  -2   1   66.09    5.42
   5  -4   2   11.07    3.61
   4   4  -6   -0.64    4.69
   4   4  -5  111.26    8.10
   4  -3   2   70.95    4.44
   3   4  -4   59.59    5.35
   3   2  -1 1398.02   17.90
   2   4  -8   11.05    4.63
   2   3  -2  192.63    6.31
   2   2  -1 1066.15   13.02
   6   2  -3   18.01    6.61
   6   1  -2  418.84   14.94
   6   0  -1   -1.08    3.99
   6  -3   1  472.08   13.68
   5   2  -2  162.74    8.92
   5   0   0   72.86    5.94
   4   4  -7   70.18    7.67
   4  -1   1   -0.41    2.32
   3   4  -8   13.92    5.46
   3   3  -2  623.30   12.79
   3   1   0  108.30    5.19
   7   1  -3   37.64    7.70
   7   0  -2   -1.51    5.24
   7  -1  -1   54.09    7.78
   7  -7   2  155.72    8.97
   6   3  -5  277.65   14.18
   6  -1   0  461.50   14.36
   6  -5   2  224.38    9.33
   5   3  -3  326.94   12.59
   4   4  -8    9.50    6.01
   4   4  -4   31.87    5.00
   4   3  -2   69.59    5.86
   4   2  -1   84.77    5.94
   1   4  -8    0.74    3.06
   7  -2   0    5.30    5.41
   7  -4   1   -0.07    4.75
   6   3  -4   -1.32    6.00
   6  -8   3   -0.48    3.33
   5   4  -7   54.45    7.97
   5   4  -6    3.90    5.03
   5   4  -5  129.26    9.65
   4   1   0  374.68   10.38
   3   4  -3  676.47   14.02
   2   4  -3  936.56   14.15
   0   4  -6  198.35    5.12
   7   2  -4    1.79    5.89
   6   2  -2   88.58    8.48
   6   1  -1   69.94    7.47
   6  -2   1   22.26    4.91
   5   4  -4   69.75    7.55
   5  -1   1   68.34    5.50
   5  -3   2   98.35    5.88
   5  -6   3   -0.17    3.02
   4   4  -3  136.42    7.79
   4  -5   3  245.80    6.37
   3   5  -7   37.39    6.08
   3   5  -6   90.36    6.72
   3   5  -5   64.80    5.70
   2   5  -6   12.05    3.81
   7   1  -2  109.14    9.42
   7   0  -1    0.69    5.51
   7  -6   2   22.54    5.60
   6   0   0   18.42    5.39
   6  -4   2   -1.37    4.00
   5   3  -2  100.78    7.42
   5   2  -1   64.31    6.01
   4   5  -7   80.22    7.83
   4   5  -6   70.40    7.18
   4   5  -5  161.73    9.28
   3   0   1   -0.53    1.99
   3  -2   2  445.09    7.87
   2   5  -7   24.07    4.35
   2   5  -5   51.92    4.52
   7  -1   0  163.45   10.31
   7  -3   1  163.03    9.62
   6   4  -5   12.10    6.13
   6  -7   3   21.44    4.13
   5   5  -6   70.55    8.04
   5   4  -3  192.52   10.36
   5   1   0  110.97    6.86
   4   5  -4  357.64   12.41
   4   0   1   -0.44    2.42
   4  -2   2  153.05    6.00
   3   5  -8  132.43    8.48
   3   5  -4  646.84   14.50
   1   4  -3  317.10    6.83
   8  -1  -1   32.57    7.20
   7   3  -4    7.07    5.96
   7  -5   2   80.68    7.18
   6   4  -4    9.46    5.76
   5   5  -7   34.84    7.15
   5   5  -5   48.13    7.16
   4   4  -2    0.40    3.41
   4   3  -1  816.07   16.04
   3   4  -2  105.17    5.82
   3   3  -1 1546.84   19.11
   2   5  -4  188.76    7.08
   8  -2   0   -2.00    5.57
   7   2  -2    1.38    5.29
   7   1  -1   51.38    7.65
   6   3  -2   -0.41    4.95
   6   2  -1   17.96    5.14
   6  -1   1   61.23    6.21
   6  -3   2    1.09    4.18
   5   5  -4  197.62   11.03
   5   0   1   -0.82    3.04
   4   2   0   46.80    4.63
   3   2   0  620.75   11.59
   2   3  -1  169.18    5.67
   1   5  -7    9.36    3.10
   8   0  -1   -3.38    5.51
   7   0   0   25.42    6.47
   7  -2   1   21.41    5.69
   6   1   0  464.93   14.60
   5   4  -2    7.79    4.21
   5   3  -1  404.49   12.90
   5  -2   2  170.91    7.41
   4   6  -7    3.72    5.36
   4   6  -6   40.02    6.23
   4   5  -3  249.26   10.08
   3   6  -7   10.82    4.90
   3   6  -6  259.60   10.16
   3   5  -3   87.17    5.62
   2   4  -2  348.50    8.35
   7   4  -4    0.19    5.61
   6   5  -4  161.79   11.32
   5   6  -6   22.21    6.40
   5   5  -3   67.12    7.16
   5   2   0   33.55    4.88
   4   6  -5    5.92    4.46
   3   6  -5   28.76    4.51
   2   5  -3   73.68    4.60
   7   3  -2    2.86    5.32
   5   6  -5    1.27    4.66
   2   2   0  589.37    9.19
  -1  14  -3   35.99    5.97
  -1  15  -3    7.34    5.47
  -1  16  -3  221.30   11.65
  -1   7  -2   53.74    4.17
  -2   8  -1  684.06   14.16
  -2   5   0  531.68   10.74
  -3  11   0   21.87    5.23
  -3  18   0   56.37    8.87
  -4  15   2   27.28    7.96
  -4  11   3  161.48   10.48
  -4   9   4  166.43    9.92
  -4   9   7   79.26    8.06
   1   9  -4   26.01    3.01
  -1  12  -3  136.13    7.80
  -1  13  -3    5.57    4.27
  -1  17  -3    5.85    5.91
  -1  18  -3   46.36    7.71
  -2  13  -2  117.29    8.65
  -2  14  -2  221.87   11.45
  -2  15  -2    9.24    5.96
  -2  16  -2   -1.68    5.67
  -2  17  -2   15.40    6.80
  -2   3   1  172.97    5.59
  -3  10   0   14.34    4.52
  -3   4   3  693.26   13.03
  -3   3   5  440.28    9.96
  -3   3   6  109.55    5.56
  -4  12   2   81.65    9.41
  -4  13   2  304.05   14.57
  -4  14   2   63.64    8.80
  -4  16   2    6.86    6.53
  -4  10   3  101.93    8.42
  -4   8   4   63.68    6.80
  -4   8   5   12.25    5.06
  -4   8   6   18.24    5.43
   0  14  -4  492.69   13.60
   0  15  -4   -8.22    4.98
   0  16  -4    4.40    5.40
  -2  12  -2  193.37    9.87
  -2  18  -2   50.91    8.27
  -2   7  -1   27.34    4.01
  -3   9   0  155.13    8.59
  -3   5   2  393.57   10.45
  -3   3   4   15.86    3.08
  -4  11   2  130.42    9.90
  -4   9   3  164.17    9.45
  -4   7   5   20.51    5.15
  -4   7   6   46.42    6.28
  -4   8   7    9.14    5.35
   0  13  -4   -6.63    4.38
   0  17  -4   -2.65    5.22
  -1  11  -3  104.80    6.60
  -2  11  -2   49.34    5.67
  -3  14  -1   52.68    8.21
  -3  15  -1   57.00    8.59
  -3  16  -1  154.73   11.78
  -3  17  -1   53.21    9.18
  -3   6   1   63.31    5.34
  -3   3   7  186.18    6.70
  -4  14   1    7.15    6.92
  -4  15   1   32.85    8.09
  -4  16   1   27.96    8.34
  -4  10   2   -0.68    5.02
  -4   8   3   16.58    4.85
  -4   7   4  199.20    9.59
  -1  10  -3  541.74   12.73
  -1   6  -2 2499.91   21.15
  -2  10  -2    0.54    3.43
  -3  12  -1   99.58    8.71
  -3  13  -1   33.80    6.21
  -3   8   0  439.55   12.90
  -4  12   1   40.35    7.90
  -4  13   1   -1.78    5.53
  -4   9   2   98.89    8.11
  -4   7   7   12.86    4.98
  -2   6  -1  320.20    9.06
  -2   4   0   62.18    3.92
  -3  11  -1  472.44   15.25
  -3   4   2   99.15    5.55
  -4  11   1  194.58   11.35
  -4   7   3   49.43    5.80
  -4   6   5    1.57    3.87
  -4   6   6   45.18    5.80
  -1   9  -3   49.03    4.77
  -2   9  -2   34.97    4.60
  -3  10  -1  499.79   15.04
  -3   7   0  791.97   16.34
  -3   3   3  883.80   13.83
  -3   2   5  384.03    8.59
  -4  15   0    4.72    6.83
  -4  16   0   -2.24    7.00
  -4  10   1  101.84    8.85
  -4   8   2   25.86    4.98
  -4   6   4  125.08    7.54
  -4   6   7    4.38    4.62
  -2  15  -3   -3.68    5.79
  -2  16  -3  195.53   11.71
  -2  17  -3   27.07    7.19
  -3   5   1  109.04    6.05
  -3   2   6  113.26    5.10
  -4  13   0  197.25   12.44
  -4  14   0   33.16    7.43
  -4   9   1  205.22   10.62
  -4   6   3    4.73    3.79
  -4   5   5  158.30    8.03
  -5  13   3    4.03    6.89
  -5  11   4   10.46    6.40
  -5  12   4   34.80    7.26
  -5  11   5  117.00   10.19
  -2  13  -3   -2.83    4.81
  -2  14  -3   10.97    5.41
  -2   8  -2  822.32   15.69
  -2   2   1 1080.01   12.37
  -3  14  -2  187.43   11.73
  -3  15  -2   67.38    8.94
  -3  16  -2   -0.74    6.53
  -3  17  -2   -0.09    6.59
  -3   9  -1  159.10    8.93
  -3   2   4  242.05    7.02
  -4  12   0   39.48    7.18
  -4   7   2   70.37    6.50
  -4   5   4  341.06   11.07
  -4   5   6   77.87    6.31
  -5  12   3   10.03    7.03
  -5  10   5   38.40    7.46
  -1  14  -4  348.46   12.59
  -1  15  -4   -1.84    5.45
  -1  16  -4   35.27    6.47
  -1  17  -4    0.57    5.38
  -1   8  -3  249.06    8.00
  -2  12  -3   84.74    7.38
  -3  13  -2  216.81   12.09
  -3   6   0 1195.10   19.13
  -3   2   7  162.27    5.57
  -4  11   0   44.32    6.62
  -4   8   1   17.50    4.97
  -4   5   7   72.29    6.04
  -5  13   2  116.64   11.25
  -5  14   2   28.31    7.67
  -5  11   3  195.26   12.35
  -5  10   4   12.54    6.22
  -5   9   5   75.26    8.36
   1  14  -5   15.86    3.95
  -1  13  -4    8.39    5.09
  -2   5  -1  131.13    5.74
  -3  12  -2  193.63   11.04
  -3   8  -1  278.74   10.59
  -3   3   2  601.08   11.63
  -4  15  -1   39.32    8.44
  -4  16  -1   27.24    8.33
  -4  10   0   11.43    5.63
  -4   6   2   73.36    6.21
  -4   5   3  259.03    9.90
  -5  12   2  154.58   11.88
  -5  10   3   69.10    8.73
  -5   9   4   41.18    7.11
  -5   9   6    9.15    5.46
   1  13  -5    2.28    3.26
  -2  11  -3   45.89    5.62
  -2   7  -2   69.19    5.29
  -2   3   0  128.44    4.94
  -3  11  -2  147.59    9.38
  -3   4   1 1055.35   16.23
  -3   2   3  820.78   12.60
  -4  13  -1   -0.71    6.33
  -4  14  -1    5.16    6.04
  -4   7   1   59.95    6.26
  -4   4   5  103.55    6.49
  -4   4   6    1.29    3.83
  -5  14   1   10.40    7.39
  -5  15   1   43.16    8.45
  -5  11   2   43.29    7.60
  -5   9   3   90.70    8.75
  -5   8   5   12.92    5.96
  -5   8   6    5.45    5.70
  -1  12  -4  143.56    7.98
  -4  12  -1   28.02    7.44
  -4   9   0  331.26   12.90
  -4   4   4   30.46    4.54
  -5  12   1   16.34    7.40
  -5  13   1    0.95    6.03
  -5  10   2   -0.06    6.12
  -5   8   4   62.91    7.57
  -1   7  -3    5.70    2.76
  -2  10  -3  321.97   11.09
  -3  10  -2    9.65    4.30
  -3   7  -1   17.77    3.84
  -3   5   0 1577.69   20.98
  -4  11  -1  172.71   11.04
  -4   5   2  216.52    9.08
  -4   4   7   61.32    5.31
  -5  11   1  243.54   13.57
  -5   9   2   16.56    6.32
  -5   8   3   29.07    6.50
  -5   7   5    0.36    4.97
   1  12  -5   97.11    5.01
  -1  11  -4    4.96    3.65
  -3  15  -3   43.24    7.95
  -3  16  -3  124.39   10.74
  -3   1   5   46.72    3.49
  -4   8   0   97.54    7.55
  -4   6   1    2.51    3.82
  -4   4   3  138.18    7.21
  -5  14   0    4.89    7.32
  -5  15   0   39.83    8.35
  -5   7   4  178.54   10.14
  -5   7   6   81.40    7.71
  -2  15  -4   -3.04    5.35
  -2   9  -3    7.32    3.82
  -2   6  -2 1026.89   16.05
  -2   4  -1 1404.30   16.65
  -3  13  -3   11.63    5.92
  -3  14  -3   32.86    7.02
  -3   9  -2    1.83    3.70
  -3   1   6  246.32    6.08
  -4  14  -2   49.67    8.75
  -4  15  -2   27.91    7.89
  -4  16  -2   10.44    6.42
  -4  10  -1  105.27    8.56
  -5  13   0   74.72    9.34
  -5  10   1   79.12    8.77
  -5   8   2   15.02    5.80
  -5   7   3    0.41    4.64
   0   8  -4  575.61    9.91
  -1  10  -4   89.85    5.89
  -2  14  -4  235.95   11.57
  -3   6  -1   64.57    5.33
  -3   3   1 1591.71   19.03
  -3   2   2  438.71    9.52
  -3   1   4   99.27    4.44
  -4  13  -2  315.33   15.12
  -4   7   0  285.84   11.29
  -4   3   5  332.68    9.64
  -5  12   0   72.55    8.96
  -5   9   1  105.81    9.49
  -5   6   5   -1.54    4.91
  -5   6   6   17.36    5.75
   1  11  -5   43.23    3.71
  -1   4  -2  167.72    5.11
  -2  13  -4   14.63    5.31
  -3  12  -3   82.12    7.70
  -3   8  -2  389.83   12.45
  -3   4   0   96.70    5.84
  -4  12  -2   71.21    9.17
  -4   9  -1  200.53   10.49
  -4   5   1  396.83   12.11
  -4   4   2    1.17    3.32
  -4   3   4    4.09    3.25
  -4   3   6   17.87    3.91
  -5  15  -1   30.30    8.79
  -5  11   0   20.05    6.81
  -5   7   2  148.45    9.48
  -6  11   3  111.74   10.88
  -1  16  -5  136.96    9.28
  -1   6  -3  321.79    8.01
  -2  12  -4  218.13   10.43
  -2   8  -3  459.12   12.07
  -3  11  -3  352.11   13.57
  -4  11  -2  130.60   10.07
  -5  13  -1    3.71    6.91
  -5  14  -1   11.59    6.87
  -5  10   0   16.77    6.92
  -5   8   1   37.72    6.83
  -5   6   3   -4.41    4.14
  -6  12   2    9.18    6.90
  -6  10   3   19.14    7.54
  -6  10   4    0.27    6.08
   0  12  -5  108.06    6.17
  -1  15  -5    9.53    5.46
  -1   9  -4   25.70    3.89
  -2   2   0  584.09    9.52
  -3   1   3   78.26    4.18
  -4   8  -1   14.31    4.72
  -4   6   0  199.59    9.30
  -4   3   3  583.60   12.96
  -4   3   7  159.96    6.60
  -5  12  -1   17.89    7.48
  -5   5   4  199.28    9.89
  -5   5   5   52.47    6.37
  -6  11   2   73.03    9.71
  -6   9   4   36.27    7.68
  -1  14  -5   21.42    5.55
  -2  11  -4   -1.80    3.98
  -2   5  -2    9.67    3.01
  -3  16  -4    2.19    6.22
  -3  10  -3  394.03   13.71
  -3   7  -2  161.64    8.06
  -3   5  -1  109.99    6.33
  -4  15  -3   29.88    8.02
  -4  10  -2   -3.36    5.30
  -5   9   0   47.03    7.16
  -5   7   1   -1.39    4.92
  -5   6   2   39.90    6.20
  -5   5   6   68.18    6.63
  -6  12   1   -0.04    7.01
  -6  10   2   -4.71    6.70
  -6   9   3  187.66   12.27
   0  11  -5    0.27    3.54
  -1  13  -5    0.86    4.73
  -2   7  -3   20.02    3.70
  -2   3  -1  168.55    5.93
  -3  14  -4  139.42   10.63
  -3  15  -4    9.37    6.62
  -4  14  -3    5.12    6.57
  -4   7  -1   66.57    6.72
  -4   4   1  184.88    8.37
  -5  11  -1  232.48   13.25
  -5   5   3   52.90    6.17
  -6  11   1  159.29   12.57
  -6   8   4    6.11    6.17
  -6   8   5   -4.26    5.24
   0   7  -4    1.37    2.18
  -2  10  -4    6.96    3.90
  -3  13  -4   53.21    8.00
  -3   9  -3  129.52    8.30
  -3   3   0   77.63    5.13
  -3   2   1 1398.51   17.22
  -4  13  -3    0.25    6.12
  -4   9  -2   91.53    8.18
  -4   5   0  738.93   16.56
  -4   3   2   66.02    5.36
  -4   2   4   31.54    4.16
  -4   2   5   50.21    4.54
  -5  14  -2   28.70    8.42
  -5  10  -1   86.31    9.60
  -5   8   0   90.40    8.28
  -6  13   0  202.23   14.04
  -6  10   1   31.45    8.41
  -6   9   2   62.18    8.76
  -6   8   3   -0.32    6.06
  -1   8  -4  217.25    7.56
  -2  15  -5   -1.45    5.65
  -3   6  -2  956.46   17.84
  -3   1   2  939.92   13.13
  -4  12  -3   23.13    7.03
  -4   2   6   58.00    4.72
  -5  13  -2  100.73   10.40
  -5   6   1   -1.23    4.50
  -5   5   2  153.50    9.01
  -5   4   4   59.21    6.22
  -5   4   5  111.11    7.48
  -6  12   0   -5.02    6.61
  -6   7   4  203.67   11.86
  -6   7   5   12.76    6.04
  -2  14  -5    4.55    5.61
  -3  12  -4  128.10    9.46
  -3   8  -3  201.72    9.50
  -3   4  -1 1071.84   17.31
  -4  11  -3  144.96   10.71
  -4   8  -2   25.76    5.72
  -4   6  -1    3.78    4.16
  -4   2   3   68.69    5.15
  -5  12  -2  119.13   10.78
  -5   9  -1  101.41    9.26
  -5   7   0  284.52   12.81
  -5   4   3  185.41    9.34
  -5   4   6   -0.98    4.24
  -6  11   0   73.37    9.99
  -6   9   1  268.26   14.54
  -6   8   2   -3.47    5.39
  -6   7   3   20.14    6.50
   0  10  -5  435.26    9.70
  -1   5  -3   42.36    3.25
  -2   9  -4  150.41    7.79
  -2   6  -3  176.95    7.24
  -2   4  -2  361.54    9.05
  -3  11  -4   10.73    5.68
  -5  11  -2   46.26    8.69
  -6  10   0    5.10    7.13
  -2  13  -5    0.82    5.25
  -3   0   4  746.23   10.02
  -4  10  -3   93.94    9.03
  -4   4   0   48.23    5.05
  -4   3   1  805.29   15.78
  -5   8  -1   39.03    6.54
  -5   5   1   70.61    7.05
  -6  12  -1   -1.76    7.31
  -6   8   1   -0.84    6.36
  -6   7   2  270.98   13.43
  -6   6   4   53.23    7.40
  -6   6   5   -3.08    5.45
  -3  10  -4    4.42    5.05
  -3   5  -2  415.90   11.74
  -4  14  -4   25.86    7.42
  -4   7  -2   66.49    6.55
  -4   5  -1  386.12   12.55
  -4   2   2  149.37    6.97
  -5  10  -2   -2.21    5.55
  -5   6   0  174.70   10.00
  -5   4   2   11.00    4.49
  -5   3   4   21.53    4.85
  -6  11  -1  135.52   12.16
  -6   9   0   78.47    9.70
  -6   6   3    0.20    5.48
  -2  12  -5   58.26    6.55
  -2   8  -4  297.63   10.09
  -2   1   0   63.33    3.50
  -3   7  -3    8.55    3.70
  -3   2   0  610.09   12.00
  -4  13  -4  112.39   10.39
  -4   9  -3  176.15   10.60
  -5  13  -3   -2.52    5.85
  -5   9  -2   19.80    6.91
  -5   7  -1   -1.73    5.24
  -5   3   5  219.46    9.14
  -6   7   1   19.61    7.06
  -6   6   2   14.90    6.35
  -2   2  -1 1093.10   13.68
  -3   3  -1 1628.52   20.64
  -3   1   1  127.35    5.49
  -3   0   3    0.03    1.89
  -4  12  -4   26.89    7.34
  -4   1   4  190.20    6.95
  -4   1   5    7.48    3.19
  -5  12  -3   11.36    6.75
  -5   4   1  261.17   11.12
  -5   3   3  299.38   10.80
  -5   3   6   30.34    4.67
  -6  10  -1   30.14    8.00
  -6   5   4  161.81    9.86
  -6   5   5  111.29    8.76
   0   9  -5   -3.50    2.83
  -2  11  -5   26.52    5.67
  -2   5  -3   65.94    4.78
  -3  13  -5    8.70    6.34
  -3   9  -4   83.28    7.34
  -4   8  -3   15.96    5.67
  -4   6  -2   68.51    6.46
  -4   3   0    8.35    3.71
  -4   1   3    4.40    2.92
  -5  11  -3  205.30   13.31
  -5   8  -2   17.48    6.47
  -5   5   0  307.51   12.35
  -6  12  -2   22.04    8.50
  -6   9  -1  272.34   14.91
  -6   5   3  171.23   10.36
  -3   6  -3   43.17    5.12
  -4  11  -4   22.71    6.68
  -4   4  -1  184.61    8.89
  -4   2   1   84.89    5.75
  -5   6  -1   -0.46    4.32
  -5   3   2   95.25    7.00
  -6  11  -2   62.52   10.04
  -6   6   1    5.33    5.58
  -6   5   2  215.71   11.70
  -7   9   1   99.09   10.94
  -7   8   2    4.43    6.96
  -2  10  -5  224.16    9.94
  -2   7  -4   40.11    4.63
  -2   3  -2  184.29    6.47
  -3  12  -5   43.37    7.10
  -3   4  -2  101.05    6.12
  -3   0   2 1376.95   15.17
  -4  10  -4    4.38    5.80
  -4   1   6  261.91    7.02
  -5  10  -3   67.67    8.71
  -5   2   4   19.46    4.70
  -6   8  -1   -0.62    6.98
  -6   4   4   14.85    5.90
  -7   7   3   -3.86    6.02
  -1   4  -3  325.07    7.27
  -3   8  -4  229.18   10.33
  -4   7  -3   58.99    6.84
  -4   5  -2  208.11    9.83
  -4   1   2  826.84   14.67
  -5   7  -2  156.27   10.13
  -5   4   0  120.37    8.47
  -5   3   1  397.43   12.97
  -5   2   3   43.87    5.37
  -5   2   5   36.53    5.10
  -6  10  -2   -4.13    6.19
  -6   6   0   86.59    9.52
  -6   5   1  230.17   12.27
  -6   4   3   18.26    5.74
  -6   4   5   12.30    5.54
  -7   8   1    0.42    7.01
  -7   7   2  149.70   11.70
  -2  14  -6   99.38    8.61
  -3  11  -5  155.20    9.93
  -5  12  -4   37.04    8.49
  -5   9  -3   81.40    8.90
  -5   5  -1   63.87    6.92
  -6   9  -2   64.80    9.66
  -6   7  -1   36.95    8.04
  -6   4   2    0.49    5.13
  -6   4   6   -0.19    4.65
  -7   9   0   10.61    6.88
  -2   9  -5    9.33    4.51
  -3   5  -3   85.27    6.23
  -3   2  -1 1375.83   18.57
  -3   1   0  108.40    5.48
  -4  13  -5    0.12    6.08
  -4   9  -4  181.69   10.62
  -4   3  -1  826.66   17.15
  -4   2   0   50.56    5.05
  -5   6  -2   38.59    6.84
  -5   2   2  159.53    8.25
  -5   2   6   57.62    5.21
  -6  11  -3  108.16   11.47
  -7   8   0   -4.65    6.71
  -7   7   1    0.21    6.79
  -7   6   3    3.97    5.98
  -2  13  -6   58.10    7.23
  -2   6  -4  347.93   10.17
  -2   4  -3  929.91   14.77
  -3   7  -4  356.04   12.18
  -4  12  -5   10.58    6.48
  -4   6  -3    3.74    4.62
  -4   1   1    0.75    2.86
  -5  11  -4   11.27    6.48
  -5   8  -3   22.98    6.57
  -6   8  -2   -1.20    7.04
  -6   5   0  258.16   13.27
  -6   4   1   27.16    6.41
  -6   3   4   -1.69    4.94
  -7   9  -1   98.47   11.26
  -7   6   2   32.03    7.69
   0   8  -5  624.76    9.88
  -3   3  -2  614.18   13.31
  -3   0   1   -1.50    2.38
  -4   8  -4   70.03    7.83
  -4   4  -2    0.82    3.36
  -4   0   4   47.14    4.04
  -5  10  -4    7.41    6.94
  -5   4  -1  252.28   11.63
  -5   3   0   42.37    5.60
  -6  10  -3   36.43    9.01
  -6   6  -1    0.49    5.81
  -6   3   3  370.37   13.33
  -6   3   5  247.11   10.69
  -7   7   0  137.30   11.77
  -7   6   1    1.16    6.48
  -7   5   3   54.85    8.19
  -7   5   4   41.45    7.39
  -2  12  -6   84.28    7.70
  -2   1  -1  385.38    8.07
  -3   9  -5   69.49    7.38
  -4  11  -5   88.37    9.05
  -4   0   3   -0.61    2.46
  -5   7  -3   -0.69    5.67
  -5   5  -2  168.20   10.33
  -5   2   1   55.28    5.62
  -5   1   4   93.98    6.36
  -6   7  -2  256.53   14.32
  -6   3   2    5.87    5.02
  -7   8  -1   -0.81    7.48
  -7   5   2   81.80    9.09
  -2   8  -5  257.05    9.63
  -2   2  -2   51.61    3.85
  -3  13  -6   89.27    8.82
  -3   6  -4  561.52   14.66
  -3   4  -3  683.13   14.91
  -4  10  -5   59.54    8.07
  -4   5  -3  257.87   11.27
  -4   0   5    0.00    2.64
  -5   9  -4   34.06    7.88
  -5   1   3   53.51    5.15
  -5   1   5   37.44    4.76
  -6   9  -3  218.35   13.75
  -6   4   0   21.74    6.78
  -6   3   6   -0.29    4.37
   0  11  -6   -1.47    2.95
  -2  11  -6   21.11    5.78
  -3  12  -6   83.14    8.83
  -4   7  -4  202.14   10.58
  -4   2  -1   71.34    5.96
  -4   0   2  174.32    6.97
  -5   1   2  235.16    9.50
  -6   5  -1  223.53   12.51
  -6   3   1  487.08   16.08
  -7   7  -1   -0.10    7.25
  -7   6   0    3.76    6.30
  -7   5   1   67.69    9.09
  -7   4   3   -0.49    5.95
  -7   4   4    5.42    5.93
  -2   5  -4  190.16    7.59
  -3   8  -5  107.25    7.87
  -3  -1   3   79.61    3.74
  -4   9  -5  109.99    9.54
  -4   3  -2   63.64    6.20
  -4   1   0  359.60   10.64
  -5  11  -5  112.38   10.76
  -5   8  -4   68.93    9.02
  -5   6  -3    0.20    4.73
  -5   3  -1  399.38   13.75
  -5   2   0   42.19    5.75
  -6   8  -3    1.25    6.27
  -6   6  -2   10.09    6.62
  -6   2   3   13.72    5.07
  -6   2   4    5.45    4.98
  -7   4   2   -2.88    5.75
  -1   3  -3  487.50    8.62
  -2   7  -5    4.55    3.76
  -2   3  -3  163.06    6.51
  -3  11  -6   49.33    7.62
  -3   2  -2  446.78   11.36
  -3   1  -1  127.13    5.98
  -5   4  -2    9.44    4.85
  -5   1   1   65.34    6.07
  -6  10  -4    2.05    6.43
  -6   4  -1   31.24    7.55
  -6   3   0   -3.49    5.12
  -6   2   2   85.74    7.63
  -6   2   5    7.96    4.72
  -7   8  -2   10.74    7.45
  -7   6  -1    4.16    7.06
  -7   5   0   51.44    8.84
  -1  10  -6    0.62    3.58
  -2  10  -6   -0.61    4.57
  -3   5  -4  666.78   15.60
  -3   0   0 1864.47   19.81
  -3  -1   2  948.18   12.28
  -4   6  -4  121.04    8.50
  -4   4  -3  140.22    8.66
  -4   0   1    1.58    2.72
  -5  10  -5   36.10    8.34
  -5   7  -4  192.32   12.14
  -5   5  -3   64.80    7.79
  -5   1   6  118.61    5.90
  -6   9  -4   53.08    9.30
  -6   7  -3   23.71    7.17
  -6   5  -2  219.98   13.23
  -7   4   1    2.16    6.27
  -3   7  -5    1.65    4.23
  -3   3  -3  906.44   16.82
  -4   8  -5   16.61    6.10
  -6   2   1   25.41    5.95
  -7   7  -2  170.95   12.98
  -7   3   2    2.12    5.61
  -7   3   3  128.29    9.69
  -7   3   4    5.27    5.71
   0  10  -6    1.56    2.72
  -3  10  -6    3.35    5.32
  -4  11  -6   47.99    7.89
  -4   2  -2  147.67    8.32
  -5   9  -5   66.10    9.15
  -5   3  -2  100.39    8.22
  -5   2  -1   66.73    6.57
  -5   1   0  119.42    7.74
  -5   0   3   -2.29    3.26
  -5   0   4   43.94    4.87
  -6   8  -4    1.49    7.52
  -6   6  -3   -4.12    6.58
  -6   1   3   57.69    6.62
  -7   5  -1   70.09    9.05
  -7   4   0    8.90    6.77
  -2   9  -6    9.94    4.62
  -2   4  -4   30.58    4.12
  -4   5  -4  361.48   13.40
  -4  -1   3    4.92    2.75
  -5   6  -4  116.17   10.23
  -5   0   2  228.76    9.19
  -6   4  -2    3.06    6.77
  -6   3  -1  503.40   17.06
  -6   2   0   11.00    5.85
  -6   1   2  382.17   13.39
  -6   1   4  278.27   10.91
  -7   6  -2   34.77    8.23
  -7   3   1  162.15   11.28
  -1   9  -6   -1.51    3.33
  -2   6  -5   77.76    5.85
  -3   9  -6   -0.84    5.48
  -3   4  -4   57.91    5.69
  -3  -1   1  128.30    5.24
  -4  10  -6   -5.74    5.63
  -4   7  -5   18.69    5.76
  -4   3  -3  583.38   15.65
  -4   0   0   44.20    4.41
  -4  -1   2  841.21   14.19
  -4  -1   4  194.27    6.28
  -5   8  -5   18.91    7.19
  -5   4  -3  197.29   10.94
  -5   0   5   -1.09    3.40
  -6   7  -4  184.69   13.21
  -6   5  -3  186.33   12.68
  -6   1   5   32.98    5.32
  -7   7  -3    0.29    7.52
  -7   4  -1    1.64    6.85
  -7   2   3   12.43    6.13
  -2   1  -2  370.02    8.49
  -2   0  -1    0.25    1.98
  -3   6  -5   26.06    4.89
  -3   1  -2  925.85   15.85
  -5   0   1    0.97    3.49
  -6   1   1   58.18    6.98
  -7   5  -2   88.53   10.53
  -7   3   0   10.54    6.69
  -7   2   2    1.68    5.54
  -7   2   4    4.79    5.48
  -2   2  -3  797.36   13.37
  -3   0  -1    0.17    2.33
  -4   9  -6   25.34    6.80
  -4   6  -5    2.09    4.84
  -4   4  -4   34.81    6.01
  -5   7  -5    2.60    6.10
  -5   5  -4  194.32   11.88
  -5   2  -2  170.46    9.68
  -5   1  -1   61.05    6.60
  -6   3  -2   -1.16    6.47
  -6   2  -1   23.91    6.76
  -7   6  -3    6.13    7.53
  -7   2   1   26.90    7.11
  -2   8  -6  260.05   10.04
  -3   8  -6  128.95    8.84
  -3   2  -3  813.24   15.73
  -4   1  -2  801.35   17.10
  -4  -1   1    2.74    2.75
  -5   3  -3  320.90   13.55
  -5   0   0   73.10    6.45
  -6   8  -5    0.94    6.88
  -6   6  -4   52.71    8.65
  -6   1   0  427.24   15.23
  -6   0   3    0.81    4.55
  -7   3  -1  167.95   12.36
  -1   8  -6  344.03    9.41
  -2   5  -5   52.45    5.10
  -3   5  -5   71.83    6.68
  -3  -1   0  111.83    5.38
  -4   8  -6   16.23    6.68
  -4   2  -3   68.99    6.45
  -4  -1   5    8.01    2.59
  -5   9  -6    9.51    6.70
  -5  -1   3   52.32    5.17
  -6   0   2    8.81    4.68
  -6   0   4    9.65    5.14
  -7   4  -2    1.26    6.22
  -7   1   3   41.57    6.95
  -1   2  -3 1870.45   16.27
  -2   3  -4   14.61    3.46
  -3  11  -7   99.33    8.85
  -3   3  -4   19.04    4.24
  -5   6  -5    2.92    6.07
  -5   4  -4   57.10    7.26
  -5  -1   2  244.77    9.33
  -5  -1   4   94.50    6.01
  -6   7  -5   14.71    7.40
  -6   5  -4  159.25   12.38
  -6   2  -2   83.06    9.22
  -6   0   1   -0.73    4.57
  -7   5  -3   49.66    8.81
  -7   1   2   92.76    8.79
  -7   1   4  129.42    9.07
  -2   7  -6   -0.35    4.40
  -3   7  -6   56.95    7.04
  -4   5  -5  145.71    9.52
  -4   3  -4    5.59    4.57
  -4  -1   0  384.44   10.91
  -5   8  -6    6.37    6.58
  -5   2  -3   48.26    6.94
  -5   1  -2  231.38   10.91
  -5   0  -1   -0.62    4.16
  -5  -1   1   69.81    5.97
  -6   1  -1   57.16    7.17
  -7   3  -2    1.39    7.02
  -7   2  -1   28.66    7.98
  -7   1   1   50.83    7.67
  -3  10  -7  126.28    9.58
  -4   7  -6   46.46    7.24
  -5   5  -5   52.35    8.06
  -6   0   0   15.30    5.84
  -6   0   5   -0.32    3.69
  -7   4  -3    0.14    7.19
  -3   4  -5  361.87   12.34
  -3   1  -3   72.93    5.65
  -3   0  -2 1363.49   19.04
  -3  -2   2  434.26    8.28
  -4   0  -2  161.96    8.29
  -5   3  -4   11.97    6.03
  -5  -1   0  115.56    7.52
  -6   6  -5    1.81    6.17
  -6   4  -4   11.10    6.63
  -2   1  -3   88.08    5.04
  -2   0  -2 2546.03   21.89
  -3   9  -7   57.45    7.53
  -3   6  -6  283.30   11.80
  -3  -1  -1  125.07    6.02
  -4   4  -5   94.26    8.26
  -4   1  -3    5.53    3.73
  -4  -1  -1    1.32    3.32
  -4  -2   2  148.76    6.40
  -4  -2   3   72.55    4.52
  -5   7  -6   93.86    9.79
  -5  -1   5   38.46    4.21
  -6   2  -3   12.67    7.33
  -6   1  -2  429.20   16.15
  -6   0  -1   -1.75    5.11
  -6  -1   2  389.08   13.13
  -6  -1   3   54.16    6.25
  -7   5  -4   48.86    8.83
  -7   2  -2    3.91    7.06
  -7   1  -1   49.12    8.37
  -7   0   1   -0.81    5.37
  -7   0   2   -0.21    5.14
  -7   0   3   -2.53    5.38
  -8   2   0    2.21    6.62
  -1   7  -6   13.50    3.56
  -2   6  -6  352.23   11.10
  -2   4  -5  508.88   12.19
  -3   2  -4  244.05    9.56
  -3  -2   1 1415.12   16.02
  -4   9  -7   81.82    8.74
  -4   6  -6   42.41    7.10
  -4   2  -4   34.36    5.74
  -4  -2   1   80.74    5.25
  -5   4  -5  112.73    9.93
  -5   1  -3   50.42    7.02
  -5   0  -2  235.00   11.16
  -6   5  -5  123.51   11.54
  -6   3  -4    0.63    6.62
  -6  -1   1   55.40    6.68
  -6  -1   4  285.42   10.44
  -7   0   4   18.11    5.84
  -8   1   1   32.18    8.04
  -2   2  -4  281.65    8.77
  -2  -1  -1  401.48    8.24
  -5   6  -6   12.54    6.97
  -5   2  -4   21.21    6.34
  -5  -1  -1   68.04    6.61
  -5  -2   2  168.40    8.04
  -6  -1   0  455.59   15.40
  -7   4  -4    3.90    7.37
  -7   0   0   29.55    7.22
  -3   8  -7   61.39    7.67
  -4   8  -7    8.03    6.33
  -4   3  -5  330.98   13.16
  -4  -2   0   48.61    4.79
  -4  -2   4   33.42    3.32
  -5  -2   1   59.25    5.68
  -5  -2   3   47.25    4.89
  -6   4  -5   19.48    7.88
  -6   1  -3   57.78    8.57
  -6   0  -2   12.83    6.58
  -7   1  -2  115.49   11.00
  -8   1   0  122.19   11.10
  -3   5  -6   94.27    7.58
  -3   3  -5  417.57   12.89
  -3  -2   0  611.86   11.50
  -4   5  -6   73.62    8.03
  -4   0  -3   -2.52    3.64
  -5   5  -6   66.60    8.72
  -5   3  -5  200.63   12.20
  -6   2  -4   10.81    7.10
  -6  -1  -1   64.66    7.69
  -7   3  -4    9.93    7.68
  -7   0  -1   -1.77    6.17
  -7  -1   1   47.19    7.70
  -7  -1   2  103.00    8.71
  -7  -1   3   37.94    6.72
  -8   1  -1   30.98    8.25
  -3   0  -3    0.62    2.81
  -3  -1  -2  942.85   16.10
  -4   7  -7   10.91    6.36
  -4   1  -4  192.80    9.86
  -4  -1  -2  831.61   17.18
  -5   0  -3   -0.29    5.00
  -5  -1  -2  241.70   11.25
  -5  -2   0   39.80    5.08
  -5  -2   4   22.85    3.97
  -6  -2   1   20.92    5.83
  -6  -2   2   96.36    7.76
  -6  -1   5   35.58    4.83
  -8   0   1    1.68    6.43
  -1   9  -7   12.19    3.62
  -1   6  -6  635.97   11.70
  -1   1  -3   49.68    3.22
  -2   5  -6    4.94    3.77
  -2   3  -5   99.97    5.97
  -3   7  -7    4.94    5.69
  -3   1  -4  102.60    6.72
  -4  -2  -1   76.35    5.93
  -5   1  -4   87.05    8.42
  -6   3  -5  278.60   15.31
  -6  -2   3   15.19    4.92
  -7   0  -2    5.39    7.07
  -7  -1   0  161.72   11.20
  -7  -1   4  113.96    8.30
  -8   0   0   17.47    7.47
  -3   4  -6   27.65    5.72
  -4   4  -6   -0.02    5.27
  -5   4  -6    4.47    6.43
  -5   2  -5   32.82    7.34
  -5  -2  -1   60.34    6.50
  -6   1  -4  283.48   14.65
  -6   0  -3    2.28    5.69
  -6  -1  -2  417.43   16.15
  -6  -2   0   13.34    5.57
  -7   2  -4    3.17    7.39
  -7  -1  -1   45.21    8.31
  -8   0  -1    3.61    6.83
  -1   2  -4  567.10    9.86
  -2   0  -3    1.17    2.59
  -3   2  -5  388.75   12.40
  -3  -2  -1 1377.01   18.21
  -4  -3   2   72.93    4.79
  -6  -2   4    6.26    4.47
  -7  -2   2    7.78    5.72
  -8  -1   1   34.46    7.84
  -2   1  -4    1.51    2.72
  -2  -1  -2  403.91    8.99
  -3   6  -7   15.56    5.84
  -4   0  -4   44.81    6.08
  -4  -1  -3    3.36    4.14
  -4  -3   1  820.92   14.76
  -5   0  -4   37.36    6.73
  -5  -1  -3   60.14    7.27
  -5  -3   1  397.13   12.15
  -5  -3   2  111.39    6.59
  -6   4  -6    1.09    5.98
  -6   2  -5   11.48    7.35
  -6  -2  -1   23.10    5.71
  -7  -2   0    8.72    6.16
  -7  -2   1   23.69    6.42
  -7  -2   3   20.39    6.02
  -8  -1   0  106.62   10.63
  -2   4  -6   76.13    6.03
  -3  -1  -3   72.72    5.71
  -4   3  -6   21.28    6.06
  -4  -2  -2  152.83    7.94
  -4  -3   0   10.74    3.48
  -4  -3   3  558.37   10.34
  -5   3  -6   26.07    7.35
  -5  -2  -2  158.12    9.22
  -5  -3   0   37.76    5.30
  -5  -3   3  318.96    9.79
  -5  -2   5   35.26    3.81
  -6  -1  -3   53.00    8.32
  -6  -3   1  495.37   15.33
  -7   1  -4  108.89   11.01
  -7  -1  -2  107.82   10.13
  -1   8  -7   77.76    4.97
  -2   2  -5  394.81   10.80
  -3   3  -6   94.65    7.59
  -3   0  -4  760.98   16.22
  -3  -3   1 1613.22   17.16
  -3  -3   2  616.94    9.74
  -4   5  -7   72.86    8.30
  -4   1  -5   10.14    5.25
  -5   5  -7   32.06    7.90
  -5   1  -5   32.99    7.26
  -6   3  -6   -1.12    6.84
  -6   0  -4   14.11    6.57
  -6  -2  -2   84.18    8.89
  -6  -3   0    0.58    4.97
  -6  -3   2    1.25    4.45
  -7  -2  -1   27.58    7.45
  -8  -1  -1   32.16    7.59
  -1   5  -6   29.21    3.73
  -2  -2  -1 1073.90   13.48
  -3   5  -7   34.82    6.40
  -3   1  -5   43.65    5.45
  -3  -2  -2  436.09   11.19
  -3  -3   0   84.10    4.92
  -4  -3  -1  809.01   16.45
  -5  -3  -1  384.51   13.26
  -6   1  -5   38.95    7.78
  -6  -3   3  378.01   12.16
  -7   0  -4   20.72    8.22
  -7  -2   4    2.76    4.69
  -4   2  -6   59.51    7.51
  -5   4  -7   56.46    8.66
  -5   2  -6   52.02    8.40
  -5  -1  -4   94.08    8.77
  -5  -2  -3   48.22    7.00
  -5  -3   4   18.93    3.99
  -6  -3  -1  506.37   16.79
  -7  -2  -2    5.93    6.75
  -7  -3   0    8.34    6.07
  -7  -3   1  141.11   10.12
  -7  -3   2    3.74    5.53
  -4   4  -7   63.27    8.05
  -4  -1  -4  192.62    9.77
  -4  -2  -3   64.57    6.05
  -5   0  -5   -0.35    6.07
  -5  -3  -2   93.72    7.90
  -6   2  -6   28.65    7.45
  -6  -1  -4  294.25   14.52
  -6  -2  -3   21.92    6.68
  -7  -3   3  147.19    9.56
  -1   7  -7    2.64    3.10
  -2   3  -6   30.89    4.57
  -2   0  -4 1870.38   21.68
  -2  -1  -3   90.39    5.16
  -3   7  -8  100.24    8.37
  -3   2  -6  106.26    7.61
  -3  -3  -1 1565.14   19.67
  -4   0  -5   -1.01    3.96
  -4  -3  -2   69.49    6.17
  -4  -3   4    2.19    2.48
  -5  -4   0  119.22    7.78
  -5  -4   1  267.68   10.16
  -5  -4   2   10.62    3.86
  -6   0  -5   -2.12    5.86
  -6  -3  -2    5.91    6.19
  -6  -4   1   29.88    6.13
  -6  -3   4    1.64    4.08
  -7  -3  -1  156.22   11.14
  -1   0  -3   -1.16    1.89
  -3   4  -7  174.50    9.62
  -3  -1  -4   99.63    6.79
  -3  -2  -3  804.19   16.02
  -4  -4   0   49.75    5.12
  -4  -4   1  180.85    7.42
  -5   3  -7  136.34   11.25
  -5   1  -6  119.07   10.56
  -6   1  -6  160.55   12.59
  -6  -4   0   21.23    5.86
  -6  -4   2   -0.21    4.64
  -7  -3  -2    2.94    6.62
  -1   1  -4   35.99    3.24
  -2   1  -5   13.11    3.45
  -2  -2  -2   54.82    4.08
  -3   0  -5    0.29    3.61
  -4   3  -7  182.38   11.18
  -4   1  -6  259.05   12.37
  -4  -4   2    1.33    2.63
  -5  -1  -5   37.82    7.52
  -5  -2  -4   18.02    6.07
  -5  -3  -3  314.96   13.32
  -5  -4  -1  277.21   11.59
  -6  -2  -4    4.22    6.97
  -6  -3  -3  396.13   16.36
  -6  -4  -1   28.97    6.87
  -7  -4   0    7.57    6.48
  -7  -4   1    2.99    6.13
  -7  -3   4    5.23    4.79
  -3   6  -8  133.23    9.10
  -3  -3  -2  607.91   13.39
  -4  -1  -5   10.28    5.07
  -4  -2  -4   29.19    5.68
  -4  -3  -3  571.25   15.56
  -4  -4  -1  191.00    8.62
  -5   2  -7   19.39    7.74
  -5  -4   3  195.50    7.79
  -6  -1  -5   35.13    7.66
  -6  -4   3   20.47    5.23
  -7  -4  -1    1.87    6.23
  -7  -4   2   -1.10    5.48
  -3   3  -7  184.95   10.06
  -3   1  -6  231.23   10.37
  -5   0  -6   98.05    9.97
  -5  -4  -2   10.72    4.63
  -6   0  -6   13.52    7.73
  -6  -4  -2    0.65    5.98
  -7  -3  -3  125.96   11.08
  -1   6  -7   56.66    4.46
  -2   7  -8   23.60    4.94
  -2   2  -6   52.77    5.20
  -2  -3   0  132.66    4.70
  -4   2  -7   36.38    6.99
  -4   0  -6   86.58    8.49
  -4  -4  -2    0.56    3.71
  -4  -4   3  145.80    5.66
  -7  -4   3   -1.47    5.00
  -2  -1  -4    2.21    2.89
  -3   5  -8  130.40    9.02
  -3  -1  -5   44.16    5.41
  -3  -2  -4  253.05    9.80
  -3  -4   0  106.91    5.32
  -3  -4   1 1046.62   14.07
  -4   4  -8    7.80    5.77
  -5   1  -7   19.23    7.11
  -5  -2  -5   24.93    7.17
  -5  -3  -4   23.66    5.86
  -5  -4  -3  192.22   10.97
  -5  -5   0  301.96   11.41
  -5  -5   1   64.47    5.84
  -6  -2  -5    8.23    6.44
  -6  -3  -4    0.12    5.81
  -6  -4  -3   23.78    7.61
  -6  -5  -1  236.71   12.36
  -6  -5   0  265.76   12.14
  -6  -5   1  220.45   10.63
  -2   0  -5   -1.46    2.87
  -2  -2  -3  782.91   13.63
  -2  -3  -1  171.61    5.79
  -3   2  -7  166.23    9.60
  -3  -3  -3  879.72   16.87
  -3  -4  -1 1049.09   16.47
  -4  -2  -5   65.19    7.41
  -4  -3  -4    3.08    4.46
  -5  -1  -6  141.29   11.20
  -5  -5  -1   59.11    6.31
  -5  -5   2  144.62    7.34
  -6  -1  -6  158.75   12.44
  -6  -5   2  207.74    9.81
  -6  -4   4   14.47    4.48
  -7  -5  -1   68.04    8.98
  -7  -5   0   54.00    7.86
  -7  -5   1   58.17    7.58
  -3   0  -6  337.65   12.30
  -3  -4   2  108.19    4.44
  -4   3  -8   -0.07    5.85
  -4   1  -7    7.33    5.72
  -4  -4  -3  143.86    8.67
  -4  -5   0  727.29   15.14
  -4  -5   1  403.88   10.81
  -5  -5  -2  158.06    9.79
  -6  -5  -2  218.82   12.54
  -7  -5   2   84.24    8.09
  -7  -4   4    4.17    4.55
  -1   0  -4 1892.72   18.20
  -2   3  -7   49.80    5.40
  -2   1  -6  110.27    6.71
  -3   4  -8   12.63    5.81
  -3  -4  -2  106.39    6.45
  -4  -1  -6  272.63   12.59
  -4  -5  -1  379.60   11.73
  -5   0  -7   -3.17    6.24
  -5  -3  -5  207.02   12.45
  -5  -4  -4   67.76    8.23
  -2  -3  -2  189.67    6.64
  -4  -5  -2  207.06    9.57
  -5  -2  -6   60.18    8.86
  -5  -5  -3   60.26    7.49
  -6  -2  -6   28.87    7.53
  -6  -5  -3  179.18   11.71
  -6  -6   0   84.87    8.17
  -3  -3  -4   16.29    3.91
   6  -4  -6    2.61    7.21
   6   9   3  191.03   11.96
   5   2  -4   22.34    7.53
   5   8   1   29.55    6.43
   4   1  -4  180.17   10.43
   4   3  -3  581.92   17.33
   4   8   2   26.97    5.46
   2   2  -2   53.28    4.56
   7   6  -2   41.96   10.94
   6   0  -5    1.87    7.93
   6   7  -1   30.77    8.27
   6   8   0   11.61    7.93
   6   9   2   59.44    8.75
   5  -4  -6    3.95    7.07
   5   4  -3  199.88   12.61
   5   9   3   84.89    8.43
   5   9   4   38.60    6.87
   4   5  -2  214.64   11.38
   4   6  -1    9.51    4.70
   4   7   0  267.82   11.83
   3   0  -4  786.57   17.36
   3   2  -3  815.93   17.54
   3   5  -1  105.52    7.02
   3   6   0 1178.66   20.18
   7   3  -4    4.84    8.24
   7   5  -3   66.04   12.22
   7   9   1   95.72   11.61
   6  -3  -6    0.22    7.39
   6   3  -4   -0.69    8.31
   6   5  -3  194.72   15.08
   5   0  -5    0.56    6.58
   5   6  -2   46.48    8.51
   5   7  -1   -0.52    5.96
   5   8   0   98.62    9.60
   5   9   2   13.74    6.10
   5   9   5   64.95    7.05
   4  -1  -5    7.72    5.50
   3  -3  -5  423.31   12.42
   3   4  -2  104.78    7.48
   2  -2  -4  275.27    8.48
   2   6   2  977.73   13.47
   6   1  -5   43.95   10.16
   5  -3  -6   27.57    8.15
   5   3  -4   27.03    7.99
   4  -5  -6   72.16    7.66
   4   2  -4   41.02    6.93
   4   4  -3  142.40   10.18
   4   8   1   19.07    5.27
   3   7   1   12.93    3.94
   2  -6  -5   79.75    4.66
   7   4  -4    1.45    9.54
   7   7  -2  170.73   15.11
   7   8  -1    1.55    7.88
   6  -2  -6   26.69    9.15
   6  10   3   23.20    7.83
   6  10   4    6.02    6.59
   5   1  -5   35.33    8.36
   5   5  -3   52.22    8.34
   5   9   1   94.30    9.15
   3  -8  -6  123.55    6.42
   2   4  -1 1393.82   18.85
   2   5   0  510.14   11.18
   7   6  -3    1.37    8.49
   6  -1  -6  147.05   13.82
   6   2  -5    8.73    9.23
   6   4  -4   22.75    8.85
   6   6  -3    2.31    8.68
   6  10   2    4.92    6.75
   5  -2  -6   58.13    9.32
   4  -4  -6   -0.39    5.39
   4   0  -5    4.12    5.29
   4   6  -2   63.96    7.94
   4   7  -1   74.36    8.02
   4   9   3  177.98    9.27
   4   9   4  174.13    8.78
   3  -2  -5  384.07   12.38
   3   1  -4   95.04    7.31
   3   3  -3  917.67   19.42
   3   8   3  189.74    7.80
   3   8   4  229.16    7.85
   2   1  -3   94.20    5.79
   6  10   1   36.65    8.52
   5   4  -4   70.21   10.23
   5   7  -2  158.15   11.74
   5   8  -1   38.86    7.41
   5  10   3   60.21    8.17
   4   8   0   97.89    8.12
   4   9   2   83.37    7.21
   3  -7  -6   58.87    5.59
   3   6  -1   75.13    6.44
   3   7   0  793.29   17.52
   3   8   2  374.27   11.24
   2   3  -2  196.95    7.78
   2   6   1  330.53    8.88
   7   5  -4   34.15   10.36
   7   8  -2   14.83    9.20
   6   0  -6    2.21    8.53
   6   5  -4  154.99   14.81
   6   8  -2    4.08    8.66
   5  -1  -6  127.28   11.64
   5   2  -5   37.41    9.16
   5   6  -3   -3.98    7.02
   5   9   0   60.70    8.08
   5  10   2   -2.86    5.45
   5  10   4   11.60    5.99
   4  -3  -6   14.49    6.25
   4   3  -4    2.00    4.94
   4   5  -3  277.58   13.64
   4   9   5  102.68    6.59
   3   5  -2  394.13   13.21
   2  -5  -5   47.64    4.06
   2  -1  -4   -0.52    3.21
   7   7  -3   -4.26    8.58
   6   3  -5  286.25   17.60
   6   7  -3   21.65    9.94
   5  10   1   75.03    9.70
   5  10   5   31.97    6.21
   4   1  -5    7.82    5.87
   4   9   1  205.98   10.77
   3  -6  -6  275.44    9.69
   3  -1  -5   50.40    6.27
   3   8   5  108.28    5.19
   6   1  -6  166.70   14.74
   6  11   2   69.42   10.02
   5   0  -6   80.15   10.69
   5   5  -4  200.61   14.61
   5   8  -2   21.73    8.43
   5   9  -1   97.42   10.68
   4  -2  -6   62.12    8.19
   4   7  -2   71.58    8.64
   4   8  -1   12.42    5.83
   3   2  -4  245.95   10.99
   3   4  -3  693.30   17.68
   3   8   1  277.97   10.55
   6   4  -5   12.41    9.83
   6   6  -4   44.92   11.22
   6  11   1  134.81   12.31
   5  -5  -7   26.58    7.60
   5   3  -5  215.71   14.26
   5   7  -3   -3.71    7.66
   4   4  -4   26.53    6.54
   4   9   0  334.95   14.23
   3  -5  -6   86.22    6.83
   2  -4  -5  499.46   10.67
   2   2  -3  785.17   15.38
   2   5  -1  127.86    6.69
   2   6   0  575.74   12.77
   2   7   3   22.97    3.09
   6   2  -6   28.81   10.19
   6   8  -3    1.97    9.56
   6   9  -2   66.11   10.80
   5  -4  -7   48.30    9.04
   5  10   0   14.31    6.79
   4  -1  -6  279.13   13.69
   4   2  -5   45.47    7.15
   4   6  -3    5.74    5.51
   4  10   2   -1.20    4.84
   4  10   3   93.43    7.69
   3   0  -5   -2.77    4.11
   3   6  -2  953.62   20.88
   3   7  -1    8.79    4.20
   2   0  -4 1889.29   23.25
   2   4  -2  354.36   10.91
   2   7   2   67.39    4.56
   6   5  -5  135.26   14.55
   6  11   0   78.18   11.21
   5  -3  -7  114.32   11.05
   5   1  -6  119.33   11.83
   5   4  -5  120.27   12.62
   5   6  -4  121.95   12.74
   5  11   2   44.77    7.86
   5  11   3  187.90   11.67
   5  11   4   16.97    6.49
   4  10   4    4.57    4.82
   3   3  -4   18.73    5.30
   3   8   0  444.50   13.95
   6   3  -6    0.21    8.88
   6   7  -4  209.75   16.37
   5   8  -3   25.12    9.32
   5   9  -2   21.41    7.97
   5  10  -1   69.67   10.62
   5  11   1  221.87   13.47
   4  -6  -7    2.62    5.38
   4   3  -5  347.37   15.88
   4   5  -4  350.52   15.70
   4   8  -2   20.27    6.98
   4   9  -1  203.82   12.47
   4  10   1   97.98    8.66
   3   5  -3   87.71    7.58
   3   9   2    0.86    3.88
   3   9   3  134.27    7.05
   2   7   1   27.26    4.06
   6   9  -3  216.76   17.11
   6  10  -2    5.32    8.06
   6  12   1    7.38    7.82
   6  12   2   19.64    7.97
   5  -2  -7   20.61    8.49
   5   2  -6   56.81   10.16
   4   7  -3   57.45    8.12
   3   1  -5   39.19    6.16
   3   9   1  156.61    9.00
   3   9   4   82.02    5.67
   2   3  -3  157.06    8.00
   6   6  -5    2.19    8.60
   6   8  -4    9.49   10.37
   5   5  -5   63.46   10.18
   5   7  -4  207.77   15.00
   5  11   0   19.77    7.29
   4  10   0    7.46    5.24
   4  10   5   52.70    5.58
   3   4  -4   59.73    7.41
   3   7  -2  174.92   10.36
   3   8  -1  278.54   12.15
   2   1  -4   -0.61    3.36
   2   6  -1  333.02   10.86
   6   4  -6   -0.76    7.88
   5  -1  -7   21.85    7.92
   5   3  -6   27.36    9.39
   5   9  -3   99.09   12.39
   5  12   2  126.72   11.07
   4   1  -6  265.56   13.93
   4   4  -5   97.15   10.46
   4   6  -4  122.79   10.76
   3  -2  -6  111.41    8.17
   3   6  -3   49.58    7.06
   2   5  -2    3.61    3.45
   2   7   0   15.67    3.97
   6   7  -5   12.87   10.43
   6  10  -3   37.14   11.20
   5   6  -5   -4.37    8.52
   5  12   1   10.32    7.40
   5  12   3   10.91    6.91
   4  -3  -7  157.52   10.98
   4   8  -3   23.38    7.96
   4   9  -2   96.29    9.68
   4  10  -1  111.11   10.51
   4  11   1  177.60   11.31
   4  11   2  135.58    9.50
   4  11   3  147.56    9.34
   3   2  -5  394.39   14.50
   3   9   0  152.29    9.07
   1   2  -2    7.20    2.29
   6   9  -4   58.48   12.30
   6  12  -1    5.87    7.98
   5   8  -4   65.95   10.84
   5  12   0   69.45   10.11
   5  12   4   38.34    7.21
   4   2  -6   66.82    9.25
   4   5  -5  161.75   12.47
   3  -1  -6  263.18   11.81
   2   2  -4  279.42   10.43
   2   4  -3  948.92   18.72
   5   1  -7   26.27    8.94
   5  10  -3   74.80   11.93
   4  -2  -7   47.03    8.49
   4   7  -4  205.23   13.40
   4  11   0   41.42    7.78
   4  11   4   24.48    5.52
   3   3  -5  439.16   15.84
   3   5  -4  649.13   19.04
   3   8  -2  380.69   14.73
   3   9  -1  169.83   10.37
   3  10   2   12.02    4.56
   2  -1  -5   10.40    3.80
   2   8   2  819.42   14.07
   6   8  -5   -2.12    8.71
   6  11  -3  125.66   14.73
   5   5  -6   72.94   11.79
   5   7  -5   -3.55    7.65
   5   9  -4   57.08   11.32
   4  -1  -7   15.23    7.35
   4   3  -6   27.35    8.01
   4   9  -3  190.04   13.72
   3   0  -6  350.62   13.72
   3   7  -3    6.70    5.21
   3  10   1  492.85   14.89
   3  10   3  384.38   11.48
   2   6  -2 1017.71   19.89
   2   7  -1   29.04    5.02
   2   8   1  697.58   14.34
   2   8   3  457.37    9.48
   6  10  -4    3.79    9.32
   5   2  -7   21.17    9.24
   4   6  -5    9.95    8.02
   4   8  -4   72.56   10.36
   4  11  -1  184.57   12.86
   3  10   0   15.78    5.29
   2   0  -5   -0.46    3.71
   2   3  -4   14.21    4.50
   1   4  -1  201.22    6.71
   5   3  -7  122.47   13.51
   5   6  -6    8.05    9.36
   5   8  -5   18.19   10.20
   5  11  -3  213.68   16.45
   5  13   0   81.77   10.96
   5  13   3   -0.58    6.67
   4   0  -7   -6.02    6.93
   4   4  -6    2.82    7.41
   4  12   1   32.04    6.92
   4  12   2   72.36    7.98
   4  12   3   26.10    6.76
   3   1  -6  236.44   12.17
   3   4  -5  367.01   15.19
   3   6  -4  553.97   18.44
   2   5  -3   75.10    6.59
   2   8   0  550.31   14.01
   1   1  -3   51.82    4.08
   1   3  -2  458.34   10.34
   1   5   0 1264.92   15.44
   5  10  -4   12.03    9.92
   5  12  -2  147.73   13.73
   4  10  -3   91.94   11.61
   4  12   0   44.76    8.41
   3   8  -3  218.54   12.72
   3   9  -2    4.27    5.15
   3  10  -1  515.52   17.40
   3  10   4    6.08    3.99
   5   4  -7   70.25   11.65
   4   1  -7    7.53    6.95
   4   5  -6   59.05   10.05
   4   7  -5   25.22    8.27
   4   9  -4  196.23   14.87
   3  -5  -7   32.52    5.51
   3   2  -6  107.83    9.58
   3   5  -5   61.92    8.54
   3   7  -4  372.68   16.30
   3  11   1  461.78   15.18
   3  11   2  146.07    8.90
   2   1  -5    6.49    4.10
   2   4  -4   28.73    5.36
   2   7  -2   74.98    7.13
   2   8  -1  702.30   17.01
   5   7  -6   73.51   11.65
   5   9  -5   91.17   12.50
   5  12  -3   16.36   10.04
   4   2  -7   30.82    8.98
   4  12  -1   31.70    8.00
   3  -4  -7  179.68    9.20
   3  11   0   18.84    6.41
   2  -5  -6    5.09    3.43
   2   6  -3  180.89    9.86
   2   9   1    5.70    4.01
   5   5  -7   35.81   10.50
   5  11  -4   15.21   10.09
   5  14   0    8.35    8.27
   4   8  -5   16.18    9.39
   4  13   2  286.74   13.78
   3   3  -6  105.37    9.91
   3   9  -3  141.82   11.45
   3  11   3  346.07   11.45
   2  -4  -6   75.06    5.43
   2   2  -5  402.99   13.30
   2   9   2   35.25    4.23
   1   2  -3 1861.09   21.12
   1   5  -1   68.54    4.90
   5   8  -6    3.51    9.37
   5  10  -5   41.39   11.92
   4   3  -7  177.67   13.40
   4   6  -6   45.53    9.25
   4  10  -4    3.46    9.06
   4  11  -3  163.65   13.62
   4  13   0  197.37   13.22
   3   6  -5   19.59    7.49
   3   8  -4  247.65   14.36
   3  11  -1  471.26   17.35
   2  -3  -6   32.19    4.66
   2   5  -4  197.66   10.45
   2   9   0  341.24   11.78
   1   4  -2  157.57    6.82
   5  13  -3    1.21    9.25
   4  -2  -8   15.34    7.42
   4  13  -1   -1.03    7.49
   3  -1  -7   20.12    6.27
   3   4  -6   26.79    7.22
   2   7  -3   19.99    5.60
   1   6   0 1059.83   15.39
   5   9  -6   11.06   10.30
   5  12  -4   42.16   10.96
   4  -1  -8   52.68    9.03
   4   4  -7   56.29   10.20
   4   7  -6   52.12   10.55
   4   9  -5  117.19   12.57
   3   0  -7   -0.97    5.81
   3   7  -5   -0.08    6.96
   3  10  -3  400.31   17.72
   2   3  -5  106.24    8.20
   2   9  -1    4.70    4.17
   1   0  -4 1832.02   20.10
   1   3  -3  476.42   11.78
   5  11  -5  128.22   14.53
   4   0  -8   29.49    8.29
   4   5  -7   78.09   11.22
   4  11  -4   27.89    9.12
   4  12  -3   24.84    8.90
   3   5  -6   99.31   10.27
   3   9  -4   82.76   10.27
   3  12   2  200.70   10.38
   3  11   4   13.45    4.30
   2   6  -4  345.83   13.89
   1   5  -2  264.19    9.40
   4   1  -8   61.01    9.94
   4   8  -6   20.04    9.61
   4  10  -5   78.14   12.19
   3   1  -7   18.64    6.48
   2   0  -6  516.26   14.39
   2   4  -5  495.15   15.95
   2   8  -3  461.67   16.11
   2  10   0   18.79    4.99
   2  10   1  443.07   12.87
   1   1  -4   36.21    4.22
   1   6  -1  477.84   11.67
   4   6  -7    2.10    8.58
   4  12  -4   32.72   10.49
   4  13  -3   -1.67    8.60
   3   2  -7  164.52   11.44
   3   6  -6  300.03   16.02
   3   8  -5  110.16   10.83
   3  11  -3  357.21   17.48
   3  12   3   76.06    6.90
   2   1  -6  113.09    8.28
   2  10  -1  445.28   15.04
   2  10   2   -0.25    3.19
   1   4  -3  322.67   10.51
   4   2  -8    9.46    7.57
   4   9  -6   36.71   10.82
   4  11  -5  110.15   13.62
   3   3  -7  185.44   12.80
   3  10  -4    7.70    6.79
   3  12  -2  201.98   13.13
   2   5  -5   54.23    7.26
   2   7  -4   41.89    6.55
   1   2  -4  556.26   12.99
   1   7   0  401.74   10.46
   1   7   1   14.69    3.04
   4   3  -8    2.74    7.57
   4   7  -7   15.83    9.66
   3   7  -6   71.11   10.65
   3   9  -5   90.58   11.83
   2   2  -6   55.32    6.67
   2   9  -3    8.94    5.93
   1   6  -2 2487.56   28.54
   4   4  -8    5.87    8.92
   4  10  -6   -5.05    9.23
   4  13  -4  136.15   14.82
   4  14  -3    5.60    9.39
   3   4  -7  177.25   12.79
   3  11  -4   17.26    9.28
   2   3  -6   33.56    6.61
   2   6  -5   77.90    8.52
   2  11   0   -1.45    4.38
   1   3  -4    2.26    3.59
   1   5  -3   43.49    5.05
   1   7  -1   13.47    3.64
   4   8  -7    6.80    9.14
   4  12  -5   20.42    9.57
   3   5  -7   35.12    9.26
   3   8  -6  139.84   13.10
   3  10  -5  269.24   16.91
   4  11  -6   56.43   11.96
   3  -3  -8    1.31    4.86
   3  12   4  128.41    7.00
   2   4  -6   75.52    8.08
   2   7  -5    2.51    6.11
   2  10  -3  317.80   14.97
   1  -2  -5  734.09   11.96
   1   4  -4   14.57    4.43
   1   6  -3  332.36   11.97
   1   7  -2   54.29    5.76
   1   8   0  433.74   11.56
   4   9  -7   77.72   11.83
   4  13  -5    6.35   10.37
   4  14  -4   22.36    9.57
   4  15  -3   25.62   10.43
   3   0  -8  168.14   11.29
   3   6  -7   16.81    8.39
   3   9  -6   -3.50    8.16
   3  12  -4  151.73   13.53
   2   9  -4  161.28   11.29
   1   8  -1  365.29   11.79
   1   8   1  385.95    9.83
   3   1  -8   26.73    8.00
   3   2  -8   63.55    9.50
   3  11  -5  178.48   14.52
   2   5  -6    8.05    6.12
   2   8  -5  263.35   14.48
   2  12   0  370.65   13.96
   1   1  -5   14.28    4.12
   1   5  -4  310.35   11.84
   3   3  -8   -1.42    7.26
   3   7  -7   -0.66    7.81
   3  10  -6    3.60    8.91
   3  13  -4   55.29   11.43
   2  -3  -7   42.28    5.29
   2   0  -7    1.65    4.74
   2   1  -7    1.14    5.78
   2   6  -6  358.99   16.02
   2  10  -4    9.06    7.02
   2  11  -3   57.93    8.26
   1   2  -5  755.01   16.36
   1   7  -3    7.30    4.19
   1   8  -2 1081.29   21.08
   3   4  -8   14.96    8.46
   3   8  -7   64.53   11.26
   3  12  -5   55.12   11.22
   2  -4  -7  249.39    8.15
   2   2  -7  180.68   10.88
   2   9  -5    5.71    7.50
   2  11   3   57.46    5.37
   1   3  -5  156.93    8.91
   1   6  -4  564.94   16.30
   1   9  -1   83.41    6.90
   3  11  -6   63.94   11.70
   2   3  -7   50.88    8.00
   2   7  -6   -2.47    6.91
   2  11  -4   -2.41    7.20
   2  12  -3   87.50   10.32
   1   8  -3  258.19   11.78
   1   9   1   83.05    5.69
   1   8   2 1033.91   13.53
   3   5  -8  126.59   12.45
   3   9  -7   61.22   11.50
   3  13  -5    4.96    9.60
   3  14  -4  143.54   13.86
   3  15  -3   51.77   11.16
   2   4  -7  249.47   13.44
   2  10  -5  245.37   15.38
   2  13  -2  134.22   11.46
   1   4  -5  264.74   11.28
   1   7  -4  138.70    9.45
   1   9  -2   -1.17    3.78
   3   6  -8  123.00   12.85
   3  12  -6   80.44   12.84
   3  13   4   51.70    5.42
   2   5  -7   21.12    7.33
   2   8  -6  292.05   15.55
   1   5  -5   25.67    5.61
   1   9  -3   58.50    7.49
   1  10  -1  700.75   17.53
   3   7  -8  110.85   13.02
   3  10  -7  139.17   13.83
   3  14  -5   22.71   10.39
   3  15  -4   11.70   10.07
   2   6  -7   36.61    8.77
   2   9  -6    6.95    8.32
   2  11  -5   29.36    9.67
   2  12  -4  250.25   15.33
   2  13  -3   -0.22    6.41
   2  14  -1    7.79    6.49
   1   8  -4  225.93   11.97
   1  10  -2    7.72    5.00
   3  11  -7  110.13   14.06
   3  13  -6   92.99   13.93
   1   1  -6   77.90    6.67
   1   6  -5  120.28    8.82
   1  10   1  687.14   14.59
   2   7  -7    1.44    7.21
   2  10  -6    5.85    8.27
   2  12  -5   73.00   11.44
   2  13  -4   24.43    8.78
   2  14  -3    8.15    8.48
   2  12   3   84.51    6.11
   1   2  -6   47.63    5.75
   1   3  -6   33.66    6.02
   1   7  -5   -3.29    5.51
   1   9  -4   26.25    6.88
   1  10  -3  514.34   17.30
   1  11  -1  140.69    9.14
   1   9   2   -2.66    2.57
   3  16  -4    1.72    8.29
   3  15   3   41.49    6.44
   2   1  -8    1.45    6.31
   2   8  -7  101.96   11.77
   2  15  -1    3.29    6.88
   1  -2  -6   44.31    4.20
   1   4  -6   53.46    6.67
   1   8  -5  165.65   11.35
   1  11  -2   52.95    6.77
   1  11   0   12.89    4.68
   0   3  -2   -2.96    2.09
   2   2  -8   76.11    8.91
   2   3  -8   -4.57    6.81
   2   4  -8    8.52    7.23
   2   9  -7   13.63    8.78
   2  11  -6   21.51    8.61
   2  13  -5    1.03    8.77
   2  14  -4  257.77   16.87
   1   5  -6   23.60    6.10
   1  10  -4   86.00    8.89
   1  11  -3  109.36    9.46
   0   4  -2 1510.75   18.53
   2  -2  -8   80.76    6.77
   2   5  -8   54.62    9.13
   2  12  -6  100.65   12.72
   2  15  -3    3.21    7.51
   2  14   2  234.66   10.86
   1  -3  -6   34.84    3.71
   1   6  -6  629.93   19.28
   1   9  -5   33.16    8.10
   1  12  -1  182.75   10.64
   1  11   1  143.81    7.81
   0   2  -3 2384.13   22.07
   0   3  -3   -3.86    3.09
   0   5  -2   -5.91    3.41
   0   5  -1   -2.51    2.32
   2   6  -8  115.93   11.68
   2  10  -7  137.06   13.57
   2  14  -5    5.42    9.26
   2  15  -4   -6.58    8.74
   2  16  -2   -1.44    7.77
   2  15   1    2.17    5.38
   1   7  -6   21.15    7.41
   1  11  -4    5.42    5.97
   1  12  -3  142.66   11.26
   1  12   0  179.75    9.71
   1  10   2    4.02    2.98
   0   4  -3 2565.66   26.70
   3  16   3  111.07    8.63
   2   7  -8   36.18    9.55
   2  11  -7   28.79   10.27
   2  13  -6   67.15   12.16
   2  16  -3  218.94   16.03
   2  13   3    4.00    4.16
   1   8  -6  355.65   16.34
   1  10  -5  373.25   16.77
   1  13  -1   10.52    5.70
   0   5  -3   -3.55    3.09
   0   6  -2 3155.58   30.63
   0   6  -1  916.43   15.09
   2   8  -8   79.65   11.32
   2  15  -5   -0.77    9.47
   2  16  -4    7.64    9.04
   1   2  -7  333.50   12.68
   1   3  -7   57.12    7.29
   1   9  -6    5.83    7.54
   1  11  -5   49.80    9.75
   1  12  -4  140.33   11.48
   1  13  -3    5.76    7.15
   1  13   0   33.05    6.49
   1  12   1  185.42    9.06
   0   6  -3  445.44   12.90
   0   7  -2   -5.70    3.50
   0   7  -1   -4.05    3.46
   2   9  -8   32.03    9.70
   2  12  -7   34.12    9.62
   2  14  -6  120.18   14.09
   2  17  -3   29.59    9.87
   2  17  -2   11.05    8.66
   2  15   2    4.09    5.80
   1   1  -7    1.49    4.58
   1   4  -7  190.17   11.05
   1   5  -7    5.26    5.83
   1  13  -4   15.10    8.66
   0   1  -4    0.91    2.95
   0   2  -4  687.29   13.35
   0   3  -4   -1.30    3.19
   0   4  -4   25.65    4.51
   0   5  -4    0.53    3.92
   0   7  -3   -3.14    4.41
   0   8  -2 2571.05   31.01
   0   6   0 1178.78   15.12
   2  17   0    0.66    6.60
   1   6  -7   50.16    8.08
   1   7  -7    0.81    6.60
   1  10  -6    4.74    6.97
   1  12  -5  109.43   11.49
   1  14  -3   43.95    9.57
   1  14  -2  294.70   14.68
   1  14  -1   40.90    7.51
   1  11   2   63.94    5.05
   0   6  -4  615.26   16.25
   0   8  -3 1277.06   23.68
   0   8  -1 2220.63   26.56
   0   7   0   -4.02    2.63
   2   2  -9   97.53    9.53
   2   3  -9   33.69    7.91
   2   4  -9  115.77   11.09
   2  18  -2   58.03   10.43
   2  14   3    9.12    4.53
   1  -1  -7    3.06    3.99
   1   8  -7   93.28   10.68
   1  11  -6   23.06    9.06
   1  13  -5    4.26    8.33
   1  14  -4  392.52   19.13
   1  14   0  570.36   17.47
   1  13   1   14.69    5.00
   0   7  -4   -0.33    4.66
   2  18  -1   68.85   10.52
   1   9  -7   14.06    8.47
   1  12  -6   28.48    9.46
   1  15  -3    7.28    8.44
   1  15  -2   22.33    8.12
   1  15  -1   21.76    7.14
   0   3  -5   -1.40    4.23
   0   4  -5 1014.21   19.80
   0   5  -5   -2.38    4.25
   0   8  -4  591.44   17.62
   0   9  -3   -0.37    4.37
   0   9  -1   -3.43    3.40
   0   8   0 1335.63   18.69
   2  18   0   30.53    8.03
   1  -2  -7  333.03    9.25
   1  10  -7  194.80   14.71
   1  14  -5   23.64    9.66
   1  15  -4    6.82    8.98
   1  12   2   26.65    4.61
   0   2  -5  898.64   16.46
   0   6  -5  168.34    9.80
   0   7  -5   -3.32    4.88
   0   9  -4   -2.43    5.43
   0  10  -3  657.87   18.93
   0  10  -2   -0.07    3.81
   0  10  -1  973.12   19.69
   1   3  -8    0.77    6.05
   1   4  -8   -4.78    6.34
   1   5  -8   37.62    8.17
   1   6  -8  153.49   12.05
   1  11  -7   24.08    9.70
   1  13  -6   34.12   10.07
   1  16  -3  217.18   15.36
   1  16  -2    3.42    7.52
   1  15   0   -0.20    5.50
   1  14   1   39.97    6.23
   0   1  -5   -4.92    2.99
   0   8  -5  634.05   19.30
   0  10  -4   75.94    8.70
   0  11  -3   -1.80    5.60
   0  11  -2   -2.82    4.62
   0   9   0   -4.38    3.14
   2  15   3    0.18    4.48
   1   2  -8  131.90    9.33
   1   7  -8   26.00    8.29
   1   8  -8   64.82   10.06
   1  12  -7   49.98   10.59
   1  14  -6  127.67   13.86
   1  15  -5    9.29    8.35
   1  16  -4   34.94   10.17
   1  16  -1  237.66   13.81
   0   9  -5   -4.67    6.38
   0  11  -4   -4.92    6.22
   0  11  -1   -2.56    4.20
   0  10   0  187.26    8.60
   1   9  -8    4.48    8.10
   1  17  -3    5.70    8.51
   1  17  -2   -1.22    7.66
   1  16   0   41.02    7.84
   1  13   2   69.29    6.17
   0   4  -6  211.04   10.28
   0   5  -6    2.25    4.80
   0   6  -6  741.79   19.99
   0   7  -6   -2.31    5.96
   0  12  -3  138.45   10.38
   1  10  -8   20.29    8.89
   1  -3  -7   52.16    4.17
   1  13  -7    0.79    7.64
   1  16  -5  146.60   14.02
   1  17  -4    2.76    8.51
   1  17  -1   18.09    7.80
   1  15   1   16.22    5.77
   0   2  -6   38.36    5.23
   0   3  -6    0.53    3.96
   0   8  -6  623.04   20.18
   0  11  -5   -8.46    7.10
   0  12  -4  517.52   19.18
   0  13  -3   -2.33    6.42
   0  13  -2   -1.04    5.80
   0  12  -1  188.45   10.36
   0  11   0   -0.67    3.98
   0   8   1 2174.94   20.92
   1  18  -3   50.91   10.32
   1  18  -2  117.28   12.21
   0   9  -6   -1.46    5.77
   0  10  -6   -2.63    7.07
   0  12  -5  101.04   11.55
   0  13  -4    2.79    8.46
   0  13  -1   -2.72    4.83
   2  18   2   44.71    7.49
   2  16   3  208.71    9.25
   1   6  -9   17.75    7.89
   1  -1  -8    5.83    4.55
   1  18  -1   38.61    8.53
   1  17   0    3.06    6.31
   1  14   2  283.49   10.46
   1  11   3   98.62    5.13
   0   1  -6    1.73    3.44
   0  11  -6    0.27    7.49
   0  -1  -5   -0.75    2.25
   0  13  -5   -1.30    7.74
   0  14  -3   18.86    7.82
   0  14  -2  420.97   17.01
   0  12   0  869.93   18.83
   0   9   1   -4.86    3.14
   1   3  -9   25.36    7.40
   1   4  -9  106.21    9.98
   1   5  -9    6.51    6.69
   0   4  -7  458.34   15.37
   0   5  -7   -0.24    5.25
   0   6  -7   80.34    8.67
   0   7  -7    3.23    6.74
   0   8  -7  221.12   13.69
   0  12  -6  143.03   13.11
   0  14  -4  506.65   20.48
   0  14  -1   21.85    6.42
   0  10   1  951.13   16.04
   1  18   0   58.60    9.10
   1  15   2   10.88    5.39
   0   3  -7    0.25    5.15
   0   9  -7   -6.93    6.96
   0  10  -7  228.57   14.99
   0  13  -6    1.35    8.30
   0  14  -5    9.60    7.63
   0  15  -4   -3.47    8.09
   0  15  -3    3.54    7.22
   0  15  -2   -1.35    6.84
   0  13   0   -2.91    4.66
   1  19  -1    5.58    7.39
   1  12   3  136.07    6.02
   0   2  -7  408.44   12.95
   0  11  -7   -1.03    8.10
   0  14  -6  171.29   14.71
   0  15  -5    4.41    9.10
   0  16  -3  479.96   20.42
   0  15  -1   -1.68    6.05
   0  11   1   -4.48    3.03
   1  -2  -8  128.99    6.27
   0  12  -7   57.18   10.44
   0  16  -4    2.26    7.40
   0  16  -2    6.81    6.56
   0  14   0  796.40   19.65
   0  12   1  186.83    8.60
   1  19   0   30.89    7.75
   1  18   1   45.15    7.80
   1  16   2    8.40    5.39
   0   5  -8    3.32    6.39
   0   6  -8  163.15   11.52
   0   7  -8   -3.11    6.80
   0   8  -8  115.92   11.25
   0   9  -8   -5.73    7.15
   0  13  -7   -3.77    6.98
   0  -1  -6    0.76    2.88
   0  15  -6    1.03    7.87
   0  16  -5  287.11   17.54
   0  17  -4    1.56    8.52
   0  17  -3   -7.19    7.78
   0  17  -2   -1.76    7.11
   0  16  -1  551.45   19.22
   0  15   0   -2.41    5.95
  -1   7  -4  136.15    8.76
  -1   8  -4  234.91   11.37
  -1   6  -3  303.06   10.73
  -1   7  -3    4.35    4.23
  -1   8  -3  263.79   11.20
  -1   9  -3   56.67    6.97
   1   0  -9   -0.80    4.23
   1  13   3    4.85    3.62
   0   4  -8    7.10    6.26
   0  10  -8   20.25    7.76
   0  13   1   -0.48    4.02
  -1   5  -4  312.89   11.01
  -1   6  -4  576.89   15.26
  -1   9  -4   23.91    5.78
  -1  10  -4   84.21    8.77
  -1   5  -3   45.46    5.00
  -1  10  -3  526.03   16.57
  -1   6  -2 2468.11   26.74
  -1   7  -2   39.37    5.48
  -1   8  -2 1068.14   19.82
   0   3  -8   -0.40    5.37
   0  18  -3   80.55   10.52
   0  18  -2   93.01   11.19
   0  17  -1   -4.78    6.36
   0  16   0    3.71    5.94
  -1   5  -5   19.27    4.86
  -1   6  -5  114.14    8.22
  -1   7  -5   -0.43    4.33
  -1   8  -5  173.67   10.52
  -1   9  -5   21.00    6.21
  -1  10  -5  385.27   16.48
  -1   4  -4   14.01    3.89
  -1  11  -4    1.98    5.40
  -1  12  -4  158.81   11.89
  -1   4  -3  313.14    9.57
  -1  11  -3  112.14    9.06
  -1  12  -3  145.21   10.79
  -1   5  -2  255.88    8.65
  -1  10  -2    6.41    4.02
  -1  11  -2   58.37    6.90
   1  17   2   -0.54    5.12
   0   2  -8  159.24    9.46
   0  14   1   12.69    4.65
  -1   8  -6  363.25   15.38
  -1   9  -6   -7.11    6.10
  -1   4  -5  263.88   10.49
  -1  11  -5   45.24    8.13
  -1  12  -5  118.16   11.64
  -1  13  -4   18.42    8.50
  -1  13  -3    5.69    6.66
  -1  12  -2   22.96    5.99
  -1   8  -1  371.12   11.12
  -1   9  -1   79.09    6.38
   1  14   3   40.09    4.70
   0   6  -9   28.60    7.93
   0  18  -1   80.54    9.84
   0  17   0   -2.16    5.66
   0  15   1   -1.85    5.13
   0   9   2   -5.25    2.45
  -1   6  -6  618.00   17.85
  -1   7  -6   10.85    5.55
  -1  10  -6   -0.83    6.11
  -1  11  -6   27.01    8.48
  -1  13  -5    2.19    7.67
  -1   3  -4    4.58    3.19
  -1  14  -4  383.55   18.13
  -1   3  -3  464.63   10.70
  -1  14  -3   43.85    8.91
  -1   4  -2  158.41    6.32
  -1  13  -2   75.02    8.61
  -1   6  -1  488.13   11.11
  -1   7  -1   14.81    3.38
  -1  10  -1  720.05   16.81
  -1  11  -1  155.25    8.95
   1  18   2  110.86    8.71
   0   5  -9   -3.57    6.48
   0  19  -1   -3.22    7.10
   0  10   2   -0.22    2.47
   0  11   2   -1.80    2.85
  -1   5  -6   29.29    5.63
  -1  12  -6   41.07    8.65
  -1  13  -6   26.57    9.05
  -1   3  -5  162.99    7.90
  -1  14  -5   21.60    8.66
  -1  15  -4    3.11    8.19
  -1  15  -3    7.50    7.67
  -1  14  -2  291.11   14.24
  -1  12  -1  186.34   10.02
   1  15   3   10.03    4.19
   0   4  -9  190.43   11.49
   0  -1  -7   -1.37    3.25
   0  -2  -6   39.93    3.47
   0  18   0   50.15    8.42
   0  16   1  553.34   16.37
  -1   7  -7    2.05    6.10
  -1   8  -7   92.63    9.86
  -1   9  -7   11.72    7.57
  -1  10  -7  203.28   13.99
  -1  11  -7   27.27    9.01
  -1   4  -6   61.56    6.31
  -1  14  -6  143.60   13.61
  -1  15  -5   10.70    8.67
  -1   2  -4  551.86   11.73
  -1  16  -4   39.45    9.44
  -1   3  -2  452.01    9.42
  -1  15  -2   12.47    7.40
  -1   5  -1   70.50    4.39
  -1  13  -1   14.03    5.38
   0   3  -9   -0.92    5.77
   0  12   2  354.06    9.83
  -1   5  -7    5.46    5.56
  -1   6  -7   59.93    7.75
  -1  12  -7   58.08   10.18
  -1  13  -7    5.03    8.10
  -1   3  -6   28.69    5.13
  -1   2  -5  746.49   14.61
  -1  16  -5  135.66   13.50
  -1  16  -3  226.24   14.30
  -1  14  -1   42.35    7.03
   0  19   0   -1.27    6.06
   0  17   1   -6.59    6.01
   0  13   2   -3.73    3.70
  -1  17  -4    0.87    7.06
  -1  17  -3   10.64    8.16
  -1  16  -2    9.20    6.40
  -1   4  -1  200.56    6.29
  -1  15  -1   16.76    6.64
  -1   8   0  434.98   10.81
  -1   9   0   63.58    5.26
  -1  10   0  203.08    8.58
  -1  11   0    7.31    4.05
   1  16   3  188.45    8.14
   0   0  -8  717.67   14.63
   0  14   2  402.46   11.73
  -1   7  -8   31.72    7.98
  -1   8  -8   80.25    9.73
  -1   9  -8    9.27    7.21
  -1  10  -8   15.89    7.66
  -1   4  -7  201.64   10.39
  -1  18  -3   51.09    9.90
  -1  17  -2   -4.32    6.75
  -1  16  -1  225.14   12.82
  -1   7   0  397.24    9.74
  -1  12   0  173.19    8.96
  -1  13   0   25.60    5.93
   0  18   1   82.81    8.76
  -1   6  -8  148.72   10.66
  -1   3  -7   48.96    6.20
  -1   2  -6   48.44    4.98
  -1   1  -5   14.15    3.34
  -1   1  -4   35.49    3.69
  -1  18  -2  109.14   11.45
  -1  14   0  569.82   16.61
  -1   5  -8   37.51    6.87
  -1   1  -3   48.82    3.55
  -1  17  -1    9.72    6.95
  -1   6   0 1071.91   14.45
  -1  15   0   -2.67    5.70
  -1  18  -1   38.54    8.14
  -2   9  -5    9.88    6.20
  -2  10  -5  254.64   13.78
  -2  11  -5   32.94    8.42
  -2  12  -5   77.29   10.03
  -2   9  -4  155.80   10.08
  -2  10  -4    4.34    5.93
  -2  11  -4   -1.96    6.11
  -2  12  -4  257.71   14.24
  -2   8  -4  299.04   12.46
  -2  13  -4   22.56    7.60
  -2  10  -3  333.84   13.44
  -2  11  -3   54.27    7.17
  -2  12  -3   91.86    8.71
  -2  -1  -3   88.88    5.10
  -2  -4  -2  366.76    9.39
  -3 -12   4  123.68    4.96
  -4   1  -5    6.91    4.82
  -4 -10  -1   88.66    7.48
  -4 -12   1   32.07    5.46
  -5  -5  -4  199.98   12.02
  -5 -11  -1  211.31   11.83
  -6   4  -6   -1.69    6.07
  -6  -3  -5  266.43   15.22
  -6  -6  -4   51.88    8.74
  -2  -9   1    5.30    2.48
  -3  -1  -4   98.11    6.61
  -3  -7  -2  166.88    8.37
  -3 -10   0   15.55    4.18
  -3 -12   3   72.99    4.80
  -4  -4  -4   33.70    6.38
  -5  -2  -5   40.49    7.83
  -5  -8  -3   37.74    7.11
  -5 -10  -2   -2.03    5.70
  -6   2  -6   33.15    8.18
  -6   3  -6    0.73    6.11
  -6  -9  -3  226.12   14.28
  -6 -12  -1   -0.27    6.34
  -2  -8   0  551.29   10.97
  -3  -5  -3   96.60    6.91
  -3  -9  -1  172.35    8.29
  -3 -11   1  460.75   11.59
  -4   0  -5   -0.34    4.22
  -4  -7  -3   48.65    6.32
  -4  -9  -2   90.57    7.95
  -4 -13   2  276.18   10.25
  -5   5  -6   63.53    7.62
  -5   6  -6   12.38    6.10
  -5   7  -6   73.56    7.56
  -5  -6  -4  108.48    9.89
  -5 -14   2   22.86    5.93
  -6   1  -6  152.57   11.91
  -6  -4  -5   15.32    8.01
  -6  -7  -4  207.22   13.58
  -6 -11  -2   62.84    9.45
  -2   6  -4  343.68    7.16
  -2  -2  -3  809.37   14.12
  -2  -5  -2    1.59    2.97
  -2 -10   2    1.13    2.28
  -3  -2  -4  248.60    9.95
  -4  -1  -5    4.76    4.73
  -4  -5  -4  365.81   14.17
  -5   3  -6   30.75    6.88
  -5   4  -6    1.10    5.56
  -5  -3  -5  217.62   12.53
  -5 -12  -1   11.56    6.03
  -6   0  -6    1.87    7.14
  -2  -7  -1   26.73    3.70
  -3 -12   2  201.01    7.71
  -4 -11  -1  176.19    9.87
  -4 -12   0   30.83    5.40
  -5   2  -6   55.91    7.69
  -5  -4  -5  112.68   10.65
  -5  -7  -4  218.67   13.34
  -5  -9  -3   93.61    9.34
  -5 -11  -2   44.15    7.82
  -6  -1  -6  163.62   12.55
  -6  -5  -5  130.41   11.61
  -6  -8  -4    8.97    7.78
  -6 -10  -3   27.80    7.84
  -2   3  -4   16.03    2.98
  -3   3  -5  430.98   11.84
  -3   4  -5  358.05   10.50
  -3   7  -5    1.54    3.21
  -3  -3  -4   19.18    4.64
  -3  -6  -3   45.34    5.72
  -3  -8  -2  369.64   11.98
  -4  -2  -5   45.64    6.91
  -4  -8  -3   20.39    5.41
  -4 -10  -2   -1.59    4.96
  -4 -13   1   -1.95    3.90
  -5   1  -6  119.35    9.86
  -6  -6  -5    0.55    7.38
  -6 -12  -2   16.21    7.47
  -1  -4  -1  206.08    5.65
  -2   2  -4  277.45    8.09
  -2  -3  -3  155.09    6.87
  -3   2  -5  378.66   11.57
  -3   8  -5  116.29    5.52
  -3 -10  -1  533.44   14.16
  -3 -11   0   23.01    4.27
  -4  -6  -4  130.21    9.34
  -4 -14   3    6.00    3.93
  -5   0  -6   86.91    9.28
  -5  -5  -5   61.94    9.21
  -5  -8  -4   71.06    9.54
  -5 -10  -3   60.03    9.15
  -6  -2  -6   34.10    7.94
  -6  -9  -4   41.84    9.40
  -6 -11  -3  121.59   11.71
  -2  -6  -2 1022.50   16.81
  -2  -9   0  332.96    9.03
  -3   1  -5   52.61    5.79
  -3   9  -5   75.36    4.48
  -3  -4  -4   47.70    5.95
  -3 -12   1   97.78    6.37
  -4  -3  -5  348.61   13.84
  -4  -9  -3  184.05   10.99
  -4 -14   2   54.95    6.16
  -5  -1  -6  132.62   10.84
  -5 -12  -2  124.55   10.59
  -5 -13  -1   -1.23    5.64
  -6  -3  -6   -0.10    6.86
  -6  -7  -5   11.66    8.05
  -2   1  -4   -1.84    2.67
  -2  -8  -1  707.73   13.75
  -2 -10   1  430.98    9.49
  -3  -7  -3   11.55    4.27
  -3  -9  -2    1.38    3.93
  -4   3  -6   15.95    5.62
  -4   4  -6   -0.62    4.56
  -4   5  -6   64.55    6.54
  -4  -4  -5  109.69    9.46
  -4  -7  -4  219.81   12.03
  -4 -11  -2  132.24    9.47
  -4 -12  -1   31.49    5.99
  -5  -2  -6   54.38    8.73
  -5  -6  -5   -2.22    6.57
  -6  -4  -6    1.95    7.48
  -6 -10  -4    7.12    7.70
  -1  -2  -2    6.28    1.92
  -2   0  -4 1874.17   21.81
  -2  -4  -3  939.48   16.44
  -3   0  -5   -0.75    3.64
  -3  -5  -4  652.98   17.00
  -3 -13   3    9.16    3.39
  -4   2  -6   49.57    6.41
  -4 -14   1    7.26    5.06
  -5  -9  -4   46.23    8.10
  -5 -11  -3  185.70   12.70
  -6  -8  -5   -4.03    7.86
  -2  -7  -2   73.30    5.71
  -3  -1  -5   42.79    5.59
  -3 -11  -1  453.13   13.52
  -3 -13   2  220.73    8.21
  -4   0  -6   75.99    8.23
  -4   1  -6  250.77   11.69
  -4   8  -6   15.75    4.16
  -4  -5  -5  143.21   10.51
  -4  -8  -4   64.09    8.61
  -4 -10  -3   88.23    9.09
  -5  -3  -6   30.98    7.32
  -5  -7  -5    1.33    6.79
  -5 -14  -1   13.86    6.74
  -1  -5  -1   66.46    3.80
  -2  -1  -4    0.02    3.22
  -2  -5  -3   67.13    5.69
  -2 -11   2   51.75    3.72
  -3  -2  -5  401.90   13.36
  -3  -8  -3  204.72   10.04
  -3 -10  -2   10.24    4.66
  -3 -12   0  213.99    9.11
  -4  -1  -6  275.86   12.92
  -4 -13  -1   -3.64    4.80
  -5  -4  -6    4.34    6.93
  -5 -10  -4   10.67    7.23
  -5 -13  -2  117.19   10.16
  -1  -3  -2  456.45    9.05
  -2  -2  -4  277.12    9.52
  -2  -9  -1    6.77    3.22
  -2 -10   0   17.64    3.59
  -3  -6  -4  544.77   15.95
  -3 -13   1   23.72    4.90
  -4  -6  -5   -2.03    6.12
  -4 -12  -2   73.00    8.33
  -5   3  -7  115.58    9.88
  -5   4  -7   49.69    7.78
  -5   5  -7   43.99    7.47
  -5  -5  -6   81.86   10.13
  -5  -8  -5   18.54    7.12
  -5 -12  -3   22.39    7.13
  -3  -3  -5  430.63   14.36
  -3  -9  -3  161.10    9.59
  -4  -2  -6   55.44    7.50
  -4  -9  -4  185.21   11.71
  -4 -11  -3  155.54   11.18
  -5   1  -7   19.82    6.95
  -5   2  -7   23.31    6.84
  -5 -11  -4   13.16    7.56
  -1   1  -3   47.81    3.15
  -1  -7   0  397.80    7.97
  -2  -3  -4   17.96    4.06
  -2  -6  -3  172.64    8.03
  -2  -8  -2  864.29   16.62
  -2 -11   1   59.26    4.31
  -3  -4  -5  360.26   13.66
  -3  -7  -4  384.01   13.99
  -3 -12  -1  100.88    7.52
  -4  -3  -6   23.46    6.94
  -4  -7  -5   20.01    6.62
  -4 -15   1   35.80    6.17
  -5  -1  -7   23.60    7.48
  -5   0  -7   -4.34    6.12
  -5  -6  -6   15.97    7.93
  -5  -9  -5   72.00    9.60
  -5 -13  -3   -2.26    6.49
  -5 -14  -2   31.98    7.74
  -5 -15  -1   45.20    7.78
  -1   0  -3    0.23    1.94
  -1  -4  -2  168.32    6.13
  -1  -6  -1  486.11    9.58
  -3 -11  -2  155.51    9.32
  -4  -4  -6   -2.14    6.34
  -4 -10  -4   10.04    7.08
  -4 -13  -2  284.16   13.62
  -4 -14  -1    8.33    5.43
  -5  -2  -7   14.43    7.39
  -2  -4  -4   31.37    4.76
  -2  -7  -3   20.95    4.47
  -2 -10  -1  440.51   11.90
  -3   2  -6  104.43    7.45
  -3   3  -6  104.39    7.09
  -3   4  -6   27.28    4.83
  -3  -5  -5   69.06    7.65
  -3  -8  -4  230.45   11.83
  -3 -10  -3  409.93   14.78
  -4  -8  -5   15.64    6.71
  -4 -12  -3   37.82    7.62
  -5  -3  -7  122.99   11.48
  -5  -7  -6   88.79   10.40
  -5 -10  -5   41.81    9.30
  -5 -12  -4   36.84    8.67
  -1  -1  -3   44.32    3.66
  -2   3  -5  101.70    5.82
  -2  -9  -2   41.41    5.03
  -2 -11   0   -2.41    2.66
  -3   0  -6  328.01   12.46
  -3   1  -6  232.60   10.27
  -3 -14   2  188.54    7.66
  -4  -5  -6   76.36    8.85
  -4 -11  -4   27.58    7.68
  -5  -4  -7   48.00    9.17
  -5  -8  -6    3.43    7.89
  -1  -5  -2  265.54    7.94
  -2   1  -5    9.34    3.45
  -2   2  -5  391.89   10.41
  -2  -5  -4  189.91    9.07
  -3  -1  -6  245.31   11.42
  -3  -6  -5   24.70    5.74
  -3  -9  -4   87.16    8.67
  -3 -12  -2  178.13   10.22
  -3 -13  -1   23.88    5.24
  -3 -14   1   54.27    5.72
  -4   0  -7   -1.65    5.76
  -4   1  -7    6.74    5.52
  -4   2  -7   41.21    6.77
  -4   3  -7  171.47   10.15
  -4   4  -7   54.88    7.39
  -4   5  -7   70.52    7.41
  -4  -6  -6   43.33    8.49
  -4  -9  -5  119.85   10.63
  -4 -14  -2   54.59    8.06
  -5  -5  -7   31.97    8.60
  -5 -11  -5  131.74   12.51
  -1  -2  -3 1851.38   19.45
  -1  -7  -1   15.87    2.95
  -1  -8   0  426.21    8.71
  -2  -1  -5    6.05    3.72
  -2   0  -5   -0.44    3.21
  -2  -8  -3  470.54   13.70
  -2 -12   1  108.58    5.74
  -3  -2  -6  116.37    8.91
  -3   7  -6   55.78    5.11
  -3 -11  -3  347.53   14.08
  -4  -1  -7    6.27    6.12
  -4 -13  -3   -0.21    5.45
  -4 -15  -1   39.79    6.93
  -4 -16   1   22.64    5.69
  -5  -9  -6   17.57    8.38
  -1  -3  -3  475.21   10.68
  -2  -2  -5  390.02   12.18
  -2   6  -5   81.56    4.43
  -2  -6  -4  344.91   12.16
  -2 -10  -2    1.87    3.57
  -2 -11  -1   57.27    5.41
  -3  -3  -6  113.29    9.03
  -3  -7  -5    1.21    4.84
  -4  -2  -7   31.63    7.44
  -4  -7  -6   45.47    8.21
  -4 -10  -5   62.53    8.92
  -4 -12  -4   23.57    7.75
  -1  -6  -2 2478.35   24.15
  -2 -12   0  395.11   10.97
  -3  -4  -6   27.85    6.69
  -3  -8  -5  120.18    9.88
  -3 -10  -4    4.73    5.07
  -3 -13  -2  215.75   11.33
  -4  -3  -7  163.57   11.50
  -4  -8  -6   16.01    7.93
  -4 -14  -3   -0.41    6.18
  -4 -15  -2   22.73    6.79
  -1  -4  -3  322.96    9.32
  -1  -9   1   79.60    3.82
  -2  -3  -5  103.48    7.12
  -2  -7  -4   42.11    6.06
  -2  -9  -3   10.48    4.07
  -3  -5  -6   96.84    9.46
  -3   8  -6  135.11    5.88
  -3 -12  -3   74.96    7.91
  -4  -4  -7   61.44    8.72
  -4 -11  -5  106.50   11.03
  -4 -13  -4  131.21   11.51
  -4 -16  -1   17.20    6.64
  -1  -8  -1  369.19    9.35
  -2  -4  -5  484.92   14.31
  -2   7  -5    6.52    2.52
  -2 -11  -2   51.47    5.74
  -3  -9  -5   88.95    9.85
  -3 -11  -4   11.25    6.90
  -3 -15   1   54.93    5.81
  -4  -5  -7   81.64    9.57
  -4  -9  -6   20.50    7.37
  -1  -5  -3   38.41    4.41
  -1  -7  -2   51.85    4.82
  -1  -9   0   64.17    4.19
  -2  -5  -5   44.75    6.20
  -2  -8  -4  319.91   12.64
  -2 -10  -3  323.23   12.40
  -2 -12  -1  101.25    6.78
  -3  -6  -6  274.19   13.67
  -3 -13  -3   14.23    6.32
  -3 -14  -2  186.50   10.92
  -4  -6  -7    3.74    7.13
  -4 -12  -5   19.01    8.26
  -4 -15  -3   35.59    7.94
  -1  -1  -4   36.96    4.12
  -1   0  -4 1886.88   20.16
  -1   1  -4   35.23    3.50
  -1   2  -4  569.64   10.05
  -3  -1  -7   20.71    6.10
  -3   0  -7    0.23    4.79
  -3   1  -7   18.97    5.28
  -3   2  -7  184.70   10.03
  -3   3  -7  178.62    9.66
  -3  -7  -6   68.86    9.26
  -3 -10  -5  267.98   14.45
  -3 -12  -4  145.21   11.13
  -4  -7  -7   17.62    8.13
  -4 -10  -6   -0.69    6.62
  -4 -14  -4   30.13    8.01
  -4 -16  -2    9.04    6.26
  -1  -2  -4  559.67   12.32
  -1  -6  -3  328.90   10.28
  -1  -9  -1   84.26    5.40
  -2  -6  -5   73.10    7.03
  -2  -9  -4  157.62    9.66
  -2 -12  -2  205.30    9.91
  -2 -13   0   29.99    4.60
  -3  -3  -7  185.57   11.70
  -3  -2  -7  180.28   11.26
  -3   4  -7  182.13    9.27
  -4  -1  -8   50.41    8.37
  -4   0  -8   27.38    7.25
  -4   2  -8    9.33    6.40
  -4   3  -8   -0.05    5.48
  -4  -8  -7   10.62    7.87
  -4 -11  -6   50.73    9.77
  -4 -13  -5    1.20    7.33
  -1  -3  -4    5.89    3.42
  -1  -8  -2 1078.90   17.44
  -2  -2  -6   46.76    6.08
  -2  -1  -6  113.41    7.68
  -2   0  -6  521.55   14.13
  -2   1  -6  111.83    7.07
  -2   2  -6   44.73    5.14
  -2  -7  -5    5.97    5.11
  -2 -11  -3   58.71    6.87
  -3  -4  -7  180.93   12.05
  -3  -8  -6  151.69   11.37
  -3 -11  -5  195.10   13.12
  -3 -14  -3   43.93    7.70
  -3 -15  -2   78.02    8.53
  -4  -3  -8    1.57    6.70
  -4  -2  -8    7.93    6.76
  -4   4  -8    8.37    5.77
  -1  -4  -4   13.74    3.89
  -1 -10   0  202.20    6.86
  -1 -10   1  702.15   10.38
  -2  -3  -6   30.78    5.77
  -2   3  -6   33.12    4.57
  -2 -10  -4    3.16    5.32
  -3  -5  -7   33.76    8.01
  -3  -9  -6    0.30    6.78
  -3 -13  -4   62.08    8.93
  -4  -4  -8   15.15    7.40
  -4  -9  -7   78.56   10.34
  -1  -9  -2   -3.20    3.01
  -2  -4  -6   74.37    7.51
  -2  -8  -5  232.80   11.71
  -2 -12  -3   86.71    7.98
  -2 -13  -2  128.15    8.48
  -3  -6  -7   12.22    7.32
  -3   6  -7   15.07    4.37
  -3 -12  -5   58.95    9.33
  -3 -16  -1  142.16    9.66
  -1  -5  -4  304.89   10.42
  -1  -8  -3  267.85   10.08
  -1 -10  -1  722.28   13.99
  -2  -5  -6    5.36    4.77
  -2  -9  -5    6.55    6.14
  -2 -11  -4   -4.80    5.28
  -2 -14   0  377.63   11.43
  -3  -7  -7    1.39    7.08
  -3 -10  -6   -0.32    6.13
  -3 -14  -4  152.76   11.84
  -3 -15  -3   48.00    8.09
  -1  -6  -4  571.33   14.49
  -2  -6  -6  347.73   14.16
  -3  -8  -7   63.94    9.59
  -3 -11  -6   62.10    9.69
  -3 -13  -5    9.83    7.52
  -3 -16  -2    5.49    5.87
  -1  -2  -5  740.28   15.56
  -1  -1  -5    8.47    3.40
  -1   0  -5   -0.09    3.19
  -1  -7  -4  125.59    7.94
  -1  -9  -3   56.27    5.85
  -1 -10  -2    7.22    3.51
  -1 -11   0   11.00    3.03
  -2  -7  -6   -1.73    6.08
  -2 -10  -5  250.00   13.15
  -2 -12  -4  251.88   12.95
  -2 -13  -3   -1.98    5.00
  -2 -14  -2  237.11   11.34
  -3  -2  -8   51.76    8.05
  -3  -1  -8   30.33    7.09
  -3   0  -8  168.22   10.96
  -3   7  -7    3.06    3.52
  -1  -3  -5  157.68    8.16
  -1   1  -5   15.77    3.30
  -1 -11  -1  151.01    7.18
  -1 -11   1  151.00    5.48
  -2  -8  -6  277.21   14.14
  -2   6  -6  346.07    8.57
  -3  -4  -8   14.33    7.44
  -3  -3  -8   -0.80    6.13
  -3   1  -8   25.46    6.30
  -3   2  -8   46.04    7.25
  -3  -9  -7   69.63    9.66
  -3 -12  -6   83.85   10.99
  -3 -15  -4    9.43    6.36
  -3 -16  -3  142.08   11.04
  -3 -17  -1   51.87    7.18
  -1  -5  -5   23.88    5.08
  -1  -4  -5  262.52   10.31
  -1   2  -5  778.48   13.23
  -1  -8  -4  239.34   10.65
  -2  -4  -7  264.60   13.06
  -2  -3  -7   50.30    7.51
  -2  -2  -7  195.10   10.73
  -2  -1  -7    0.97    4.67
  -2   0  -7    0.92    4.22
  -2   1  -7    0.33    4.65
  -2 -11  -5   35.09    7.87
  -2 -14  -3   12.28    5.85
  -2 -15  -1   -2.60    4.65
  -3  -6  -8  144.17   12.30
  -3  -5  -8  142.72   11.92
  -3   3  -8   -0.24    5.32
  -3 -10  -7  136.34   12.63
  -3 -17  -2   -1.01    5.54
  -1  -6  -5  119.19    8.21
  -1 -10  -3  536.90   14.74
  -1 -11  -2   53.24    5.52
  -2  -5  -7   22.03    7.14
  -2   2  -7  204.87    9.52
  -2  -9  -6    6.02    6.22
  -2 -13  -4   24.14    6.62
  -2 -15  -2    5.13    5.45
  -3  -7  -8  118.36   11.75
  -3 -11  -7  108.88   12.03
  -3 -13  -6  104.83   11.63
  -3 -16  -4    3.00    6.66
  -1  -7  -5   -2.22    4.53
  -1  -9  -4   23.80    5.04
  -1 -12  -1  190.97    8.32
  -1 -12   0  163.84    6.82
  -2  -6  -7   46.05    8.01
  -2   3  -7   51.81    5.68
  -2 -10  -6    0.90    6.54
  -2 -12  -5   68.39    8.55
   0  -3  -2   -2.18    2.00
  -1 -10  -4   95.12    7.88
  -1 -11  -3  100.45    7.41
  -1 -12  -2   30.49    4.83
  -2  -7  -7   -2.47    5.69
  -2   7  -6    0.20    2.73
  -2 -14  -4  238.14   13.20
  -2 -15  -3   -1.75    5.60
   0  -4  -2 1484.92   16.14
   0  -5  -1   -0.72    1.61
  -1  -4  -6   72.08    7.04
  -1  -3  -6   35.87    5.45
  -1  -2  -6   43.87    5.44
  -1  -1  -6   80.10    6.34
  -1  -8  -5  171.97    9.89
  -1 -12   1  184.32    6.17
  -2  -8  -7  122.92   10.67
  -2 -11  -6   28.06    7.28
  -2 -13  -5   -2.17    5.72
  -2 -16  -2    1.55    5.34
  -2 -16  -1  248.82   11.03
   0  -5  -2   -4.86    2.25
   0  -6  -1  918.00   12.29
  -1  -5  -6   30.34    6.18
  -1   0  -6  358.79   11.20
  -1  -9  -5   17.35    6.07
  -1 -11  -4    2.95    5.22
  -1 -12  -3  132.45    8.71
  -1 -13  -1   13.33    4.22
  -2  -9  -7   11.96    6.80
  -2 -12  -6   95.61   10.57
  -2 -15  -4    3.74    6.63
  -2 -15   2    5.31    2.94
   0  -4  -3 2551.34   24.26
   0  -3  -3   -1.41    2.88
   0  -2  -3 2411.74   21.22
   0  -6  -2 3177.46   26.25
  -1  -7  -6   12.71    6.23
  -1  -6  -6  638.43   18.01
  -1   1  -6   85.12    5.90
  -1 -10  -5  392.52   15.25
  -1 -13  -2   76.02    6.75
  -1 -13   0   30.08    4.19
  -2  -5  -8   52.83    8.69
  -2  -4  -8    8.59    6.60
  -2  -3  -8    4.59    6.08
  -2  -2  -8   80.72    8.50
  -2  -1  -8    5.39    5.70
  -2   0  -8  359.92   13.95
  -2 -10  -7  151.34   12.44
  -2 -14  -5    5.14    6.19
  -2 -16  -3  220.66   12.38
  -2 -16   1  256.72    8.81
   0  -5  -3   -6.28    2.52
   0  -1  -3   -0.97    1.84
   0  -7  -2   -6.54    3.17
   0  -7  -1   -6.18    2.23
  -1  -8  -6  336.12   14.55
  -1   2  -6   45.21    4.60
  -1 -12  -4  136.39    9.81
  -1 -13  -3   -1.13    4.70
  -2  -7  -8   31.63    8.31
  -2  -6  -8  133.00   11.40
  -2   1  -8    5.32    5.85
  -2 -11  -7   27.60    8.80
  -2 -13  -6   61.72    9.17
  -2 -16  -4    4.44    6.39
  -2 -17  -2   13.91    6.31
  -2 -17  -1   48.91    7.02
   0  -6  -3  440.41   11.27
   0   0  -3   -0.81    1.74
  -1  -9  -6   -3.51    6.10
  -1 -11  -5   53.77    7.51
  -1   5  -5   19.72    2.60
  -1 -14  -2  276.52   11.42
  -1 -14  -1   44.01    5.51
  -2  -8  -8   92.55   10.83
  -2   2  -8   84.52    7.74
  -2 -14  -6  111.99   11.39
  -2 -15  -5    4.96    6.26
  -2 -17  -3   34.20    7.25
   0  -5  -4   -2.50    3.31
   0  -4  -4   23.28    4.07
   0  -3  -4   -1.34    2.96
   0  -2  -4  683.70   13.05
   0  -7  -3   -4.13    2.96
   0  -8  -2 2504.57   25.49
   0  -8  -1 2209.67   21.13
  -1  -5  -7    2.89    5.66
  -1  -4  -7  190.75   10.91
  -1  -3  -7   45.53    6.80
  -1  -2  -7  311.75   12.36
  -1 -12  -5  113.32   10.04
  -1 -13  -4   14.10    6.55
  -1 -14  -3   39.25    6.65
  -1 -14   0  566.57   12.77
  -1 -13   1   10.32    3.08
  -2  -9  -8   31.25    8.56
  -2 -12  -7   36.12    8.41
   0  -6  -4  612.70   14.67
   0  -1  -4   -2.68    3.02
   0  -8  -3 1243.42   20.04
   0  -9  -2   -6.70    3.12
  -1  -7  -7    6.54    6.39
  -1  -6  -7   52.45    7.93
  -1  -1  -7    5.41    4.53
  -1 -10  -6    0.06    5.66
  -2   3  -8    9.06    4.99
  -2   6  -7   38.02    4.23
  -2 -18  -2   44.89    7.40
   0  -7  -4   -3.70    3.24
   0   0  -4 6131.54   34.47
   0  -9  -3   -3.13    3.71
   0  -9  -1   -5.28    2.60
   0  -8   0 1321.85   13.91
  -1  -8  -7   85.19    9.73
  -1   0  -7   -1.75    3.60
  -1 -11  -6   14.75    6.46
  -1 -13  -5    0.25    6.47
  -1 -14  -4  382.85   15.49
  -1 -15  -2   19.05    5.14
  -1 -15  -1   22.76    5.26
  -2  -4  -9  123.61   10.93
  -2  -3  -9   25.68    7.56
  -2  -2  -9  104.92    9.91
  -2 -18  -1   55.26    7.10
  -2 -17   1   39.36    4.77
   0  -5  -5   -2.09    3.90
   0  -4  -5 1036.35   19.18
   0  -3  -5   -0.04    3.63
   0  -8  -4  587.02   15.31
   0 -10  -2   -0.19    2.98
  -1  -9  -7   15.04    7.37
  -1   1  -7    4.03    3.94
  -1 -12  -6   33.73    8.22
  -1 -15  -3   21.23    6.14
  -2  -1  -9    0.34    5.67
  -2 -18   0   28.44    5.48
   0  -7  -5   -4.96    4.48
   0  -6  -5  164.14    8.83
   0  -2  -5  931.78   16.82
   0  -9  -4   -3.77    3.70
   0   1  -4   -3.67    2.59
   0 -10  -3  652.19   15.65
   0 -10  -1  949.89   15.26
   0  -9   0   -3.71    2.28
  -1 -10  -7  197.70   13.25
  -1   2  -7  345.78   11.04
  -1 -14  -5   18.39    7.17
  -1 -15  -4   -1.64    6.15
  -1 -15   0    7.04    4.13
  -1 -14   1   44.55    4.19
  -2   0  -9    1.69    5.26
   0  -8  -5  644.40   17.56
   0  -1  -5   -2.71    2.75
   0 -10  -4   80.20    7.37
   0 -11  -3   -3.86    4.00
   0 -11  -2   -3.13    3.23
  -1  -7  -8   24.74    7.77
  -1  -6  -8  164.71   11.95
  -1  -5  -8   42.33    7.92
  -1  -4  -8    0.02    5.78
  -1  -3  -8   -0.42    5.47
  -1  -2  -8  133.55    9.74
  -1 -11  -7   22.36    8.06
  -1 -13  -6   29.72    7.52
  -1 -16  -3  198.25   11.40
  -1 -16  -2    4.16    4.81
  -1 -16  -1  228.71   10.21
  -2   1  -9   -2.01    5.01
   0  -5  -6    0.83    4.83
   0  -9  -5   -2.99    4.55
   0   0  -5   -2.12    2.53
   0 -11  -4   -5.42    4.86
   0 -11  -1   -4.09    2.75
  -1  -8  -8   79.34    9.89
  -1  -1  -8    8.08    5.43
  -1 -12  -7   62.28    9.66
  -1 -14  -6  148.78   12.36
  -1 -15  -5    8.21    6.32
  -1 -16  -4   37.08    7.66
  -2   2  -9   89.13    8.19
  -2   5  -8   50.21    5.12
   0  -7  -6   -6.17    5.73
   0  -6  -6  747.81   18.94
   0  -4  -6  214.19   10.00
   0  -3  -6   -2.05    3.70
   0  -2  -6   36.26    4.99
   0 -10  -5  448.20   15.52
   0 -12  -3  140.43    8.61
   0 -12  -2  335.65   11.18
   0 -10   0  189.95    6.22
  -1 -10  -8   13.05    7.63
  -1  -9  -8    6.26    6.46
  -1   0  -8  392.22   13.61
  -1 -13  -7   -3.69    6.90
  -1   5  -6   33.65    3.60
  -1 -16  -5  143.32   11.56
  -1 -17  -3    7.42    6.24
  -1 -17  -2   -3.42    5.06
   0  -9  -6   -2.95    6.18
   0  -8  -6  610.80   18.24
   0  -1  -6    0.35    3.60
   0 -11  -5   -5.33    5.29
   0   1  -5   -2.52    2.72
   0 -12  -4  513.64   16.16
   0 -12  -1  184.57    7.84
  -1   1  -8    8.09    5.38
  -1 -17  -4   -0.24    6.09
  -1 -17  -1   11.75    5.66
  -1 -16   0   49.89    5.29
  -2   3  -9   24.96    5.72
   0 -10  -6    0.43    6.20
   0 -12  -5  115.29   10.05
   0 -13  -4   -3.97    5.79
   0 -13  -3   -2.64    3.66
   0 -13  -2   -0.54    3.68
   0 -11   0   -3.32    2.40
  -1  -6  -9   19.00    7.26
  -1  -5  -9    9.51    6.68
  -1  -4  -9  120.18   10.47
  -1 -15   1   18.33    3.68
   0  -8  -7  251.59   13.55
   0  -7  -7   -5.10    6.17
   0  -6  -7   82.40    8.74
   0  -5  -7   -4.93    5.10
   0  -4  -7  473.06   15.61
   0  -3  -7   -0.13    4.73
   0 -11  -6   -3.68    6.11
   0   0  -6 1063.51   18.04
   0 -13  -5   -2.91    5.91
   0 -14  -3   26.73    5.81
   0 -13  -1   -0.37    3.47
  -1  -3  -9   26.56    7.37
  -1  -2  -9  152.25   10.82
  -1   2  -8  129.64    8.02
  -1 -18  -3   37.49    7.09
  -1 -18  -2  113.97    8.90
   0  -9  -7   -3.03    6.49
   0  -2  -7  383.74   13.20
   0 -12  -6  137.59   11.15
   0   2  -5  925.04   13.58
   0 -14  -4  520.25   17.33
   0 -14  -2  404.12   12.93
  -1 -17   0    1.90    4.06
   0 -11  -7   -0.57    6.76
   0 -10  -7  215.68   12.97
   0  -1  -7    0.63    4.08
   0 -13  -6    2.01    7.01
   0   1  -6    0.13    3.06
   0 -14  -5   13.33    6.75
   0 -15  -4   -6.10    5.69
   0 -15  -3   -0.56    5.34
   0 -12   0  845.16   13.55
  -1   0  -9    5.57    5.66
  -1   6  -6  637.08    9.42
  -1 -18  -1   38.36    6.07
   0  -8  -8  126.83   11.11
   0  -7  -8   -0.93    6.84
   0  -6  -8  163.64   11.63
   0  -5  -8   -5.31    5.75
   0 -12  -7   47.67    9.11
   0 -14  -6  188.09   12.90
   0 -15  -5    2.21    6.63
   0 -15  -2   -2.45    3.99
   0 -14  -1   18.69    4.02
  -1   5  -7   10.51    3.40
  -1 -16   1  231.93    7.50
   0 -10  -8   12.83    7.39
   0  -9  -8   -3.00    6.51
   0  -4  -8    4.05    5.02
   0  -3  -8   -2.39    5.17
   0 -13  -7   -1.85    6.73
   0   0  -7    1.15    3.59
   0   2  -6   37.07    4.11
   0 -16  -4    2.49    5.98
   0 -16  -3  441.53   15.48
   0 -13   0   -1.65    3.07
  -1   1  -9    1.15    5.20
   1  -8  -4  235.18   10.16
   1  -7  -4  116.98    7.17
   1  -6  -4  557.76   13.82
   1  -5  -4  298.48   10.09
   1  -8  -3  261.54    9.59
   1  -6  -3  313.80    9.57
   1  -5  -3   38.93    4.26
   0  -2  -8  169.88   10.13
   0   1  -7   -3.00    3.80
   0 -15  -6   -4.24    5.80
   0 -16  -5  276.34   14.53
   0 -16  -2    3.32    4.66
   0 -15  -1   -2.72    4.20
  -1 -19  -1    4.81    4.74
  -1 -18   0   59.49    5.75
   1  -9  -5   27.97    6.33
   1  -8  -5  171.65    9.50
   1  -7  -5   -3.37    3.67
   1  -6  -5  113.66    7.51
   1  -5  -5   17.97    4.55
   1 -10  -4   88.36    7.50
   1  -9  -4   32.71    5.17
   1  -4  -4   14.12    3.36
   1 -10  -3  541.21   14.28
   1  -9  -3   52.49    5.23
   1  -4  -3  325.20    9.01
   0  -1  -8    0.06    4.91
   0 -17  -4   -0.02    5.88
   0 -17  -3   -2.91    5.41
   0 -14   0  810.57   14.24
  -1   2  -9  135.81    8.69
   1  -9  -6   -3.90    5.76
   1  -8  -6  345.11   14.20
   1  -7  -6   14.35    6.23
   1  -6  -6  667.76   17.97
   1  -5  -6   25.59    5.63
   1 -11  -5   51.29    7.69
   1 -10  -5  355.48   13.81
   1  -4  -5  281.47   10.23
   1  -3  -5  156.86    7.76
   1 -11  -4    3.54    4.86
   1  -3  -4    3.97    2.76
   1 -11  -3  102.27    7.43
   1  -3  -3  472.38   10.21
   1  -9  -2   -1.17    2.92
   1  -8  -2 1067.14   16.62
   1  -7  -2   48.64    4.34
   1  -6  -2 2432.97   22.93
   1  -5  -2  258.46    7.58
   0  -6  -9   22.03    6.58
   0  -5  -9   -2.30    6.29
   0  -4  -9  181.64   11.77
   0   0  -8  722.22   17.57
   0 -17  -2    1.83    5.04
   0 -16  -1  552.20   14.19
   0 -11   1   -5.00    1.99
  -1 -17   1    8.54    3.53
   1 -10  -6   -3.52    5.72
   1  -4  -6   60.36    6.28
   1 -12  -5  104.95    9.49
   1 -12  -4  140.72    9.07
   1  -2  -4  565.69   11.88
   1 -12  -3  138.30    8.49
   1 -10  -2    5.99    3.29
   1  -4  -2  161.99    5.76
   0  -3  -9    1.19    6.13
   0   2  -7  384.49   11.05
   0 -18  -3   79.46    8.26
   1  -9  -7   15.89    7.21
   1  -8  -7   81.80    9.21
   1  -7  -7    2.70    6.10
   1  -6  -7   64.14    8.07
   1 -12  -6   42.04    8.01
   1 -11  -6   19.88    6.27
   1  -3  -6   37.86    5.34
   1 -13  -5   -0.41    6.02
   1  -2  -5  772.39   15.23
   1 -13  -4   16.65    6.26
   1 -13  -3    6.47    4.73
   1  -2  -3 1832.01   18.63
   1 -11  -2   60.92    5.37
   0  -2  -9  162.14   10.61
   0   1  -8   -2.13    4.89
   0 -18  -2   99.98    8.43
   0 -15   0   -1.61    3.67
   0 -12   1  184.13    5.54
  -1   5  -8   36.16    4.49
  -1   6  -7   54.80    3.98
   1 -11  -7   21.03    7.80
   1 -10  -7  180.12   11.96
   1  -5  -7    9.26    5.04
   1  -4  -7  198.90   10.59
   1 -13  -6   30.72    7.95
   1  -2  -6   50.54    5.36
   1 -14  -5   19.57    7.04
   1  -1  -5   16.08    3.72
   1 -14  -4  384.15   14.97
   1  -1  -4   37.69    3.84
   1 -12  -2   25.03    4.35
   1  -3  -2  463.27    8.73
   1  -8  -1  371.14    8.93
   0   4  -5 1015.59   11.97
   0 -17  -1    5.28    5.03
   1  -9  -8    7.95    6.86
   1  -8  -8   89.67    9.75
   1  -7  -8   28.77    7.54
   1 -12  -7   59.09    8.60
   1  -3  -7   54.86    6.72
   1 -14  -6  140.08   11.59
   1 -15  -5    9.37    6.62
   1 -15  -4   -0.06    5.68
   1 -14  -3   36.31    6.14
   1 -13  -2   68.19    6.16
   1 -10  -1  722.34   13.27
   1  -9  -1   80.58    4.85
   1  -7  -1   13.44    2.70
   1  -6  -1  481.30    9.02
   1 -10  -8   19.22    7.48
   1  -6  -8  165.54   11.01
   1  -5  -8   36.44    7.32
   1 -13  -7   -4.34    5.72
   1  -2  -7  336.12   12.23
   1  -1  -6   82.34    6.05
   1 -15  -3   10.10    5.43
   1  -1  -3   47.23    3.50
   1 -14  -2  285.71   11.04
   1 -11  -1  137.77    6.68
   1  -5  -1   62.54    3.49
   0   0  -9   -1.12    4.57
   0   2  -8  160.91    8.30
   0 -18  -1   85.44    7.30
   0 -16   0    5.78    3.82
   0 -13   1   -1.38    2.40
   1  -4  -8   -0.04    5.19
   1 -16  -5  134.27   10.80
   1   0  -5   -0.26    2.56
   1 -16  -4   38.77    7.26
   1   0  -4 1850.79   18.97
   1  -2  -2    7.21    2.05
   1 -12  -1  184.23    7.69
   0   1  -9   -1.20    4.90
   1  -6  -9   19.08    6.85
   1  -3  -8   -1.36    4.93
   1  -1  -7    2.74    4.05
   1   0  -6  348.93   10.50
   1 -17  -4   -2.77    5.45
   1 -16  -3  220.62   11.30
   1 -15  -2   13.05    4.52
   0 -17   0    0.46    3.77
   0 -14   1   20.60    3.25
   1  -5  -9    5.16    6.24
   1  -2  -8  132.31    9.04
   1 -17  -3    5.60    5.76
   1 -13  -1   11.50    3.52
   1  -4  -1  197.96    5.22
   0 -19  -1    0.70    4.47
   1  -4  -9  105.83    9.53
   1  -1  -8    5.06    5.08
   1   0  -7    1.49    3.65
   1   1  -5   16.58    3.04
   1   0  -3   -0.07    1.77
   1 -16  -2    6.02    4.49
   1 -14  -1   43.41    5.08
   0   2  -9  170.13    9.09
   2 -11  -6   24.09    6.93
   2 -10  -6    0.17    5.79
   2  -9  -6   11.44    5.73
   2  -8  -6  282.83   13.07
   2  -7  -6    3.06    5.51
   2 -11  -5   33.27    7.00
   2 -10  -5  260.34   12.07
   2  -9  -5    9.50    4.87
   2  -8  -5  263.09   11.41
   2  -7  -5    4.66    4.16
   2  -6  -5   69.13    6.52
   2 -10  -4    8.10    4.95
   2  -9  -4  166.83    9.21
   2  -8  -4  301.72   11.43
   2  -7  -4   38.59    5.41
   1  -3  -9   20.41    6.39
   1   1  -6   78.72    5.35
   1   1  -4   33.90    3.17
   1 -18  -3   40.05    6.74
   1 -17  -2    0.61    4.83
   0 -18   0   43.28    5.06
   0 -15   1   -0.96    2.89
   2 -11  -7   25.78    7.89
   2 -10  -7  156.59   11.56
   2  -9  -7   18.03    6.93
   2  -8  -7  114.72    9.91
   2  -7  -7    1.68    5.93
   2 -13  -6   70.34    9.11
   2 -12  -6   96.25    9.29
   2  -6  -6  358.46   13.27
   2  -5  -6    1.22    4.75
   2 -13  -5   -0.12    5.86
   2 -12  -5   62.03    7.60
   2  -5  -5   54.40    6.02
   2 -12  -4  252.93   11.95
   2 -11  -4   -2.24    4.00
   2  -6  -4  354.33   11.41
   1  -2  -9  138.82    9.81
   1   0  -8  374.43   12.78
   1   1  -7    5.48    3.92
   1 -15  -1   14.93    4.31
   1 -10   0  200.01    6.26
   1  -9   0   68.70    3.91
   1  -8   0  443.40    8.17
   0   5  -6    4.42    2.51
   2  -9  -8   26.50    7.50
   2 -12  -7   31.33    7.44
   2  -6  -7   47.35    6.86
   2  -5  -7   24.27    6.33
   2 -14  -6  108.64   10.53
   2  -4  -6   86.07    7.11
   2 -14  -5   12.49    6.39
   2  -4  -5  493.04   13.47
   2 -14  -4  253.73   12.36
   2 -13  -4   20.60    5.80
   2  -5  -4  194.53    8.34
   2 -12  -3   83.57    7.02
   2 -11  -3   52.59    6.14
   2 -10  -3  332.21   11.37
   2  -9  -3    8.13    3.77
   2  -8  -3  473.23   12.59
   2  -7  -3   19.97    4.03
   1  -1  -9    0.29    5.15
   1 -18  -2  121.91    8.68
   1 -16  -1  252.42    9.88
   1 -11   0   11.98    2.74
   1  -7   0  397.86    7.35
   2  -8  -8   96.29    9.44
   2  -7  -8   26.95    7.31
   2  -6  -8  135.03   10.57
   2  -4  -7  280.65   12.24
   2 -15  -5    2.05    5.87
   2 -15  -4   -2.43    5.35
   2  -4  -4   29.17    4.21
   2 -13  -3   -1.63    4.27
   2  -6  -3  180.91    7.72
   1   1  -8    4.43    4.62
   1   2  -6   47.95    4.31
   1   2  -5  747.63   12.12
   1 -12   0  173.30    6.36
   0 -16   1  542.81    9.99
   2  -5  -8   58.88    8.01
   2  -3  -7   54.59    6.53
   2  -3  -6   31.36    4.81
   2  -3  -5  103.20    6.46
   2 -14  -3   10.96    5.13
   2  -5  -3   71.15    5.30
   1   0  -9    1.95    4.92
   1   2  -7  329.79   10.09
   1   1  -3   49.11    2.93
   1 -17  -1   10.25    4.78
   1 -13   0   24.61    3.66
   0   5  -7    1.82    2.80
   2  -4  -8    6.37    5.70
   2  -2  -6   54.31    5.54
   2  -2  -5  397.41   11.25
   2 -16  -4    7.28    5.70
   2  -3  -4   16.08    3.26
   2 -15  -3   -0.14    4.92
   2 -12  -2  208.86    9.00
   2 -11  -2   51.54    5.14
   2 -10  -2    1.01    3.18
   2  -9  -2   37.12    4.43
   2  -8  -2  838.84   15.13
   1   2  -4  554.56    9.21
   1 -14   0  579.51   11.84
   2  -3  -8   -3.73    4.85
   2  -2  -7  197.46    9.80
   2 -16  -3  211.95   11.00
   2  -4  -3  927.64   15.11
   2 -13  -2  126.05    7.66
   2  -7  -2   67.37    5.09
   1   1  -9    2.90    4.86
   1   2  -8  123.68    7.40
   1 -18  -1   45.59    5.72
   2  -4  -9  118.48    9.76
   2  -2  -8   89.81    8.02
   2  -1  -6  112.66    6.90
   2  -2  -4  289.08    8.89
   2 -17  -3   38.39    7.09
   2 -14  -2  237.82   10.06
   2  -6  -2 1035.32   15.59
   1   3  -6   37.05    3.76
   1 -15   0   -0.26    3.30
   0   5  -8    0.92    2.81
   2  -3  -9   34.11    7.02
   2  -1  -7   -1.98    3.78
   2  -1  -5    7.02    3.19
   2  -3  -3  155.77    6.33
   2 -15  -2    0.98    4.20
   2  -5  -2    3.55    2.68
   1   3  -7   52.14    4.68
   1 -19  -1    1.30    4.35
   1 -16   0   50.72    4.89
   3 -11  -7  108.31   10.52
   3 -10  -7  143.90   11.22
   3  -9  -7   62.75    8.60
   3 -12  -6   86.59    9.63
   3 -11  -6   59.20    8.30
   3 -10  -6   -0.94    5.62
   3  -9  -6   -0.32    5.88
   3  -8  -6  138.62    9.99
   3 -11  -5  186.72   11.23
   3 -10  -5  257.75   12.48
   2  -1  -8    5.80    4.73
   2 -16  -2   -2.69    4.50
   1   2  -9  145.67    8.40
   3  -8  -7   66.57    7.98
   3  -7  -7    9.14    6.28
   3 -13  -6  103.13    9.69
   3  -7  -6   68.54    8.01
   3 -13  -5    6.75    6.06
   3 -12  -5   54.37    7.41
   3  -9  -5   86.89    8.06
   3  -8  -5  125.55    8.54
   3  -7  -5   -2.87    4.41
   2  -2  -9  106.28    8.74
   2   0  -7    1.97    3.63
   2   0  -6  516.19   12.69
   2  -1  -4    0.27    2.68
   2 -11  -1   64.08    4.96
   2 -10  -1  440.95   10.66
   2  -9  -1    2.25    2.66
   3  -6  -6  290.46   12.37
   3 -14  -5   27.93    6.44
   3 -11  -4   15.83    5.36
   3 -10  -4    7.95    4.42
   3  -9  -4   92.81    7.29
   2  -2  -3  784.70   12.75
   2  -4  -2  348.74    8.44
  -3   4  -2   98.86    6.25
  -4   4  -2    3.82    4.00
  -5   5  -2  161.44   10.06
  -5   1  -1   69.26    5.95
  -6   7  -2  252.93   14.08
  -7   1   0  149.24    9.58
  -2   4  -2  368.25    9.56
  -3  11  -3  330.37   13.74
  -3  12  -3   78.36    8.46
  -3  13  -3   14.73    6.32
  -3  14  -3   48.19    7.73
  -4  12  -3   24.20    7.43
  -4  13  -3    0.75    6.40
  -6   6  -2    8.00    7.08
  -6   2  -1   18.43    5.70
  -6  -3   1  481.32   11.85
  -7   4  -1   -3.56    5.93
  -8   0   1   -2.67    5.40
   0  18  -2   94.76    6.73
  -1   5  -2  271.83    7.33
  -2  12  -3   75.48    6.99
  -2  13  -3   -1.76    4.29
  -2  14  -3    9.51    5.38
  -3  10  -3  382.70   14.20
  -3  15  -3   37.17    7.47
  -3  16  -3  121.87   10.65
  -3   0  -1    1.76    2.14
  -4  10  -3   82.08    9.08
  -4  11  -3  153.02   10.97
  -4  14  -3    3.89    6.06
  -4  15  -3   23.41    7.64
  -4   0  -1    1.49    2.73
  -5   4  -2    9.22    5.24
  -5  -2   0   38.16    4.29
  -7   3  -1  144.73   10.51
  -7  -2   1   28.61    5.51
  -2  10  -3  318.27   11.48
  -2  11  -3   55.53    6.23
  -2  15  -3   -5.05    5.04
  -2  16  -3  196.42   11.36
  -3   9  -3  139.92    8.94
  -3   3  -2  629.13   13.67
  -4   9  -3  175.98   10.73
  -4   3  -2   77.53    6.13
  -5  10  -3   60.12    9.52
  -5  11  -3  193.34   12.96
  -5  12  -3   16.92    7.31
  -5  13  -3   -1.02    6.19
  -5   0  -1   -1.57    3.81
  -5  -4   1  240.97    7.06
  -6   5  -2  211.57   12.14
  -6   1  -1   64.69    6.88
  -7   7  -2  149.17   12.30
  -7   8  -2   11.37    7.03
  -7   0   0   18.30    5.48
  -8   2   0    0.22    5.90
  -2   9  -3    5.84    4.11
  -2  17  -3   35.46    7.41
  -2   0  -1    1.69    1.83
  -3   8  -3  196.22    9.85
  -4   8  -3   20.74    5.62
  -5   9  -3   95.54    9.71
  -5   3  -2   95.45    7.88
  -6   4  -2   -0.50    6.16
  -7   2  -1   24.53    6.63
  -7  -4   2    1.12    3.64
  -8  -1   1   28.23    6.18
  -1  12  -3  131.52    7.50
  -1  13  -3    7.61    4.22
  -1  14  -3   43.94    5.84
  -2   8  -3  458.74   12.86
  -2   3  -2  203.98    7.04
  -3   7  -3    6.51    4.40
  -4   7  -3   56.02    6.77
  -4   2  -2  154.64    8.12
  -5   8  -3   36.42    7.45
  -6  10  -3   20.16    8.77
  -6  11  -3  120.68   11.72
  -6  -2   0   14.11    4.33
  -8   1   0  114.90    9.55
  -1  11  -3  100.49    6.50
  -1  15  -3   13.89    5.29
  -1  16  -3  191.43    9.91
  -1   4  -2  172.06    5.75
  -3   2  -2  446.96   11.49
  -4   6  -3    6.21    5.20
  -4  -1  -1    0.55    2.58
  -4  -3   0    8.87    2.54
  -5   7  -3    2.85    5.67
  -5   2  -2  164.18    9.35
  -6   8  -3   -8.56    6.82
  -6   9  -3  216.13   13.97
  -6   3  -2    1.59    5.70
  -6   0  -1   -0.95    4.19
  -7   5  -2   83.55    9.39
  -7  -1   0  157.67    9.35
  -7  -3   1  139.88    8.13
   1  12  -2   25.24    2.98
   1  13  -2   72.87    4.11
   1  14  -2  276.52    6.98
  -1  10  -3  531.63   12.78
  -1  17  -3    5.23    5.56
  -2   7  -3   24.87    4.38
  -3   6  -3   56.55    5.84
  -3  -1  -1  127.93    5.39
  -5   6  -3   -1.91    4.78
  -5  -1  -1   69.80    5.90
  -5  -3   0   39.03    4.09
  -6   7  -3   18.96    7.88
  -6  -4   1   21.31    4.22
  -7   4  -2   -4.46    6.38
  -7   1  -1   45.30    7.09
  -8   0   0    9.74    6.34
   1  15  -2   11.90    3.07
  -1   9  -3   57.76    5.08
  -1  18  -3   36.81    6.38
  -4   5  -3  259.82   11.52
  -5   5  -3   65.13    8.17
  -6   6  -3    0.31    6.95
  -6   2  -2   87.63    8.49
  -2   6  -3  183.81    8.14
  -2   2  -2   54.00    4.19
  -3   5  -3   92.24    6.81
  -4  12  -4   28.94    8.03
  -4  13  -4  117.66   11.36
  -4  14  -4   24.54    8.23
  -4   1  -2  832.77   16.76
  -5   1  -2  230.02   10.46
  -6  -1  -1   63.68    6.61
  -7   3  -2    0.09    6.24
  -7   0  -1   -1.15    5.34
  -7  -2   0    3.20    4.94
  -1   8  -3  272.59    8.90
  -3  11  -4    8.86    5.98
  -3  12  -4  144.85   10.73
  -3  13  -4   53.91    8.43
  -3  14  -4  135.13   10.87
  -3  15  -4    3.76    6.66
  -3  16  -4    2.01    6.91
  -3   1  -2  970.24   16.18
  -4  10  -4    5.85    7.04
  -4  11  -4   29.54    7.24
  -4   4  -3  145.40    8.92
  -5  10  -4    2.62    7.27
  -5  11  -4   10.11    7.97
  -5  12  -4   38.04    8.46
  -5   4  -3  193.97   11.46
  -6   5  -3  186.03   12.60
  -6  -3   0    4.36    3.84
  -7   7  -3   -0.83    6.40
  -8  -1   0  104.28    9.01
  -2   5  -3   70.84    5.65
  -3  10  -4    7.36    5.74
  -3   4  -3  701.92   16.20
  -4   9  -4  165.64   11.87
  -5   9  -4   37.84    8.90
  -5  -5   1   58.44    4.00
  -6   4  -3   25.33    7.87
  -6   1  -2  398.83   14.63
  -7   6  -3    0.52    6.31
  -7   2  -2    2.79    6.26
  -8   1  -1   29.99    7.24
  -1   7  -3    6.39    2.96
  -1   3  -2  448.80    8.62
  -2  12  -4  231.37   11.49
  -2  13  -4   20.62    5.97
  -2  14  -4  230.31   12.02
  -2  15  -4   -4.02    5.73
  -3   9  -4   80.14    8.24
  -4   8  -4   66.55    8.89
  -4   3  -3  591.02   16.23
  -4   0  -2  169.73    8.05
  -4  -2  -1   78.07    5.05
  -5   8  -4   66.16    9.91
  -5   3  -3  317.71   13.63
  -5   0  -2  236.98   10.36
  -5  -2  -1   57.94    5.24
  -6   9  -4   38.53    9.64
  -6  10  -4    4.11    7.21
  -7  -1  -1   47.78    7.04
  -7  -4   1    1.56    3.98
  -2  11  -4   -2.52    4.49
  -2  16  -4    1.73    5.42
  -3   8  -4  217.74   11.38
  -4   7  -4  193.42   11.90
  -5   7  -4  193.72   13.35
  -6   8  -4    6.89    8.40
  -6   3  -3  405.47   16.52
  -6  -2  -1   19.96    5.19
  -7   1  -2   93.03    9.04
  -7  -3   0   11.17    5.27
  -8   0  -1   -0.31    6.05
   0  17  -3   -4.57    3.78
  -2  10  -4    8.25    4.80
  -2   4  -3  965.61   16.80
  -2   1  -2  384.93    9.09
  -3   3  -3  906.97   17.89
  -3  -2  -1 1402.67   15.95
  -4  -4   0   46.48    3.52
  -5  -4   0  108.98    5.54
  -6   7  -4  207.48   14.58
  -6   0  -2    6.43    5.32
  -6  -5   1  216.95    7.48
  -6  -6   2    9.82    2.86
  -7   4  -3   -1.98    6.15
  -8  -2   0    0.80    5.10
  -1   6  -3  329.44    9.25
  -2   9  -4  155.91    8.89
  -3   7  -4  365.55   13.69
  -3   0  -2 1381.46   18.76
  -4   6  -4  127.01    9.65
  -4   2  -3   63.62    6.65
  -5   6  -4  129.05   10.95
  -5   2  -3   54.53    6.74
  -6   6  -4   52.39    9.82
  -6  -4   0   19.95    4.51
  -7   3  -3  146.12   11.81
  -2   8  -4  301.42   11.50
  -3   6  -4  551.28   16.41
  -4   5  -4  351.23   14.49
  -5   5  -4  211.50   13.15
  -5  -1  -2  226.06    9.85
  -6   2  -3   15.40    6.31
  -7   0  -2   -0.50    5.59
  -7  -2  -1   28.34    6.38
  -8  -1  -1   34.73    7.08
  -1  12  -4  130.42    8.03
  -1  13  -4   11.32    5.38
  -1  14  -4  353.74   12.43
  -1  15  -4   -3.35    5.23
  -1  16  -4   31.01    6.26
  -3   2  -3  841.00   17.04
  -4  12  -5   11.38    7.92
  -4  13  -5    1.77    7.19
  -4  -1  -2  841.59   16.27
  -5  11  -5  112.64   12.38
  -5   1  -3   57.86    7.01
  -5  -3  -1  375.46   10.85
  -6   5  -4  147.41   12.01
  -6  -1  -2  383.57   13.73
  -7   2  -3   15.43    7.18
  -1  11  -4    2.76    3.75
  -1  17  -4   -0.86    5.06
  -1   5  -3   38.92    3.99
  -1   2  -2    4.44    1.86
  -2   7  -4   35.97    5.39
  -2   3  -3  156.42    7.11
  -3  13  -5   15.25    6.99
  -3  14  -5   20.50    7.30
  -3   5  -4  651.84   17.38
  -4  10  -5   61.01    9.74
  -4  11  -5  103.97   10.58
  -4   4  -4   29.61    6.57
  -4   1  -3    4.05    4.08
  -4  -3  -1  797.31   13.59
  -5   9  -5   68.71   10.45
  -5  10  -5   35.13    8.77
  -5   4  -4   64.85    8.31
  -6   4  -4   18.56    7.93
  -6   1  -3   45.79    7.80
  -6  -3  -1  490.30   13.61
  -7   5  -4   45.11    9.58
  -7  -4   0    5.94    4.77
  -7  -5   1   51.87    5.10
  -1  10  -4   82.16    6.29
  -3  11  -5  183.30   12.24
  -3  12  -5   45.14    8.18
  -4   9  -5   92.71   10.34
  -5   8  -5   19.50    8.24
  -7  -1  -2   97.20    8.78
  -1   9  -4   28.49    4.91
  -2   6  -4  350.32   11.90
  -2   0  -2 2541.49   22.25
  -3  10  -5  249.53   13.48
  -3  -1  -2  946.96   15.38
  -4   8  -5   17.50    7.51
  -5   7  -5    0.98    7.16
  -5   3  -4   18.40    6.66
  -5   0  -3    0.41    4.53
  -5  -2  -2  161.68    8.43
  -6   8  -5   -2.00    7.30
  -6   3  -4    1.39    7.08
  -7   1  -3   38.76    7.81
  -7  -3  -1  153.25    9.42
  -2  13  -5   -1.62    5.72
  -2  14  -5    6.86    6.19
  -2  15  -5    1.41    6.33
  -3   9  -5   69.30    8.69
  -3   4  -4   51.27    6.00
  -3   1  -3   75.04    5.79
  -4   7  -5   22.71    7.77
  -4   3  -4    3.85    4.58
  -5  -5   0  289.91    8.15
  -6   7  -5   13.91    7.86
  -6   0  -3    0.45    5.79
  -6  -2  -2   74.93    7.12
   0   7  -3   -5.02    2.39
  -1   8  -4  229.35    9.13
  -1   4  -3  340.19    9.08
  -2  11  -5   23.46    6.67
  -2  12  -5   66.53    7.79
  -2   5  -4  208.71    9.32
  -2   2  -3  794.53   14.77
  -3   8  -5  115.16    9.73
  -3  -3  -1 1613.91   16.69
  -4   0  -3    0.89    3.28
  -4  -2  -2  155.27    7.47
  -5   6  -5    1.51    6.42
  -5   2  -4   21.95    6.76
  -5  -6   1   -0.08    2.32
  -6   6  -5    2.87    7.99
  -6   2  -4    5.53    6.95
  -6  -5   0  229.28    8.41
  -7   3  -4    4.04    6.39
  -7   0  -3   -1.38    6.09
  -7  -2  -2    3.63    5.55
  -2  10  -5  239.76   11.78
  -3   7  -5    9.09    6.00
  -3   3  -4   17.08    4.93
  -4   6  -5    7.67    6.28
  -4   2  -4   31.52    6.19
  -5   5  -5   61.42    9.79
  -5  -4  -1  244.27    8.68
  -6   5  -5  127.01   12.49
  -6  -4  -1   30.38    5.14
  -6  -6   1    4.59    2.99
  -7   2  -4    0.74    6.99
  -1   7  -4  133.16    7.25
  -2   9  -5    8.16    5.25
  -4   5  -5  151.58   11.44
  -4  -5   0  691.82   10.34
  -5  -1  -3   55.78    6.71
  -6  -1  -3   50.14    7.34
  -7  -4  -1    2.60    5.27
  -7  -5   0   48.61    5.61
   0  16  -4    6.73    4.26
  -1   1  -2  737.41   10.62
  -2   4  -4   25.66    4.62
  -3   6  -5   19.92    6.38
  -3   0  -3    0.08    2.96
  -4  11  -6   60.46    9.87
  -4  -1  -3    2.60    3.75
  -4  -4  -1  173.74    6.62
  -5   9  -6   13.14    8.37
  -5   4  -5  111.85   11.20
  -5   1  -4   94.96    8.56
  -5  -3  -2   99.53    6.81
  -6   4  -5   12.39    8.42
  -6   1  -4  277.09   14.53
  -6  -3  -2    3.24    4.61
  -7  -1  -3   45.47    7.74
   1  13  -3    4.47    2.86
   1  14  -3   41.84    3.69
   0   6  -3  451.08    9.32
  -1   3  -3  493.62   10.69
  -2   8  -5  242.15   11.45
  -2   1  -3   86.08    5.57
  -3  13  -6   91.87   10.60
  -3   2  -4  250.27   10.75
  -3  -2  -2  440.05   10.52
  -4   9  -6   27.56    8.43
  -4  10  -6    0.82    6.55
  -4   4  -5   95.06    9.68
  -4   1  -4  193.15   10.52
  -5   8  -6    8.53    8.53
  -7   1  -4  108.87   11.02
  -7  -3  -2    2.02    5.51
   1  12  -3  136.48    5.21
  -1  12  -5   99.25    8.03
  -1  13  -5    0.67    5.06
  -1  14  -5   19.84    5.80
  -1  15  -5    7.25    5.69
  -1  16  -5  135.72    9.41
  -1   6  -4  577.46   13.48
  -2   7  -5    6.30    5.03
  -2  -1  -2  395.43    8.94
  -3  11  -6   52.97    9.00
  -3  12  -6   88.14   10.31
  -3   5  -5   71.53    7.59
  -4   8  -6   13.17    7.79
  -4  -3  -2   73.89    5.48
  -5   7  -6   76.40   11.02
  -5   3  -5  223.05   13.89
  -6   3  -5  263.54   15.42
  -6   0  -4    5.83    6.61
  -6  -2  -3   13.08    5.77
   0  10  -4   68.25    5.19
  -1  11  -5   37.50    6.40
  -2   3  -4   16.76    4.24
  -3  10  -6    1.87    6.61
  -4   3  -5  343.80   15.09
  -5   0  -4   39.13    6.46
  -5  -2  -3   51.54    6.45
  -6  -5  -1  210.61    8.98
  -7   0  -4   14.71    7.64
  -7  -2  -3   22.59    6.88
   1  11  -3  106.60    4.73
  -1  10  -5  365.23   12.67
  -1   5  -4  319.01   10.14
  -2   6  -5   80.69    7.41
  -3   9  -6   -0.18    5.80
  -3   4  -5  365.54   14.43
  -3   1  -4   91.02    7.20
  -3  -1  -3   78.44    5.92
  -4   7  -6   50.22    8.63
  -4   0  -4   48.44    6.60
  -5   6  -6   16.77    7.85
  -5   2  -5   35.18    8.47
  -5  -5  -1   58.10    5.04
  -6   2  -5    8.35    7.15
  -6  -4  -2    1.20    4.51
  -6  -6   0   72.06    5.33
   0   9  -4   -2.59    3.01
  -1   9  -5   24.50    5.48
  -2  12  -6   94.40    9.72
  -2  13  -6   59.45    8.48
  -2  14  -6  110.56    9.89
  -3   8  -6  129.25   11.00
  -4   6  -6   40.32    8.71
  -4  -2  -3   66.17    6.07
  -5   5  -6   72.59   10.59
  -5  -4  -2   11.44    4.30
  -6  -1  -4  264.26   13.99
  -7  -4  -2   -1.77    5.44
  -7  -5  -1   60.62    6.53
   0   5  -3   -0.64    2.10
  -1   2  -3 1912.30   20.41
  -2  11  -6   24.54    6.79
  -2   5  -5   43.26    6.09
  -2   0  -3    1.44    2.97
  -3   7  -6   58.39    9.15
  -3   3  -5  429.47   15.23
  -3  -4  -1 1026.58   13.08
  -4   2  -5   52.86    7.32
  -5  -1  -4  107.49    9.01
  -5  -6   0  170.67    6.20
  -6   4  -6    0.11    8.34
  -6   1  -5   34.56    8.64
  -7  -1  -4  119.59   10.95
  -7  -6   0    6.67    3.71
   1  10  -3  516.28    8.69
   0   8  -4  605.62   12.61
  -1   8  -5  173.57    8.92
  -2  10  -6    1.80    5.73
  -2   2  -4  284.95   10.22
  -3  -3  -2  604.15   12.04
  -4   5  -6   74.18    9.41
  -5   4  -6    0.96    6.77
  -5   1  -5   35.76    7.57
  -5  -3  -3  312.53   12.11
  -1   4  -4   17.42    3.51
  -1   0  -2  751.73   10.68
  -2   9  -6    3.92    5.82
  -3   6  -6  303.98   14.62
  -3   0  -4  772.72   17.69
  -4   9  -7   78.37   11.07
  -4   4  -6    0.74    7.28
  -4   1  -5    3.34    5.84
  -4  -1  -4  193.07   10.01
  -4  -4  -2   -0.15    2.86
  -5   3  -6   26.02    8.63
  -6   3  -6    1.11    7.03
  -6   0  -5    1.81    7.10
  -6  -2  -4    8.87    6.29
  -1   7  -5   -0.56    3.70
  -2   8  -6  269.84   13.17
  -2   4  -5  502.84   14.97
  -2  -2  -2   56.28    3.92
  -3  11  -7   85.03   10.48
  -3   5  -6   92.50    9.78
  -3   2  -5  376.45   14.06
  -3  -2  -3  802.94   15.87
  -4   8  -7   12.54    8.32
  -4  -3  -3  563.50   14.50
  -5   0  -5   -1.72    6.55
  -5  -2  -4   20.64    6.04
  -6  -5  -2  196.99    9.50
  -7  -2  -4    6.49    6.54
   0   7  -4    0.07    3.10
   0   4  -3 2617.15   21.45
  -2   7  -6   -2.75    5.51
  -2   1  -4    0.56    3.73
  -3  10  -7  129.56   12.06
  -4   7  -7   11.41    8.23
  -4   3  -6   28.51    8.36
  -5   2  -6   61.69    9.91
  -6   2  -6   32.85    8.66
  -6  -4  -3   21.28    5.73
  -6  -6  -1    3.28    4.14
  -7  -4  -3    3.12    5.95
  -7  -5  -2   79.54    7.74
  -7  -6  -1    1.72    4.65
  -1  12  -6   37.73    7.23
  -1  13  -6   20.01    6.54
  -1  14  -6  124.60    9.60
  -1   6  -5  121.07    7.58
  -1   3  -4    3.74    3.32
  -1   1  -3   44.21    4.01
  -2   3  -5  103.85    7.82
  -2  -1  -3   85.59    5.49
  -3   9  -7   52.91    9.56
  -3   4  -6   32.76    7.51
  -4   0  -5    0.95    5.59
  -4  -2  -4   30.41    5.66
  -5   5  -7   38.14   10.11
  -5  -4  -3  180.60    9.54
  -5  -5  -2  159.25    7.95
  -6  -1  -5   41.23    8.74
   0  11  -5   -7.60    4.43
  -1  11  -6   20.47    5.97
  -2   6  -6  341.39   14.25
  -3   8  -7   65.47    9.72
  -3   1  -5   49.80    6.43
  -3  -1  -4   98.39    6.97
  -4   6  -7    3.59    6.97
  -4   2  -6   48.97    9.10
  -5  -1  -5   41.10    7.94
  -5  -6  -1    1.56    3.22
  -6   1  -6  169.19   13.36
  -6  -3  -4    5.01    5.98
  -7  -3  -4    6.08    6.52
   0   6  -4  620.71   12.49
  -1  10  -6    2.23    4.75
  -1   5  -5   24.37    4.69
  -2  11  -7   27.65    7.92
  -2  12  -7   30.91    7.68
  -3   7  -7   -1.59    7.15
  -3   3  -6  109.83    9.90
  -4   5  -7   86.55   10.94
  -5   4  -7   56.80   10.16
  -5   1  -6  126.47   11.46
  -5  -3  -4   11.49    5.58
  -6  -7   0  257.50    7.84
   0  10  -5  424.41   12.19
  -1   9  -6   -2.55    4.53
  -2  10  -7  123.56   10.81
  -2   5  -6    5.94    5.52
  -2   2  -5  415.17   13.68
  -2   0  -4 1881.79   25.10
  -3   6  -7   17.05    7.65
  -3  -3  -3  898.82   16.63
  -3  -4  -2  102.16    5.42
  -4  -1  -5    8.64    5.81
  -4  -4  -3  140.93    7.84
  -4  -5  -2  210.06    8.07
  -5   3  -7  135.00   13.27
  -6   0  -6    6.98    7.92
  -6  -2  -5   11.43    7.26
  -6  -5  -3  165.33   10.10
  -7  -5  -3   49.81    7.55
   0   9  -5   -3.76    3.94
  -1   8  -6  341.68   13.19
  -1   2  -4  575.57   13.15
  -2   9  -7   14.12    7.05
  -3   0  -5    0.22    4.17
  -4   4  -7   65.28    9.67
  -4   1  -6  273.65   14.42
  -4  -3  -4    3.93    4.49
  -5   0  -6   84.37   10.56
  -5  -2  -5   38.02    7.77
  -6  -4  -4   15.88    6.12
  -6  -6  -2   17.01    5.11
  -7  -4  -4    8.05    6.54
  -7  -6  -2   27.81    6.00
   1  13  -4   12.25    3.37
   1  14  -4  349.35    8.29
   0   5  -4   -1.24    2.58
  -1   4  -5  267.56   10.45
  -1  -1  -2  738.10   10.68
  -2   8  -7  108.19   10.22
  -2   4  -6   76.47    7.98
  -3   5  -7   29.37    8.35
  -3   2  -6  113.46    9.48
  -3  -2  -4  247.14   10.40
  -3  -5  -1  105.09    4.62
  -4   3  -7  179.69   13.80
  -5   2  -7   16.48    9.01
  -6  -1  -6  159.91   13.10
   1  12  -4  138.18    5.73
   0   8  -5  608.57   14.09
  -1   7  -6   11.24    5.46
  -1   0  -3   -0.37    2.20
  -2   7  -7    1.86    6.19
  -2   1  -5    8.11    4.46
  -2  -2  -3  787.46   14.43
  -2  -3  -2  186.41    6.29
  -4   0  -6   95.89   10.47
  -4  -2  -5   54.19    7.54
  -4  -6  -1    3.59    2.53
  -5  -1  -6  134.21   11.86
  -5  -4  -4   61.90    7.32
  -5  -6  -2   30.70    5.05
  -5  -7   0  257.31    6.83
  -6  -3  -5  252.86   14.27
  -6  -7  -1   24.97    4.59
  -7  -7  -1    2.53    4.25
   1  11  -4    1.21    3.00
  -2   3  -6   31.08    6.39
  -2  -1  -4    3.83    3.75
  -3   4  -7  190.54   12.82
  -3   1  -6  243.13   13.13
  -3  -1  -5   50.92    6.81
  -4   2  -7   37.04    9.21
  -5   1  -7   15.91    8.63
  -5  -3  -5  195.15   12.27
   0   7  -5   -2.16    3.29
  -1  12  -7   46.95    7.88
  -1  13  -7    0.94    5.53
  -1   6  -6  617.38   17.08
  -1   3  -5  165.96    8.54
  -1   1  -4   39.57    4.71
  -2   6  -7   33.99    7.60
  -3   7  -8  116.55   12.04
  -6  -2  -6   28.38    8.37
  -6  -5  -4  158.42   10.57
  -6  -6  -3    1.66    5.34
  -7  -5  -4   32.15    6.96
  -7  -6  -3    3.02    5.65
   1  10  -4   92.49    4.92
   0  12  -6  133.25    8.60
   0   4  -4   24.52    3.57
  -1  10  -7  175.99   11.33
  -1  11  -7   21.84    6.56
  -2   5  -7   21.93    7.28
  -3   3  -7  189.58   12.83
  -3  -3  -4   16.22    4.46
  -4   4  -8    8.06    8.37
  -4   1  -7   12.06    7.68
  -4  -1  -6  278.17   14.27
  -4  -4  -4   24.07    5.33
  -4  -5  -3  239.64    9.60
  -5   0  -7   -1.34    7.36
  -5  -2  -6   57.43    9.43
  -5  -7  -1    0.60    3.33
  -6  -4  -5   17.32    7.24
  -7  -7  -2  137.70    8.64
   0  11  -6   -2.72    4.58
   0   6  -5  164.04    7.99
  -1   9  -7    9.73    6.05
  -1   5  -6   26.56    5.28
  -2   2  -6   45.60    6.49
  -2   0  -5   -1.18    3.58
  -3   6  -8  137.72   12.26
  -3   0  -6  355.77   14.83
  -3  -5  -2  409.59    9.92
  -4  -3  -5  343.96   14.17
  -4  -6  -2   63.96    5.03
  -5  -5  -4  186.26   10.46
  -5  -6  -3   -0.53    4.31
  -6  -7  -2  241.69    9.87
   1   9  -4   26.05    3.45
   0  10  -6    1.41    4.57
   0   2  -3 2492.09   21.01
  -1   8  -7   77.78    8.66
  -1   2  -5  757.24   16.84
  -2   9  -8   31.95    8.30
  -2   4  -7  280.51   14.32
  -3   5  -8  124.61   12.45
  -3   2  -7  172.67   12.28
  -3  -2  -5  397.86   14.05
  -4   3  -8    4.32    7.99
  -5  -4  -5  124.40    9.78
  -6  -3  -6    1.42    6.89
   0   9  -6   -9.88    4.55
  -1   4  -6   58.80    6.72
  -1   0  -4 1852.84   23.21
  -1  -1  -3   49.24    3.97
  -2   8  -8   92.36   10.40
  -2   1  -6  115.09    8.97
  -2  -3  -3  152.35    6.71
  -4   0  -7    0.55    6.31
  -4  -2  -6   64.75    8.54
  -5  -1  -7   20.67    7.73
  -5  -3  -6   33.84    8.30
  -5  -7  -2  147.42    7.51
  -6  -6  -4   49.85    7.62
   0   8  -6  579.81   15.43
   0   5  -5   -2.14    3.37
   0   3  -4   -1.72    2.65
  -1   7  -7    1.42    5.42
  -2   7  -8   32.99    8.33
  -2   3  -7   53.09    8.51
  -2  -1  -5   10.52    4.23
  -3   4  -8   16.28    7.52
  -3   1  -7   31.96    7.66
  -3  -1  -6  253.06   12.71
  -4   2  -8   14.52    7.77
  -4  -4  -5   93.75    8.53
  -4  -5  -4  345.54   12.62
  -6  -5  -5  105.80    9.96
  -6  -7  -3   19.94    5.86
  -7  -7  -3    2.01    5.41
  -1   6  -7   50.19    7.43
  -1   3  -6   32.86    5.83
  -1   1  -5   17.05    4.42
  -1  -2  -2    3.34    1.81
  -2   6  -8  103.34   10.93
  -2  -4  -2  355.27    8.43
  -3   3  -8   -0.68    7.57
  -3  -3  -5  415.80   14.46
  -3  -4  -4   53.26    5.60
  -4  -1  -7    2.98    7.11
  -4  -6  -3    5.45    4.07
  -5  -5  -5   46.81    7.65
  -5  -6  -4  104.49    8.21
  -6  -4  -6   -0.66    6.60
  -6  -8  -1    0.92    3.74
   1  13  -5    3.62    3.41
   0   7  -6   -0.45    4.22
  -2   5  -8   53.47    9.05
  -2   2  -7  194.12   12.30
  -2   0  -6  512.60   16.61
  -3   0  -7   -1.07    6.79
  -3  -5  -3   90.16    6.06
  -4   1  -8   58.29    9.76
  -4  -3  -6   22.45    6.81
  -5  -4  -6    1.35    6.76
   1  11  -5   46.05    4.75
   1  12  -5  103.27    5.81
   0   4  -5 1035.96   18.18
  -1  10  -8   13.32    6.54
  -1   5  -7    7.91    5.75
  -2  -3  -4   12.44    3.93
  -3   2  -8   59.44    9.82
  -3  -2  -6  119.54    9.44
  -3  -6  -1   60.88    3.69
  -4  -2  -7   44.19    8.93
  -4  -7  -1   65.83    4.19
  -5  -7  -3    0.35    4.00
  -6  -6  -5    2.64    6.16
  -6  -8  -2    2.95    4.26
  -7  -8  -2    9.32    4.70
   0  11  -7   -1.99    5.42
   0  12  -7   44.62    6.82
   0  13  -7   -2.66    4.92
   0   6  -6  731.01   17.02
   0   2  -4  707.08   13.39
   0   1  -3   -0.45    1.91
  -1   9  -8    1.03    6.23
  -1   2  -6   46.96    5.98
  -1  -1  -4   43.37    4.57
  -2   4  -8   10.25    7.21
  -2  -2  -5  409.52   13.39
  -3  -1  -7   24.45    7.90
  -4   0  -8   35.65    8.82
  -4  -5  -5  148.08    9.93
  -5  -3  -7  129.01   11.70
  -6  -7  -4  193.38   10.97
   0  10  -7  216.42   11.08
  -1   8  -8   83.54    9.38
  -1   4  -7  194.01   10.97
  -1   0  -5   -1.99    3.22
  -1  -2  -3 1850.33   20.29
  -2   1  -7    2.70    5.51
  -2  -1  -6  105.90    8.49
  -2  -4  -3  933.18   15.64
  -3   1  -8   28.61    8.73
  -3  -4  -5  365.73   13.66
  -3  -5  -4  621.45   15.54
  -3  -6  -2  937.55   14.55
  -4  -4  -6    0.99    6.16
  -4  -6  -4  110.85    7.97
  -4  -7  -2   67.75    5.03
  -5  -5  -6   81.50    9.66
  -5  -6  -5   -1.24    5.50
  -5  -8  -1   33.26    4.00
   0   9  -7   -3.15    5.10
   0   5  -6   -1.13    3.82
   0   3  -5    2.66    3.42
  -1   7  -8   22.58    7.30
  -1   1  -6   83.97    7.58
  -2   3  -8    0.41    6.13
  -3  -3  -6  108.95    9.01
  -4  -1  -8   54.39    9.42
  -4  -3  -7  180.46   13.26
  -5  -4  -7   52.21    9.35
  -5  -7  -4  182.16   10.01
  -5  -8  -2   14.34    4.30
  -6  -8  -3    5.82    5.25
   0   8  -7  228.00   11.12
  -1   6  -8  148.59   11.25
  -1   3  -7   47.24    6.86
  -2   2  -8   80.67    9.99
  -2   0  -7   -1.84    5.62
  -2  -3  -5   98.25    7.53
  -3   0  -8  180.59   13.53
  -3  -2  -7  181.06   12.85
  -3  -6  -3   46.03    5.04
  -4  -7  -3   40.48    5.16
  -6  -7  -5    8.21    6.08
   0   7  -7   -5.04    4.84
   0   4  -6  203.22    9.54
   0   1  -4    5.30    3.31
  -1   5  -8   43.24    7.86
  -1  -1  -5   12.62    4.28
  -1  -2  -4  564.76   13.23
  -2  -2  -6   48.29    6.96
  -2  -4  -4   29.73    4.56
  -4  -2  -8   10.91    7.98
  -4  -5  -6   72.23    8.92
  -4  -6  -5    5.01    5.19
  -5  -8  -3   28.10    5.37
  -6  -8  -4    8.64    5.97
   0   2  -5  910.11   17.19
   0   0  -3   -0.15    2.27
  -1   2  -7  333.02   13.89
  -1   0  -6  347.54   13.19
  -1  -3  -2  461.33    8.73
  -2   4  -9  122.60   11.86
  -2   1  -8    6.74    7.31
  -2  -1  -7   -1.02    5.99
  -2  -5  -2    3.31    2.33
  -3  -1  -8   30.41    8.91
  -3  -4  -6   28.30    6.75
  -3  -5  -5   58.08    6.95
  -4  -4  -7   51.32    9.19
  -5  -5  -7   33.30    8.54
  -5  -6  -6   15.04    6.85
  -5  -7  -5    2.30    5.51
   1  12  -6   35.30    4.82
   1   5  -4  313.74    8.10
   0   6  -7   74.77    7.37
   0   3  -6   -2.57    3.79
  -1   4  -8   -1.89    6.18
  -3  -3  -7  204.14   12.83
  -3  -6  -4  541.10   14.53
  -4  -3  -8   -0.32    7.24
  -4  -7  -4  191.91    9.66
  -6  -9  -2   51.40    5.53
   0  10  -8   13.66    6.46
   0   5  -7   -0.41    4.80
  -1   1  -7    7.12    5.88
  -1  -3  -3  474.03   10.57
  -2   3  -9   34.53    8.81
  -2  -3  -6   32.42    6.56
  -2  -4  -5  474.80   14.47
  -2  -5  -3   72.90    5.19
  -3  -2  -8   50.88    9.34
  -5  -8  -4   66.12    7.22
  -6  -8  -5   -2.07    5.80
   1   6  -5  113.58    6.07
   0   9  -8    0.32    5.54
   0   1  -5   -0.44    3.33
   0   0  -4 6188.65   39.59
  -1   6  -9   12.81    7.00
  -1   3  -8    0.20    5.54
  -1  -1  -6   88.52    7.91
  -1  -2  -5  758.34   16.98
  -2   2  -9  101.49   11.25
  -2   0  -8  352.92   16.38
  -2  -2  -7  208.88   12.63
  -3  -5  -6   95.01    9.09
  -4  -5  -7   66.12    9.43
  -4  -6  -6   44.23    7.23
  -4  -7  -5   22.69    5.92
  -4  -8  -2   25.12    3.98
  -5  -7  -6   88.33    9.48
  -6  -9  -3  180.06    9.34
   1   8  -6  360.56   11.23
   0   8  -8  122.62    9.49
   0   4  -7  462.88   15.27
   0   2  -6   41.45    5.55
  -1   2  -8  136.62   10.95
  -1   0  -7   -2.23    5.38
  -1  -3  -4    2.10    3.35
  -2  -5  -4  195.03    8.67
  -3  -4  -7  179.84   12.08
  -3  -6  -5   31.22    5.88
  -3  -7  -2  150.51    6.27
  -4  -4  -8    7.41    7.63
  -4  -8  -3   19.24    4.59
  -4  -8  -1   13.09    2.82
  -6  -9  -4   42.28    7.08
   1   5  -5   21.63    3.86
   1   4  -4   16.27    3.03
   0   7  -8    0.42    5.67
  -1   5  -9    3.33    6.19
  -2   1  -9   -0.42    7.41
  -2  -1  -8   14.58    6.96
  -2  -4  -6   81.47    8.02
  -3  -3  -8   -2.43    6.22
  -3  -7  -3    8.46    3.46
  -3  -7  -1   12.99    2.54
  -4  -8  -4   61.68    6.75
  -5  -9  -3   84.64    6.98
  -5  -9  -2   17.40    4.17
   1   7  -6    7.38    4.43
   0   6  -8  149.06   10.40
   0   3  -7    0.34    5.05
   0   0  -5   -2.64    3.24
   0  -1  -3   -1.03    2.34
  -1   4  -9  117.56   11.08
  -1   1  -8    7.01    6.91
  -1  -2  -6   39.32    6.24
  -2  -3  -7   55.93    8.02
  -2  -5  -5   52.36    6.17
  -3  -7  -4  364.54   12.08
  -4  -6  -7   -1.09    6.48
  -4  -7  -6   48.67    7.85
  -5  -9  -1  103.32    5.19
   1   6  -6  637.61   14.70
   0   5  -8   -0.40    5.53
   0   1  -6    1.86    3.85
  -1   3  -9   20.47    7.79
  -1  -1  -7    7.56    5.13
  -1  -3  -5  156.03    8.34
  -2   0  -9    3.66    7.30
  -2  -2  -8   84.20   10.01
  -3  -4  -8    8.17    7.53
  -3  -5  -7   37.05    7.54
  -3  -6  -6  281.54   13.17
  -5  -8  -6    9.30    6.48
  -5  -9  -4   32.05    6.24
   1   9  -7   13.80    5.39
   1   4  -5  272.45    8.90
   1   3  -4    7.98    2.81
   0   4  -8    4.74    5.72
   0   2  -7  390.68   14.34
   0  -1  -4    2.69    2.89
  -1   0  -8  382.98   16.50
  -1  -4  -3  329.85    8.97
  -1  -4  -2  163.77    5.52
  -2  -6  -3  171.87    7.19
  -2  -6  -2 1013.46   14.06
  -3  -7  -5    3.39    4.81
  -4  -8  -5   13.77    5.40
   1   8  -7   79.78    6.99
   1   5  -6   27.59    4.91
   0   0  -6 1083.73   21.14
  -1   2  -9  148.04   12.05
  -1  -2  -7  336.66   14.44
  -1  -3  -6   35.08    6.09
  -1  -4  -4   16.82    3.61
  -2  -1  -9    4.35    6.75
  -2  -3  -8   -0.51    6.64
  -2  -4  -7  271.68   13.60
  -2  -5  -6    2.41    4.58
  -2  -6  -4  353.84   11.24
  -4  -7  -7    4.96    6.86
  -6 -10  -4    2.47    5.59
  -6 -10  -3   23.08    5.45
   1   7  -7    2.08    4.58
   0   6  -9   25.40    7.31
   0   3  -8   -0.48    5.66
   0   1  -7   -3.56    4.95
   0  -1  -5    2.32    3.12
  -1   1  -9   -5.68    6.51
  -1  -1  -8    7.93    6.97
  -1  -4  -5  276.70   10.84
  -2  -6  -5   79.64    7.10
  -3  -5  -8  141.30   12.21
  -3  -6  -7   13.57    6.30
  -3  -7  -6   68.74    8.38
  -4  -8  -6   15.82    6.47
  -4  -9  -3  170.03    8.14
   1   6  -7   61.50    6.65
   1   4  -6   58.98    5.55
   1   3  -5  162.35    7.25
   0   5  -9    0.28    6.61
  -2  -2  -9   95.69   10.65
  -3  -8  -4  222.23    9.63
  -3  -8  -3  207.12    8.25
  -4  -9  -4  172.36    9.13
  -4  -9  -2   93.29    5.52
  -5  -9  -6   12.68    6.38
   1   2  -4  576.36   11.23
   1   2  -3 1883.14   16.63
   0   2  -8  163.84   10.97
   0   0  -7    0.00    5.08
   0  -1  -6    0.98    4.45
   0  -2  -4  704.13   13.86
   0  -2  -3 2411.46   21.84
  -1   0  -9    0.34    6.93
  -1  -3  -7   49.45    7.58
  -1  -4  -6   60.45    6.88
  -2  -4  -8    7.77    6.35
  -2  -5  -7   26.24    6.72
  -2  -6  -6  338.36   13.88
  -3  -8  -5  116.54    8.45
  -3  -8  -2  363.23    9.10
  -4  -8  -7   14.46    6.88
  -4  -9  -5  104.51    8.45
  -5 -10  -4    8.67    5.53
  -5 -10  -3   73.25    6.35
   1   9  -8    5.42    5.36
   1  10  -8   12.64    5.25
   1   5  -7    6.39    4.57
   1   3  -6   35.39    4.88
   1   2  -5  752.22   14.66
   0   4  -9  196.94   12.43
   0   1  -8    9.18    6.48
   0  -2  -5  914.27   17.80
  -1  -2  -8  135.25   10.68
  -1  -5  -4  306.26   10.15
  -1  -5  -3   42.78    4.10
  -2  -3  -9   36.02    9.05
  -2  -7  -4   34.68    4.80
  -2  -7  -3   19.24    3.86
  -3  -6  -8  131.12   11.38
  -3  -7  -7    6.08    6.50
  -5 -10  -5   38.64    6.91
  -5 -10  -2   -1.36    3.40
   1   7  -8   27.33    6.45
   1   8  -8   78.22    7.64
   1   4  -7  190.38    9.77
   0   3  -9    9.17    6.89
  -1  -1  -9   -1.33    6.64
  -1  -5  -5   20.14    4.70
  -2  -5  -8   46.66    8.62
  -2  -6  -7   39.94    7.69
  -2  -7  -5    5.91    4.64
  -3  -8  -6  135.12   10.08
   1   6  -8  141.70    9.47
   1   2  -6   39.22    5.09
   0   2  -9  156.72   11.56
   0   0  -8  734.48   20.96
   0  -1  -7   -1.12    4.37
   0  -2  -6   45.71    5.69
  -1  -3  -8    1.04    6.34
  -1  -4  -7  190.78   11.21
  -2  -4  -9  105.62   11.73
  -4  -9  -1  201.83    6.02
   1   5  -8   38.33    6.74
   1   3  -7   54.40    6.37
   1   1  -5   19.33    3.74
   1   1  -4   34.70    3.77
   0  -3  -5    6.25    3.94
   0  -3  -4    0.98    3.14
  -1  -2  -9  141.64   11.90
  -1  -5  -6   30.91    5.63
  -1  -5  -2  265.46    6.96
  -2  -7  -6    3.14    4.63
  -2  -7  -2   67.97    4.24
  -3  -8  -7   58.61    8.74
  -3  -9  -5   79.66    7.63
  -3  -9  -4   82.22    6.48
  -3  -8  -1  263.17    6.37
  -4  -9  -7   76.30    9.08
  -4 -10  -5   69.44    7.53
  -4 -10  -4    5.15    4.30
  -4 -10  -3   91.42    6.70
   0   1  -9   -1.01    6.42
   0  -1  -8    1.10    6.44
   0  -2  -7  394.16   14.72
   0  -3  -3    2.33    2.66
  -1  -4  -8   -2.86    6.03
  -2  -6  -8  127.58   11.24
  -3  -9  -3  136.67    6.90
  -5 -11  -4   19.80    5.43
   1   4  -8    1.01    4.84
   1   2  -7  344.60   12.66
   1   1  -6   86.16    6.63
   0  -3  -6   -1.69    3.69
  -1  -3  -9   21.13    7.93
  -1  -5  -7    9.18    5.66
  -1  -6  -5  117.52    7.51
  -1  -6  -4  572.22   13.51
  -2  -7  -7    1.69    5.38
  -2  -8  -5  248.01   10.85
  -2  -8  -4  287.23   10.36
  -5 -11  -5  103.04    8.55
  -5 -11  -3  167.32    8.18
   1   6  -9   15.39    6.17
   1   3  -8    5.15    5.19
   1   0  -5   -0.29    2.94
   1   0  -4 1888.56   20.72
   0   0  -9    0.31    5.68
   0  -2  -8  160.29   11.16
   0  -3  -7    0.88    5.32
  -1  -6  -6  625.86   17.33
  -1  -6  -3  318.49    9.09
  -2  -8  -6  260.49   12.45
  -2  -8  -3  460.00   11.40
  -3  -9  -7   75.99    9.15
  -3  -9  -2    2.32    2.82
  -4 -10  -2   -0.38    3.08
   1   5  -9    6.56    5.65
   1   2  -8  134.09    9.39
   1   1  -7    5.40    4.59
   1   0  -6  353.03   11.80
   0  -1  -9   -1.40    6.31
   0  -4  -5 1017.82   18.97
   0  -4  -4   21.79    3.95
  -1  -4  -9  115.71   11.35
  -1  -5  -8   37.37    7.34
  -1  -6  -7   63.87    8.21
  -2  -7  -8   35.60    7.58
   1   4  -9  115.47    9.54
   1   0  -3    0.13    1.95
   0  -4  -6  214.17   10.17
   0  -3  -2   -0.57    1.78
  -2  -8  -7  112.33    9.51
  -3 -10  -5  238.17   11.10
  -3 -10  -4    6.29    4.24
  -4 -11  -5   96.42    8.04
  -4 -11  -4   25.05    5.61
   1   3  -9   24.00    6.79
   1   1  -8   10.54    5.98
   1   0  -7   -0.90    3.79
   1  -1  -6   85.61    6.77
   1  -1  -5   14.99    3.76
   0  -2  -9  164.99   12.17
   0  -3  -8    2.13    5.42
   0  -4  -7  470.18   16.01
   0  -4  -3 2549.11   23.23
  -1  -5  -9    4.53    7.33
  -1  -6  -8  146.14   11.45
  -1  -7  -6   15.56    5.81
  -1  -7  -5    1.66    3.58
  -1  -7  -4  135.19    7.22
  -2  -8  -8   77.48    9.44
  -2  -9  -5   11.13    4.81
   1  -1  -4   35.75    3.75
  -3 -10  -7  130.74   10.27
   1 -13  -2   63.62    6.56
   1 -12  -2   31.96    5.05
   1 -11  -2   63.53    5.87
   1 -17  -1   11.55    5.69
   1 -19   0   33.64    6.47
   0 -13  -4   -6.69    6.56
   0 -11  -4   -6.58    5.32
   0  -5  -3   -3.18    2.63
  -1 -16  -5  134.91   12.56
  -1  -7  -5   -0.66    4.78
  -1  -3  -4    6.82    3.38
  -2  -7  -6   -3.46    5.89
  -3 -11  -7  104.07   11.92
  -3 -10  -7  137.02   12.81
  -3  -3  -6  102.49    8.23
  -3   0  -5    1.98    3.21
  -4  -5  -7   69.16    8.88
  -4  -1  -6  262.01   10.93
  -5  -3  -7  126.26   10.36
  -5   3  -5  199.66    6.81
   1 -15  -2   15.57    6.03
   1 -14  -2  287.39   12.01
   1 -10  -2    6.06    3.66
   1 -18  -1   41.99    7.16
   1  -6  -1  486.79    9.29
   0 -15  -4   -4.82    7.00
   0 -14  -4  539.28   18.82
   0 -10  -4   77.19    7.39
   0  -9  -4   -5.93    4.52
  -2  -6  -6  345.88   14.38
  -2  -2  -5  392.42   11.86
  -3  -9  -7   57.36    9.25
  -3  -8  -7   52.94    9.32
  -4   2  -5   55.01    4.77
   1 -16  -2    8.32    5.47
   1  -9  -2   -4.13    2.57
   1 -19  -1    1.57    5.78
   0 -17  -4   -7.79    6.45
   0 -16  -4    5.09    7.08
   0  -8  -4  593.57   16.17
  -1  -6  -5  122.07    8.21
  -3  -7  -7    0.37    6.83
  -4  -4  -7   58.89    8.21
  -5  -2  -7   17.11    6.89
  -5   1  -6  119.81    7.43
   1 -17  -2    0.78    5.61
   1  -8  -2 1052.64   17.29
   0  -7  -4   -3.47    4.02
   0  -4  -3 2533.91   24.95
  -1  -5  -5   25.18    5.10
  -2  -5  -6    4.46    5.21
  -3  -6  -7   19.77    7.20
  -3  -2  -6  106.26    7.65
   1 -18  -2  106.79    9.50
  -1 -14  -6  144.11   13.06
  -1 -13  -6   29.94    8.25
  -1 -12  -6   34.23    7.98
  -1 -11  -6   21.96    7.93
  -1 -10  -6   -2.44    6.75
  -1  -2  -4  568.36   12.42
  -1   0  -3   -0.89    1.98
  -2 -12  -7   26.03    9.34
  -2 -11  -7   27.46    9.26
  -3  -5  -7   24.80    7.55
  -4  -3  -7  164.18   10.64
   1 -15  -3   14.74    6.50
   1 -14  -3   43.25    7.14
   1 -13  -3    4.19    5.07
   1 -12  -3  138.18    9.11
   1 -11  -3  101.92    8.04
   1  -7  -2   47.14    4.41
   1  -5  -1   67.13    3.69
   0 -14  -5    3.31    7.27
   0 -13  -5   -0.80    7.12
   0 -12  -5   96.79   10.34
   0  -6  -4  623.54   15.37
  -1  -9  -6   -6.67    6.57
  -1  -4  -5  259.72   10.58
  -2 -10  -7  134.99   11.99
  -2  -9  -7    9.14    7.97
  -2  -4  -6   81.44    7.57
  -2  -1  -5   12.18    3.65
  -5  -1  -7   17.97    6.39
   1 -17  -3    6.82    7.12
   1 -16  -3  215.90   12.58
   1 -10  -3  526.78   14.88
   0 -16  -5  278.64   16.27
   0 -15  -5   -0.47    6.69
   0 -11  -5   -9.11    5.29
   0  -3  -3    0.59    2.88
  -1  -8  -6  353.33   15.13
  -2  -8  -7  120.67   11.23
  -3  -4  -7  183.38   11.41
  -3  -1  -6  252.36   10.47
  -4  -2  -7   40.29    7.31
   2 -14   1    6.96    3.47
   2 -13   1   -2.24    2.91
   2 -12   1  107.78    5.05
   2 -14   2  217.56    6.09
   1 -18  -3   52.12    8.44
   1  -9  -3   52.72    5.69
   1  -6  -2 2422.74   23.91
   0  -9  -5   -2.53    5.03
   0  -5  -4   -0.31    3.17
  -1  -7  -6   17.40    6.05
  -2  -7  -7    4.00    6.87
  -2  -3  -6   26.96    5.26
   2 -14   0  367.90   10.82
   2 -13   0   31.60    4.69
   2 -15   1   -0.44    3.54
   2 -11   1   52.71    3.73
   1  -8  -3  271.05   10.31
   0  -8  -5  652.35   18.45
  -1  -6  -6  664.18   19.24
  -1  -3  -5  154.13    8.18
  -1  -1  -4   37.50    4.02
  -2  -6  -7   43.43    8.13
  -3  -3  -7  169.74   10.83
  -5   2  -6   52.79    5.32
   2 -16   0    3.52    4.44
   2 -15   0    2.35    4.14
   2 -12   0  366.93    9.74
   2 -11   0   -1.59    2.70
   2 -16   1  245.39    8.49
   1 -16  -4   31.63    7.94
   1 -15  -4   -3.01    6.66
   1 -14  -4  373.02   16.05
   1 -13  -4   15.45    7.00
   1 -12  -4  142.53   10.31
   1 -11  -4    2.31    5.28
   0  -7  -5   -2.03    4.98
   0  -4  -4   21.28    4.35
  -1 -13  -7   -0.52    7.99
  -1 -12  -7   49.29   10.23
  -1 -11  -7   19.02    8.71
  -2   0  -5   -0.41    3.10
  -3  -7  -8  108.14   11.42
  -4  -1  -7    5.55    5.74
  -4   3  -5  343.16    8.14
   2 -15  -1   -0.71    4.74
   2 -14  -1    9.25    4.62
   2 -13  -1   -1.14    3.88
   2 -17   0   -1.10    4.64
   2 -17   1   35.93    4.91
   1 -17  -4    0.72    6.90
   1 -10  -4   84.60    8.08
   1  -7  -3    5.21    3.24
   1  -5  -2  263.99    7.97
   0 -15  -6    1.99    8.25
   0 -14  -6  182.86   14.08
   0 -13  -6   -5.54    7.33
  -1 -10  -7  194.26   14.03
  -1  -5  -6   27.23    6.10
  -2  -5  -7   20.96    7.15
  -2  -2  -6   52.66    5.98
  -3  -6  -8  138.11   12.06
  -3   0  -6  360.23   11.66
  -4  -4  -8   13.73    6.87
   2 -17  -1   48.15    7.27
   2 -16  -1  269.33   11.56
   2 -12  -1  101.46    6.40
   2 -11  -1   56.14    5.27
   2 -18   0   24.71    5.50
   2 -10   0   16.62    3.10
   1  -9  -4   27.37    5.69
   0 -11  -6   -6.52    6.08
   0 -10  -6    2.45    7.33
   0  -6  -5  168.31    9.47
   0  -2  -3 2419.91   22.44
  -1  -9  -7   16.71    7.46
  -1  -2  -5  754.15   16.05
  -2  -9  -8   37.64    9.47
  -3  -2  -7  190.84   10.87
   2 -18  -1   62.47    7.63
   1  -8  -4  237.18   10.87
   1  -6  -3  331.68   10.42
   0  -9  -6   -8.71    6.45
  -1  -8  -7   87.99    9.75
  -1  -4  -6   70.77    7.41
  -2  -8  -8   88.10   11.12
  -2  -4  -7  253.54   12.89
  -3  -5  -8  129.11   11.26
  -4  -3  -8   -0.88    6.07
   2 -17  -2   11.60    6.45
   2 -16  -2    1.00    5.77
   2 -15  -2    2.39    5.13
   2 -14  -2  234.47   10.99
   2 -13  -2  125.76    8.41
   2 -12  -2  205.04    9.78
   2 -10  -1  446.23   11.12
   2  -9   0  331.04    7.95
   1 -16  -5  146.98   12.65
   1 -15  -5    8.18    7.58
   1 -14  -5   21.06    7.88
   1 -13  -5    2.24    6.83
   1 -12  -5  120.03   10.93
   0  -8  -6  605.04   19.67
   0  -5  -5    0.88    3.76
   0  -3  -4   -0.53    2.81
  -1  -7  -7   -1.79    5.87
  -1   0  -4 1883.74   20.32
  -2  -7  -8   29.46    8.88
  -2  -1  -6  105.92    7.50
  -3  -4  -8   10.69    7.28
  -4   2  -6   52.72    5.24
   2 -18  -2   48.57    7.78
   2 -11  -2   47.28    5.48
   2  -9  -1    2.16    3.13
   1 -11  -5   51.19    7.84
   1 -10  -5  355.37   15.18
   1  -7  -4  130.53    8.31
   1  -4  -2  158.13    6.06
   0  -7  -6   -3.51    6.34
  -1  -6  -7   57.82    8.80
  -2  -3  -7   50.55    7.25
  -3  -1  -7   21.44    5.90
  -4  -2  -8   12.26    6.59
   2 -16  -3  221.18   12.79
   2 -15  -3   -2.17    5.59
   2 -14  -3    9.86    5.77
   2 -13  -3   -0.48    5.24
   2 -10  -2    0.98    3.52
   1  -9  -5   23.03    6.63
   1  -5  -3   42.26    4.44
   0 -13  -7   -0.44    7.10
   0 -12  -7   41.50    9.09
   0 -11  -7    0.45    7.81
   0  -4  -5 1024.26   20.35
  -1 -10  -8   16.21    8.57
  -1  -3  -6   40.87    6.02
  -1  -1  -5   14.94    3.80
  -2  -6  -8  117.26   10.82
  -2   1  -5    6.38    3.06
   2 -17  -3   25.30    7.28
   2 -12  -3   86.79    7.82
   2  -8   0  533.51    9.37
   1  -6  -4  559.98   15.02
   0 -10  -7  220.34   14.70
   0  -6  -6  754.90   20.38
  -1  -9  -8    3.05    8.04
  -1  -5  -7    4.27    6.34
  -2  -5  -8   47.32    8.70
  -3  -3  -8   -1.01    5.89
   2 -11  -3   53.80    6.54
   2  -9  -2   35.04    4.79
   2  -8  -1  695.41   12.69
   1 -14  -6  152.72   12.63
   1 -13  -6   28.91    8.70
   1 -12  -6   42.27    9.16
   1  -8  -5  171.34   10.34
   0  -9  -7    1.12    6.86
   0  -2  -4  703.17   14.11
   0  -1  -3    0.92    2.07
  -1  -8  -8   80.78   11.00
  -2  -2  -7  198.07   10.69
  -2   0  -6  530.84   13.89
  -4  -1  -8   62.01    8.14
   2 -16  -4    2.28    6.59
   2 -15  -4   -1.30    6.44
   2 -14  -4  251.79   13.59
   2 -13  -4   28.81    7.43
   2 -10  -3  335.97   12.39
   1 -11  -6   20.29    7.23
   1  -7  -5    0.04    5.01
   1  -4  -3  328.54    9.78
   0  -8  -7  248.86   14.66
   0  -5  -6   -1.75    4.58
   0  -3  -5    2.63    3.96
  -1  -7  -8   29.19    8.87
  -1  -4  -7  201.14   11.76
  -1  -2  -6   48.50    5.89
  -2  -4  -8    7.74    6.66
  -3  -2  -8   61.27    8.51
  -3   0  -7    0.89    4.72
   2 -12  -4  259.32   13.02
   2 -11  -4   -4.74    4.98
   2  -9  -3   11.57    4.47
   2  -8  -2  808.83   15.56
   1 -10  -6   -1.37    6.07
   1  -9  -6   -5.37    6.58
   1  -5  -4  306.40   10.90
   0  -7  -7   -2.80    7.01
   2 -10  -4   10.95    5.43
   2  -7  -1   25.70    3.44
   1  -6  -5  119.28    8.63
   1  -3  -2  447.34    9.20
   0  -4  -6  208.32   10.99
  -1  -6  -8  159.89   12.50
  -1  -3  -7   57.85    7.47
  -1   0  -5   -0.47    2.97
  -1   1  -4   36.32    3.64
  -2  -3  -8    3.55    6.45
  -2  -1  -7    0.39    5.15
  -3   3  -5  437.26    9.03
   2 -15  -5    3.78    7.37
   2 -14  -5    7.83    7.38
   2 -13  -5   -2.64    6.73
   2  -8  -3  455.33   13.33
   2  -7  -2   70.08    5.33
   1 -13  -7    0.67    7.07
   1 -12  -7   59.85   10.56
   1  -8  -6  346.66   15.21
   0 -10  -8    8.85    7.59
   0  -6  -7   86.66    9.31
   0  -1  -4    5.79    3.29
  -1  -5  -8   36.39    8.16
  -1  -1  -6   90.49    6.98
  -3  -1  -8   37.69    7.37
  -4   3  -6   24.73    3.87
   2 -12  -5   73.95    9.32
   2 -11  -5   26.30    7.61
   2  -9  -4  162.78    9.61
   1 -11  -7   28.77    8.37
   1  -7  -6    7.76    6.67
   1  -5  -5   23.71    5.40
   1  -4  -4   12.32    3.76
   1  -3  -3  480.23   11.28
   0  -9  -8    0.46    7.09
   0  -2  -5  929.67   18.16
  -2   1  -6  109.98    6.78
   2 -10  -5  237.20   13.03
   2  -8  -4  314.29   12.61
   2  -7  -3   23.80    4.53
   1 -10  -7  191.82   13.57
   0  -8  -8  125.60   11.81
   0  -5  -7   -0.07    5.26
   0  -3  -6   -1.20    4.34
  -1  -2  -7  333.37   13.45
  -2  -2  -8   81.61    8.64
  -4   2  -7   37.64    5.25
   2 -14  -6  122.06   12.20
   2 -13  -6   55.09    9.82
   2  -6  -1  326.73    8.16
   1  -9  -7   16.05    7.35
   0  -7  -8    1.80    7.65
   0   0  -3    0.32    2.14
  -1  -4  -8    1.99    5.67
  -2  -4  -9  127.47   11.68
  -2   0  -7    0.82    4.43
   3 -16  -2    4.00    5.67
   3 -15  -2   81.66    8.04
   3 -16  -1  145.82    8.81
   3 -15  -1   53.54    6.39
   2 -12  -6   91.18   10.85
   2  -9  -5    8.90    5.47
   2  -7  -4   40.92    5.94
   2  -6  -2  972.14   15.87
   1  -8  -7   88.07   10.00
   1  -4  -5  287.01   11.61
   1  -3  -4    1.73    3.56
   0  -4  -7  469.40   17.07
  -1  -6  -9   17.68    8.20
  -3   0  -8  174.99   10.60
   3 -16  -3  120.49   10.10
   3 -15  -3   46.06    7.75
   3 -14  -3   35.88    7.01
   3 -17  -2    1.42    5.27
   3 -14  -2  192.30   10.11
   3 -13  -2  211.44   10.42
   3 -17  -1   49.23    6.44
   3 -14  -1   54.90    6.07
   3 -13  -1   22.47    5.14
   2 -11  -6   25.71    7.58
   2 -10  -6    1.86    6.90
   2  -8  -5  271.55   13.12
   2  -6  -3  176.49    8.10
   1  -7  -7   -2.40    7.07
   1  -5  -6   29.95    6.80
   1  -2  -2    4.66    2.29
   0  -6  -8  175.10   12.70
   0  -2  -6   42.12    5.88
   0  -1  -5    0.90    3.43
  -1  -3  -8    3.22    6.24
  -1   0  -6  343.92   11.56
  -1   1  -5   19.08    3.53
  -2  -3  -9   35.37    8.50
  -2  -1  -8    7.54    6.19
   3 -13  -3   12.18    5.61
   3 -12  -2  180.83    9.39
   3 -12  -1   93.13    6.66
   3 -16   0    5.30    3.94
   3 -15   0   21.10    4.48
   3 -14   0  215.49    8.14
   1 -10  -8   14.07    7.86
   1  -2  -3 1872.50   21.02
   0  -5  -8   -1.92    6.74
   0  -3  -7    2.61    5.56
   0   0  -4 6080.18   38.08
  -1  -5  -9    4.38    7.30
  -1  -1  -7    8.12    4.98
   3 -16  -4    1.95    6.21
   3 -15  -4   17.63    6.92
   3 -14  -4  129.70   10.60
   3 -13  -4   54.59    8.24
   3 -12  -3   77.27    7.70
   3 -11  -2  141.03    8.25
   3 -13   0   84.83    5.71
   2 -12  -7   32.79    9.40
   2  -9  -6    9.21    6.58
   2  -7  -5    4.28    4.76
   2  -6  -4  337.32   12.10
   2  -5  -2    2.77    2.90
   1  -9  -8    9.79    7.51
   1  -6  -7   61.85    9.16
   1  -3  -5  157.84    8.82
  -2   1  -7   -0.54    4.75
  -3   3  -6  104.79    5.84
   3 -12  -4  146.60   10.67
   3 -11  -3  370.44   13.56
   3 -11  -1  449.32   11.74
   2 -11  -7   32.47    8.56
   2  -8  -6  277.09   14.54
   2  -5  -3   75.57    5.93
   1  -8  -8   82.34   10.43
   1  -4  -6   53.63    6.77
   1  -2  -4  557.76   13.36
   0  -4  -8    6.24    6.75
  -1  -4  -9  115.76   11.34
  -1  -2  -8  126.29   10.15
  -2  -2  -9  103.34   10.29
  -3   1  -8   32.75    6.66
   3 -14  -5   24.56    7.91
   3 -13  -5    9.98    7.27
   3 -11  -4   12.40    6.25
   3 -10  -3  400.83   13.72
   3 -10  -2   10.08    4.03
   3 -12   0  216.32    7.60
   2 -10  -7  153.47   12.59
   2  -6  -5   83.23    8.04
   2  -5  -4  176.18    9.04
   2  -5  -1  126.02    5.09
   1  -7  -8   28.22    8.99
   1  -5  -7   12.60    6.91
   0  -6  -9   25.46    8.78
   0  -2  -7  390.09   14.88
   0  -1  -6   -0.86    4.01
  -1   1  -6   88.94    6.61
  -2   0  -8  356.01   14.11
   3 -12  -5   41.22    8.29
   3 -10  -4    7.03    5.63
   3 -10  -1  500.38   11.92
   2  -9  -7   16.92    7.39
   2  -7  -6   -0.07    5.45
   1  -3  -6   37.25    6.35
   0   0  -5   -0.20    3.13
  -1  -3  -9   26.71    8.20
  -1   0  -7   -3.74    4.19
   3 -13  -6  112.21   11.62
   3 -11  -5  193.00   12.24
   3  -9  -3  138.63    8.47
   3  -9  -2    1.68    3.52
   3 -11   0   24.55    3.62
   2  -8  -7  115.35   11.43
   2  -6  -6  362.39   15.33
   2  -5  -5   50.03    6.64
   1  -6  -8  159.11   12.40
   1  -4  -7  217.33   12.81
   1  -2  -5  735.76   16.85
   0  -5  -9   -2.73    7.11
   0  -3  -8    1.13    6.50
  -1  -1  -8    2.63    5.72
  -1   2  -5  753.88   13.61
  -2  -1  -9   -1.15    6.27
   3 -12  -6   98.03   11.08
   3 -10  -5  248.35   13.32
   3  -9  -4   93.32    7.98
   3  -9  -1  161.43    7.16
   3 -14   1   52.03    3.89
   2  -4  -4   29.78    4.96
   2  -4  -3  945.20   16.85
   2  -4  -2  343.50    9.16
   1  -1  -3   49.74    4.22
   0   1  -3   -0.38    1.94
   3 -11  -6   56.80    9.01
   3  -9  -5   89.34    9.53
   3  -8  -4  244.94   11.66
   3  -8  -3  193.70    9.40
   3  -8  -2  389.11   11.52
   3 -13   1   26.29    3.27
   2  -9  -8   38.59    9.70
   2  -7  -7    2.31    6.45
   1  -5  -8   35.42    7.96
   1  -1  -4   39.64    4.67
   1  -1  -2  733.12   10.86
   0  -4  -9  199.16   13.92
   0  -1  -7    1.34    4.85
   0   0  -6 1053.00   20.23
   0   1  -4    5.60    2.93
  -1  -2  -9  141.52   11.45
  -2   1  -8   11.19    6.06
  -2   2  -7  199.77    9.10
   3 -10  -6    2.02    6.39
   3 -10   0   13.35    2.98
   2  -8  -8   96.44   11.84
   2  -6  -7   44.37    8.91
   2  -5  -6   11.06    5.49
   2  -4  -5  503.48   15.56
   1  -3  -7   54.04    7.36
   1  -2  -6   40.66    5.84
   0  -2  -8  160.50   11.28
  -1   0  -8  369.79   14.51
  -1   1  -7    8.33    4.75
  -3   3  -7  189.66    8.10
   3 -11  -7  106.24   12.15
   3  -9  -6    5.82    7.08
   3  -8  -5  118.60    9.39
   3  -7  -4  388.13   13.96
   3  -7  -3    9.45    4.15
   3  -8  -1  270.10    8.53
   2  -4  -1 1400.36   15.10
   1  -6  -9   21.72    7.88
   1  -4  -8    0.15    6.08
   1  -1  -5   18.46    4.38
   0  -3  -9    3.46    7.42
   0   1  -5   -1.25    2.86
  -1   2  -6   46.16    5.07
  -2   0  -9   -0.40    5.64
   4 -15  -3   31.10    7.12
   3 -10  -7  136.86   12.73
   3  -8  -6  149.28   11.72
   3  -7  -5    2.14    5.47
   3  -7  -2  151.62    7.44
   2  -7  -8   34.66    8.57
   2  -5  -7   23.56    8.05
   2  -4  -6   85.64    8.66
   2  -3  -4   16.53    4.33
   2  -3  -3  162.31    7.26
   1  -5  -9    7.46    7.71
   0   0  -7    4.00    4.66
  -1  -1  -9    1.98    6.34
   4 -14  -4   23.95    7.06
   4 -14  -3    2.53    5.76
   4 -16  -2   11.14    5.65
   4 -15  -2   29.00    6.35
   3  -9  -7   61.26   10.28
   3  -9   0  146.58    5.60
   2  -6  -8  127.10   12.30
   2  -3  -5  105.39    7.95
   2  -3  -2  191.82    6.86
   1  -3  -8   -1.14    6.67
   1  -2  -7  317.59   13.72
   1  -1  -6   83.42    7.33
   0  -1  -8   -0.58    5.91
  -3   4  -6   32.20    3.62
   4 -13  -5   -4.75    6.21
   4 -13  -4  121.85   10.02
   4 -12  -4   26.80    7.23
   4 -13  -3   -0.50    5.03
   4 -14  -2   56.26    7.24
   3  -8  -7   63.40    9.88
   3  -7  -6   76.30    9.62
   3  -6  -5   28.82    6.52
   3  -6  -4  545.48   15.78
   3  -6  -3   51.12    5.52
   2  -4  -7  271.62   14.35
   1  -4  -9  130.12   12.05
   0  -2  -9  170.57   12.47
   0   1  -6   -2.65    3.60
  -1   1  -8    2.45    5.71
  -2   1  -9    5.65    6.11
  -2   2  -8   89.63    7.76
   4 -12  -5   18.60    7.45
   4 -11  -4   24.27    6.45
   4 -12  -3   33.71    6.41
   4 -13  -2  316.67   12.13
   3  -6  -2  925.80   16.40
   3  -7  -1   14.41    3.25
   2  -5  -8   44.56    9.06
   2  -3  -6   38.15    6.19
   1   0  -5   -0.34    3.34
   1   0  -4 1857.67   22.54
   1   0  -3   -2.25    2.40
  -1   2  -7  338.58   11.83
   4 -11  -5  104.65   10.35
   4 -11  -3  147.03    9.32
   4 -12  -2   73.06    7.18
   4 -16  -1   18.40    4.98
   4 -15  -1   32.64    5.33
   3  -7  -7    2.19    7.15
   3  -5  -4  679.86   17.25
   2  -2  -5  403.29   13.46
   2  -2  -4  281.13   10.17
   1  -2  -8  139.47   10.69
   1  -1  -7   11.20    5.09
   0  -1  -9   -3.18    6.80
   0   0  -8  721.16   20.17
   0   1  -7   -2.15    4.65
  -2   4  -5  484.24    8.88
  -3   3  -8    0.91    4.01
   4 -11  -6   53.63    9.33
   4 -10  -5   54.88    8.67
   4 -10  -4    7.19    5.70
   4 -10  -3   82.89    7.48
   4 -11  -2  135.31    8.31
   4 -14  -1    8.18    4.23
   3  -5  -5   67.02    7.35
   3  -5  -3   88.48    6.51
   3  -8   0  441.58    8.73
   2  -4  -8   11.55    7.73
   2  -3  -7   54.86    8.61
   2  -2  -3  805.15   14.87
   1  -3  -9   21.80    7.46
   1   0  -6  342.68   12.51
   0   2  -5  911.48   15.87
   0   2  -4  681.03   12.05
   4 -10  -6    4.13    7.32
   4  -9  -5  105.82    9.86
   4  -9  -4  171.44   10.66
   4 -13  -1   -0.25    4.03
   3  -7  -8  120.49   12.70
   3  -6  -7   14.22    6.92
   3  -5  -6  107.09    9.97
   2  -2  -6   54.73    6.71
   2  -3  -1  171.30    5.40
   1  -1  -8    4.88    6.37
   0   2  -3 2363.18   18.63
  -1   1  -9    2.20    5.93
  -1   3  -6   32.44    4.31
  -3   4  -7  180.47    7.10
   4  -9  -6   33.00    8.34
   4  -9  -3  178.87    9.65
   4 -10  -2   -1.35    4.01
   4 -12  -1   29.48    5.08
   3  -4  -5  372.83   14.20
   3  -4  -4   56.13    6.28
   3  -5  -2  413.45   10.91
   3  -6  -1   65.69    4.55
   2  -3  -8    5.24    7.04
   2  -2  -2   49.21    3.98
   1  -2  -9  160.26   12.54
   1   0  -7   -2.60    4.88
   0   2  -6   40.32    5.03
  -1   2  -8  135.32    8.90
  -2   2  -9   95.18    8.48
  -2   4  -6   80.26    5.10
   4  -8  -5   17.77    6.75
   4  -8  -4   69.09    7.74
   3  -6  -8  149.12   12.71
   3  -5  -7   38.51    7.92
   3  -4  -6   28.72    7.18
   3  -4  -3  690.89   15.38
   2  -4  -9  123.92   12.16
   2  -2  -7  204.33   11.93
   2  -1  -5    5.01    4.14
   2  -1  -4    2.13    3.62
   1   1  -5   13.85    3.89
   1   1  -4   41.38    4.38
   0   0  -9   -3.62    5.74
   0   1  -8    1.70    5.47
  -1   3  -7   52.66    6.12
   4  -9  -7   78.06   10.02
   4  -8  -6   19.76    6.95
   4  -8  -3   15.66    4.91
   4  -9  -2   92.71    6.78
   4 -11  -1  172.83    7.67
   2  -1  -6  108.30    8.52
   1   1  -6   81.45    6.81
   0   2  -7  376.72   12.96
   4  -8  -7   18.19    7.95
   4  -7  -6   49.29    8.83
   4  -7  -5   18.64    6.19
   4  -7  -4  203.53   11.01
   3  -5  -8  136.44   12.05
   3  -3  -5  441.30   15.08
   2  -3  -9   38.10    9.10
   2  -2  -8   84.88    9.87
   2  -1  -3   88.71    5.40
   1  -1  -9   -2.66    6.37
   1   0  -8  407.56   16.11
  -1   2  -9  149.65   10.31
   4  -7  -7   16.01    7.85
   4  -7  -3   51.65    5.87
   4  -8  -2   27.33    4.80
   4 -10  -1   98.49    6.13
   4 -14   0   30.07    4.06
   3  -4  -8   12.79    7.81
   3  -3  -6  103.21    8.94
   3  -3  -4   21.86    4.50
   3  -4  -2   90.86    5.65
   3  -7   0  770.01   10.92
   2  -1  -7   -3.03    4.66
   1   1  -7    6.34    5.12
   1   1  -3   49.22    3.74
   0   1  -9    0.95    5.98
   4  -6  -6   42.50    8.29
   4  -6  -5    4.22    5.25
   4  -6  -4  137.17    9.39
   4 -13   0  174.31    6.65
   3  -3  -7  202.83   13.07
   3  -3  -3  908.62   17.28
   3  -5  -1  103.74    5.23
   2  -2  -9  102.42   10.89
   2  -1  -8   10.13    6.93
   2   0  -5   -2.02    3.66
   1   0  -9    1.84    6.32
   0   2  -8  166.51   10.12
   0   3  -6   -0.94    3.69
   0   3  -5    2.00    2.88
  -1   3  -8    1.66    4.89
   5 -11  -5  124.99   10.79
   5 -12  -4   44.46    7.60
   5 -13  -3   -3.59    5.57
   4  -6  -7    2.34    7.11
   4  -9  -1  207.87    8.05
   3  -2  -5  395.59   14.16
   2   0  -6  530.34   15.93
   2   0  -4 1862.61   24.21
   1   1  -8    3.79    5.98
   0   3  -4   -0.55    2.38
   5 -10  -5   45.74    8.31
   5 -11  -4   14.50    6.31
   5 -12  -3    9.22    6.06
   4  -5  -6   82.81    9.50
   4  -5  -5  158.62   10.25
   4  -5  -4  330.14   12.98
   4  -6  -3    2.91    4.07
   4  -7  -2   71.79    5.77
   4 -12   0   34.68    4.09
   3  -3  -8    2.01    6.39
   3  -2  -7  193.66   12.56
   3  -2  -6  114.79    9.11
   3  -2  -4  239.89   10.22
   2   0  -7   -1.74    4.47
   2  -1  -2  381.33    8.88
   2  -2  -1 1076.29   12.56
   1   2  -6   42.70    5.40
   1   2  -5  746.96   15.46
   0   3  -7    3.11    4.20
   5  -9  -6    9.78    6.86
   5  -9  -5   77.71    9.05
   5 -10  -4   12.29    6.09
   5 -11  -3  194.53   10.74
   5 -14  -2   26.83    5.85
   4  -5  -7   84.87    9.77
   2  -1  -9    1.31    6.61
   2   0  -8  355.51   15.75
   2   0  -3    1.54    2.89
   1   2  -7  352.98   13.28
   1   2  -4  545.31   11.90
  -1   3  -9   22.05    6.54
  -1   4  -7  198.44    8.62
   5  -9  -4   44.11    7.23
   5 -10  -3   71.47    7.72
   5 -13  -2  100.91    7.83
   4  -4  -6    0.01    6.29
   4  -4  -5  111.97    9.38
   4  -5  -3  247.45   10.23
   4  -8  -1   17.64    3.58
   4 -11   0   42.00    4.11
   3  -2  -8   57.17    9.26
   3  -1  -6  261.89   12.67
   3  -2  -3  835.11   16.37
   3  -3  -2  612.41   12.69
   2   1  -6  120.58    8.50
   2   1  -5    7.84    4.13
   1   1  -9    3.80    6.15
   0   3  -8   -1.32    5.05
   5  -8  -6   11.72    7.07
   5  -8  -5   14.90    6.67
   5 -12  -2  129.36    8.52
   4  -4  -7   74.04    9.33
   4  -4  -4   25.78    5.64
   4  -6  -2   67.47    5.60
   3  -1  -7   23.79    7.57
   3  -1  -5   44.15    5.94
   3  -4  -1 1068.20   14.57
   3  -6   0 1161.30   12.95
   2   1  -7    0.20    5.31
   1   2  -8  131.94    9.75
  -1   4  -8   -3.01    4.51
  -2   5  -6    7.54    2.98
   5  -7  -6   86.34   10.06
   5  -7  -5   -3.51    5.66
   5  -8  -4   62.65    7.83
   5  -9  -3   89.15    7.79
   5 -11  -2   44.21    6.21
   4  -4  -8   12.92    7.97
   4  -3  -6   19.59    7.09
   3  -1  -8   33.00    8.20
   3  -1  -4   94.15    6.69
   2   0  -9   -1.08    5.66
   2   1  -8    2.41    6.16
   2   1  -4    2.82    3.01
   1   2  -3 1854.85   18.79
  -2   5  -7   21.43    3.90
   5  -7  -4  189.14   11.25
   4  -3  -7  186.39   12.50
   4  -3  -5  348.37   13.90
   4  -4  -3  130.16    7.81
   4  -7  -1   65.26    5.02
   4 -10   0   16.20    3.37
   1   2  -9  152.31   11.08
   1   3  -7   59.21    6.63
   1   3  -6   43.35    5.20
   1   3  -5  151.54    7.32
   0   3  -9    4.16    5.47
   0   4  -7  448.15   13.21
   0   4  -6  211.94    8.44
   0   4  -5 1022.73   15.69
   5  -6  -6   21.10    7.51
   5  -6  -5   -1.00    6.02
   5  -8  -3   26.80    5.41
   5 -10  -2   -0.32    4.31
   5 -14  -1    9.05    4.07
   4  -3  -8   -0.33    7.08
   4  -3  -4    2.41    4.52
   4  -5  -2  210.02    8.54
   3   0  -7    7.75    6.67
   3   0  -6  360.67   14.04
   3   0  -5   -3.08    4.29
   2   1  -9    1.94    6.35
   2   2  -6   53.00    6.36
  -1   4  -9  112.92    8.48
   5  -6  -4  119.05    9.29
   5 -13  -1    1.63    3.69
   4  -2  -7   34.51    8.17
   4  -2  -6   60.28    8.58
   4  -2  -5   58.86    7.37
   3   0  -8  183.59   12.76
   3  -1  -3   73.87    5.51
   3  -2  -2  444.70   10.77
   2   2  -7  196.01   10.92
   2   2  -5  399.58   12.39
   2   1  -3   84.01    5.26
   2   0  -2 2531.34   22.01
   1   3  -8    3.28    5.14
   1   3  -4    4.47    3.08
   0   4  -8    3.90    4.83
  -2   5  -8   46.89    4.85
   5  -5  -7   41.99    8.87
   5  -5  -6   79.34    9.14
   5  -5  -5   58.53    8.32
   5  -7  -3    2.19    4.34
   5  -9  -2   15.66    4.51
   5 -12  -1   13.63    4.36
   4  -2  -8   17.14    7.99
   4  -9   0  311.37    7.84
   3   0  -4  762.54   16.75
   2   2  -8   80.03    8.88
   0   4  -4   24.09    3.08
   4  -2  -4   29.59    5.56
   4  -3  -3  565.57   14.49
   4  -6  -1    4.36    3.01
   3   1  -7   24.05    7.21
   3   1  -6  266.11   12.45
   3  -3  -1 1573.76   17.38
   3  -5   0 1565.52   14.67
   2   2  -9  114.39   10.39
   2   2  -4  275.14    9.49
   2  -1  -1  406.92    7.75
   1   3  -9   19.87    6.71
   0   4  -9  206.98   11.21
   6 -10  -4    0.67    5.83
   5  -4  -7   54.73    8.78
   5  -4  -6    1.34    5.81
   5  -4  -5  116.99    9.92
   5  -5  -4  192.35   10.84
   5  -6  -3    1.76    4.33
   5  -8  -2   11.42    4.34
   5 -11  -1  222.99    8.71
   4  -1  -8   63.64    9.43
   4  -1  -7    5.81    5.93
   4  -1  -6  288.93   13.65
   4  -1  -5    9.25    5.31
   4  -4  -2    0.68    3.17
   3   1  -8   33.74    7.87
   3   1  -5   45.92    6.17
   1   4  -7  196.33    9.78
   1   4  -6   58.38    5.59
   6  -8  -5    1.22    6.10
   3   0  -3    0.35    3.28
   2   3  -8    2.25    5.47
   2   3  -7   56.75    6.64
   2   3  -6   36.37    5.63
   1   4  -8   -2.37    4.71
   1   4  -5  266.91    9.16
   0   5  -7    0.03    4.12
   0   5  -6    4.12    3.41
   6  -9  -4   43.02    7.36
   6 -11  -3  118.62    9.00
   5  -3  -7  132.78   11.27
   5  -3  -6   30.04    7.09
   5  -4  -4   63.35    7.43
   5  -5  -3   55.36    6.25
   5  -7  -2  153.67    8.05
   5 -10  -1   79.00    5.88
   4   0  -7    3.55    6.51
   4   0  -6   96.09    9.36
   4  -1  -4  198.04    9.79
   4  -2  -3   68.40    6.06
   4  -8   0   89.90    4.56
   3   2  -7  180.59   11.37
   3   1  -4   95.69    6.79
   3  -1  -2  952.63   15.34
   1   4  -9  114.89    9.65
   1   2  -2    4.02    1.89
   0   5  -8    1.23    4.73
   6  -7  -5    7.57    6.21
   6  -8  -4    6.32    6.02
   6 -10  -3   24.62    6.42
   5  -3  -5  218.53   11.99
   4   0  -8   33.10    7.54
   4  -3  -2   68.28    5.30
   4  -5  -1  377.78    9.68
   3   2  -6  128.44    8.80
   2   3  -9   35.76    7.73
   2   2  -3  796.20   13.92
   1   3  -3  490.02    9.62
   0   5  -5    1.53    2.69
   6  -6  -5   -1.56    5.97
   6  -9  -3  214.58   11.00
   5  -2  -7   28.06    7.43
   5  -2  -6   60.69    8.66
   5  -3  -4   16.98    5.50
   5  -6  -2   41.21    5.32
   5  -9  -1   87.95    5.89
   4   0  -5   -0.43    4.15
   3   2  -5  392.40   13.05
   2   1  -2  372.30    8.58
   1   4  -4   12.95    3.24
   0   5  -9    3.31    4.86
  -2   6  -7   41.23    3.82
  -2   6  -6  341.92    7.11
   6  -7  -4  187.23   11.22
   6 -12  -2   15.76    5.26
   5  -2  -5   33.46    7.37
   5  -4  -3  193.69    9.78
   4   1  -8   65.93    9.10
   4   1  -7    7.13    6.48
   4   1  -6  287.97   13.53
   3  -2  -1 1402.30   16.28
   2   4  -8    8.34    5.71
   2   4  -7  253.25   11.62
   2   4  -6   79.82    6.93
   2   3  -4   16.41    3.37
   1   5  -8   38.01    6.39
   1   5  -7    9.86    4.36
   1   5  -6   28.61    4.84
   6  -5  -5  134.16   10.78
   6  -6  -4   46.67    7.34
   6  -8  -3   -3.16    4.71
   6 -11  -2   67.12    6.59
   5  -1  -7   28.39    7.79
   5  -1  -6  127.56   10.57
   5  -8  -1   37.27    4.51
   4   0  -4   51.86    5.81
   4  -1  -3    3.78    3.34
   4  -7   0  284.10    7.23
   3   3  -7  204.87   11.72
   3   3  -6  100.05    8.32
   3   2  -4  250.95    9.84
   3   1  -3   76.33    5.46
   3  -4   0   92.08    3.93
   2   4  -9  113.98    9.91
   6  -4  -6   -3.46    6.03
   6 -10  -2   -1.87    4.85
   5  -2  -4   15.19    5.56
   5  -5  -2  168.14    8.14
   4   1  -5    7.12    4.52
   4  -2  -2  149.74    7.19
   4  -4  -1  187.41    7.06
   3   0  -2 1394.50   18.34
   2   4  -5  504.80   13.36
   1   5  -9    2.38    5.14
   1   5  -5   22.74    4.11
   0   6  -8  167.43    8.90
   0   6  -7   71.69    5.94
   0   5  -4   -0.71    2.13
   6  -4  -5   14.33    7.03
   6  -5  -4  161.11   10.54
   6  -7  -3   16.55    5.51
   5   0  -7    2.68    6.53
   5  -1  -5   32.28    6.48
   5  -3  -3  307.70   11.73
   5  -7  -1    0.22    3.51
   5 -12   0   62.84    4.28
   4   2  -8   15.16    7.18
   3   3  -5  446.75   13.90
   0   6  -9   21.64    5.85
   0   6  -6  739.06   14.00
   6  -3  -6    1.11    5.64
   6  -6  -3   -0.81    5.05
   6  -9  -2   63.40    6.77
   5   0  -6   92.30    9.12
   4   2  -6   59.28    7.59
   4   1  -4  192.21    9.55
   4   0  -3   -1.08    3.46
   3   4  -8   15.07    6.46
   3   4  -7  192.81   11.19
   2   5  -8   45.78    6.98
   2   5  -7   29.37    5.95
  -1   6  -5  114.97    4.58
   6  -3  -5  270.48   13.87
   6  -4  -4    8.67    5.85
   6  -8  -2   -4.55    4.56
   5   0  -5    1.82    5.93
   5  -1  -4   91.99    7.90
   5  -4  -2    9.07    3.71
   5 -11   0   17.30    3.30
   4   2  -5   58.96    7.14
   4  -6   0  186.95    6.00
   3   4  -6   36.07    6.23
   2   5  -6   12.11    4.44
   2   4  -4   29.73    4.06
   2   3  -3  153.13    6.38
   1   6  -8  153.12    9.07
   1   6  -7   50.43    5.76
   6  -2  -6   27.98    7.05
   6  -5  -3  188.44   10.30
   5   1  -7   29.67    7.10
   5   1  -6  114.69   10.04
   5  -2  -3   43.82    5.45
   5  -6  -1    1.20    3.21
   4   3  -8    4.24    6.20
   4  -1  -2  841.46   15.69
   4  -3  -1  817.06   13.85
   3   3  -4   16.85    3.97
   3   2  -3  790.68   15.20
   3  -1  -1  126.66    5.34
   2   2  -2   56.35    3.79
   1   6  -9   16.93    5.52
   1   6  -6  605.67   14.01
   1   5  -4  314.37    8.68
   1   4  -3  326.46    7.88
   0   6  -5  158.74    6.17
   6  -2  -5    6.98    6.66
   6  -3  -4   -1.59    5.34
   6  -7  -2  245.44   10.49
   5 -10   0   16.02    3.24
   4   3  -6   30.66    6.29
   3   4  -5  364.14   12.48
   3   1  -2  968.10   15.34
   3  -3   0   82.62    3.73
   2   5  -5   51.44    5.23
   1   3  -2  458.39    8.03
   6  -1  -6  182.57   12.02
   6  -4  -3   14.92    5.85
   6 -11  -1  122.68    6.73
   5   2  -7   23.55    7.26
   5   1  -5   40.56    7.13
   5   0  -4   45.68    6.04
   5  -1  -3   54.70    6.03
   5  -3  -2   96.65    6.51
   4   3  -5  351.85   13.25
   4   2  -4   30.11    4.95
   4   1  -3    3.28    3.61
   3   5  -7   35.34    6.76
   2   6  -8  119.32    9.01
   2   6  -7   37.99    5.97
   0   7  -8    2.79    4.31
   0   7  -7   -0.07    3.93
  -1   7  -7    3.60    3.12
   6  -1  -5   37.33    7.40
   6  -2  -4    6.91    5.62
   6  -6  -2   11.41    4.83
   6 -10  -1   28.62    4.76
   5   2  -6   55.61    8.26
   5  -5  -1   65.45    5.21
   5  -9   0   60.53    4.37
   4   4  -8   10.28    6.34
   4  -5   0  719.66   11.13
   3   5  -6  101.46    8.12
   2   6  -6  327.80   11.52
   1   6  -5  120.14    6.24
   6   0  -6    7.66    6.70
   4   0  -2  155.41    7.29
   4  -2  -1   81.57    4.94
   3   4  -4   51.86    5.44
   3   3  -3  912.95   16.30
   1   7  -8   26.08    5.48
   1   7  -7    1.08    4.06
   0   7  -6    4.27    3.24
  -1   7  -6   14.62    3.14
   7  -5  -4   40.68    7.09
   6  -3  -3  396.90   13.77
   6  -5  -2  196.01    9.34
   6  -9  -1  241.71    8.95
   5   3  -7  128.34   10.75
   5   2  -5   27.35    6.69
   5   1  -4  100.24    7.74
   5  -2  -2  165.69    8.04
   5  -8   0   94.01    5.11
   4   3  -4    4.21    4.27
   3   5  -5   66.13    6.44
   3   0  -1    0.52    2.28
   2   5  -4  184.16    7.51
   2   4  -3  942.84   14.82
   2   1  -1  397.96    7.59
   7  -7  -3    1.27    4.62
   6   1  -6  171.60   11.95
   6   0  -5   -0.68    5.12
   6  -1  -4  299.01   13.14
   6  -8  -1   -2.70    3.94
   5   3  -6   29.00    6.95
   5   0  -3   -1.36    3.40
   5  -4  -1  259.48    8.77
   4   4  -5   99.03    8.15
   4   2  -3   68.00    5.95
   3   6  -7   18.48    5.74
   3   2  -2  434.28   10.48
   2   7  -8   34.56    6.22
   2   6  -5   76.25    5.84
   1   7  -6   13.23    3.72
   7  -4  -4    7.70    5.75
   7  -6  -3    2.01    4.85
   6  -2  -3    8.97    5.36
   6  -4  -2    0.99    4.22
   3   6  -6  293.16   12.05
   2   7  -7    5.76    4.51
   2   3  -2  190.38    6.22
   1   6  -4  564.53   11.22
   6   1  -5   38.33    7.32
   6   0  -4    9.81    6.14
   5   4  -7   59.23    7.93
   5   3  -5  211.17   11.31
   5   2  -4   24.66    5.14
   5  -1  -2  231.48    9.34
   4   1  -2  818.33   15.47
   4  -1  -1    1.43    2.51
   2   7  -6    1.03    3.93
   1   5  -3   42.09    3.37
   7  -3  -4    7.09    5.13
   6   2  -6   32.65    7.07
   5   4  -6    0.64    5.00
   5   1  -3   55.54    5.76
   3   5  -4  642.99   14.77
   6  11  -2   81.51   12.17
   5   3  -5  186.94   11.73
   5   6  -4  115.46   10.56
   4   7  -3   48.40    7.04
   4   9  -2   96.03    9.84
   4  13   2  312.52   15.43
   3   5  -3   92.16    7.20
   3  10   0   14.34    5.14
   3  11   1  482.53   16.33
   3  12   3   76.48    8.17
   3  12   4  133.76    9.03
   3  12   5   52.23    7.03
   2   8   0  552.94   14.25
   2   9   1    7.03    3.94
   1   5   0 1258.59   15.45
   6   0  -6    2.75    6.74
   6   5  -5  109.40   11.99
   5  -3  -6   28.31    5.43
   5   9  -3   93.13   11.28
   4   1  -5    7.36    4.63
   4   5  -4  359.58   14.35
   3   2  -4  257.08    9.51
   3   9  -1  169.25   10.10
   2   2  -3  798.73   13.62
   2   5  -2    4.02    3.57
   2  10   2    1.34    4.21
   2  10   6    0.23    3.69
   1   8   4  228.38    6.82
   6   1  -6  166.09   12.14
   6   8  -4   15.67    9.51
   6  10  -3   30.35    9.62
   5  -2  -6   57.27    6.60
   5   4  -5   96.11   10.05
   5   7  -4  205.93   14.00
   5  11  -2   43.28   10.25
   4  11  -1  188.30   12.49
   4  12   0   35.58    8.01
   4  13   1   -5.07    6.61
   3  12   2  196.29   11.30
   2   7  -1   29.13    4.58
   1   8   3  253.24    7.66
   6  12  -2   20.14    9.33
   4   2  -5   51.97    6.65
   4   8  -3   16.11    6.15
   4  14   3    6.05    6.75
   3   3  -4   17.26    4.85
   3   6  -3   49.69    6.33
   3   8  -2  374.25   14.01
   3  11   0   17.84    6.36
   6   2  -6   24.82    8.38
   6   6  -5    5.57    8.25
   6   9  -4   43.00   10.87
   6  11  -3  119.82   14.21
   5   5  -5   56.36    9.26
   5   8  -4   63.12   10.22
   5  10  -3   70.30   11.32
   4   6  -4  124.60   10.00
   4  14   2   55.52    9.38
   3  12   1  105.20    9.45
   3  13   4   65.49    8.17
   2   3  -3  153.12    7.01
   2   9   0  333.72   12.01
   2  10   1  437.25   13.71
   2  11   3   53.83    6.13
   2  11   4    2.14    4.02
   1   4  -1  188.00    6.37
   1   7   1   12.92    3.19
   4   3  -5  330.07   13.24
   4   9  -3  186.17   12.93
   3  13   3    8.53    5.63
   2   6  -2 1031.45   19.09
   2   8  -1  710.59   17.01
   1   6   0 1061.11   15.69
   1   8   2 1078.86   16.16
   6   3  -6    1.18    7.63
   6   7  -5   11.12    8.74
   5   1  -6  128.43   10.17
   4   7  -4  199.22   12.54
   3  -2  -5  377.59    8.95
   3   4  -4   54.33    6.26
   3   7  -3    7.87    5.35
   3   9  -2    2.97    4.91
   3  13   2  226.80   12.54
   2  11   2   56.48    6.24
   6   4  -6   -4.56    7.54
   6  10  -4    4.56    8.16
   5   6  -5    0.28    6.93
   5   9  -4   46.13    9.92
   5  11  -3  208.15   15.22
   4   4  -5  107.81    9.36
   2   4  -3  949.35   17.22
   6   8  -5   -2.40    8.50
   5   2  -6   51.11    8.43
   5  15   0   44.22    9.78
   4  10  -3   93.13   11.06
   3  -1  -5   42.99    4.55
   3   5  -4  669.78   17.67
   2   7  -2   68.93    6.68
   2  11   1   65.81    6.88
   2  11   6   23.49    4.51
   1   5  -1   60.13    4.58
   1   9   3   57.28    4.80
   1   9   4   26.13    3.70
   5   3  -6   34.36    8.01
   5   7  -5    0.49    7.36
   5  10  -4   14.81    9.32
   5  12  -3   20.06   10.10
   4   5  -5  143.71   10.76
   4   8  -4   69.06    9.32
   4  12  -2   71.40   10.42
   3   8  -3  209.35   11.51
   3  14   3   46.17    7.73
   2   9  -1    4.61    4.13
   2  12   4  244.50   10.38
   1   7   0  394.56   10.69
   1   8   1  362.52   10.31
   2   5  -3   72.35    6.23
   2  12   2  201.52   10.44
   1   9   5   24.55    3.60
   5   4  -6   -1.26    6.95
   5   8  -5   23.85    8.88
   4  -3  -6   19.66    4.05
   4  -2  -6   57.75    5.61
   4   6  -5    1.53    6.12
   4   9  -4  175.28   13.44
   4  11  -3  166.18   13.34
   3   6  -4  553.85   16.91
   3   9  -3  150.42   11.16
   2   8  -2  868.20   19.76
   1   3  -2  456.15    9.57
   5  11  -4   21.35    8.89
   5  13  -3   -7.00    7.81
   4  -1  -6  256.67    9.67
   3   2  -5  376.96   12.10
   2   6  -3  182.93    9.30
   1   6  -1  502.30   11.86
   5   5  -6   65.41    9.45
   5   9  -5   82.42   11.69
   4   7  -5   15.92    7.30
   4  10  -4    2.06    8.22
   3   7  -4  358.70   14.89
   2   2  -4  283.63    9.15
   1   9   1   80.85    5.99
   1  10   3  524.18   12.42
   5   6  -6   11.55    7.96
   5  12  -4   37.95   10.08
   4   2  -6   55.63    7.12
   3   3  -5  426.48   13.51
   3  10  -3  409.38   17.06
   3  12  -2  187.45   13.50
   2   9  -2   37.27    5.89
   2  13   4   23.03    6.07
   1   4  -2  159.05    6.62
   1  10   4   84.25    5.55
   5  10  -5   43.56   10.70
   4   3  -6   23.80    6.67
   4   8  -5    6.41    7.61
   4  11  -4   32.06    9.58
   3   4  -5  346.30   13.22
   3   8  -4  244.40   13.28
   2   3  -4   13.99    4.16
   2   7  -3   18.53    4.64
   2  12   0  388.06   15.03
   1   7  -1   10.67    3.53
   5   7  -6   92.16   11.42
   4   4  -6    2.60    6.18
   3  11  -3  363.51   17.39
   2  10  -2    2.92    5.42
   2  13   5   -0.95    4.49
   1   5  -2  268.50    9.13
   1  10   1  703.38   16.11
   5   8  -6    5.30    8.24
   5  11  -5  124.55   13.88
   4   9  -5  110.06   11.96
   3   5  -5   64.46    7.28
   3   9  -4   93.44   10.10
   2   4  -4   28.62    4.67
   2   8  -3  465.19   15.69
   1  10   5  352.44    8.59
   4   5  -6   72.34    8.77
   4  12  -4   32.36    9.44
   3   6  -5   24.20    6.44
   3  12  -3   78.14   11.10
   2   5  -4  187.39    9.34
   2  12  -1  107.22    9.36
   1   8  -1  372.77   11.91
   1  11   2   65.02    6.23
   1  11   3  104.07    6.81
   5   3  -7  108.92   10.77
   5   9  -6    4.15    8.51
   4   6  -6   36.10    8.44
   4  10  -5   68.17   11.25
   3  10  -4   10.49    7.62
   2   9  -3   11.08    6.10
   2  11  -2   60.87    7.81
   1   6  -2 2416.37   27.53
   1  10   0  203.56    9.77
   1  11   4    2.95    3.95
   5   4  -7   48.06    9.20
   4   7  -6   41.24    9.14
   4  13  -4  120.95   13.23
   3   7  -5   -0.93    5.66
   2   6  -4  358.71   13.15
   2  13  -1    0.23    6.52
   2  14   5    7.59    5.11
   1   9  -1   82.59    7.16
   1  11   1  153.63    8.81
   5   5  -7   33.61    8.96
   4  11  -5   97.98   12.53
   3   8  -5  122.90   10.82
   3  11  -4    8.85    8.40
   3  13  -3   14.53    8.31
   2  10  -3  349.49   15.35
   2  12  -2  225.38   13.58
   1   2  -3 1865.11   19.13
   1   7  -2   50.28    5.62
   4   8  -6   25.05    8.60
   4  14  -4   27.27   10.63
   2   7  -4   31.58    5.92
   1  11   0   14.91    5.02
   1  12   2   28.30    5.21
   1  12   3  136.30    8.03
   4   9  -6   28.53    9.02
   4  12  -5   21.40    9.15
   3   9  -5   84.39   10.60
   3  12  -4  155.86   13.89
   3  14  -3   50.81   10.03
   2   8  -4  306.14   13.82
   2  11  -3   64.54    9.21
   2  14  -1   10.48    7.44
   1   4  -3  335.73   10.06
   1   8  -2 1109.28   21.31
   1  10  -1  707.09   18.06
   1  12   4  139.53    7.74
   1  11   5   48.53    4.66
   4  13  -5   -0.88    8.94
   3   0  -6  339.04   10.46
   3   3  -6   97.31    8.10
   3   4  -6   26.35    6.51
   3  10  -5  248.45   15.61
   3  17  -1   52.46   11.38
   1   5  -3   39.02    4.94
   4  10  -6    4.84    8.47
   3  -1  -6  246.63    8.27
   3   5  -6   84.86    8.94
   3  13  -4   63.75   10.74
   3  15  -3   44.40   10.95
   2   2  -5  384.25   11.16
   2   9  -4  168.17   11.14
   2  12  -3   96.36   10.73
   2  15  -1    1.90    7.79
   2  15   5    3.20    5.37
   1   6  -3  336.00   11.61
   1   9  -2   -1.58    3.89
   1  12   0  170.70   10.09
   1  13   2   72.67    7.51
   1  13   3    7.30    5.11
   4   0  -7   -0.90    4.51
   4   3  -7  172.30   10.99
   4   4  -7   55.05    9.04
   4   5  -7   72.86    9.73
   4  11  -6   50.44   10.87
   3   6  -6  271.06   13.64
   3  11  -5  194.27   15.02
   2   0  -5    0.55    2.92
   2   3  -5   96.17    6.80
   2   4  -5  496.49   14.36
   2  10  -4   16.32    7.31
   2  14  -2  234.38   14.83
   2  16   4    4.45    6.20
   0   7   1   -6.83    2.73
   4   6  -7   -2.90    7.19
   3  -2  -6  111.12    5.36
   3   7  -6   54.08    8.70
   3  14  -4  144.84   13.95
   3  16  -3  124.23   14.67
   2   5  -5   52.66    6.56
   2   6  -5   85.32    7.96
   2  13  -3   -7.01    7.57
   1   7  -3    5.26    3.94
   1  10  -2    1.15    4.24
   1  13   0   30.53    6.87
   1  13   4   14.68    5.33
   0   6   0 1176.56   15.90
   3   8  -6  131.78   11.64
   3  12  -5   61.69   10.53
   2   7  -5    6.24    5.84
   2  11  -4   -6.28    6.64
   2  15  -2    1.76    8.27
   2  16  -1  265.14   16.46
   1   8  -3  254.21   11.54
   1  11  -2   59.66    7.68
   1  14   1   45.83    7.25
   1  14   2  270.03   12.61
   1  12   5  106.67    6.14
   0   8   1 2217.69   23.47
   0   8   2 2497.80   22.51
   4   8  -7   13.30    8.36
   3   9  -6    5.22    7.74
   3  13  -5    9.39    9.23
   3  15  -4   15.21    9.18
   2   8  -5  237.74   13.14
   2  12  -4  249.36   15.68
   2  14  -3   11.07    9.06
   1   9  -3   59.42    7.41
   1  13  -1    9.73    6.37
   1  14   0  582.20   19.27
   1  14   3   46.40    6.62
   0   7   0   -1.33    3.13
   4   9  -7   68.04   11.11
   3  10  -6    0.04    8.01
   2   9  -5    6.55    7.02
   2  16  -2   -1.92    8.58
   2  17  -1   41.76   10.63
   1  12  -2   26.60    7.12
   0   8   0 1328.09   19.86
   0   9   1   -6.15    3.70
   3  11  -6   58.68   10.92
   3  14  -5   28.60   10.58
   3  16  -4    9.24    9.05
   2  13  -4   28.03   10.05
   2  15  -3    4.66    8.89
   2  18   0   22.96    9.44
   1   4  -4   15.71    4.37
   1  10  -3  537.78   17.77
   1  14  -1   49.81    8.60
   1  15   1   20.57    6.83
   1  15   2   18.66    6.41
   1  14   4  355.37   12.25
   0   5  -1   -2.28    2.87
   2  10  -5  240.97   14.10
   2  17  -2   12.42    9.40
   2  18  -1   67.64   11.51
   1   2  -4  544.23   11.58
   1   3  -4    5.57    3.25
   1   5  -4  300.14   11.02
   1   6  -4  549.46   15.42
   1  13  -2   75.86    9.55
   1  15   0    2.60    6.73
   1  15   3   12.35    6.29
   1  13   5    1.16    4.02
   0   6  -1  919.94   15.50
   0   7  -1   -7.87    3.50
   0   9   0   -2.81    3.70
   0  10   1  971.25   18.15
   0   9   3   -2.33    2.93
   3  12  -6   86.21   12.55
   2  11  -5   31.50    8.59
   2  14  -4  250.56   16.44
   2  16  -3  215.60   16.53
   1   7  -4  126.10    8.57
   1   8  -4  228.38   11.71
   1  15  -1   18.28    8.20
   1  16   1  243.76   14.07
   0   8  -1 2239.62   27.67
   0  10   2   -1.34    3.13
   3   4  -7  172.92   10.87
   3   5  -7   37.10    7.91
   3   6  -7   16.22    7.64
   3   7  -7   -1.79    7.20
   3  13  -6  103.15   13.68
   2  12  -5   85.28   11.68
   2  15  -4   -2.37    8.87
   2  18  -2   58.18   11.50
   1   9  -4   29.78    7.11
   1  12  -3  144.81   11.21
   1  14  -2  271.89   14.97
   1  16   0   55.95    9.39
   1  16   2    3.26    6.29
   1  15   4   -0.83    5.31
   0  10   0  196.26    9.35
   0  11   1   -3.73    4.38
   4   4  -8    6.64    7.10
   3   8  -7   51.26    9.44
   3   9  -7   66.89   11.00
   2   3  -6   30.85    5.30
   2   4  -6   67.63    7.10
   2   5  -6    3.07    4.90
   2   6  -6  323.20   13.94
   2   7  -6   -0.87    6.04
   2  13  -5   -2.23    8.39
   2  17  -3   34.68   10.98
   1  10  -4   87.32    9.53
   1  13  -3    0.60    7.29
   1  16  -1  253.77   15.67
   1  16   3  207.53   11.94
   0   9  -1   -7.61    3.67
   0  11   0   -4.52    4.14
   0  11   2   -2.87    3.59
   0  10   3  616.69   12.06
   3   1  -7   21.75    5.30
   3  10  -7  138.04   13.45
   2   8  -6  249.25   13.93
   2   9  -6    3.77    7.55
   2  16  -4    4.51    9.82
   1  11  -4    6.85    7.18
   1  15  -2   21.20    8.13
   1  17   0    2.86    7.30
   1  17   1   14.91    7.72
   1  17   2   -0.67    6.94
   0   5  -2   -7.24    3.25
   0   6  -2 3177.26   31.07
   0   7  -2  -11.14    4.16
   0  10  -1  954.06   20.40
   0  12   1  179.93    9.78
   3  11  -7   94.63   12.52
   2  10  -6   -0.15    7.56
   2  14  -5   12.47    8.56
   1  12  -4  155.33   12.59
   1  14  -3   40.47    9.04
   1  16  -2   11.88    8.69
   1  17  -1   10.04    8.55
   0   4  -2 1496.59   18.31
   0   8  -2 2567.29   31.63
   0  11  -1   -2.95    4.70
   0  12   0  888.56   20.72
   0  12   2  345.37   11.74
   0  11   3   -2.76    3.44
   3   0  -7   -1.73    3.99
   2  11  -6   27.85    9.19
   2  15  -5    1.85    9.85
   1  15  -3   17.92    9.68
   1  18   1   39.57    9.23
   1  17   3    9.50    7.04
   1  16   4   24.42    6.23
   0   9  -2   -6.57    3.95
   0  10  -2   -2.28    4.59
   0  12  -1  174.23   10.69
   0  13   1   -4.39    4.34
   2  12  -6   91.56   12.24
   1   4  -5  273.43   10.72
   1   5  -5   21.33    5.17
   1   6  -5  104.15    7.82
   1   7  -5   -4.81    4.18
   1   8  -5  177.92   11.30
   1   9  -5   23.99    7.24
   1  13  -4   12.90    8.29
   1  17  -2    0.92    8.90
   1  18   0   65.31   10.47
   1  18   2  115.64   11.05
   0  11  -2   -0.06    5.33
   0  13   0   -3.75    5.52
   0  13   2   -2.51    4.59
   0  12   3  133.51    7.33
   2  13  -6   62.96   11.64
   1   3  -5  152.15    7.83
   1  10  -5  371.44   16.83
   1  14  -4  381.67   19.18
   1  16  -3  211.10   15.54
   1  18  -1   46.00    9.62
   0  13  -1    0.91    5.77
   0  14   0  823.95   21.99
   0  14   1   13.10    5.54
   2   0  -6  526.82   11.21
   2  14  -6   99.34   13.30
   1  11  -5   43.12    8.62
   1  12  -5  112.68   12.19
   1  15  -4   -2.21    9.06
   1  17  -3    8.22    9.52
   1  19   0   33.86    9.72
   1  19   1    1.49    7.56
   1  18   3   43.41    8.11
   1  17   4   -0.79    5.51
   0   5  -3   -5.10    3.62
   0   6  -3  432.20   12.70
   0   7  -3   -7.60    3.58
   0   8  -3 1263.57   23.74
   0   9  -3    0.39    5.23
   0  12  -2  352.29   14.99
   0  14  -1   20.27    7.23
   0  14   2  407.12   14.17
   0  13   3   -2.94    4.14
   3   5  -8  127.20   10.89
   3   6  -8  118.47   11.27
   3   7  -8   99.56   11.30
   3  -1  -7   19.92    3.93
   2   6  -7   35.19    7.80
   2   7  -7    5.70    6.73
   2   8  -7   98.08   10.47
   2   9  -7   21.27    8.11
   1   2  -5  737.33   14.36
   1  13  -5   -1.26    8.31
   1  19  -1    2.17    7.32
   0  10  -3  647.79   19.08
   0  11  -3   -3.44    5.91
   0  13  -2   -4.80    5.49
   0  15   0   -2.67    6.36
   0  15   1   -3.00    5.55
   2   4  -7  254.84   12.12
   2   5  -7   23.50    6.38
   2  10  -7  146.73   13.12
   2  11  -7   27.33    9.77
   1  14  -5   18.70    9.41
   1  16  -4   37.90    9.95
   1  18  -3   48.50   11.28
   0   4  -3 2514.34   25.94
   0  12  -3  125.72   11.00
   0  14  -2  422.41   18.18
   0  15  -1    2.14    6.96
   0  15   2   -2.61    5.78
   0  14   3   20.05    5.63
   0  11   4   -1.91    3.22
   2  12  -7   37.15   10.29
   1   8  -6  355.35   15.61
   1  17  -4    3.75    9.49
   0  13  -3   -0.18    7.13
   0  15  -2   -1.15    8.09
   0  16  -1  566.21   21.25
   0  16   0    4.88    6.81
   0  16   1  546.35   18.73
   1   6  -6  622.02   18.06
   1   7  -6    2.22    5.95
   1   9  -6   -3.46    5.48
   1  10  -6   -0.51    7.12
   1  11  -6   21.60    8.74
   1  15  -5    8.66    8.66
   0   7  -4   -6.27    4.37
   0   8  -4  599.33   17.69
   0   9  -4   -0.97    5.51
   0  10  -4   74.80    8.83
   0   3  -3   -4.74    2.75
   0  14  -3   21.70    9.08
   0  17   0    1.20    6.90
   0  16   2    4.81    6.25
   0  12   4  511.71   11.16
   3   2  -8   56.15    6.52
   1   5  -6   22.52    5.62
   1  12  -6   40.65    9.90
   1  16  -5  135.48   14.18
   0   6  -4  626.15   16.08
   0  11  -4   -3.88    5.63
   0  12  -4  539.48   20.47
   0  15  -3   -0.02    8.85
   0  16  -2    6.69    7.45
   0  17  -1   -3.49    8.05
   0  17   1    3.87    6.89
   0  15   3   -4.77    5.20
   1   4  -6   62.50    6.66
   1  13  -6   32.52    9.41
   1  14  -6  137.02   14.27
   0   5  -4   -0.12    3.75
   0  13  -4   -2.85    8.49
   0  17  -2    0.31    8.76
   0  18  -1   91.55   11.62
   0  18   0   47.72    9.42
   0  18   1   87.45   10.57
   0  17   2   -4.01    6.57
   0  13   4   -4.76    3.99
   0   4  -4   23.90    4.31
   0  14  -4  521.28   21.63
   0   2  -3 2413.18   21.39
   0  18  -2  114.50   13.12
   0  16   3  443.74   14.89
   2   7  -8   29.02    8.52
   2   9  -8   25.28    8.63
   1   3  -6   31.07    5.04
   0   8  -5  639.27   19.25
   0   9  -5   -4.46    6.17
   0  11  -5   -3.68    7.24
   0  15  -4    0.67    7.89
   0  17  -3    1.30    8.06
   0  19  -1   -3.06    8.08
   0  19   0    2.92    8.21
   0  19   1   -0.06    7.50
   0  14   4  511.95   12.70
   2   6  -8  118.66   10.64
   2   1  -7   -1.80    4.00
   1   8  -7   75.04    9.40
   1   9  -7   15.17    7.95
   1  10  -7  203.77   14.45
   1  11  -7   33.25    9.70
   1  12  -7   49.32   10.58
   1   0  -5    0.52    2.47
   0   7  -5   -3.03    4.81
   0  12  -5  105.06   11.32
   0  13  -5    0.63    8.59
   0  16  -4   10.40    8.39
   0  18  -3   86.32   12.48
   0  17   3   -6.01    5.81
   0  15   4   -2.02    4.73
  -1   9  -1   76.11    6.82
  -1  10  -1  728.86   18.00
  -1  11  -1  139.89    9.33
  -1   8   0  448.42   11.81
  -1   9   0   57.50    5.60
  -1  10   0  214.05    9.57
  -1  11   0   10.43    4.73
  -1  12   0  178.36    9.96
   2   5  -8   43.10    8.03
   1   7  -7    2.38    5.88
   1  13  -7   -2.33    8.49
   0   6  -5  162.55    9.51
   0  14  -5   10.70    9.03
   0   3  -4   -0.83    2.97
   0  17  -4   -6.96    8.73
  -1   9  -2   -5.10    4.31
  -1  10  -2    4.54    4.87
  -1  11  -2   66.21    7.83
  -1   8  -1  362.18   11.53
  -1  12  -1  183.55   10.52
  -1  13  -1    8.62    5.98
  -1   7   0  393.16   10.36
  -1  13   0   20.52    5.94
  -1   9   1   74.05    5.74
  -1  10   1  701.62   15.15
  -1  11   1  146.01    8.13
  -1  12   1  180.58    9.54
   2   4  -8    6.31    6.12
   1   6  -7   57.97    7.80
   0   5  -5    1.23    4.34
   0  15  -5   -5.68    7.90
   0  16  -5  273.04   18.52
   0  18   3   83.66    8.74
   0  16   4    3.32    4.84
  -1   8  -2 1088.35   20.89
  -1  12  -2   26.43    6.31
  -1  13  -2   82.42    9.52
  -1   7  -1    7.25    3.33
  -1  14  -1   45.06    8.12
  -1  14   0  562.03   18.18
  -1   8   1  352.39    9.60
  -1  13   1   13.16    5.42
   1   5  -7    2.44    5.26
   0  10  -6   -3.59    7.02
   0  11  -6   -1.24    7.48
   0  12  -6  153.62   13.51
  -1  10  -3  538.20   17.62
  -1  11  -3  100.15    9.52
  -1  12  -3  141.63   11.39
  -1   7  -2   44.84    5.42
  -1  14  -2  314.87   15.43
  -1   6  -1  508.37   11.95
  -1  15  -1   20.56    7.68
  -1   6   0 1050.97   15.23
  -1  15   0   -1.19    6.08
  -1   7   1   14.62    3.14
  -1  14   1   45.86    6.76
   0   8  -6  596.61   19.54
   0   9  -6   -0.47    5.78
   0  13  -6   -5.37    8.36
   0  14  -6  163.22   14.92
   0   4  -5 1024.94   19.26
   0   2  -4  691.14   12.83
  -1   8  -3  261.96   11.60
  -1   9  -3   52.07    6.62
  -1  13  -3    5.20    6.14
  -1  14  -3   46.57    9.81
  -1   6  -2 2471.03   27.83
  -1  15  -2   14.08    7.46
  -1  16  -2    1.62    7.73
  -1  16  -1  242.85   14.81
  -1  16   0   56.50    8.70
  -1  15   1   19.19    6.22
  -1  10   2    6.72    3.44
  -1  11   2   59.02    5.28
  -1  12   2   22.67    4.62
   2   0  -7   -1.68    3.24
   1  10  -8   20.24    8.92
   1   4  -7  189.31   10.19
   0   7  -6   -8.91    5.74
   0  15  -6    1.68    9.06
  -1   7  -3    5.76    4.53
  -1  15  -3   11.90    8.76
  -1  17  -2   -2.40    7.97
  -1  17  -1   18.80    8.63
  -1  17   0    2.79    6.96
  -1  16   1  233.33   12.94
  -1   9   2   -4.62    2.84
  -1  13   2   67.04    6.46
  -1  14   2  294.19   12.07
   1   8  -8   75.65   10.24
   1   9  -8    7.82    7.73
   0   6  -6  726.32   19.24
   0   3  -5    5.20    4.00
  -1   9  -4   20.31    6.44
  -1  10  -4   82.30    8.61
  -1  11  -4    3.58    5.80
  -1  12  -4  149.27   11.66
  -1  13  -4   23.48    9.13
  -1  16  -3  209.59   15.07
  -1   5  -1   60.01    4.39
  -1  18  -1   37.72    9.56
  -1   5   0 1244.18   15.14
  -1  18   0   70.67   10.40
  -1  17   1   11.38    7.49
  -1   8   2 1068.03   14.17
  -1  15   2   14.36    6.27
   2   2  -8   82.45    6.89
   1   7  -8   32.15    8.21
   1   3  -7   56.22    6.35
  -1   8  -4  238.46   11.92
  -1  15  -4    3.21    8.63
  -1  16  -4   25.50    9.79
  -1   6  -3  318.66   11.18
  -1  17  -3    6.37    8.17
  -1   5  -2  260.12    8.89
  -1  18  -2  126.22   12.67
  -1  19  -1    0.35    7.70
  -1  16   2    8.42    6.43
   1   6  -8  151.19   11.20
   0   9  -7    2.29    7.41
   0  10  -7  235.41   15.09
   0  11  -7   -3.80    7.76
   0  12  -7   50.50    9.73
   0  13  -7   -2.17    8.06
   0   5  -6   -4.54    4.45
  -1  11  -5   46.71    9.17
  -1  12  -5  108.66   11.80
  -1  13  -5    5.12    8.37
  -1   7  -4  128.23    8.86
  -1  17  -4   -3.25    8.98
  -1  18  -3   45.05    9.89
  -1  19   0   37.72    9.29
  -1  18   1   37.91    8.10
   0   8  -7  235.46   13.69
  -1   9  -5   18.77    7.19
  -1  14  -5   23.65    8.59
  -1  15  -5    6.11    9.44
  -1   5  -3   47.19    4.94
  -1   4  -1  195.85    6.58
  -1  19   1   -2.36    6.89
  -1  17   2    2.53    6.40
   1   5  -8   36.15    7.61
   0   7  -7   -0.64    5.83
   0   4  -6  216.62    9.98
   0   2  -5  931.82   15.92
  -1   8  -5  176.16   11.26
  -1  16  -5  129.91   13.68
  -1   6  -4  567.59   15.51
  -1   4  -2  161.30    6.63
  -1  18   2  112.31   10.12
  -1  11   3   94.58    5.60
  -1  12   3  133.93    6.79
  -1  13   3    5.19    4.29
  -1  14   3   45.09    5.79
   2   1  -8    4.54    4.32
   1   0  -6  340.47    8.45
   0   6  -7   80.62    8.56
  -1   7  -5    2.17    5.15
  -1  10   3  526.31   10.24
  -1  15   3   11.62    5.28
   1   4  -8   -1.72    5.43
  -1  10  -6    4.64    7.56
  -1  11  -6   18.94    8.29
  -1  12  -6   33.57    8.69
  -1  13  -6   29.66    8.90
  -1  14  -6  133.29   13.25
  -1   5  -4  295.95   11.00
  -1   4  -3  328.63    9.97
  -1  16   3  200.39   10.14
   0   9  -8   -2.51    7.44
   0  10  -8   23.63    8.70
   0   5  -7   -3.33    5.56
   0   3  -6    0.85    3.53
  -1   9  -6   -0.41    6.79
  -1   6  -5  117.87    8.45
  -1  17   3    7.59    5.83
  -2  11  -2   50.44    7.45
  -2  12  -2  221.79   12.73
  -2  13  -2  127.29   10.89
  -2  14  -2  235.79   14.30
  -2  15  -2   12.61    8.11
  -2  11  -1   56.54    7.12
  -2  12  -1  108.85    9.15
  -2  13  -1   -2.39    5.65
  -2  14  -1    3.52    6.27
  -2  15  -1   -2.75    6.98
   0   8  -8  122.46   11.37
  -1   8  -6  344.06   15.38
  -1   3  -2  448.86    9.81
  -1  18   3   41.19    7.00
  -2  11  -3   54.24    8.34
  -2  12  -3   86.17    9.16
  -2  13  -3   -2.77    6.01
  -2  14  -3   12.24    7.37
  -2  15  -3    1.35    8.02
  -2  16  -3  243.00   16.13
  -2  10  -2    0.87    4.84
  -2  16  -2   -1.97    6.64
  -2  17  -2   17.59    8.65
  -2  10  -1  434.73   14.29
  -2  16  -1  259.12   14.93
  -2  17  -1   52.68    9.57
  -2  12   0  376.37   13.67
  -2  13   0   33.47    6.79
  -2  14   0  361.53   14.86
  -2  15   0    1.94    6.15
   1   6  -9   15.32    7.00
   1   1  -7    2.77    3.64
   0   7  -8   -3.45    6.77
  -1  11  -7   32.92    9.29
  -1  12  -7   48.52   10.36
  -1  13  -7    5.27    8.36
  -1   7  -6   11.31    6.18
  -1   5  -5   21.75    5.03
  -1   4  -4   13.90    3.64
  -2  12  -4  248.37   15.05
  -2  13  -4   20.65    9.22
  -2  14  -4  272.68   16.67
  -2  15  -4   -0.14    8.53
  -2  10  -3  333.31   14.22
  -2  17  -3   45.21   10.45
  -2   9  -2   41.23    6.22
  -2  18  -2   54.31   10.49
  -2   9  -1    1.35    4.18
  -2  18  -1   65.63   10.38
  -2  11   0    0.12    4.23
  -2  16   0    1.14    6.29
  -2  17   0    2.91    6.71
   0   4  -7  476.63   14.76
   0   2  -6   45.44    5.12
  -1  10  -7  195.22   14.04
  -1   3  -3  458.01   10.83
  -2  10  -4   13.81    6.83
  -2  11  -4   -5.04    5.44
  -2  16  -4    5.13    7.91
  -2   9  -3   11.60    5.22
  -2   8  -2  853.99   19.06
  -2  10   0   16.24    4.69
  -2  18   0   28.05    8.18
  -2  13   1   -0.04    4.71
  -2  14   1    6.92    5.52
  -2  15   1   -4.08    5.76
   1   5  -9    2.59    6.14
   0   6  -8  157.10   11.22
  -1   9  -7   15.08    7.82
  -1   6  -6  637.83   18.36
  -2  12  -5   60.10   10.31
  -2  13  -5   -2.18    7.69
  -2  14  -5    7.98    8.53
  -2  15  -5    4.91    8.89
  -2   9  -4  150.84   10.70
  -2   8  -3  468.94   15.33
  -2   8  -1  700.64   16.23
  -2   9   0  340.49   11.29
  -2  11   1   51.57    5.99
  -2  12   1  105.01    7.50
  -2  16   1  277.83   13.36
  -2  17   1   45.62    8.37
  -1   8  -7   79.80    9.55
  -1   4  -5  288.62   10.91
  -1   3  -4    4.76    3.28
  -2  10  -5  248.11   14.27
  -2  11  -5   34.92    8.28
  -2   7  -2   68.38    6.56
  -2  18   1   64.50    8.97
   0   5  -8   -4.82    5.96
   0   3  -7    2.29    4.58
  -1   7  -7    5.96    6.56
  -1   5  -6   28.08    5.58
  -1  13   4   15.48    3.73
  -1  14   4  343.99    9.32
  -1  15   4   -2.54    3.77
  -2  13  -6   69.45   11.28
  -2  14  -6  116.49   13.19
  -2   9  -5   14.14    6.89
  -2   8  -4  304.57   13.22
  -2   7  -3   25.96    4.93
  -2   7  -1   19.49    4.39
  -2   8   0  552.68   13.36
  -2  10   1  445.86   12.32
  -1  10  -8   15.20    8.04
  -1  12   4  137.56    5.52
  -2  11  -6   27.52    8.76
  -2  12  -6   97.11   11.23
  -2   7  -4   44.02    6.56
  -2   9   1   -0.99    3.50
  -2  13   2  131.88    8.30
  -2  14   2  219.75   10.28
  -2  15   2    3.49    5.37
  -2  16   2   -2.77    5.76
   1   0  -7   -0.36    3.17
  -1   9  -8    4.60    7.53
  -1   6  -7   49.30    7.20
  -1   3  -5  164.69    8.22
  -1   2  -3 1855.73   19.83
  -1   2  -2    7.45    2.17
  -2  10  -6   -7.94    6.94
  -2   8  -5  261.42   12.98
  -2   6  -3  172.80    9.01
  -2   6  -2 1005.07   18.58
  -2  12   2  206.00    8.85
  -2  17   2   14.07    6.39
  -2  18   2   41.01    7.86
   0   4  -8    7.75    5.65
  -1   8  -8   80.70   10.09
  -1   4  -6   63.37    6.41
  -2   9  -6    9.95    7.50
  -2   7  -5    4.27    5.40
  -2   6  -4  351.29   12.96
  -2   6  -1  314.20   10.02
  -2   7   0   14.38    3.30
  -2  11   2   54.76    5.31
   0   6  -9   24.46    7.37
  -1   5  -7    6.82    5.59
  -1   2  -4  551.40   11.97
  -2  11  -7   30.39    9.11
  -2  12  -7   36.81    8.81
  -2   8  -6  281.43   14.34
  -2   8   1  692.27   13.47
  -3  13  -3    7.16    7.89
  -3  14  -3   42.40    9.40
  -3  15  -3   45.08    9.85
  -3  16  -3  128.45   12.91
  -3  13  -2  235.55   13.99
  -3  14  -2  189.06   13.28
  -3  15  -2   88.03   10.75
  -3  16  -2    1.59    7.59
  -3  17  -2   -2.65    7.60
  -3  15  -1   57.31    8.96
   1   1  -8    7.01    3.97
  -1   7  -8   24.41    7.44
  -2  10  -7  142.50   12.68
  -2   6  -5   74.42    7.54
  -2   5  -3   66.48    6.13
  -2   5  -2    1.84    3.54
  -2  10   2    0.54    3.19
  -3  13  -4   69.07   10.77
  -3  14  -4  157.50   13.15
  -3  15  -4    5.52    7.72
  -3  16  -4    2.51    7.49
  -3  12  -3   78.47   10.17
  -3  12  -2  197.43   12.45
  -3  13  -1   20.85    6.81
  -3  14  -1   59.49    8.72
  -3  16  -1  154.45   12.27
  -3  17  -1   57.04    9.78
   0   5  -9   -4.60    6.04
   0   3  -8   -3.20    4.86
  -1   3  -6   32.81    5.28
  -2   9  -7   12.46    7.85
  -2   7  -6    1.07    5.99
  -2   5  -4  195.76    9.52
  -2   6   0  547.39   11.76
  -3  13  -5    9.37    8.35
  -3  14  -5   21.22    9.56
  -3  11  -4   16.86    8.11
  -3  12  -4  153.19   12.32
  -3  11  -3  374.07   16.00
  -3  11  -2  150.06   10.34
  -3  12  -1   99.68    9.10
  -3  14   0  200.93   11.90
  -3  15   0   17.80    6.77
  -3  16   0    8.60    6.77
  -3  17   0    0.53    6.98
  -1   6  -8  169.14   11.18
  -1   4  -7  199.82   10.50
  -1   2  -5  739.57   14.65
  -2   5  -1  129.91    6.33
  -2  15   3    0.04    4.68
  -2  16   3  207.08    9.77
  -2  17   3   30.36    6.23
  -3  12  -5   59.01   10.20
  -3  10  -4    4.95    6.68
  -3  10  -3  401.40   15.89
  -3  10  -2    8.52    5.09
  -3  11  -1  484.01   16.22
  -3  13   0   78.02    8.18
  -3  18   0   59.89    9.38
  -2   8  -7  116.22   10.73
  -2   6  -6  354.80   14.36
  -2   5  -5   50.19    6.28
  -2   7   1   28.66    3.50
  -2   9   2   41.55    4.18
  -2  14   3   10.23    4.43
  -3  13  -6  119.24   12.96
  -3  11  -5  182.15   13.21
  -3   9  -3  145.93   10.43
  -3   9  -2    1.35    4.96
  -3  10  -1  522.81   16.15
  -3  12   0  220.63   11.23
  -1   5  -8   34.83    7.40
  -1   1  -3   47.40    3.55
  -2   7  -7    7.00    6.51
  -2   4  -4   31.15    4.80
  -2   4  -3  937.54   17.25
  -2   4  -2  341.79   10.04
  -3  12  -6   89.33   11.64
  -3  10  -5  270.34   14.87
  -3   9  -4   92.28    8.98
  -3  11   0   17.66    5.13
  -3  15   1   50.42    7.85
  -3  16   1  150.79   10.75
  -3  17   1   52.28    8.52
  -2   9  -8   41.92    8.88
  -3  11  -6   59.54    9.54
  -3   9  -5   88.31   10.13
  -3   8  -4  235.20   12.65
  -3   8  -3  202.03   10.81
  -3   8  -2  398.67   13.87
  -3   9  -1  154.61    8.86
  -3  10   0   12.05    4.64
  -3  14   1   51.47    6.87
  -3  10  -6   -3.73    6.26
   3  16  -4    0.73    5.59
   2   7  -4   35.40    3.21
   2  11  -4   -4.63    3.78
   2  17  -3   31.80    7.54
   1  10  -3  517.75   12.46
   1  11  -3  101.04    6.91
   1  19  -1    0.61    6.60
   0  19   1   -3.57    6.12
  -1  13   1    9.20    4.75
  -1  17   3    3.92    7.06
  -1  17   4    2.28    5.87
   2  12  -4  233.48    9.67
   1  12  -3  140.11    7.94
   1  17  -2   -0.52    6.34
   0  15  -1   -2.41    5.15
   0  18   0   54.63    8.97
  -1  14   1   51.73    6.90
  -1  16   2    7.97    6.11
   2  13  -4   16.80    5.38
   1  13  -3    7.43    4.51
   1  18  -2  105.31   10.42
   0  16  -1  586.99   19.24
  -1   8   0  444.78   11.12
  -1   9   0   59.60    5.12
  -1  10   0  208.95    8.88
  -1  11   0    9.83    4.32
  -1  15   1   20.13    6.58
  -1  17   2   -3.59    6.58
  -1  18   3   36.06    8.42
   2  14  -4  247.52   11.31
   1  14  -3   43.66    6.26
   0   8  -2 2493.35   24.40
   0   9  -2   -5.72    2.55
   0  10  -2    1.10    2.74
   0  11  -2   -1.84    3.66
   0  12  -2  356.60   12.33
   0  17  -1   -0.95    7.04
   0  19   0   -1.75    6.14
  -1   7   0  393.85    9.82
  -1  12   0  175.34    9.35
  -1  13   0   27.66    6.26
  -1  16   1  230.47   13.11
  -1  18   2  102.83   11.13
  -2   9   4  158.00    8.16
  -2  10   4    4.63    3.81
  -2  11   4   -3.27    4.47
  -2   8   5  247.71    9.12
  -2   9   5    2.85    4.25
  -2  10   5  242.08   10.44
  -2  11   5   30.12    5.92
   3   9  -5   75.48    4.63
   3  10  -5  225.96    7.67
   3  11  -5  166.35    7.42
   2  15  -4    2.09    5.78
   1  15  -3   10.16    5.78
   0  13  -2   -1.31    4.69
   0  18  -1   97.48   10.46
  -1   6   0 1058.20   14.58
  -1  14   0  598.42   18.12
  -1  17   1   10.84    7.24
  -2  10   3  347.67   11.90
  -2   7   4   34.67    4.33
  -2   8   4  296.66    9.78
  -2  12   4  234.97   11.28
  -2  13   4   14.43    6.09
  -2   7   5    5.80    3.19
  -2  12   5   68.61    7.26
  -2  13   5    1.36    5.58
  -2   9   6    6.26    4.27
  -2  10   6   -1.89    4.39
  -2  11   6   28.55    6.18
   3   8  -5  114.15    4.65
   1  16  -3  214.86   12.05
   0  14  -2  393.09   14.22
  -1  15   0   -3.69    5.60
  -1  18   1   36.90    8.81
  -2   8   3  466.98   12.04
  -2   9   3    7.64    3.89
  -2  11   3   55.85    6.11
  -2  12   3   84.24    7.76
  -2  13   3   -3.55    4.98
  -2  14   4  253.11   13.00
  -2   6   5   80.71    5.04
  -2  14   5    5.89    5.92
  -2   7   6   -0.20    3.61
  -2   8   6  289.37    9.74
  -2  12   6   86.95    7.93
  -2  13   6   54.58    7.75
   2  16  -4    0.70    5.31
   1  17  -3    6.62    6.44
   0  15  -2    0.18    5.22
   0  19  -1    0.95    6.80
  -1   5   0 1290.68   14.80
  -1  16   0   55.74    8.13
  -2   7   3   19.01    3.62
  -2  14   3   10.08    6.32
  -2   6   4  352.28    9.13
  -2  15   4   -2.44    6.21
  -2  15   5    0.86    6.22
  -2  14   6  120.49    9.67
  -2   9   7   12.60    4.74
  -2  10   7  141.78    8.48
  -2  11   7   27.23    6.01
  -2  12   7   38.15    6.61
   0  16  -2    7.35    5.63
  -1  10  -1  726.90   16.05
  -1  11  -1  151.56    8.54
  -1  12  -1  177.02    9.61
  -1  17   0    0.39    6.01
  -1  19   1   -3.04    6.33
  -2   9   2   40.48    5.05
  -2  10   2    0.70    3.19
  -2  11   2   56.06    6.09
  -2  12   2  211.05   10.54
  -2  13   2  132.44    9.73
  -2  15   3   -3.75    5.43
  -2  16   4    3.84    6.44
  -2   6   6  354.65    9.08
  -2   8   7  119.48    6.79
   1  18  -3   42.05    7.94
   0   5  -2   -3.66    1.96
   0  17  -2   -0.05    5.69
  -1   9  -1   77.49    6.00
  -1  13  -1   10.20    4.74
  -1  14  -1   45.36    7.19
  -1  18   0   67.87    9.78
  -2   8   2  839.42   15.94
  -2  14   2  249.71   12.69
  -2  15   2    0.01    6.51
  -2   6   3  175.00    6.67
  -2  16   3  233.88   13.46
  -2  17   3   29.72    8.24
  -2   5   4  189.68    6.40
  -2   5   5   48.27    3.80
  -2   7   7    1.49    3.60
   0  18  -2  113.85   10.82
  -1   8  -1  369.54   10.27
  -1  15  -1   17.30    6.35
  -1  19   0   44.73    9.44
  -2  11   1   56.16    6.50
  -2  12   1  123.47    8.76
  -2   7   2   68.66    5.22
  -2  16   2   -1.49    6.43
   1  10  -4   90.66    6.09
   1  11  -4    4.24    3.82
   1  12  -4  137.11    7.98
   1  13  -4    9.60    5.40
   0  12  -3  135.41    8.10
  -1   7  -1   12.12    3.25
  -1  16  -1  242.29   13.25
  -1  17  -1   13.30    7.36
  -1   4   0  514.11    8.57
  -2   9   1    2.46    3.78
  -2  10   1  453.73   13.32
  -2  13   1    1.39    4.55
  -2  14   1    8.08    6.03
  -2  15   1    1.11    6.58
  -2  17   2   17.95    7.57
  -2   5   3   69.48    4.38
  -2   5   6    5.09    2.94
   1  14  -4  363.93   13.40
   1  15  -4   -7.16    5.47
   0  10  -3  648.31   14.49
   0  11  -3   -4.57    3.54
   0  13  -3   -2.72    4.21
   0  14  -3   20.03    5.76
   0  15  -3   -8.83    5.45
  -1  18  -1   37.25    8.55
  -2  16   1  265.11   14.61
  -2   6   2 1024.06   15.37
  -2  18   2   46.06    8.48
  -2   6   7   37.76    3.95
   1  16  -4   29.87    6.69
   0   9  -3   -3.32    3.27
   0  16  -3  447.34   16.88
  -1  19  -1   -0.87    6.87
  -2   8   1  693.76   14.59
  -2  17   1   43.03    8.31
  -2   4   4   26.63    2.84
  -2   4   5  489.38    8.57
   2  14  -5    5.45    5.08
   2  15  -5    1.14    5.52
   1  17  -4   -0.91    5.73
   0   8  -3 1271.43   17.63
   0  17  -3   -5.72    6.58
  -1  11  -2   57.97    6.00
  -1  12  -2   27.94    5.66
  -1  13  -2   82.12    7.95
  -1  14  -2  300.27   13.37
  -1  15  -2   15.91    6.72
  -1   6  -1  499.48   10.28
  -2  11   0    2.50    4.41
  -2  12   0  385.04   14.02
  -2  13   0   31.01    6.74
  -2  14   0  391.80   15.71
  -2  15   0    2.80    6.72
  -2   7   1   21.56    3.88
  -2  18   1   68.63    9.54
   2  10  -5  231.86    7.90
   0  18  -3   69.24    9.28
  -1  10  -2    6.07    3.71
  -1  16  -2    9.79    6.58
  -2  10   0   13.77    4.03
  -2  16   0    4.24    6.71
  -2  17   0    2.54    6.83
  -2   5   2    2.72    2.46
  -2   4   3  943.20   12.31
  -2   4   6   79.36    3.92
  -2   5   7   21.97    3.13
   2   9  -5    7.64    3.34
   0   7  -3   -4.02    2.63
  -1   9  -2   -2.94    3.21
  -1  17  -2    1.98    6.10
  -1  18  -2  122.31   11.34
  -2   9   0  352.36   11.33
  -2  18   0   28.96    8.74
  -2   6   1  323.91    9.04
  -3  12   4  144.73    9.69
  -3  13   4   49.13    7.56
  -3  14   4  142.90   10.69
  -3  15   4   12.24    6.83
  -3  12   5   46.64    7.01
  -3  13   5    5.22    6.13
  -3  14   5   20.79    6.73
  -1   5  -1   65.82    3.86
  -2   8   0  562.36   13.51
  -3  11   3  343.69   13.20
  -3  12   3   71.58    7.99
  -3  13   3    7.70    5.94
  -3  14   3   44.22    7.74
  -3  15   3   47.72    8.50
  -3  16   3  122.86   11.15
  -3  10   4    8.61    4.75
  -3  11   4   11.72    5.01
  -3  16   4    6.17    6.39
  -3  11   5  186.16   10.13
  -3  13   6  109.20    9.53
  -1   8  -2 1091.42   17.46
  -2  12  -1  107.47    8.57
  -2  13  -1   -4.78    4.97
  -2  14  -1    9.14    6.02
  -2  15  -1   -0.26    6.59
  -2  16  -1  290.62   15.06
  -3  13   2  217.15   12.36
  -3  14   2  212.66   12.81
  -3  15   2   75.91    9.62
  -3  10   3  386.74   13.13
  -3   9   4   82.56    6.88
  -3  10   5  241.14   10.46
  -3  11   6   61.84    7.35
   2   8  -5  243.76    6.57
   0  13  -4  -11.81    4.54
   0  15  -4  -10.83    5.57
   0  16  -4    9.06    6.43
  -2  11  -1   54.95    6.24
  -2  17  -1   52.41    8.70
  -2  18  -1   59.65    9.71
  -2   7   0   14.54    3.75
  -2   4   2  349.79    7.82
  -3  11   2  144.89    9.42
  -3  12   2  195.54   10.78
  -3  16   2    7.67    6.44
  -3  17   2    0.35    6.83
  -3   9   3  131.32    7.83
  -3   9   5   86.54    6.97
  -3  10   6    2.58    4.89
   1  14  -5   25.60    6.09
   1  15  -5    4.84    5.76
   0  11  -4   -0.91    4.08
   0  12  -4  500.37   14.37
   0  17  -4    1.87    6.26
   0   6  -3  427.22    8.91
  -1  12  -3  132.04    8.62
  -1  13  -3    4.17    5.10
  -1  14  -3   42.61    7.01
  -1  15  -3   14.28    6.74
  -1  16  -3  203.68   12.70
  -1  17  -3    5.62    6.92
  -1   7  -2   49.99    4.61
  -2  10  -1  431.89   13.26
  -2   5   1  130.94    5.71
  -3  13   1   23.85    6.98
  -3  14   1   57.71    8.73
  -3  15   1   58.42    9.20
  -3  16   1  159.26   12.39
  -3  10   2    7.17    4.61
  -3   8   4  229.99    9.32
  -3   8   5  107.29    6.90
  -3   9   6    0.48    4.53
  -3  11   7   98.02    7.92
   1  12  -5   99.69    7.32
   1  13  -5    0.61    4.75
   1  16  -5  119.80    9.63
   1   6  -4  535.60    8.69
  -1  11  -3   93.54    7.21
  -1  18  -3   39.44    8.39
  -2   9  -1    2.67    3.92
  -3  11   1  470.93   15.42
  -3  12   1   97.90    8.38
  -3  17   1   49.55    8.90
  -3   9   2    0.13    3.76
  -3   8   3  197.70    8.69
  -3  10   7  130.34    8.03
   0  10  -4   68.30    5.58
  -1  10  -3  528.72   14.04
  -1   4  -1  199.35    5.66
  -2  14  -2  231.06   12.80
  -2  15  -2   -0.87    6.65
  -2  16  -2    0.59    6.64
  -2   6   0  560.66   11.86
  -3  10   1  518.19   15.36
  -3   7   4  380.52   10.85
  -3   8   6  137.54    7.42
   0   9  -4   -2.06    3.19
  -1   6  -2 2474.09   23.06
  -2  12  -2  215.53   11.21
  -2  13  -2  133.79    9.53
  -2  17  -2   18.81    7.10
  -2  18  -2   51.39    9.49
  -2   8  -1  689.12   14.98
  -3  13   0   90.82    9.44
  -3  14   0  211.34   12.84
  -3  15   0   16.94    6.79
  -3  16   0    5.69    7.02
  -3  17   0    6.46    7.80
  -3  18   0   61.81   10.28
  -3   8   2  352.80   11.38
  -3   7   3    7.12    3.81
  -3   7   5    2.39    3.33
  -3   9   7   61.73    5.94
  -1   9  -3   57.99    5.53
  -2  11  -2   54.41    6.64
  -2   4   1 1394.06   15.75
  -3  12   0  235.48   11.82
  -3   9   1  162.05    8.83
  -2  10  -2   -2.53    3.79
  -2   7  -1   24.07    4.17
  -2   3   2  182.95    5.33
  -3  11   0   25.65    5.59
  -3   7   2  152.92    7.53
  -3   6   4  558.83   12.05
  -3   7   6   63.49    5.28
  -3   8   7   59.79    5.38
   0   8  -4  591.17   12.20
  -1  14  -4  348.00   14.30
  -1  15  -4   -8.98    5.75
  -1  16  -4   33.00    7.45
  -1  17  -4    0.12    6.66
  -1   8  -3  245.41    8.80
  -2   5   0  530.73   10.87
  -3  14  -1   63.13    9.08
  -3  15  -1   68.54    9.44
  -3  16  -1  166.02   12.70
  -3  17  -1   56.68   10.08
  -3  10   0   15.53    4.75
  -3   8   1  271.98   10.21
  -3   6   3   48.33    4.71
  -3   6   5   27.08    3.91
  -4  14   3    5.41    6.57
  -4  15   3   32.50    8.00
  -4  13   4  119.58   10.13
  -4  14   4   25.73    7.26
   2  12  -6   79.30    5.93
   0  14  -5    8.66    6.12
   0  15  -5   -4.11    5.25
   0  16  -5  253.34   12.89
  -1  13  -4    8.63    5.50
  -1   5  -2  268.01    7.41
  -2  15  -3   -3.63    6.43
  -2  16  -3  219.83   13.69
  -2  17  -3   38.43    8.85
  -2   9  -2   42.77    5.50
  -3  13  -1   23.90    6.44
  -3   9   0  150.55    8.68
  -4  14   2   60.67    8.99
  -4  15   2   25.91    8.09
  -4  16   2   10.24    7.14
  -4  12   3   29.55    6.66
  -4  13   3    4.34    5.91
  -4  12   4   26.99    6.65
  -4  13   5   -3.52    5.17
   0  13  -5   -5.70    4.77
  -1  12  -4  132.64    8.74
  -2  13  -3   -2.21    5.50
  -2  14  -3   10.97    5.80
  -2   6  -1  337.24    9.69
  -3  12  -1  105.95    8.87
  -3   7   1    8.64    3.65
  -3   6   2  974.22   16.44
  -4  13   2  308.55   14.63
  -4  11   3  165.22   10.49
  -4  11   4   25.81    6.10
  -4  12   5   21.17    6.00
   2  11  -6   20.21    4.04
   0  12  -5   99.08    7.51
   0   7  -4   -1.12    2.80
  -1  11  -4    3.46    4.16
  -1   7  -3    8.93    3.07
  -2  12  -3   94.14    8.37
  -2   8  -2  846.72   16.96
  -3  11  -1  445.15   15.25
  -3   8   0  446.65   13.22
  -3   5   4  642.94   11.96
  -3   6   6  285.30    8.22
  -4  14   1    6.89    6.99
  -4  15   1   38.85    7.88
  -4  16   1   24.32    7.64
  -4  12   2   67.95    8.15
  -4  10   4    5.39    5.16
  -4  11   5  101.78    8.38
   1   8  -5  159.57    6.08
   0  11  -5   -4.48    3.97
  -2  11  -3   50.54    6.66
  -3  14  -2  197.79   12.97
  -3  15  -2   79.31    9.95
  -3  16  -2    4.70    6.50
  -3  17  -2   -0.37    6.40
  -3  10  -1  539.06   15.94
  -3   5   3   87.72    5.24
  -4  12   1   28.38    7.22
  -4  13   1    0.18    5.58
  -4  11   2  135.53    9.63
  -4  10   3   92.12    7.95
  -4  10   5   65.93    7.38
  -4  11   6   49.84    7.02
  -1  10  -4   84.59    6.55
  -2   4   0   65.88    4.03
  -2   3   1  168.69    5.37
  -3  13  -2  219.28   12.93
  -3   6   1   70.92    5.43
  -3   5   5   64.23    4.42
  -4  14   0   32.68    8.08
  -4  15   0    5.64    6.99
  -4  16   0    0.58    6.43
  -4  10   2   -4.28    4.68
  -4   9   4  175.47    9.39
   0  10  -5  437.03   12.18
  -2  16  -4    3.75    6.58
  -2  10  -3  343.47   12.33
  -2   7  -2   71.60    5.75
  -3  12  -2  189.77   11.20
  -3   9  -1  158.33    8.91
  -3   5   2  403.90   10.21
  -4  13   0  204.61   12.93
  -4  11   1  182.10   10.68
  -4   9   3  172.94    9.37
  -4   9   5  109.14    7.78
  -4  10   6   -0.85    4.98
   2  10  -6   -1.19    2.81
  -1  15  -5    2.69    5.99
  -1  16  -5  129.74   10.56
  -1   9  -4   25.93    4.46
  -1   6  -3  327.49    8.93
  -2  14  -4  224.02   12.63
  -2  15  -4   -1.77    6.42
  -2   5  -1  135.81    6.05
  -3  11  -2  163.11   10.46
  -4  16  -1   30.00    8.85
  -4  12   0   39.78    7.88
  -4  10   1  101.03    8.65
  -4   9   2   95.17    7.70
  -1  13  -5   -0.54    5.25
  -1  14  -5   26.42    6.48
  -1   4  -2  161.34    5.38
  -2  13  -4   18.20    6.78
  -2   9  -3   11.95    3.93
  -3  15  -3   40.60    8.65
  -3  16  -3  124.10   11.64
  -3   8  -1  280.96   10.77
  -3   5   6   95.56    4.81
  -4  14  -1    5.41    6.94
  -4  15  -1   35.26    8.06
  -4  11   0   44.82    7.35
  -4   8   3   17.59    4.43
  -4   8   4   62.69    5.94
  -4   9   6   24.91    5.30
   1   7  -5   -1.41    2.45
   0  15  -6   -3.00    5.93
  -2  12  -4  241.46   11.95
  -3  14  -3   45.53    8.40
  -3  10  -2   14.16    4.88
  -3   6   0 1168.50   19.05
  -3   5   1  107.28    6.03
  -3   4   3  678.40   11.87
  -3   4   4   53.65    4.05
  -4  13  -1    0.17    6.87
  -4   9   1  207.89   10.55
  -4   8   2   27.35    4.97
  -4   8   5   15.38    4.75
   1  11  -6   19.40    4.28
   0  14  -6  156.54    9.98
  -1  12  -5   99.00    7.78
  -1   8  -4  224.00    8.67
  -2   8  -3  458.82   12.95
  -2   6  -2 1008.35   16.70
  -3  13  -3   13.38    6.29
  -4  12  -1   25.30    7.75
  -4  10   0   18.05    5.38
  -5  14   2   24.60    8.00
  -5  13   3    1.25    6.04
  -1  11  -5   47.40    6.63
  -2  11  -4   -1.23    4.75
  -3  12  -3   83.86    9.07
  -3   9  -2    3.43    4.12
  -3   7  -1   10.44    3.66
  -3   4   2   98.54    5.36
  -3   4   5  371.81    8.00
  -4  15  -2   24.16    8.40
  -4  16  -2    6.77    6.87
  -4  11  -1  189.70   11.60
  -4   8   1   17.04    5.08
  -4   7   3   53.79    5.45
  -4   7   4  191.35    8.61
  -4   8   6   18.05    4.54
  -5  15   1   40.03    8.73
  -5  13   2  114.95   10.89
  -5  12   3   13.63    7.07
  -5  12   4   37.85    7.63
   0  13  -6   -4.44    5.11
  -1   5  -3   43.44    3.90
  -2   4  -1 1387.35   17.03
  -2   3   0  130.33    4.99
  -3  11  -3  351.10   14.47
  -4  14  -2   58.60    8.87
  -4   9   0  320.19   12.74
  -4   7   2   70.52    6.10
  -4   7   5   19.11    4.64
  -5  13   1    1.39    6.66
  -5  14   1    9.86    6.55
  -5  12   2  129.00   10.90
   1  10  -6    0.88    3.41
   0  12  -6  129.95    8.40
  -1   7  -4  133.77    6.75
  -2  15  -5   -0.39    6.53
  -2  10  -4    9.71    4.72
  -2   7  -3   24.65    4.24
  -3  15  -4   13.00    7.34
  -3  16  -4    4.68    6.78
  -3   8  -2  371.65   12.69
  -3   5   0 1605.82   21.26
  -4  13  -2  313.06   15.30
  -4  10  -1  102.75    9.06
  -5  15   0   56.49    9.56
  -5  12   1    9.51    6.92
  -5  11   2   45.35    7.70
  -5  11   3  185.43   11.41
  -5  11   4   20.00    6.21
  -1  10  -5  373.58   12.21
  -2  14  -5    9.95    6.36
  -2   5  -2    6.91    3.13
  -3  14  -4  148.66   11.73
  -3  10  -3  400.67   14.68
  -3   6  -1   66.91    5.78
  -3   4   1 1071.73   16.02
  -4  12  -2   73.13    9.02
  -4   8   0   98.46    7.60
  -4   7   1   63.78    6.24
  -4   6   3    0.92    3.67
  -4   6   4  127.01    7.17
  -5  13   0   75.60    9.80
  -5  14   0    7.31    6.74
  -5  10   3   71.26    8.23
  -2  13  -5   -0.64    5.45
  -2   9  -4  138.07    8.24
  -3  13  -4   61.86    8.94
  -4  15  -3   35.87    8.78
  -4  11  -2  147.26   11.00
  -4   9  -1  202.80   11.01
  -4   6   2   73.83    5.98
  -4   7   6   44.87    4.95
  -5  15  -1   29.19    9.02
  -5  12   0   74.33    9.50
  -5  11   1  235.18   13.12
  -5  10   2   -0.69    5.54
  -5  10   4    6.09    5.22
  -1  14  -6  123.38    9.55
  -1   9  -5   27.48    4.96
  -1   3  -2  454.84    8.20
  -2  12  -5   65.11    7.67
  -3  12  -4  144.33   10.84
  -3   9  -3  144.63    9.21
  -3   7  -2  152.93    8.17
  -4  14  -3    3.96    6.98
  -4   6   5    3.94    3.69
  -5  14  -1    6.29    7.49
  -5  10   1   87.21    9.11
  -5  10   5   42.95    7.13
   1   9  -6   -0.85    3.08
  -1  13  -6   22.49    6.51
  -2   6  -3  184.10    7.87
  -3   3   3  878.17   12.43
  -3   3   4   14.79    2.64
  -4  13  -3    0.82    6.08
  -4  10  -2   -0.95    4.73
  -4   8  -1   10.68    5.30
  -4   6   1    7.29    3.85
  -5  13  -1   -0.84    6.87
  -5  11   0   18.51    7.21
  -5   9   2   12.41    5.63
  -5   9   3   88.10    7.98
  -5   9   4   36.89    6.66
  -1   6  -4  569.06   11.95
  -2  11  -5   27.10    6.08
  -2   8  -4  300.48   10.94
  -3  11  -4   17.78    6.33
  -3   5  -1  117.02    6.80
  -3   4   0  103.24    5.93
  -3   3   2  614.93   11.06
  -4  12  -3   22.95    7.55
  -5  12  -1   17.15    7.57
  -5   9   1   98.55    8.85
  -5   9   5   79.68    7.68
  -1  12  -6   31.64    6.37
  -1   4  -3  332.30    8.01
  -2   3  -1  161.40    5.84
  -3   8  -3  200.69    9.82
  -3   6  -2  961.54   18.40
  -4  11  -3  152.22   11.40
  -4   9  -2  101.18    8.32
  -4   5   2  210.31    8.72
  -4   5   3  245.97    8.77
  -4   5   4  364.88   10.16
  -5  14  -2   26.84    8.82
  -5  11  -1  235.92   13.73
  -5  10   0   20.49    6.44
  -5   8   3   23.54    5.29
  -1   8  -5  168.05    7.90
  -2   4  -2  343.22    9.08
  -2   2   0  590.69    9.57
  -3  14  -5   29.15    7.69
  -3  10  -4    6.16    5.34
  -3   3   1 1601.29   18.59
  -4  14  -4   20.32    7.85
  -4   7  -1   68.36    6.87
  -4   6   0  174.74    8.70
  -4   6   6   43.31    4.48
  -5  13  -2  100.98   11.14
  -5   9   0   54.57    7.78
  -5   8   2   13.87    5.12
  -5   8   4   62.09    6.77
  -1  11  -6   23.58    5.68
  -2  14  -6   98.08    9.41
  -2   7  -4   29.59    4.71
  -3  13  -5    3.05    6.46
  -3   7  -3    9.09    4.42
  -4  13  -4  129.29   11.46
  -4  10  -3   90.57    9.38
  -4   8  -2   34.53    6.26
  -4   5   1  363.55   11.32
  -5  12  -2  130.88   11.91
  -5  10  -1   86.75    9.79
  -5   8   1   32.94    6.22
  -5   8   5   17.61    5.40
  -5   9   6   10.62    4.82
  -6  12   2   21.06    7.64
  -2   5  -3   74.25    5.33
  -3  12  -5   48.36    8.07
  -3   9  -4   86.49    8.05
  -4   5   5  163.69    6.83
  -5   7   2  150.54    8.97
  -5   7   3   -0.20    4.14
  -6  13   0  192.22   14.00
  -6  12   1    1.34    6.80
  -6  11   2   74.02    9.27
  -6  11   3  114.06   10.21
   1   8  -6  330.74    7.70
  -1  10  -6    1.01    4.46
  -2   9  -5    3.11    4.39
  -3   5  -2  425.11   12.13
  -3   4  -1 1056.68   17.26
  -4  12  -4   30.73    7.35
  -4   9  -3  179.24   11.10
  -4   6  -1    8.12    4.35
  -5  13  -3    1.76    7.16
  -5  11  -2   52.04    8.38
  -5   9  -1  108.90    9.87
  -5   8   0   99.08    8.37
  -5   7   1    1.08    4.50
  -5   7   4  204.23    9.78
  -6  12   0    1.76    7.13
  -6  11   1  130.96   11.56
  -1   7  -5    2.01    3.24
  -1   5  -4  307.78    8.42
  -2  12  -6   86.54    8.44
  -3  11  -5  168.52   11.23
  -3   3   0   84.27    5.23
  -4  11  -4   31.82    7.76
  -4   7  -2   62.47    6.93
  -4   5   0  737.15   16.28
  -4   4   2   -0.73    3.31
  -4   4   3  135.93    6.58
  -5  10  -2   -5.19    6.49
  -6  10   2   -2.03    6.10
  -6  10   3   27.05    7.24
  -2   6  -4  353.36   10.89
  -3   8  -4  235.41   10.85
  -3   6  -3   54.81    5.77
  -4   4   4   30.54    3.97
  -5  12  -3   14.05    7.10
  -5   8  -1   37.02    7.08
  -5   7   0  272.25   12.35
  -5   7   5   -1.00    4.34
  -5   8   6    7.28    4.41
  -6  12  -1    2.39    7.38
  -6  10   4    1.28    5.43
  -1  13  -7   -0.69    5.30
  -1   9  -6   -2.79    4.36
  -2  11  -6   25.95    6.04
  -2   8  -5  261.44   10.49
  -2   3  -2  190.35    6.77
  -3  10  -5  245.91   12.53
  -3   2   2  425.60    8.82
  -3   2   3  809.12   11.10
  -4  13  -5    3.80    6.64
  -4  10  -4    8.86    6.72
  -4   8  -3   15.01    5.15
  -4   4   1  177.62    7.94
  -5  11  -3  213.23   13.83
  -5   9  -2   14.06    7.07
  -5   6   2   43.36    5.83
  -5   6   3   -1.29    3.60
  -6  10   0    2.41    6.85
  -6   9   2   65.26    8.31
  -6   9   3  208.77   12.02
  -1   3  -3  484.45    9.01
  -2   4  -3  974.77   15.72
  -2   2  -1 1074.72   13.70
  -3  13  -6  117.53   10.65
  -4   6  -2   60.75    6.54
  -4   5  -1  368.95   12.17
  -4   5   6   67.02    4.42
  -5   6   1   -1.46    4.20
  -5   6   4  117.95    7.54
  -6  11  -1  130.38   11.88
  -6   9   4   47.50    7.43
   0  11  -7   -0.44    3.92
  -1  12  -7   38.45    6.55
  -2  10  -6    3.62    5.24
  -3   9  -5   73.16    7.80
  -3   7  -4  376.99   12.95
  -3   4  -2  107.12    6.62
  -3   3  -1 1645.50   20.81
  -3   2   1 1378.13   16.55
  -4  12  -5    5.68    6.86
  -4   9  -4  177.81   11.54
  -4   7  -3   53.04    6.86
  -4   4   0   51.39    5.33
  -5   8  -2   13.31    6.42
  -5   7  -1   -0.47    5.10
  -5   6   0  197.05   10.52
  -6  12  -2   17.56    8.51
  -6  10  -1   33.37    8.63
  -6   9   0   74.12    9.26
  -1   6  -5  117.84    6.08
  -2   7  -5    6.87    4.25
  -3  12  -6   80.83    9.23
  -3   5  -3   91.60    6.61
  -4  11  -5   97.66   10.04
  -4   4   5  105.06    5.31
  -5  12  -4   37.33    8.17
  -5   5   2  152.71    8.51
  -5   6   5    0.34    4.11
  -6  11  -2   74.95   10.36
  -6   8   1    1.26    6.08
  -6   8   2    0.59    5.51
  -6   8   3   -0.97    5.27
  -1   8  -6  347.88   11.00
  -1   4  -4   15.92    2.95
  -2   5  -4  189.63    7.95
  -3  11  -6   60.87    8.42
  -4   3   2   67.38    4.99
  -4   3   3  577.98   11.79
  -5  11  -4   11.00    7.73
  -5   5   1   53.81    6.27
  -5   5   3   56.90    5.84
  -6   9  -1  263.42   14.59
  -6   8   4   10.09    5.86
   0  10  -7  206.36    8.35
  -1  11  -7   21.06    5.67
  -2   9  -6    5.01    4.64
  -3   8  -5  113.44    8.56
  -3   6  -4  563.86   15.26
  -3   2   0  613.57   11.87
  -4  10  -5   49.97    8.25
  -4   8  -4   63.35    7.39
  -4   5  -2  205.86    9.73
  -4   4  -1  182.56    8.89
  -4   3   1  806.86   15.36
  -5   7  -2  155.04   10.50
  -5   6  -1   -1.58    4.13
  -5   5   4  202.07    8.92
  -6  10  -2    2.04    7.29
  -6   8   0   14.34    6.30
  -6   7   2  254.11   12.44
   0   7  -6    3.25    3.36
   0   5  -5    1.59    2.35
  -2  12  -7   35.67    7.03
  -4   6  -3    2.88    4.22
  -4   3   4    1.98    2.85
  -5  10  -4    8.58    7.08
  -5   8  -3   34.53    7.86
  -5   5   0  309.55   12.32
  -6  11  -3  127.38   12.23
  -6   7   1   26.51    6.78
  -6   7   3   22.07    5.81
  -6   8   5   -1.73    4.90
  -2   6  -5   81.12    6.31
  -2   3  -3  162.66    6.65
  -3  10  -6    3.46    5.70
  -3   4  -3  711.40   15.53
  -3   3  -2  607.90   13.51
  -4   9  -5  101.21    9.54
  -4   7  -4  210.53   11.46
  -4   3   0   10.10    3.65
  -6   9  -2   54.72    9.16
  -6   8  -1    3.90    6.12
  -6   7   0  306.29   14.46
  -6   7   4  199.68   10.63
  -2  11  -7   26.87    6.79
  -2   8  -6  258.46   10.91
  -2   2  -2   49.93    3.72
  -3   7  -5    3.50    4.46
  -5   9  -4   39.06    8.18
  -5   6  -2   44.84    6.57
  -5   5  -1   75.96    7.57
  -5   4   1  272.87   10.81
  -5   4   2   13.18    4.16
  -5   4   3  193.14    8.73
  -6  10  -3   38.01    9.17
  -6   6   2   10.03    5.85
  -1   5  -5   19.26    3.35
  -2   4  -4   27.39    3.79
  -3   9  -6    1.21    5.30
  -3   5  -4  627.34   15.58
  -3   2  -1 1363.32   18.42
  -4  11  -6   48.72    8.44
  -4   5  -3  251.50   11.24
  -4   4  -2    2.58    3.48
  -5  11  -5  101.05   10.79
  -5   7  -3    1.41    5.45
  -5   5   5   52.93    5.20
  -6   8  -2   -1.31    6.78
  -6   7  -1   24.40    7.39
  -6   6   1    4.06    5.76
  -6   6   3    3.52    5.46
  -7   9   1   93.75   10.07
   0   9  -7   -1.80    3.46
  -3   1   2  936.79   12.27
  -4   8  -5   15.38    6.45
  -4   6  -4  138.39    9.59
  -4   3  -1  816.38   16.81
  -4   2   2  155.26    6.75
  -5  10  -5   32.73    8.28
  -5   8  -4   61.52    9.10
  -5   4   0  123.54    8.02
  -6   9  -3  206.97   13.96
  -6   6   0   82.33    8.93
  -6   7   5   17.44    5.32
  -7   9   0    8.77    6.28
  -1   2  -3 1827.51   16.33
  -2  10  -7  140.35    9.22
  -2   1  -1  396.63    8.18
  -3  11  -7   94.95    9.57
  -3   6  -5   26.71    5.27
  -3   1   1  125.99    5.27
  -4  10  -6   -4.07    6.09
  -4   2   1   79.79    5.40
  -5   6  -3   -3.87    5.45
  -5   5  -2  162.77   10.27
  -5   4   4   58.94    5.32
  -6   7  -2  250.80   14.06
  -6   6   4   47.82    6.78
  -7   9  -1   90.19   10.79
  -7   8   1   -1.49    6.39
  -7   8   2    6.93    6.68
  -1   3  -4    5.74    2.45
  -2   7  -6    4.69    3.88
  -2   5  -5   49.35    5.03
  -3   8  -6  125.85    9.12
  -4   2   0   45.81    4.81
  -4   2   3   61.75    4.35
  -4   3   5  338.35    7.67
  -5   9  -5   57.40    8.98
  -5   4  -1  267.91   11.53
  -6  10  -4   -0.80    6.44
  -6   8  -3   -4.59    6.75
  -6   6  -1    2.98    5.73
  -6   5   1  226.14   11.61
  -6   5   2  205.38   10.60
  -7   8   0    2.83    6.71
   0   6  -6  753.30   11.78
  -2   9  -7   13.10    5.81
  -3   4  -4   55.04    5.64
  -3   3  -3  885.55   16.76
  -3   2  -2  439.78   11.38
  -3   1   0  105.82    5.34
  -4   9  -6   24.69    7.03
  -4   7  -5   20.16    5.84
  -4   4  -3  139.84    8.46
  -4   3  -2   71.00    6.41
  -5   7  -4  206.88   12.35
  -5   3   1  399.53   12.51
  -5   3   2   97.56    6.60
  -6   9  -4   51.99    9.38
  -6   5   0  249.64   12.63
  -6   5   3  183.26    9.80
  -7   8  -1   -2.20    7.00
  -7   7   1   -1.44    5.97
  -7   7   2  160.85   11.09
  -4   5  -4  366.30   13.48
  -5   5  -3   71.81    8.04
  -5   4  -2   15.22    5.48
  -5   3   0   40.29    5.58
  -5   3   3  306.24   10.13
  -6   7  -3   24.75    7.96
  -6   6  -2   16.54    7.40
  -6   6   5   -0.78    4.50
  -7   7   0  135.49   11.41
  -7   7   3   -1.28    5.67
   0   8  -7  216.88    7.44
   0   4  -5 1012.77   11.74
  -2   3  -4   17.39    3.29
  -2   2  -3  764.30   13.06
  -3   7  -6   59.03    6.97
  -3   5  -5   65.09    6.41
  -4   2   4   29.05    3.39
  -5   8  -5   12.74    6.44
  -5   6  -4  113.99   10.28
  -5   4   5  115.64    6.25
  -6   8  -4    9.31    7.55
  -6   5  -1  228.66   12.35
  -6   5   4  155.02    8.88
  -7   8  -2    9.94    7.96
  -7   7  -1    2.73    6.91
  -2   6  -6  326.99   11.06
  -2   1  -2  388.72    8.78
  -3   9  -7   58.14    7.89
  -3   1  -1  123.94    5.88
  -4   8  -6   14.50    6.29
  -4   6  -5    2.97    4.53
  -5   3  -1  397.89   13.50
  -6   4   0   24.05    6.15
  -6   4   1   27.03    6.10
  -6   4   2    1.51    4.38
  -7   6   1    0.52    6.05
  -7   6   2   33.74    7.17
  -2   8  -7  108.77    8.14
  -2   4  -5  491.54   12.23
  -4   4  -4   28.24    5.75
  -4   3  -3  575.57   15.56
  -5   9  -6   13.25    7.20
  -5   7  -5   -2.34    6.31
  -5   3   4   16.67    4.11
  -6   6  -3    0.27    5.93
  -6   5  -2  228.23   12.76
  -6   4   3   19.01    5.53
  -7   7  -2  178.70   13.26
  -7   6   0   11.05    6.24
  -7   6   3    4.07    5.64
  -3   3  -4   15.24    4.05
  -3   2  -3  808.73   15.83
  -4   7  -6   39.67    7.21
  -4   2  -2  152.56    7.98
  -4   1   1    1.36    2.66
  -4   1   2  838.65   14.04
  -5   5  -4  201.39   12.22
  -5   4  -3  189.45   10.70
  -5   3  -2  103.91    8.31
  -5   2   1   64.19    5.85
  -5   2   2  172.80    8.21
  -6   7  -4  203.22   13.26
  -6   4  -1   27.55    6.95
  -7   6  -1    6.53    6.93
  -3   8  -7   57.28    7.26
  -3   4  -5  343.27   12.07
  -4   9  -7   78.21    9.08
  -4   5  -5  140.81    9.61
  -4   1   0  358.49   10.41
  -5   8  -6    8.35    6.75
  -5   2   0   36.23    5.04
  -6   8  -5    3.44    7.36
  -6   5  -3  169.11   12.10
  -6   5   5  111.42    7.16
  -7   5   0   52.22    8.25
  -7   5   1   61.23    8.24
  -7   5   2   88.40    8.83
  -2   7  -7    2.81    4.80
  -2   5  -6    6.37    3.99
  -3   1  -2  947.94   15.99
  -3   0   1   -0.41    2.30
  -4   1  -1    2.52    3.38
  -4   1   3    5.77    2.66
  -5   6  -5    0.22    5.43
  -5   2  -1   60.22    6.46
  -5   2   3   48.92    4.96
  -6   6  -4   52.68    9.14
  -6   4  -2    2.89    5.66
  -6   3   0    0.83    5.10
  -6   3   1  486.18   15.35
  -6   3   2    1.29    4.26
  -6   4   4   13.61    4.91
  -7   7  -3   -0.58    6.38
  -7   6  -2   21.86    7.44
   0   7  -7   -0.57    2.96
   0   5  -6    2.69    2.69
  -1   2  -4  554.94    9.84
  -2   0  -1    0.04    1.99
  -3   0   0 1882.60   19.69
  -3   0   2 1419.69   14.61
  -4   6  -6   38.45    7.07
  -4   3  -4   -1.58    4.26
  -5   4  -4   61.67    8.03
  -5   3  -3  324.85   13.59
  -6   7  -5   12.49    7.36
  -6   3  -1  510.19   17.06
  -7   5  -1   62.26    8.58
  -7   5   3   61.92    7.47
  -2   2  -4  270.81    8.44
  -2   1  -3   81.59    4.80
  -3   7  -7    6.86    5.54
  -3   5  -6   96.94    7.57
  -4   8  -7   13.71    6.56
  -4   4  -5  101.54    8.40
  -4   2  -3   68.41    6.13
  -5   7  -6   84.59    9.65
  -5   5  -5   55.12    8.21
  -5   2  -2  167.60    9.67
  -5   3   5  211.53    7.28
  -6   4  -3   23.18    7.56
  -6   3   3  409.30   12.94
  -7   6  -3   -0.18    7.11
  -7   5  -2   87.67   10.36
  -7   4   0    6.93    6.21
  -7   4   1    2.96    5.85
  -1   1  -3   50.38    3.11
  -2   9  -8   31.69    6.08
  -2   3  -5  101.85    6.06
  -3   2  -4  235.92    9.28
  -3   0  -1    0.00    2.74
  -4   1  -2  821.47   17.23
  -5   1   0  116.43    7.51
  -5   1   1   72.62    5.98
  -6   5  -4  156.94   11.65
  -6   3  -2    2.86    6.40
  -7   4  -1   -0.73    6.44
  -7   4   2    1.03    5.34
  -7   5   4   47.68    6.71
  -2   6  -7   39.49    5.69
  -3   3  -5  404.66   12.52
  -3   1  -3   73.35    5.34
  -4   7  -7    8.51    5.92
  -4   5  -6   64.46    7.77
  -5   6  -6   21.85    7.22
  -5   1   2  243.74    9.26
  -5   2   4   21.21    3.99
  -6   6  -5   -4.22    5.92
  -6   2   0   13.11    5.56
  -6   2   1   21.01    5.46
  -6   4   5   11.00    4.34
  -7   5  -3   54.44    9.31
  -7   4   3    0.08    5.45
  -2   4  -6   76.67    6.01
  -2   0  -2 2550.15   21.61
  -3   6  -7   12.75    5.64
  -4   0   0   48.91    4.71
  -4   0   1   -0.81    2.45
  -5   4  -5  108.25    9.79
  -5   3  -4   19.79    5.62
  -5   2  -3   48.74    7.03
  -5   1  -1   67.92    6.33
  -6   4  -4   13.29    7.15
  -6   2  -1   19.73    6.33
  -6   2   2   79.02    6.95
  -6   3   4    3.67    4.44
  -7   4  -2    1.98    6.70
  -2   8  -8   77.69    7.30
  -3   4  -6   28.65    5.25
  -3   0  -2 1381.81   19.11
  -4   3  -5  340.08   13.21
  -4   2  -4   28.42    5.04
  -4   1  -3    8.46    4.15
  -4   0  -1   -1.06    3.14
  -4   0   2  170.45    6.66
  -5   1   3   55.46    5.09
  -6   5  -5  116.33   11.26
  -6   3  -3  391.14   16.09
  -7   3  -1  152.71   11.43
  -7   3   0    8.44    6.15
  -7   3   1  163.64   10.64
  -7   3   2   -3.43    5.36
  -4   6  -7    1.95    5.64
  -5   5  -6   70.93    9.02
  -5   1  -2  231.88   10.77
  -6   2  -2   76.66    8.22
  -6   2   3   12.32    4.97
  -7   5  -4   44.03    9.09
  -4   4  -6    2.67    5.11
  -4   0  -2  161.43    8.23
  -5   2  -4   24.45    6.18
  -6   3  -4    1.32    6.45
  -6   1   0  450.88   15.05
  -6   1   1   57.08    6.56
  -3   1  -4   97.74    6.18
  -6   2  -3   18.29    6.54
   3   9  -3  135.43    5.61
   1   9  -3   59.82    5.38
   0  11  -3   -4.48    4.24
  -2   5  -1  136.73    6.41
  -3   8  -1  275.63   11.04
  -4   8   0   84.03    7.23
  -5   3   4   15.30    3.16
  -6  10   3   19.72    6.62
   0  10  -3  643.14   15.88
   0   5  -2    0.76    2.28
  -1  13  -3    8.40    6.08
  -1  14  -3   42.80    7.86
  -1  15  -3    2.67    6.93
  -1  16  -3  199.68   13.61
  -1  17  -3    9.63    8.31
  -1  18  -3   42.82    9.30
  -2   9  -2   42.95    5.66
  -3   2   1 1345.00   14.10
  -4  13  -1   -1.56    6.83
  -4  14  -1   10.29    7.62
  -4  15  -1   30.08    8.77
  -4  16  -1   18.61    8.72
  -5   9   1   96.08    8.34
  -5   6   2   38.27    5.12
  -5   4   3  201.46    7.52
  -6   9   3  183.14   10.63
  -1  12  -3  121.97    9.25
  -1   6  -2 2509.40   25.52
  -3  13  -2  216.10   13.83
  -3  14  -2  184.03   13.01
  -3  15  -2   79.02   10.06
  -3  16  -2    5.45    7.16
  -3  17  -2    0.12    7.10
  -3   7  -1   11.07    4.19
  -3   4   0  100.37    5.55
  -4  12  -1   31.30    7.98
  -4   7   0  267.71   10.72
  -5  13   0   71.41    9.86
  -5  14   0    0.02    7.42
  -5  15   0   44.97    9.22
  -5   8   1   42.87    6.20
  -6  11   2   65.38    8.80
  -6  12   2    9.66    7.07
  -6   8   3   -2.52    5.66
   1   8  -3  263.03    8.64
   0   9  -3   -7.32    3.75
  -1  11  -3   96.87    8.43
  -2   8  -2  840.42   17.98
  -3  12  -2  190.21   11.93
  -4  11  -1  176.22   11.18
  -4   4   1  182.26    7.40
  -5  12   0   77.88    9.77
  -6  10   2   -0.63    6.12
  -6   6   4   38.96    5.46
  -1  10  -3  503.38   15.32
  -2  14  -3    8.73    7.31
  -2  15  -3   -1.96    7.68
  -2  16  -3  221.21   15.13
  -2  17  -3   21.38    9.35
  -3  11  -2  140.92   10.16
  -4  10  -1   94.80    9.02
  -4   6   0  180.76    8.79
  -5  11   0   15.63    6.88
  -5   7   1   -2.39    4.23
  -5   5   2  152.07    7.54
   2  16  -4    5.12    6.66
   1  16  -4   32.39    7.98
   0   8  -3 1272.56   19.99
  -2  13  -3    2.49    6.44
  -2   7  -2   67.75    6.20
  -2   4  -1 1429.79   17.78
  -3  10  -2    6.39    5.04
  -3   6  -1   73.35    5.79
  -4   9  -1  208.77   11.30
  -4   2   2  146.74    5.36
  -5  10   0   18.82    6.89
  -6   9   2   64.03    8.04
  -6   7   3   18.64    5.58
   2  14  -4  230.68   11.41
   2  15  -4   -5.57    5.98
   1  14  -4  344.15   14.49
   1  15  -4   -3.99    5.95
   1   7  -3    6.27    3.30
   0  16  -4   10.57    7.72
   0  17  -4   -3.37    7.52
  -1   9  -3   46.97    5.97
  -2  12  -3   82.72    8.51
  -3   9  -2   -2.70    4.84
  -4  15  -2   28.80    9.22
  -4  16  -2   15.52    8.82
  -5   9   0   57.55    7.62
  -6  12   1    2.49    7.25
   2  13  -4   12.71    5.60
   2   7  -3   21.53    3.03
   1  13  -4    8.53    5.97
   0  15  -4   -9.35    6.64
  -1   5  -2  265.99    8.24
  -2  11  -3   59.83    7.48
  -3   3   0   87.02    4.92
  -4  13  -2  284.06   16.06
  -4  14  -2   53.70    9.50
  -4   8  -1   11.59    5.23
  -5  13  -1    1.78    7.38
  -5  15  -1   34.07    8.73
  -5   6   1   -1.42    3.64
  -5   3   3  308.58    8.30
  -6  11   1  130.86   10.99
  -6   8   2   -0.58    5.71
  -6   5   4  137.59    7.11
   1  12  -4  136.70    8.98
   0  13  -4  -11.74    5.78
   0   7  -3   -4.20    2.97
   0   4  -2 1522.72   15.59
  -1  16  -4   31.30    8.67
  -1  17  -4   -1.39    7.48
  -1   8  -3  264.50   10.53
  -2  10  -3  343.33   14.03
  -3  14  -3   45.70    9.50
  -3  15  -3   47.18    9.95
  -3  16  -3  132.24   12.80
  -3   8  -2  394.21   13.90
  -3   5  -1   99.42    6.50
  -4  12  -2   74.60   10.46
  -4   5   0  724.26   15.56
  -4   3   1  797.80   13.57
  -5  12  -1    9.78    7.88
  -5   8   0   90.60    8.30
  -5   4   2    7.15    3.77
  -6  10   1   27.17    7.56
  -6   6   3   -0.77    4.52
   1  11  -4    4.32    4.69
   0  12  -4  495.77   16.51
  -1  14  -4  348.05   16.55
  -1  15  -4   -4.32    7.24
  -3  13  -3   15.07    8.13
  -4  11  -2  126.00   11.21
  -4   7  -1   63.94    6.68
  -5  11  -1  230.27   14.00
  -6  13   0  187.33   13.74
  -6   9   1  241.14   12.92
  -6   7   2  254.85   11.41
   3  13  -4   48.42    5.66
   0  11  -4   -1.45    4.77
  -1  13  -4    6.62    7.17
  -2   9  -3    9.78    4.87
  -3  12  -3   73.86    9.54
  -4  10  -2   -3.30    5.85
  -5  10  -1   86.89    9.85
  -5   7   0  261.40   11.89
  -5   5   1   69.00    6.19
  -6  12   0   -0.89    7.46
   3  12  -4  123.93    7.11
  -1  12  -4  130.71   10.39
  -1   7  -3    5.88    3.84
  -2  15  -4    7.94    8.49
  -2  16  -4    4.37    7.95
  -2   3  -1  177.67    6.30
  -3  11  -3  373.97   16.40
  -3   7  -2  163.08    9.10
  -6  11   0   74.43    9.81
  -6   8   1    1.61    5.98
  -6   5   3  179.01    8.46
   1  10  -4   87.12    6.64
   0  10  -4   74.58    6.99
  -1  11  -4    5.23    5.61
  -1   4  -2  165.62    6.45
  -2  14  -4  254.79   15.45
  -2   8  -3  469.84   14.87
  -2   5  -2    2.90    3.04
  -3  10  -3  391.72   16.25
  -4  15  -3   33.43   10.11
  -4   9  -2  101.57    9.38
  -4   6  -1    3.43    4.13
  -4   4   0   48.08    4.94
  -5  14  -2   27.48    9.66
  -5   9  -1   96.96    9.56
  -6   6   2    9.75    5.18
  -2  13  -4   20.68    7.75
  -3   4  -1 1047.37   17.36
  -4  13  -3   -3.34    7.46
  -4  14  -3   11.09    7.68
  -5  13  -2  119.58   12.04
  -5   6   0  178.51    9.51
  -6  10   0    6.16    6.80
   3  11  -4   11.48    4.00
   1   9  -4   29.12    4.83
  -1  10  -4   88.51    8.11
  -2  12  -4  237.90   13.62
  -3  15  -4    7.40    8.70
  -3  16  -4   -1.70    8.20
  -3   9  -3  137.94   10.43
  -3   2   0  606.96   10.97
  -4  12  -3   27.43    8.83
  -4   8  -2   25.57    6.36
  -5  12  -2  128.51   12.07
  -5   8  -1   37.75    7.04
  -5   3   2   91.82    5.51
  -6   9   0   75.80    9.00
  -6   7   1   27.61    6.54
   1  15  -5    9.68    7.37
   1  16  -5  122.30   11.26
   0  15  -5   -4.98    7.43
   0   9  -4   -3.82    4.00
  -1   6  -3  329.51   10.74
  -2  11  -4   -3.70    5.97
  -2   7  -3   20.96    4.57
  -3  14  -4  148.35   13.50
  -4   2   1   78.49    4.75
  -5  11  -2   47.10    9.37
  -5   4   1  249.62    9.41
  -5   2   3   46.74    3.82
  -6  12  -1    5.32    7.79
   1  14  -5   23.30    7.34
   0  14  -5    7.30    7.16
  -1  16  -5  110.96   12.23
  -1   9  -4   26.85    5.70
  -3  13  -4   67.32   10.15
  -3   8  -3  208.37   11.36
  -4  11  -3  158.81   12.38
  -4   5  -1  367.20   12.23
  -5  10  -2   -0.26    7.15
  -5   7  -1    1.17    4.96
  -6  11  -1  142.10   12.59
  -6   8   0    7.21    6.20
  -6   5   2  215.87    9.74
   2  15  -5   -0.66    5.85
   0  13  -5   -1.57    6.37
   0   8  -4  607.07   15.45
  -1  14  -5   23.61    8.34
  -1  15  -5    5.44    8.03
  -2  10  -4    3.57    5.50
  -2   4  -2  352.18   10.14
  -3  12  -4  144.71   12.20
  -3   5  -2  416.50   12.85
  -4  10  -3   82.30   10.10
  -4   7  -2   73.54    7.33
  -4   3   0   10.86    3.67
  -5   5   0  301.93   11.44
  -6  10  -1   30.00    8.72
  -6   6   1   -0.49    5.14
  -6   4   3   22.18    4.53
  -7   8   2    5.40    6.34
  -7   7   3    1.27    5.18
   3  10  -4    7.12    3.35
   1  13  -5    2.19    5.74
   1   8  -4  241.70    9.08
   0   5  -3    1.39    2.79
  -1  13  -5    3.21    7.10
  -2  15  -5    1.24    8.20
  -2   6  -3  186.85    9.24
  -2   2  -1 1088.63   14.19
  -3  11  -4   16.08    8.31
  -3   3  -1 1597.96   20.58
  -5  13  -3   -1.48    8.46
  -5   9  -2   13.73    7.24
  -7   9   1   89.11    9.65
   1  12  -5  110.53    8.96
  -1   8  -4  217.56   10.32
  -1   5  -3   44.62    4.83
  -1   3  -2  468.47    9.81
  -2  14  -5    7.16    8.37
  -2   9  -4  152.01   10.13
  -3   7  -3    6.01    4.62
  -4  13  -4  114.19   12.82
  -4  14  -4   23.79    9.08
  -4   9  -3  185.62   11.95
  -4   6  -2   71.85    7.28
  -5  12  -3    4.42    8.69
  -5   6  -1   -2.14    4.52
  -6  12  -2   21.87    9.13
  -6   9  -1  258.50   14.48
  -6   7   0  260.22   12.59
   0  11  -5   -2.89    5.83
  -1  12  -5  108.92   10.11
  -2  13  -5   -4.29    7.59
  -3  10  -4    2.94    5.81
  -4  12  -4   24.78    9.23
  -4   4  -1  183.66    8.71
  -5  11  -3  214.22   15.01
  -5   8  -2   16.63    6.87
  -5   3   1  385.09   10.77
  -7   7   2  146.66    9.82
   2   8  -4  288.10    8.47
   1  11  -5   43.58    6.80
   0   7  -4   -2.05    3.62
  -1  11  -5   40.47    7.95
  -2  12  -5   65.18   10.03
  -4   8  -3   16.59    6.01
  -5   4   0  118.36    7.49
  -5   2   2  156.06    6.24
  -6  11  -2   74.80   10.36
  -6   8  -1   -3.39    6.31
  -6   5   1  223.32   10.43
  -6   4   2   -0.40    4.17
  -7   8   1    2.29    6.00
   1   7  -4  136.75    6.78
  -1   7  -4  129.27    8.27
  -2   5  -3   81.34    6.62
  -3  13  -5    6.56    8.41
  -3  14  -5   28.78    8.95
  -3   9  -4   86.83    9.06
  -3   6  -3   50.12    6.10
  -3   4  -2   98.98    6.66
  -4  11  -4   30.81    8.42
  -5  10  -3   61.30    9.64
  -5   7  -2  150.05   10.81
  -6  10  -2    1.17    7.87
  -6   6   0   89.06    8.21
  -7   9   0   10.10    6.93
   3   9  -4   85.22    4.67
   0  10  -5  409.17   14.82
  -1  10  -5  356.35   15.26
  -2  11  -5   35.75    8.13
  -2   3  -2  196.12    7.50
  -3   1   0  110.19    4.88
  -4  10  -4    5.06    7.90
  -4   7  -3   50.09    7.61
  -4   5  -2  213.11   10.53
  -4   2   0   47.02    4.53
  -5   5  -1   56.48    6.56
  -6   7  -1   21.08    7.31
  -7   7   1    3.17    5.97
  -7   6   2   24.67    6.27
   1  10  -5  357.65   12.67
   0  15  -6    1.21    7.23
  -2  10  -5  247.31   14.03
  -2   7  -4   39.58    6.10
  -3  12  -5   56.19    9.80
  -3   8  -4  226.25   12.49
  -4   1   1    1.07    2.55
  -5   9  -3   90.16   10.26
  -6   9  -2   66.52    9.82
  -7   8   0   -2.01    6.52
   0   9  -5   -3.68    5.08
   0   6  -4  628.78   14.40
  -1  14  -6  134.24   12.92
  -1   9  -5   23.22    6.45
  -1   6  -4  570.25   15.14
  -3  11  -5  174.52   13.92
  -3   5  -3   89.58    7.61
  -3   2  -1 1354.13   18.23
  -4  13  -5   -0.76    8.49
  -4   9  -4  184.52   13.53
  -4   3  -1  802.57   16.43
  -5  12  -4   39.86    9.64
  -5   6  -2   42.04    7.25
  -6  11  -3  120.63   12.84
  -6   5   0  230.49   11.36
  -6   4   1   25.20    5.32
   1  14  -6  114.27   10.29
   0  13  -6   -2.39    7.28
  -1  13  -6   24.67    8.39
  -2  14  -6   97.19   12.40
  -3   7  -4  378.40   15.45
  -4   6  -3    2.65    5.25
  -5  11  -4   17.02    9.00
  -5   8  -3   34.63    7.87
  -5   3   0   38.36    4.91
  -6   8  -2   -2.29    7.10
  -6   6  -1    7.61    6.41
  -7   9  -1   90.84   10.64
  -7   6   1    2.53    6.18
   2   7  -4   41.48    3.88
   1   9  -5   25.42    5.45
  -2  13  -6   62.78   10.94
  -2   9  -5    9.88    5.90
  -2   6  -4  344.89   13.13
  -2   4  -3  970.03   18.24
  -3  10  -5  247.77   15.01
  -3   3  -2  596.49   14.09
  -4  12  -5    9.09    8.18
  -4   8  -4   73.76    9.91
  -4   4  -2   -0.11    4.21
  -5  10  -4   13.58    8.55
  -5   4  -1  259.88   11.16
  -5   2   1   57.96    4.72
  -6  10  -3   25.14    9.37
  -6   3   2    2.18    3.77
  -7   7   0  128.95   10.28
   1  13  -6   22.97    7.62
   0  12  -6  131.86   10.82
   0   8  -5  605.14   16.58
  -1  12  -6   29.80    8.48
  -1   8  -5  165.85   10.35
  -1   2  -2    4.73    2.13
  -2   1  -1  398.04    8.39
  -4  11  -5  102.60   12.35
  -5   7  -3   -2.55    6.55
  -5   5  -2  164.72   10.34
  -6   7  -2  260.07   14.40
  -7   8  -1   -3.36    6.82
  -7   5   2   77.37    7.09
  -1  11  -6   20.19    7.98
  -2  12  -6   82.38   10.64
  -2   8  -5  259.11   13.52
  -3  13  -6   82.38   12.44
  -3   9  -5   86.96   10.19
  -3   6  -4  543.92   17.63
  -4  10  -5   55.62   10.49
  -4   5  -3  256.64   12.37
  -5   9  -4   51.31   10.19
  -6   9  -3  205.68   14.35
  -6   4   0   22.68    5.99
   1  12  -6   31.70    7.28
   0  11  -6   -2.13    5.87
  -1   5  -4  310.31   11.12
  -2  11  -6   29.50    8.95
  -2   2  -2   55.66    4.39
  -3  12  -6   86.15   12.37
  -3   4  -3  708.68   17.20
  -4   7  -4  215.06   12.77
  -4   2  -1   77.03    5.96
  -6   5  -1  218.64   11.66
  -6   3   1  468.18   12.99
  -7   6   0    5.11    6.60
  -7   5   1   58.47    7.44
   1   8  -5  171.49    8.46
   0   5  -4    0.06    3.03
  -1  10  -6    0.14    6.24
  -1   7  -5    1.44    4.60
  -1   3  -3  484.16   11.51
  -3   8  -5  114.68   10.31
  -4   9  -5  102.66   12.02
  -4   3  -2   66.99    6.35
  -4   1   0  362.81    9.47
  -5  11  -5  133.64   14.07
  -5   8  -4   57.32   10.28
  -5   6  -3   -1.19    5.12
  -5   3  -1  393.31   12.97
  -5   1   2  241.62    6.87
  -6   8  -3   -1.57    6.69
  -6   6  -2   18.05    7.35
  -7   7  -1   -0.19    6.51
   3  11  -5  168.99    6.99
   1  11  -6   16.40    6.16
   0  10  -6    1.59    5.86
   0   7  -5   -0.26    4.08
  -2  10  -6    3.76    7.48
  -2   7  -5    6.57    5.21
  -2   3  -3  150.53    7.76
  -3  11  -6   58.54   10.14
  -3   1  -1  126.93    5.96
  -4   6  -4  131.71   10.75
  -5   4  -2    8.54    5.24
  -5   2   0   40.52    4.93
  -6  10  -4    2.53    7.54
  -7   8  -2    6.66    7.83
  -3  10  -6   -0.16    7.99
  -3   7  -5   -1.55    6.39
  -3   5  -4  630.17   18.17
  -3   2  -2  425.10   11.67
  -4   8  -5   17.14    8.43
  -4   4  -3  140.54    9.67
  -5  10  -5   43.70    9.94
  -6   7  -3   21.32    8.32
  -6   4  -1   26.56    6.52
  -6   2   3   12.06    3.29
  -7   6  -1    2.04    6.77
  -7   5   0   50.56    7.75
  -7   4   2    0.26    4.24
  -1  13  -7   -6.24    7.50
  -1   9  -6    2.62    6.20
  -2   9  -6    7.87    7.73
  -4  11  -6   53.30   11.04
  -5   5  -3   56.25    8.08
  -6   5  -2  220.40   12.75
  -6   3   0   -2.94    4.57
  -6   2   2   85.95    5.68
  -7   7  -2  156.60   12.51
   2   6  -4  336.82    7.72
   1  10  -6    0.24    5.01
   1   7  -5    0.10    3.51
   0  13  -7   -4.39    7.00
   0   9  -6   -0.82    5.10
  -1   6  -5  109.14    8.28
  -1   4  -4   16.39    4.26
  -2   6  -5   78.39    7.83
  -2   4  -4   29.12    5.31
  -3   9  -6    0.01    7.99
  -4  10  -6   -2.36    8.26
  -4   5  -4  348.20   15.19
  -5   9  -5   85.76   11.19
  -5   1   1   56.82    4.54
  -7   4   1    1.45    5.31
   0   6  -5  160.94    8.59
  -1  12  -7   40.98    9.00
  -1   8  -6  344.19   15.03
  -2  12  -7   36.10    9.61
  -2   8  -6  265.72   14.81
  -3   6  -5   33.85    7.67
  -3   4  -4   51.42    6.88
  -4   7  -5   23.09    7.64
  -4   2  -2  150.37    8.29
  -5   3  -2   94.36    7.87
  -5   2  -1   59.32    6.34
  -6   6  -3    3.80    6.41
   3  10  -5  220.84    7.08
   2   8  -5  239.80    8.32
   0  12  -7   45.38    8.36
   0   4  -4   24.52    3.91
  -1  11  -7   26.16    8.40
  -2  11  -7   30.75    9.71
  -3   8  -6  158.21   13.06
  -4   9  -6   27.32    9.63
  -4   3  -3  588.85   16.92
  -4   1  -1    0.90    2.94
  -5   8  -5   18.07    8.07
  -5   4  -3  204.02   12.05
  -6   2   1   17.34    4.68
  -7   6  -2   26.91    8.18
  -7   5  -1   61.81    8.26
  -7   4   0    9.27    6.07
   1  13  -7   -2.35    6.18
   1   9  -6    1.06    4.84
   0   8  -6  602.01   17.56
  -1   2  -3 1898.65   21.61
  -1   1  -2  723.96   11.29
  -2   5  -5   48.98    6.92
  -2   2  -3  786.68   15.65
  -2   1  -2  390.15    9.65
  -3  11  -7  114.41   13.51
  -4   6  -5    2.27    7.30
  -5   1   0  113.63    6.64
  -6   7  -4  202.74   14.40
  -6   5  -3  189.08   12.86
  -6   4  -2   -1.44    5.44
  -6   3  -1  487.97   15.56
  -7   7  -3    0.63    7.57
   0  11  -7   -1.64    6.33
  -1  10  -7  190.77   13.38
  -1   7  -6   12.40    6.26
  -1   5  -5   19.82    4.60
  -2  10  -7  126.13   12.79
  -2   7  -6    0.75    6.66
  -3   5  -5   75.30    8.91
  -3   1  -2  943.73   16.75
  -4   8  -6   18.23    9.09
  -4   4  -4   36.24    6.58
  -5   7  -5   -2.71    6.75
  -5   5  -4  194.99   13.25
  -6   2   0    9.50    5.03
  -7   3   2    1.44    4.16
   1  12  -7   52.31    7.97
   1   6  -5  105.54    6.37
  -1   3  -4    3.88    3.67
  -2   3  -4   12.61    4.10
  -3  10  -7  142.80   13.38
  -3   7  -6   61.96    9.43
  -4   0   0   43.08    4.12
  -5   9  -6   15.50    8.65
  -6   8  -5   -2.82    8.59
  -6   6  -4   43.21    9.90
  -7   5  -2   74.83    9.57
  -7   4  -1   -2.29    6.39
  -7   3   1  137.61    8.31
   1   8  -6  344.56   12.35
   0  10  -7  209.89   12.52
   0   7  -6    2.32    5.38
   0   5  -5    1.48    3.80
  -1   9  -7   12.11    7.95
  -2   9  -7   10.33    8.37
  -3   3  -4   12.03    4.75
  -3   0  -1   -0.48    2.45
  -4   7  -6   41.01    9.60
  -4   5  -5  156.65   12.20
  -5   6  -5    2.15    7.70
  -5   3  -3  321.41   14.03
  -5   2  -2  174.13    9.62
  -6   3  -2    3.92    6.00
  -7   6  -3   -1.28    7.03
   1  11  -7   16.50    6.84
   0   2  -3 2450.98   21.19
  -2   6  -6  344.63   15.51
  -2   4  -5  508.88   16.25
  -3   9  -7   67.33   10.57
  -3   6  -6  294.79   15.80
  -4   2  -3   65.83    6.65
  -4   1  -2  800.31   17.13
  -5   8  -6    9.28    8.23
  -5   4  -4   56.60    8.83
  -5   1  -1   68.80    6.29
  -6   7  -5   10.36    8.88
  -6   2  -1   18.80    5.59
  -7   3   0   11.50    5.86
   3   9  -5   79.23    4.43
   2   7  -5    5.10    3.36
   0   9  -7   -2.59    6.34
   0   3  -4   -1.37    3.14
  -1   6  -6  604.43   18.10
  -1   4  -5  266.95   11.09
  -2   8  -7  123.37   11.99
  -3   4  -5  367.39   14.98
  -4   9  -7   85.08   12.33
  -4   3  -4    0.26    4.72
  -6   5  -4  151.52   12.36
  -7   5  -3   49.38    9.23
  -7   4  -2   -0.91    6.69
   2   9  -6    4.20    4.43
   1  10  -7  181.05   11.00
  -1   8  -7   84.84    9.73
  -2   1  -3   84.86    5.94
  -3   8  -7   67.50   10.27
  -4   6  -6   47.73    9.05
  -4   4  -5  117.44   10.80
  -4   0  -1   -1.19    3.23
  -5   7  -6   91.36   11.61
  -5   5  -5   50.98    9.02
  -6   6  -5   -2.15    7.86
  -6   1   1   61.98    5.51
  -7   3  -1  151.72   10.55
   0   6  -6  750.34   18.31
  -2   5  -6   11.60    6.52
  -2   2  -4  285.51   10.79
  -3   5  -6  104.80   10.88
  -3   2  -4  239.37   11.08
  -3   1  -3   83.57    6.35
  -4   8  -7   11.80    8.22
  -5   3  -4   19.23    7.03
  -5   2  -3   47.34    7.20
  -5   0   1   -0.72    2.76
  -6   2  -2   71.89    8.23
   1   7  -6   15.87    5.02
   1   5  -5   21.23    3.87
   0   8  -7  216.23   12.07
   0   4  -5 1024.21   18.64
  -1   5  -6   26.37    6.31
  -1   2  -4  569.57   13.63
  -1   1  -3   47.65    4.32
  -2   7  -7    8.42    6.74
  -2   3  -5   98.28    8.12
  -2   0  -2 2534.46   23.69
  -3   7  -7    2.59    7.99
  -3   3  -5  436.09   16.03
  -3   0  -2 1354.25   19.62
  -4   5  -6   87.40   10.95
  -5   6  -6   14.27    8.83
  -5   1  -2  226.11   10.49
  -5   0   0   70.52    5.37
  -6   4  -4   21.87    7.46
  -6   1   0  431.95   12.51
  -7   4  -3    1.94    7.59
  -7   2   1   22.82    5.08
   1   9  -7   14.27    6.41
  -1  10  -8   20.27    8.30
  -1   7  -7    1.26    6.35
  -4   7  -7    8.30    8.64
  -4   2  -4   26.02    5.78
  -4   1  -3    4.06    3.77
  -5   4  -5  128.25   11.52
  -7   5  -4   45.83    9.59
  -7   3  -2    0.13    6.01
  -7   2   0    7.10    5.62
   2  11  -7   19.32    5.30
  -1   3  -5  156.91    8.71
  -2   9  -8   41.20    9.76
  -2   6  -7   44.11    8.85
  -2   4  -6   77.57    8.53
  -3   6  -7   15.68    8.55
  -3   4  -6   26.81    7.78
  -4   3  -5  349.49   15.38
  -4   0  -2  177.76    8.48
  -5   5  -6   74.30   10.93
  -5   0  -1    1.69    3.85
  -6   1  -1   66.56    6.73
   2   8  -6  265.17    9.27
   0  10  -8    7.71    6.60
   0   7  -7   -3.07    5.44
   0   5  -6   -0.53    4.19
  -1   9  -8    4.39    7.54
  -4   6  -7    2.20    8.55
  -4   4  -6    3.34    7.73
  -5   2  -4   18.79    6.82
  -5   1  -3   54.59    6.94
  -6   3  -4    2.65    6.93
  -6   2  -3    8.73    6.73
  -7   2  -1   27.64    6.38
   2   6  -5   76.01    4.72
   1   6  -6  626.97   14.95
  -1   6  -7   54.26    8.00
  -1   4  -6   61.79    7.13
  -1   0  -2  745.96   11.23
  -2   8  -8   82.47   11.15
  -2   1  -4   -1.60    3.81
  -3   2  -5  374.33   14.87
  -3   1  -4   96.46    7.37
  -5   3  -5  218.40   13.72
  -6   4  -5   19.10    8.09
  -6   1  -2  396.65   14.53
  -7   4  -4    5.16    7.36
  -7   3  -3  135.75   11.67
   2  10  -7  122.25    7.81
   1   8  -7   78.63    7.66
   0   9  -8   -2.89    6.59
   0   2  -4  717.10   13.43
  -1   8  -8   73.43    9.84
  -2   5  -7   21.97    7.97
  -2   2  -5  408.84   13.98
  -2   0  -3   -2.13    3.08
  -3   5  -7   35.63    9.16
  -3   0  -3    1.21    3.25
  -3  -1  -1  128.02    5.72
  -4   2  -5   62.34    8.59
  -4   1  -4  190.86   10.58
  -4  -1   0  370.75    8.86
  -5   4  -6   -2.42    8.01
  -5   0  -2  237.17   10.56
  -7   2  -2   -0.94    5.66
   1   4  -5  266.10    8.73
   0   3  -5    2.94    3.57
   0   1  -3   -0.82    2.33
  -2   7  -8   29.00    9.27
  -2   3  -6   28.20    6.61
  -3   7  -8  118.51   12.49
  -3   3  -6   98.65    9.48
  -4   5  -7   75.74   10.57
  -4   3  -6   24.02    8.51
  -4   0  -3   -3.05    3.98
  -4  -1  -1   -0.18    3.18
  -6   3  -5  243.08   15.54
  -6   2  -4    2.75    7.07
  -6   0   0   14.42    4.64
   1  10  -8   12.02    6.44
   0   6  -7   76.03    7.77
  -1   7  -8   24.95    8.39
  -1   5  -7   10.83    6.21
  -1   2  -5  760.98   17.27
  -1   1  -4   35.01    4.34
  -5   5  -7   44.91   10.57
  -5   2  -5   42.21    8.78
  -5   1  -4   96.87    9.38
  -6   1  -3   60.91    8.20
  -6   0  -1   -0.19    4.31
  -6   0   1   -1.40    3.44
  -7   3  -4    9.23    7.62
  -7   2  -3   21.41    7.47
  -7   1  -1   41.50    7.36
  -7   1   0  146.61    8.74
  -7   1   1   46.15    5.40
   2   7  -6    1.56    3.74
   1   7  -7    0.87    5.22
   0   8  -8  118.14   10.09
   0   4  -6  207.19    9.77
  -1   3  -6   31.10    5.77
  -2   6  -8  119.94   11.92
  -2   4  -7  269.13   14.66
  -3   6  -8  140.13   13.53
  -3  -1  -2  951.86   16.45
  -5   3  -6   36.03    9.22
  -5   0  -3   -0.02    4.66
  -6   4  -6    3.43    7.45
   2   9  -7   14.26    4.77
   1   5  -6   30.27    4.75
  -1   0  -3   -0.86    2.33
  -2   1  -5    8.12    4.69
  -3   2  -6  115.15   10.44
  -3   1  -5   45.49    6.55
  -3   0  -4  761.28   18.12
  -4   1  -5    9.07    6.10
  -4   0  -4   48.46    6.68
  -4  -1  -2  822.44   16.86
  -5   4  -7   55.17   10.86
  -5  -1  -1   69.27    5.90
  -5  -1   0  123.05    6.25
  -6   2  -5   15.39    8.28
  -6   0  -2    9.24    5.20
  -7   1  -2  100.67    9.35
  -8   2   0   -0.69    5.34
   1   9  -8    5.93    5.95
   0   5  -7   -2.81    5.19
  -1   6  -8  134.23   11.32
  -1   4  -7  188.87   11.48
  -2   2  -6   55.44    7.37
  -2   0  -4 1936.94   26.42
  -2  -1  -2  393.65    9.53
  -3   5  -8  131.30   13.25
  -4   2  -6   57.04    8.86
  -5   1  -5   45.58    8.65
  -5  -1   1   67.89    4.31
  -6   3  -6   -5.00    7.91
  -6   1  -4  292.02   15.01
  -7   2  -4    2.68    7.35
   0   7  -8   -2.81    5.69
   0   2  -5  919.10   17.03
  -2   5  -8   55.19    9.72
  -3   3  -7  189.54   13.18
  -3  -1  -3   78.41    6.33
  -4  -1  -3    7.09    4.27
  -5   2  -6   58.17    9.93
  -5   0  -4   43.69    7.46
  -5  -1  -2  230.03   10.26
  -6   0  -3   -2.38    5.46
  -7   1  -3   30.70    7.50
   2   5  -5   49.49    3.82
   1   6  -7   57.68    6.51
   0   3  -6   -0.21    4.27
  -1   2  -6   43.71    6.22
  -1   1  -5   13.34    4.26
  -2   3  -7   54.84    8.07
  -5   3  -7  130.97   13.51
   2   8  -7  106.91    6.85
   1   8  -8   80.05    8.18
   1   3  -5  153.25    6.77
   0   1  -4    6.40    3.11
  -1   5  -8   34.43    7.88
  -1   0  -4 1880.04   23.61
  -2  -1  -3   83.37    5.56
  -3   4  -8   16.48    8.61
  -3   1  -6  258.02   13.25
  -3   0  -5   -0.75    4.39
  -4   4  -8    9.03    8.72
  -4   1  -6  278.71   15.18
  -4   0  -5   -1.45    5.44
  -5  -1  -3   59.01    7.09
  -6   2  -6   29.30    9.18
  -6   1  -5   41.41    9.10
  -6   0  -4    9.96    6.82
  -6  -1  -1   63.43    6.52
  -7   1  -4  103.85   10.92
  -7   0  -2    3.31    6.20
  -7   0  -1    1.88    5.54
  -7   0   0   22.54    5.35
   2   6  -6  344.94    9.49
   1   4  -6   59.84    5.42
   0   6  -8  165.37   10.89
  -1   3  -7   55.36    7.63
  -2   4  -8    8.57    7.39
  -2   1  -6  116.88    9.41
  -2   0  -5   -1.88    4.09
  -3   2  -7  186.92   13.37
  -3  -1  -4  108.38    7.85
  -4   2  -7   42.44    9.32
  -4  -1  -4  190.11   10.70
  -5   1  -6  125.93   12.06
  -5   0  -5   -0.05    6.76
  -6  -1  -2  410.87   14.43
  -6  -1   0  438.78   11.79
  -8   1  -1   27.73    6.64
  -1  -1  -2  745.21   11.26
  -2   2  -7  193.44   12.49
  -3  -2  -1 1408.43   17.14
  -4   3  -8   -3.19    7.82
  -4  -2  -2  165.78    8.31
  -4  -2  -1   72.32    5.34
  -5   2  -7   27.25    8.56
  -5  -1  -4  109.29    9.43
  -6  -1  -3   50.63    7.67
  -7   0  -3   -4.78    5.88
  -7   0   1   -0.07    3.58
   1   7  -8   19.47    6.30
   1   5  -7    7.09    5.09
  -1   6  -9   17.51    8.10
  -1   4  -8   -1.37    6.08
  -2  -1  -4    3.94    3.47
  -3   3  -8    3.09    7.02
  -3  -2  -2  436.30   11.34
  -4   0  -6   89.77   10.24
  -4  -2   0   48.91    3.90
  -6   0  -5   -3.63    7.14
   0   5  -8   -0.57    5.42
   0   2  -6   41.09    5.34
   0   0  -3   -0.77    2.06
  -1   1  -6   85.08    7.39
  -1  -1  -3   47.63    4.26
  -2   3  -8    5.05    7.14
  -3   1  -7   25.73    8.44
  -3   0  -6  355.13   15.09
  -3  -1  -5   53.79    7.07
  -3  -2  -3  812.44   16.98
  -4   1  -7    5.69    7.45
  -4  -1  -5    9.90    6.15
  -4  -2  -3   66.59    6.50
  -5   0  -6   94.00   10.89
  -5  -2  -2  163.16    8.79
  -5  -2  -1   65.95    5.49
  -6  -1  -4  268.88   14.05
  -6  -1   1   56.89    4.62
  -7   0  -4   17.83    7.76
   2   7  -7    3.88    3.85
   0   3  -7    2.63    4.66
   0   1  -5    0.96    3.05
  -1   2  -7  327.16   13.88
  -1   0  -5   -3.34    2.86
  -2   0  -6  506.67   16.69
  -3   2  -8   65.95   10.27
  -4   2  -8   12.95    8.82
  -5   1  -7   20.66    8.02
  -5  -1  -5   36.57    8.06
  -5  -2  -3   41.58    6.45
  -5  -2   0   40.90    4.18
  -7  -1  -2  106.76    9.33
  -7  -1  -1   47.41    6.97
   1   6  -8  149.22    9.65
  -1   5  -9    2.62    7.11
  -1   3  -8   -2.25    5.95
  -2   4  -9  123.40   12.24
  -2   1  -7    0.19    5.14
  -2  -1  -5   13.03    4.74
  -2  -2  -2   56.70    4.40
  -3  -2  -4  253.50   11.00
  -4  -2  -4   28.42    6.01
  -6  -2  -2   82.82    7.90
  -7  -1  -3   43.34    7.68
  -8   0  -1    0.42    5.20
   2   5  -6    5.08    3.42
   2   4  -5  478.55    9.05
   1   3  -6   34.82    4.57
   1   2  -5  753.78   13.40
   0   6  -9   17.50    6.99
   0   4  -8    3.62    5.73
   0   0  -4 6067.91   37.43
  -1  -1  -4   38.95    4.71
  -2   2  -8   75.58    9.80
  -2  -2  -3  803.48   15.28
  -4   0  -7    4.16    7.57
  -4  -1  -6  281.51   14.99
  -5  -2  -4   22.39    5.76
  -6  -1  -5   31.57    7.72
  -6  -2  -3   15.97    6.02
  -6  -2  -1   20.97    5.05
  -7  -1  -4  123.18   11.34
  -7  -1   0  153.46    8.02
   1   4  -7  197.07    9.29
  -3   1  -8   27.73    8.75
  -3   0  -7    2.70    6.38
  -3  -1  -6  230.19   12.44
  -4   1  -8   56.79   10.28
  -4  -2  -5   46.94    7.65
  -5   0  -7    1.87    6.89
  -5  -1  -6  130.72   11.44
  -6  -2  -4    5.36    6.27
   2   6  -7   38.08    4.89
   0   2  -7  360.74   13.26
   0   1  -6    0.10    3.78
  -1   4  -9  110.77   10.75
  -1   1  -7    7.62    4.75
  -1   0  -6  343.39   12.59
  -2   3  -9   23.79    8.29
  -2   0  -7    1.15    5.93
  -2  -2  -4  272.03   10.20
  -3  -2  -5  377.29   14.09
  -4  -3  -2   63.24    5.67
  -5  -2  -5   34.11    7.38
  -6  -2   0   15.56    4.32
   1   5  -8   35.75    6.49
   0   5  -9    2.06    5.88
  -1   2  -8  123.97   10.24
  -1  -1  -5   18.61    4.40
  -2   1  -8    8.51    7.17
  -2  -1  -6  108.43    8.52
  -4  -1  -7    6.66    7.30
  -4  -3  -3  558.68   15.21
  -4  -3  -1  796.86   14.39
  -5  -3  -3  314.47   12.80
  -5  -3  -2  109.55    7.43
  -6  -2  -5    9.12    7.49
  -7  -2  -3   25.10    7.13
  -7  -2  -2    0.59    5.55
   0   3  -8    0.85    5.16
   0   0  -5   -1.52    2.86
  -1   3  -9   14.10    7.22
  -2   2  -9   90.93   10.76
  -2  -2  -5  402.52   13.58
  -3   0  -8  175.84   13.40
  -3  -1  -7   23.52    7.92
  -3  -3  -3  931.46   18.04
  -3  -3  -2  607.39   13.06
  -4   0  -8   29.99    8.42
  -4  -2  -6   61.95    8.57
  -4  -3  -4    1.29    4.26
  -5  -1  -7   28.87    8.13
  -5  -2  -6   61.09    9.70
  -5  -3  -4   21.52    6.38
  -5  -3  -1  412.14   11.57
  -7  -2  -4    6.43    6.86
  -7  -2  -1   25.93    5.76
  -8  -1  -1   33.72    6.38
   1   3  -7   43.81    5.60
   1   2  -6   44.11    4.77
  -1   0  -7   -1.52    4.78
  -3  -2  -6  107.60    9.23
  -3  -3  -4   15.37    4.51
  -3  -3  -1 1629.01   18.26
  -4  -3  -5  326.18   14.33
  -6  -3  -3  387.53   14.79
  -6  -3  -2    1.99    4.70
   1   6  -9   18.75    5.96
   0   4  -9  197.44   11.82
   0   1  -7    1.45    4.73
  -1   1  -8   10.88    6.59
  -1  -1  -6   89.07    7.39
  -1  -2  -3 1873.60   20.75
  -1  -2  -2    7.03    2.37
  -2   0  -8  354.98   16.61
  -2  -1  -7   -1.79    5.59
  -3  -3  -5  437.92   15.27
  -5  -3  -5  206.09   12.56
  -6  -3  -4    2.80    6.01
  -6  -3  -1  485.34   13.36
   0   2  -8  148.31    9.92
   0   0  -6 1050.17   19.59
   0  -1  -3    1.02    2.18
  -1   2  -9  129.90   11.01
  -1  -2  -4  563.55   13.05
  -2   1  -9   -1.53    7.04
  -2  -2  -6   48.92    6.51
  -2  -3  -3  156.73    7.23
  -3  -1  -8   27.97    8.42
  -4  -1  -8   53.73    9.35
  -4  -2  -7   41.51    8.16
  -5  -2  -7   18.17    7.56
  -6  -3  -5  260.40   14.83
  -2  -3  -4   20.52    4.09
  -2  -3  -2  189.66    6.85
  -3  -2  -7  186.38   12.37
  -4  -3  -6   28.95    7.17
  -5  -3  -6   33.97    7.84
   3  11  -4    9.65    5.12
   3  15  -3   39.18    8.58
   2  11  -3   50.31    6.53
   2  17  -1   46.59    9.48
   1  10  -2    7.18    3.96
   1  13  -1    9.64    5.03
   1  15   0    3.22    6.10
   1  18   3   39.36    8.57
   0  10   0  203.12    9.12
   0  12   1  197.95    9.92
   0  14   6  177.80   10.59
   0  13   7   -1.89    4.79
  -1   7   4  122.90    5.45
  -1   6   5  113.78    4.50
   4  10  -5   58.41    7.46
   3  12  -4  123.85    9.81
   2  12  -3   88.82    8.20
   2  15  -2    8.81    6.38
   1  17   1   15.83    7.14
   0  13   1   -7.58    4.56
   0  14   2  406.90   15.26
   0  15   3   -4.54    6.03
   0  15   4   -1.80    5.55
   0  15   5   -2.04    5.69
  -1   6   3  314.25    7.46
  -1   8   4  226.49    7.69
  -1   7   5    0.71    2.43
   4  11  -5   88.26    8.60
   3  16  -3  129.77   12.02
   1  11  -2   54.66    6.28
   1  14  -1   52.85    7.29
   0  11   0   -1.60    3.74
   0  15   6   -0.78    5.87
  -1   7   3    6.65    2.80
  -1   8   5  175.12    6.72
   3  13  -4   57.74    8.22
   2  13  -3    0.91    5.28
   2  16  -2   -2.43    6.10
   2  18  -1   64.56    9.81
   1  12  -2   28.13    6.11
   1  15  -1   17.39    7.73
   1  18   1   35.40    8.85
   0  12   0  886.28   20.22
   0  14   1   19.75    6.46
   0  15   2   -0.13    5.54
   0  16   3  471.51   17.91
   0  16   4    5.07    6.08
   0  16   5  271.88   13.71
  -1   8   3  261.50    8.25
  -1   9   4   27.74    3.88
  -1   9   5   21.36    3.92
  -1   7   6   13.83    3.18
   4  12  -5   10.90    6.16
   3  14  -4  153.43   11.68
   2  14  -3   10.61    6.67
   2  17  -2   15.10    8.01
   0   5  -1   -5.15    2.17
   0   6  -1  911.48   13.79
   0   7  -1   -6.01    2.54
   0   8  -1 2233.16   25.16
   0  16   2    6.54    6.74
  -1   9   3   52.88    4.95
  -1  10   4   80.73    5.85
  -1  10   5  359.64   10.84
  -1   8   6  348.87    8.68
   4  13  -5    0.35    6.40
   2   7  -4   35.26    4.24
   2   8  -4  309.52   10.39
   1  13  -2   71.63    7.67
   1  16  -1  247.76   14.45
   1  18   0   67.44   10.21
   1  19   1    4.60    7.70
   0   9  -1   -4.35    3.45
   0  13   0   -0.65    4.90
   0  15   1    6.33    5.99
   0  17   3   -4.68    6.92
   0  17   4    1.39    6.40
  -1   6   2 2411.49   20.66
  -1   7   2   45.23    4.22
  -1   8   2 1112.37   16.85
  -1  10   3  549.81   13.56
  -1  11   4    5.62    4.26
  -1  11   5   41.51    5.93
  -1   9   6   -0.11    3.48
   3   6  -5   23.88    4.07
   3  15  -4   17.15    7.60
   2   4  -4   28.17    2.95
   2   9  -4  160.81    8.34
   2  10  -4    3.40    4.59
   2  15  -3    0.25    6.67
   2  18  -2   46.02    9.80
   1  14  -2  314.56   14.56
   0  10  -1  948.02   18.79
   0  14   0  843.08   21.95
   0  16   1  584.71   20.20
   0  17   2    1.47    7.12
  -1   9   2   -0.68    3.07
  -1  11   3  109.96    7.33
  -1  12   4  134.83    8.39
  -1  10   6   -1.11    3.70
   3   5  -5   61.59    4.44
   3   9  -5   82.26    6.99
   3  16  -4    7.03    7.55
   2  11  -4   -5.60    4.38
   2  16  -3  221.30   14.17
   1   6  -3  311.95    8.64
   1   7  -3    5.60    3.05
   1   8  -3  251.61    9.18
   1   9  -3   51.37    5.64
   1  15  -2   13.17    7.35
   1  17  -1   17.10    7.40
   1  19   0   33.11    9.59
   0  11  -1   -1.22    3.95
   0  18   3   73.87    9.92
  -1  10   2    2.77    3.58
  -1  11   2   65.81    6.11
  -1  12   3  125.67    8.05
  -1  12   5  105.03    7.62
  -1  11   6   18.92    4.86
   3  10  -5  252.94   11.04
   3  11  -5  174.43   10.50
   2  12  -4  236.43   11.86
   1   5  -3   40.59    3.47
   1  10  -3  497.71   14.41
   1  11  -3  113.14    8.35
   1  18  -1   40.35    9.36
   0  12  -1  196.09   10.27
   0  15   0   -3.40    5.71
   0  17   1   -0.19    7.47
   0  18   2  104.31   11.26
  -1  13   3    7.20    4.94
  -1  13   4   13.32    5.36
  -1  13   5    0.86    5.27
  -1  12   6   31.73    5.71
   3   4  -5  345.69    7.39
   3  12  -5   54.03    7.94
   2  13  -4    8.48    6.52
   2  17  -3   24.54    8.61
   1  12  -3  152.16    9.77
   1  16  -2    9.48    7.30
   0  13  -1    0.09    4.59
   0  16   0    3.13    7.07
  -1   7   1   10.62    3.12
  -1   8   1  362.11   10.20
  -1   9   1   70.20    5.73
  -1  12   2   25.58    4.94
  -1  14   3   39.67    7.04
  -1  14   4  364.03   14.22
   3  13  -5    5.53    6.38
   2  14  -4  238.40   13.28
   1  13  -3    7.23    5.83
   1  17  -2    2.09    7.36
   1  19  -1    1.06    7.92
   0  14  -1   15.51    5.78
   0  17   0   -4.58    6.85
   0  18   1   92.05   10.39
  -1   6   1  496.58    9.97
  -1  10   1  692.01   15.69
  -1  11   1  147.23    8.54
  -1  13   2   78.77    7.66
  -1  14   5   25.89    6.10
  -1  13   6   31.19    6.01
   4   8  -6   20.16    4.68
   2  15  -4   -9.81    6.18
   1  14  -3   43.69    7.94
   0   9  -2   -9.24    3.65
   0  15  -1   -1.64    6.81
   0  19   1    3.36    7.53
  -1  12   1  189.26   10.12
  -1  14   2  279.61   13.02
  -1  15   3    7.23    6.19
  -1  15   4   -4.66    5.41
  -1  15   5    9.78    6.69
  -1  14   6  123.56    9.02
   4   7  -6   42.90    4.90
   1  15  -3   11.02    7.25
   1  18  -2  121.80   12.30
   0   8  -2 2494.05   27.37
   0  10  -2    1.55    3.39
   0  11  -2   -3.46    4.17
   0  18   0   53.01    9.64
  -1   5   1   65.06    3.75
  -1  13   1   12.17    5.47
  -1  15   2   16.86    6.94
  -1  16   3  207.20   12.60
  -1  16   4   27.92    7.19
   4   6  -6   39.10    4.21
   2  16  -4    6.56    7.12
   0   6  -2 3153.46   26.55
   0  12  -2  364.20   13.75
   0  13  -2   -1.80    5.77
  -1   9   0   68.52    5.90
  -1  10   0  218.62    9.62
  -1  14   1   45.92    7.24
  -1  16   2    9.06    6.81
  -1  17   4   -0.80    6.63
  -1  16   5  127.60    9.91
   1  16  -3  211.41   13.55
   0  14  -2  437.05   16.84
   0  17  -1   -1.85    6.70
   0  19   0   -5.02    6.69
  -1   8   0  436.58   11.42
  -1  11   0   12.15    4.38
  -1  12   0  187.84   10.29
  -1  15   1   23.30    7.18
  -1  17   3    3.91    6.83
   2  10  -5  231.05   10.67
   1  17  -3   11.49    7.36
   0   5  -2   -2.51    2.39
   0  15  -2    0.02    7.03
   0  18  -1   79.55   10.26
  -1   7   0  382.20   10.02
  -1  13   0   29.60    6.13
  -1  16   1  240.75   13.90
  -1  17   2   -0.46    5.96
  -1  18   3   33.66    8.29
   2   8  -5  248.18    9.51
   2   9  -5    6.51    4.64
   2  11  -5   25.21    5.98
   2  12  -5   63.77    7.67
   2  13  -5   -1.27    6.04
   1   8  -4  232.03    9.30
   1   9  -4   30.25    4.93
   1  10  -4   81.67    6.86
   1  11  -4    1.04    4.56
   1  12  -4  128.19    9.42
   1  13  -4   11.41    6.50
   1  18  -3   45.19    9.46
   0  16  -2    3.42    7.29
   0  19  -1   -2.87    8.08
  -1   6   0 1078.87   15.25
  -1  14   0  598.60   18.65
  -1  15   0   -3.05    6.64
  -1  17   1    5.65    7.62
  -1  18   2  115.75   11.57
   2  14  -5    8.91    6.60
   1   7  -4  132.61    6.90
   1  14  -4  371.03   16.12
   0  17  -2   -5.05    7.22
  -1  16   0   59.56    9.37
  -1  18   1   46.63    9.23
   3  11  -6   56.15    7.42
   3  12  -6   79.30    8.62
   2  15  -5    1.00    6.90
   1  15  -4   -3.15    6.79
   0  10  -3  652.89   16.61
   0  11  -3   -3.95    4.84
   0  12  -3  140.57    9.65
   0  13  -3    1.12    5.46
   0   4  -2 1501.53   15.28
   0  18  -2  108.09   12.17
  -1   9  -1   76.17    6.37
  -1  10  -1  688.68   16.55
  -1  11  -1  143.32    8.70
  -1  12  -1  198.83   10.82
  -1  13  -1    9.91    6.03
  -1  17   0    1.08    7.45
   3  13  -6  103.04    9.66
   1   6  -4  565.47   11.80
   1  16  -4   34.45    8.52
   0   8  -3 1252.17   20.16
   0   9  -3   -3.38    3.38
   0  14  -3    9.32    6.60
  -1   8  -1  377.90   11.21
  -1  14  -1   54.17    7.51
  -1  15  -1   17.62    7.64
  -1   5   0 1264.58   15.01
  -1  18   0   59.54    9.92
  -1  19   1    6.47    6.84
   1  17  -4   -1.64    6.28
   0  15  -3   -3.24    6.36
   0  16  -3  464.86   19.40
  -1   7  -1   13.70    3.62
  -1  16  -1  242.41   14.62
  -1  19   0   37.59    9.44
  -2  10   3  357.15   11.32
  -2  11   3   49.16    5.97
  -2  12   3   81.12    7.23
  -2  13   3   -2.02    4.88
  -2  11   4   -2.68    3.89
  -2  12   4  234.82   10.49
   3   7  -6   56.12    5.24
   0   7  -3   -5.92    3.03
   0  17  -3   -0.99    8.08
  -1  17  -1   11.10    7.93
  -2  11   2   48.40    5.75
  -2  12   2  215.30   10.60
  -2  13   2  128.06    9.29
  -2   9   3    7.33    3.76
  -2  14   3   10.06    5.62
  -2  15   3   -1.31    6.20
  -2   9   4  156.08    7.21
  -2  10   4    8.29    3.98
  -2  13   4   24.96    5.69
  -2  14   4  265.20   12.47
   2   5  -5   53.11    4.06
   0  18  -3   79.22   11.16
  -1  12  -2   27.37    6.20
  -1  13  -2   78.77    8.58
  -1  18  -1   37.68    9.31
  -2   9   2   39.01    5.12
  -2  10   2   -1.35    3.51
  -2  14   2  234.65   12.13
  -2  15   2    1.98    6.26
  -2  15   4   -2.09    5.46
  -2  16   4   -0.01    6.26
  -2  10   5  244.39    8.83
  -2  11   5   25.94    5.16
  -2  12   5   67.04    6.57
  -2  13   5    1.01    5.12
  -2  14   5    5.54    5.52
   1  11  -5   39.10    6.80
   1  12  -5  100.58    8.76
   1  13  -5    3.53    5.94
   1  14  -5   20.43    7.50
  -1  10  -2    3.64    4.39
  -1  11  -2   62.94    6.63
  -1  14  -2  308.87   14.46
  -1  15  -2   18.24    7.84
  -1   6  -1  490.18   10.87
  -1  19  -1    5.58    8.09
  -2  11   1   55.57    6.34
  -2  12   1  112.59    8.45
  -2  13   1    0.41    5.04
  -2  14   1   11.80    6.12
  -2  15   1    1.24    6.44
  -2  16   2    5.17    6.39
  -2   8   3  444.57   10.75
  -2  17   3   36.19    8.35
  -2   8   4  301.03    8.60
  -2  15   5   -0.78    5.75
   3   6  -6  266.53    7.77
   2  12  -6   89.26    8.87
   2  13  -6   54.90    8.58
   1  10  -5  370.25   13.20
   1  15  -5   -0.55    6.84
   1  16  -5  132.97   11.90
   0  12  -4  515.36   17.05
   0  13  -4   -3.73    6.56
   0  14  -4  535.96   19.12
  -1   9  -2   -1.66    3.30
  -1  16  -2    9.65    6.80
  -1  17  -2    2.77    7.79
  -2  10   1  445.75   13.13
  -2  16   1  263.04   14.59
  -2   8   2  865.10   15.41
  -2  17   2   12.28    6.67
  -2  18   2   45.75    8.83
  -2   9   5    9.53    3.62
   2  10  -6   -3.09    5.10
   2  11  -6   20.17    6.28
   2  14  -6  101.15    9.77
   1   9  -5   21.03    5.22
   0  10  -4   75.41    6.93
   0  11  -4   -1.69    4.90
   0  15  -4   -3.94    7.07
   0  16  -4    7.74    7.79
  -1   8  -2 1109.83   19.31
  -1  18  -2  112.92   12.26
  -2  12   0  388.67   14.42
  -2  13   0   31.92    7.19
  -2  14   0  374.00   15.71
  -2  15   0    2.34    7.00
  -2   9   1    4.46    3.27
  -2  17   1   58.86    8.99
  -2  18   1   83.29   10.56
  -2   7   3   20.60    3.25
  -2   7   4   38.81    3.76
  -2   8   5  260.20    7.56
  -2  11   6   23.89    4.53
  -2  12   6   82.80    6.37
  -2  13   6   49.74    6.18
  -2  14   6  101.45    7.96
   1   8  -5  156.94    8.03
   0   9  -4   -4.77    3.75
   0  17  -4   -0.18    7.21
   0   5  -3   -2.21    2.42
  -1   5  -1   63.18    4.10
  -2  10   0   15.73    4.64
  -2  11   0   -3.39    3.83
  -2  16   0    5.81    7.09
  -2  17   0    3.99    7.31
  -2   8   1  706.17   14.59
  -2   7   2   67.78    4.82
  -2  10   6   -0.28    3.44
  -1  12  -3  140.39   10.08
  -1  13  -3    9.18    6.35
  -1  14  -3   39.81    8.26
  -1  15  -3    8.35    7.84
  -1  16  -3  227.25   14.69
  -1   7  -2   50.93    5.26
  -2  18   0   33.98    9.15
   1   7  -5    1.35    3.31
   0   8  -4  576.46   14.35
  -1  11  -3  100.77    8.19
  -1  17  -3   10.21    8.29
  -2  12  -1  106.18    8.88
  -2  13  -1   -3.05    5.65
  -2  14  -1    8.96    6.62
  -2  15  -1    3.10    7.46
  -2  16  -1  272.07   15.42
  -2   9   0  336.82   11.29
  -2   7   1   27.56    3.91
  -2   6   3  172.41    5.88
  -2   9   6    6.65    3.22
  -1  10  -3  517.90   15.40
  -1  18  -3   45.62    9.23
  -2  11  -1   50.42    6.84
  -2  17  -1   50.78    9.16
  -2  18  -1   69.34   10.69
  -2   8   0  574.12   13.85
  -2   6   2  991.99   14.13
  -2   6   4  332.87    7.27
  -2   7   5    5.10    2.75
   1  14  -6  133.71   11.26
   0  13  -5   -5.81    5.64
   0  14  -5    4.72    6.72
   0  15  -5   -3.04    7.07
   0  16  -5  280.76   15.96
   0   7  -4    0.03    3.34
   0   4  -3 2571.36   21.20
  -1   9  -3   58.86    6.03
  -1   6  -2 2422.15   24.92
  -1   4  -1  202.83    6.19
  -2  10  -1  447.55   14.13
   1  12  -6   37.62    7.19
   1  13  -6   23.43    6.98
   0  12  -5  104.05    9.22
  -1   8  -3  258.87   10.14
  -2  14  -2  249.83   14.26
  -2  15  -2    4.56    7.66
  -2  16  -2    1.14    7.29
  -2   9  -1    3.60    4.22
  -2   7   0   14.52    3.77
  -2   6   1  328.53    8.87
   1  11  -6   19.76    6.34
   0  11  -5   -4.72    5.03
   0   6  -4  626.20   13.12
  -1  13  -4    6.71    7.22
  -1  14  -4  366.67   16.66
  -1  15  -4   -7.27    7.03
  -1  16  -4   39.92    9.05
  -1  17  -4   -3.31    7.61
  -2  12  -2  203.80   11.83
  -2  13  -2  142.64   10.47
  -2  17  -2   14.00    7.60
  -2  18  -2   39.95   10.05
  -3  15   2   71.68    8.85
  -3  16   2    7.81    7.33
  -3  14   3   48.90    7.57
  -3  15   3   47.50    7.90
  -3  16   3  126.27   10.79
   1  10  -6    0.36    4.91
   0  10  -5  420.06   14.27
  -1  11  -4    1.64    5.14
  -1  12  -4  135.32    9.80
  -1   5  -2  264.94    8.14
  -2  11  -2   53.66    6.74
  -2   8  -1  701.46   15.84
  -3  14   1   56.35    8.26
  -3  15   1   61.60    9.05
  -3  16   1  156.14   12.16
  -3  13   2  214.24   11.58
  -3  14   2  188.23   11.55
  -3  17   2    0.59    6.79
  -3  12   3   88.17    7.97
  -3  13   3    9.87    5.29
  -3  14   4  147.03    9.99
  -3  15   4    8.02    6.61
  -3  16   4    1.60    6.37
   2  12  -7   33.61    6.88
   2   6  -6  341.34    9.03
   0   9  -5   -5.92    4.00
  -1   7  -3    5.52    3.19
  -2  10  -2    2.23    4.14
  -2   5   2    3.61    2.26
  -3  12   1   92.31    8.37
  -3  13   1   20.53    6.44
  -3  17   1   62.13    9.26
  -3  11   2  138.21    8.87
  -3  12   2  185.14   10.28
  -3  11   3  364.86   12.58
  -3  13   4   64.32    7.57
   2  11  -7   19.74    6.03
   1   9  -6   -4.94    4.49
  -1  10  -4   91.97    7.58
  -2  14  -3    6.12    7.15
  -2  15  -3    2.31    6.69
  -2  16  -3  220.18   14.39
  -2  17  -3   40.14    9.75
  -2   9  -2   45.76    5.91
  -2   6   0  553.28   11.92
  -3  13   0   99.03    9.57
  -3  15   0   20.96    7.08
  -3  16   0    4.78    6.56
  -3  17   0    7.97    7.61
  -3  18   0   62.76   10.45
  -3  11   1  446.27   14.73
  -3  12   4  142.53    8.71
  -3  14   5   24.15    6.24
   0  15  -6   -1.50    6.59
   0   8  -5  598.92   15.08
   0   5  -4   -1.08    2.73
  -1   9  -4   29.56    5.35
  -2  12  -3   89.55    9.17
  -2  13  -3   -5.19    5.64
  -2   7  -1   24.17    4.06
  -2   5   1  132.29    5.49
  -3  12   0  233.06   12.22
  -3  10   2    7.98    4.20
  -3  10   3  382.97   12.06
  -3  11   4   11.28    4.56
  -3  13   5    6.97    5.37
   1   8  -6  347.23   11.32
   0  13  -6   -1.32    6.36
   0  14  -6  167.36   12.07
  -1  14  -5   26.55    7.93
  -1  15  -5    5.34    7.39
  -1  16  -5  130.73   12.20
  -1   6  -3  324.50    9.99
  -2  11  -3   54.36    7.65
  -2   8  -2  867.69   18.24
  -3  14  -1   61.83    9.37
  -3  15  -1   61.38    9.09
  -3  16  -1  164.67   12.72
  -3  17  -1   55.27    9.54
  -3  11   0   23.19    5.99
  -3  10   1  515.67   14.94
  -3  10   4    6.54    4.18
  -3  12   5   50.64    6.17
   1  13  -7    0.41    6.26
   0  12  -6  134.03   10.21
  -1  12  -5   89.07    9.19
  -1  13  -5    2.11    5.66
  -1   8  -4  243.80   10.25
  -1   4  -2  165.21    6.10
  -2  10  -3  344.24   13.61
  -3  12  -1  112.32    9.67
  -3  13  -1   28.70    6.91
  -3  10   0    9.52    4.94
  -3   9   2   -0.38    3.51
  -3   9   3  140.56    7.43
   1  12  -7   43.57    7.50
   0  11  -6   -2.95    4.96
   0   7  -5    0.06    3.40
  -1  11  -5   45.99    7.18
  -2  14  -4  235.37   14.51
  -2  15  -4   -0.50    7.35
  -2  16  -4    4.52    6.95
  -2   6  -1  317.10    9.67
  -2   5   0  529.82   11.00
  -3  15  -2   86.48   10.61
  -3  16  -2   10.83    8.27
  -3  17  -2   -1.86    8.10
  -3  11  -1  473.62   16.27
  -3   9   1  157.26    8.48
  -3  11   5  174.00    8.25
   2   5  -6    5.48    2.87
   0  10  -6    0.79    5.13
  -2  13  -4   22.34    7.96
  -2   9  -3   10.29    4.94
  -2   7  -2   72.29    5.89
  -3  13  -2  217.62   13.56
  -3  14  -2  186.88   12.84
  -3   9   0  147.57    8.60
  -3   8   2  384.64   11.24
  -3   9   4   86.22    5.88
   2   8  -7  112.33    6.73
   1  11  -7   22.72    6.71
  -1  10  -5  348.56   13.81
  -1   7  -4  128.43    7.45
  -1   5  -3   39.85    4.18
  -2  12  -4  244.16   13.07
  -3  12  -2  198.92   12.44
  -3  10  -1  504.74   16.09
  -3   8   1  276.41   10.12
  -3   8   3  199.16    7.87
  -3  10   5  250.13    8.80
   1   4  -5  262.48    6.92
   0   9  -6   -1.34    4.82
   0   6  -5  162.91    7.44
   0   4  -4   22.67    3.20
  -2  11  -4    0.49    5.59
  -2   8  -3  445.08   13.83
  -2   4   1 1373.34   15.00
  -3  15  -3   44.83    9.49
  -3  16  -3  133.77   13.06
  -3  11  -2  140.09   10.30
  -4  16   1   25.80    8.50
  -4  16   2   12.90    7.09
   1  10  -7  177.96   10.00
  -1  13  -6   25.88    8.10
  -1  14  -6  124.92   11.39
  -1   9  -5   22.89    5.67
  -2  15  -5    4.94    7.61
  -2  10  -4   11.39    5.81
  -2   6  -2 1021.04   17.87
  -2   5  -1  123.98    6.05
  -3  14  -3   44.26    9.02
  -3   9  -1  173.07    9.39
  -3   8   0  465.42   13.29
  -4  16   0    3.84    7.14
  -4  14   1    4.97    6.27
  -4  15   1   30.62    7.97
  -4  14   2   59.01    8.35
  -4  15   2   25.40    7.34
  -4  15   3   28.23    7.31
   0  13  -7   -0.21    6.41
  -1  12  -6   32.78    7.68
  -1   6  -4  575.93   13.55
  -2  14  -5   10.65    7.43
  -3  13  -3    7.84    6.73
  -3  10  -2    6.41    5.50
  -3   7   1   13.90    3.62
  -3   7   2  163.13    7.17
  -3   8   4  223.33    7.67
  -4  14   0   28.95    7.90
  -4  15   0   -3.28    6.67
  -4  13   1   -0.06    5.93
  -4  13   2  301.67   13.65
  -4  14   3    5.68    5.60
   0  12  -7   48.73    8.01
   0   8  -6  589.95   15.24
  -1   8  -5  174.45    9.14
  -1   3  -2  448.93    8.86
  -2  13  -5    2.78    6.05
  -2   9  -4  161.55    9.75
  -2   7  -3   23.85    4.70
  -2   4   0   65.31    4.02
  -3  12  -3   79.54    9.25
  -3   8  -1  278.25   11.13
  -3   7   3    7.46    2.97
  -3   9   5   78.46    5.25
  -4  15  -1   45.24    9.20
  -4  16  -1   19.12    8.40
  -4  13   0  184.44   12.28
  -4  12   1   26.21    6.67
  -4  12   2   64.19    7.95
  -4  13   3   -0.31    5.28
   2   7  -7    2.71    3.50
  -1  11  -6   19.98    6.38
  -1   4  -3  320.46    8.73
  -2  12  -5   69.09    8.97
  -3  15  -4   13.51    8.23
  -3  16  -4    5.76    7.13
  -3  11  -3  364.61   15.53
  -3   9  -2    1.92    4.26
  -3   7   0  772.52   16.15
  -4  14  -1    5.08    7.24
  -4  12   0   36.37    7.60
  -4  12   3   22.10    6.47
  -4  14   4   26.19    6.57
   0  11  -7   -2.03    6.05
   0   5  -5    2.33    2.97
  -2  11  -5   22.83    7.33
  -2   8  -4  307.02   12.23
  -2   5  -2    5.26    3.38
  -3  13  -4   70.97   10.04
  -3  14  -4  154.37   12.38
  -3  10  -3  407.16   15.64
  -4  15  -2   22.41    8.50
  -4  16  -2    8.02    8.00
  -4  13  -1   -5.41    5.70
  -4  11   1  192.29   10.81
  -4  11   2  118.17    8.54
  -4  13   4  131.75    9.20
   0   7  -6   -3.58    4.05
  -1  10  -6   -0.86    4.97
  -1   7  -5   -0.97    3.65
  -1   5  -4  297.46    9.53
  -2   6  -3  176.08    8.38
  -2   4  -1 1415.54   17.75
  -3  12  -4  152.01   11.98
  -3   8  -2  375.90   13.28
  -3   7  -1   13.43    4.32
  -3   6   1   60.75    4.89
  -3   6   2  951.73   15.14
  -3   7   4  378.70    8.95
  -4  14  -2   64.25   10.24
  -4  12  -1   37.23    8.03
  -4  11   0   38.19    6.37
  -4  11   3  153.39    9.27
  -4  12   4   26.02    6.23
   0  10  -7  211.70   11.28
  -2  14  -6  104.48   11.16
  -2  10  -5  230.17   12.23
  -3   9  -3  148.52   10.01
  -3   6   0 1173.89   18.97
  -3   8   5  125.58    5.47
  -4  13  -2  288.57   15.60
  -4  11  -1  197.21   11.97
  -4  10   0    9.71    5.38
  -4  10   1  105.88    8.25
  -4  10   2   -3.45    4.19
   1   5  -6   28.92    3.84
  -1  13  -7   -3.55    6.26
  -1   9  -6    0.33    4.69
  -2  13  -6   53.03    9.33
  -2   7  -4   38.72    5.56
  -3  11  -4   10.12    7.03
  -3   6   3   48.10    3.98
  -4  15  -3   28.49    8.98
  -4  12  -2   80.96   10.05
  -4  10   3   90.72    7.32
  -4  11   4   31.30    5.83
  -4  13   5   -2.37    4.52
   0   9  -7    3.24    5.48
  -1  12  -7   52.24    8.21
  -2  12  -6   83.72    9.85
  -2   9  -5    9.90    5.52
  -3  14  -5   32.97    8.21
  -3  10  -4    8.56    6.07
  -3   7  -2  155.99    8.82
  -3   6  -1   63.70    5.80
  -4  14  -3    9.61    7.07
  -4  11  -2  138.00   11.08
  -4  10  -1  110.30    9.41
  -4   9   1  203.74    9.95
  -4   9   2  103.52    7.44
   2   6  -7   36.66    3.75
   0   6  -6  727.39   14.85
  -1   8  -6  342.85   12.82
  -1   6  -5  114.03    6.98
  -2  11  -6   25.12    7.05
  -2   5  -3   70.48    5.68
  -2   3   0  130.52    5.08
  -3  13  -5   15.43    7.17
  -3   8  -3  204.18   10.49
  -4  13  -3   -2.68    6.18
  -4   9   0  313.70   12.48
  -4  12   5   17.37    5.03
  -5  15   1   28.59    7.85
  -1  11  -7   25.57    6.95
  -2   8  -5  249.43   11.62
  -2   4  -2  364.17    9.80
  -3  12  -5   51.80    8.61
  -3   9  -4   86.60    8.60
  -3   5   1  111.62    5.83
  -4  12  -3   29.19    7.65
  -4  10  -2   -2.20    5.79
  -4   9  -1  214.02   11.38
  -4   9   3  180.83    8.68
  -4  10   4    5.10    4.55
  -5  14   0    4.69    7.10
  -5  15   0   44.02    8.21
  -5  14   1    8.87    6.93
  -5  14   2   28.56    7.73
   0   8  -7  239.65   10.44
  -1   4  -4   11.22    3.09
  -2  10  -6   -0.62    5.74
  -2   6  -4  337.48   11.60
  -3  11  -5  197.84   13.14
  -3   6  -2  980.37   19.17
  -3   5   0 1591.21   20.98
  -3   5   2  402.62    9.43
  -4  14  -4   31.95    8.42
  -4  11  -3  133.93   11.54
  -4   8   0   91.81    7.43
  -4   8   1   15.21    4.38
  -4   8   2   24.69    4.82
  -5  14  -1    5.37    7.30
  -5  15  -1   45.48    8.65
  -5  13   0   65.76    9.20
  -5  13   1   -1.55    6.14
  -1  10  -7  193.85   11.25
  -1   7  -6   12.00    4.96
  -2   3  -1  169.92    6.25
  -3   7  -3    7.75    4.33
  -3   6   4  552.98    9.52
  -4  13  -4  123.24   11.54
  -4   9  -2   92.99    8.83
  -4  11   5   90.94    6.37
  -5  13  -1   -3.83    6.75
  -5  12   1   14.96    7.11
  -5  13   2   93.49    9.31
  -1   5  -5   23.83    4.09
  -2   9  -6    9.88    5.78
  -2   7  -5    5.81    4.70
  -3  13  -6   98.37   11.31
  -3  10  -5  240.21   13.54
  -3   8  -4  229.26   11.77
  -3   5  -1  112.17    6.58
  -4  12  -4   33.06    8.60
  -4  10  -3   97.63    9.42
  -4   8  -1   16.24    4.86
  -4   8   3   19.96    4.61
  -4   9   4  177.43    8.10
  -5  14  -2   27.73    8.78
  -5  12   0   68.44    9.01
  -5  12   2  133.30   10.26
  -5  13   3   -2.20    6.02
   1   6  -7   49.60    4.78
   1   4  -6   60.58    3.99
   0  10  -8   15.70    6.11
  -1   9  -7   14.08    6.26
  -2  12  -7   33.16    8.08
  -2   4  -3  953.58   16.54
  -3  12  -6   88.99   10.57
  -3   5   3   84.80    4.49
  -4  11  -4   23.74    7.96
  -4   7   0  265.50   10.79
  -4   7   1   60.36    5.77
  -5  13  -2  109.96   11.59
  -5  12  -1   15.70    6.91
  -5  11   0   17.23    6.75
  -5  11   1  226.83   12.28
  -2  11  -7   31.51    8.01
  -2   5  -4  194.83    8.71
  -3   9  -5   92.00    9.37
  -3   6  -3   44.20    5.55
  -3   5  -2  405.36   12.23
  -4  13  -5    1.47    7.61
  -4   9  -3  180.63   11.50
  -4   8  -2   37.31    6.08
  -4   7  -1   64.72    6.74
  -4   7   2   69.22    5.82
  -4  10   5   57.86    5.36
  -5  12  -2  118.60   11.71
  -5  11  -1  241.63   13.87
  -5  11   2   45.97    6.90
  -5  12   3    8.12    6.04
  -1   6  -6  646.18   15.44
  -2   6  -5   73.20    6.52
  -2   3  -2  195.90    7.18
  -3  11  -6   61.18    9.32
  -3   7  -4  375.05   13.75
  -3   4   0  107.74    5.93
  -3   4   1 1063.25   15.36
  -4  12  -5   14.21    7.94
  -4  10  -4   10.60    7.37
  -5  13  -3   -0.57    7.71
  -5  10   0   11.40    6.42
  -5  10   1   71.88    7.98
   0   9  -8   -2.17    5.02
  -1   8  -7   84.47    7.87
  -1   3  -4    4.72    2.90
  -2  10  -7  148.08   11.11
  -3   8  -5  121.36    9.61
  -4   8  -3   19.28    6.39
  -4   7  -2   59.25    6.95
  -5  12  -3   12.27    7.97
  -5  11  -2   50.99    8.46
  -5  10  -1   79.40    9.45
  -5  10   2   -3.98    4.73
  -5  11   3  194.73   10.64
  -1   4  -5  263.24    8.93
  -3  10  -6    1.34    6.38
  -3   4  -1 1054.85   17.49
  -3   4   2  101.10    4.98
  -4  11  -5  114.04   11.32
  -4   9  -4  188.43   12.46
  -4   6   0  187.06    8.98
  -4   6   1    1.46    3.45
  -4   7   3   49.69    4.77
  -4   8   4   67.07    5.37
  -5  12   4   39.32    6.33
  -1  10  -8   20.46    6.82
  -2   7  -6    3.00    4.82
  -2   2   0  581.13    9.45
  -3   6  -4  578.05   16.38
  -3   5  -3   90.48    6.62
  -4   6  -1    2.53    4.26
  -5  11  -3  194.11   13.57
  -5  10  -2    1.21    5.92
  -5   9  -1  112.09    9.78
  -5   9   0   55.25    6.85
  -5   9   1  101.19    8.29
  -5  10   3   71.84    7.39
  -1   7  -7    2.63    4.73
  -2   9  -7   13.95    6.29
  -2   5  -5   51.05    5.61
  -2   4  -4   29.01    4.00
  -2   3  -3  157.88    6.96
  -3   9  -6   -4.91    5.73
  -3   7  -5    1.92    5.26
  -3   4  -2  101.73    6.67
  -4  10  -5   66.51    9.01
  -4   8  -4   69.60    8.63
  -4   7  -3   51.21    7.10
  -4   6   2   68.49    5.50
  -4   9   5  102.01    5.66
  -5  12  -4   36.69    9.21
  -5   9   2   16.74    5.07
  -5  11   4   12.71    5.34
  -6  13   0  205.31   13.67
   1   5  -7    8.99    3.21
  -1   5  -6   30.27    4.50
  -2   2  -1 1072.74   13.92
  -3  11  -7  104.34   10.79
  -4   6  -2   71.90    6.78
  -5  11  -4   19.98    8.14
  -5  10  -3   74.42    9.34
  -5   9  -2   20.72    6.63
  -5   8   0  100.81    8.53
  -1   9  -8    7.80    5.73
  -2   8  -7  108.24    9.23
  -2   6  -6  322.31   12.40
  -3   8  -6  141.34   10.53
  -4  11  -6   51.09    9.14
  -4   9  -5  114.98   10.22
  -4   5   0  726.74   15.92
  -5   8  -1   37.52    6.33
  -5   8   1   41.40    6.00
  -5   9   3   99.34    7.65
  -6  12  -1    0.46    7.23
  -6  12   0    2.06    6.38
  -6  12   1    2.27    6.68
  -2   2  -2   54.51    4.17
  -3  10  -7  125.99   11.14
  -3   6  -5   33.00    6.05
  -3   5  -4  655.06   16.62
  -3   4  -3  703.43   15.99
  -3   3   0   76.68    4.98
  -4   7  -4  216.30   12.09
  -4   6  -3    3.74    5.00
  -4   5  -1  388.53   12.45
  -4   5   1  390.70   11.22
  -4   6   3    6.26    3.32
  -4   7   4  202.29    7.29
  -5  10  -4   11.96    7.74
  -5   9  -3  100.45    9.95
  -5   8  -2   16.68    6.36
  -5   8   2   12.85    5.16
  -5  10   4    6.61    4.75
  -6  12  -2   17.54    8.32
  -6  11   0   73.80    9.43
  -6  12   2   20.95    7.14
  -1   6  -7   54.40    6.12
  -3   3  -1 1556.64   20.30
  -3   3   1 1578.58   17.69
  -3   4   3  674.66    9.95
  -4  10  -6   -1.53    6.02
  -4   8  -5   13.93    6.85
  -4   5  -2  209.41   10.05
  -5  11  -5  132.58   12.41
  -5   7  -1    2.00    4.95
  -5   7   0  278.77   12.15
  -6  11  -2   62.65    9.78
  -6  11  -1  146.38   11.65
  -6  11   1  142.18   10.89
  -1   8  -8   80.43    7.89
  -1   3  -5  154.39    6.60
  -1   2  -4  569.10   10.83
  -2   7  -7    7.32    5.59
  -2   4  -5  492.97   13.28
  -2   3  -4   17.39    3.65
  -3   9  -7   60.43    8.73
  -3   7  -6   61.05    8.06
  -3   3  -2  617.82   13.87
  -4   5   2  216.51    8.05
  -5   9  -4   37.27    8.40
  -5   8  -3   33.14    7.28
  -5   7   1    1.09    4.21
  -6  10  -1   25.28    8.07
  -6  10   0    5.50    6.68
  -6  11   2   68.33    8.08
  -1   4  -6   60.34    5.25
  -2   9  -8   23.44    6.93
  -2   5  -6    4.05    4.36
  -4   9  -6   35.40    7.55
  -4   7  -5   26.18    7.10
  -4   6  -4  146.11   10.06
  -4   5  -3  247.71   11.38
  -5  10  -5   38.78    9.15
  -5   7  -2  149.05   10.03
  -5   8   3   31.04    5.17
  -6  11  -3  122.74   12.16
  -6  10  -2    1.45    7.34
  -6  10   1   32.40    7.51
  -2   2  -3  790.32   13.96
  -3   8  -7   62.19    8.34
  -3   5  -5   64.98    6.99
  -3   4  -4   57.61    5.88
  -3   3   2  611.11   10.16
  -4   4  -1  183.82    8.78
  -4   4   0   48.85    5.04
  -5   8  -4   63.86    9.40
  -5   7  -3   -4.48    5.96
  -5   6   0  184.57    9.88
  -5   7   2  151.46    8.30
  -5   9   4   34.65    5.19
  -6   9  -1  267.01   14.31
  -6   9   0   76.09    8.94
  -6  10   2    2.29    5.86
  -6  11   3  107.07    8.81
  -1   7  -8   22.65    5.94
  -3   6  -6  296.27   13.09
  -3   3  -3  899.91   17.48
  -4   8  -6   21.34    7.27
  -4   4  -2   -0.25    3.85
  -4   4   1  191.05    7.88
  -5   9  -5   68.20    9.85
  -5   6  -2   40.87    6.82
  -5   6  -1    1.15    4.20
  -5   6   1   -1.25    4.20
  -6  10  -3   29.80    8.19
  -6   9  -2   61.35    9.41
  -6   9   1  244.66   12.53
  -1   5  -7    6.43    4.26
  -1   1  -3   49.87    3.33
  -2   8  -8   77.57    8.12
  -2   6  -7   40.30    6.02
  -4   6  -5    1.76    5.86
  -4   5  -4  356.65   14.00
  -2   3  -5  104.38    6.57
  -2   1  -1  401.49    8.39
  -3   7  -7    3.02    5.68
  -3   2  -1 1394.32   18.71
  -3   2   0  590.58   11.51
  -4   9  -7   77.01    9.77
  -4   7  -6   48.61    8.09
  -4   4  -3  142.09    8.85
  -5   8  -5   17.55    7.49
  -5   7  -4  197.68   12.44
  -5   6  -3    4.01    5.87
  -6  10  -4    4.76    7.07
  -6   9  -3  223.35   13.96
  -6   8  -2   -4.36    6.50
  -6   8  -1    2.46    5.74
  -6   8   0   11.21    6.23
  -6   9   2   68.32    7.47
   6   7  -5   19.66    7.81
   6   9   2   56.51    9.61
   5   5  -6   76.46    8.18
   5   8  -3   27.07    7.19
   5   9   0   51.98    8.32
   5   8   3   28.09    7.07
   4   4  -6   -0.94    4.45
   4   8  -1   15.83    5.36
   4   8   0  100.76    8.02
   4   8   1   12.84    5.32
   4   7   3   51.84    6.52
   4   2   7   33.38    4.87
   3   6  -3   52.54    5.70
   3   5   4  676.45   14.53
   6   8   4   12.16    7.28
   6   7   5    8.47    6.71
   5   9  -1  108.45   10.14
   5   9   1   92.31    9.77
   5   5   6   74.02    8.01
   4   8  -2   27.12    5.91
   4   4   6    1.60    4.60
   3   7  -1   11.71    4.20
   3   7   0  801.04   17.19
   3   7   1    9.99    4.12
   3   6   3   46.69    5.16
   3   4   5  343.60   10.04
   2   5  -2    5.73    2.92
   2   2   5  384.41    7.66
   6   9  -3  194.74   13.03
   6  10   0    9.07    8.00
   6   9   3  224.44   14.34
   5   9  -2   22.47    7.44
   5   9   2   22.13    7.36
   4   8   2   30.14    5.98
   3   1  -7   21.44    3.43
   2   5   2    0.50    2.68
   6  10   1   30.43    8.23
   5   7  -5   -0.07    5.40
   5   8  -4   67.33    8.50
   5   8   4   66.21    8.21
   5   7   5    2.65    5.92
   4   3  -7  162.83    8.05
   4   6  -5    3.02    5.03
   4   7  -4  203.04   10.52
   4   7   4  197.52   10.35
   3   3  -6  104.60    5.93
   3   7  -2  165.81    8.55
   3   7   2  162.00    8.40
   6   8  -5   -2.25    6.56
   6  10   2    2.57    6.61
   5   6  -6   16.08    6.47
   5   9  -3   95.74    9.87
   5  10   0   17.29    7.45
   5   9   3   94.40    9.57
   5   4   7   46.64    6.66
   4   5  -6   79.65    7.40
   4   8  -3   12.36    5.14
   4   9   0  333.06   13.79
   4   8   3   20.43    5.56
   4   6   5    6.10    4.58
   3   3   6  105.76    5.87
   6  10  -3   35.42    8.99
   6   8   5    0.54    6.60
   5  10  -1   88.08    9.61
   5  10   1   92.19   10.18
   5   6   6   22.73    6.45
   4   9  -1  198.28   10.94
   4   9   1  188.01   10.64
   4   3   7  159.97    7.67
   3   5  -5   72.67    5.94
   3   6  -4  542.38   13.80
   2   5  -3   76.54    5.09
   2   6  -1  325.52    9.67
   2   6   0  526.75   11.98
   6  11   0   76.85   10.22
   6  11   1  139.77   12.94
   6  10   3   27.38    7.91
   5  10   2   -2.18    6.63
   4   9  -2  103.34    8.81
   4   9   2   91.84    8.49
   4   5   6   72.67    6.75
   3   7  -3    9.41    4.09
   3   8  -1  272.36   11.03
   3   8   0  439.90   13.50
   3   8   1  266.14   10.88
   3   7   3    9.18    4.03
   3   6   4  569.65   13.92
   2   6   1  329.59    9.58
   2   5   3   67.47    4.66
   2   4   4   29.71    3.37
   6  11   2   75.89   10.75
   5   8  -5   16.60    6.62
   5   9   4   39.36    7.68
   5   8   5   16.86    6.84
   4   7  -5   25.96    6.04
   4   8  -4   68.29    7.46
   3   5   5   66.48    5.62
   2   3  -5   96.66    4.70
   2   6  -2 1026.73   16.64
   5   7  -6   89.49    9.04
   5  11  -1  231.02   14.19
   5  11   0   17.40    7.97
   5  10   3   80.70    9.70
   5   5   7   28.59    6.22
   4   9  -3  173.23   10.72
   4  10   0   20.50    6.53
   4   9   3  173.91   10.47
   4   8   4   65.13    7.24
   4   7   5   19.29    5.62
   3   8  -2  383.46   12.72
   3   8   2  360.51   12.41
   2   6   2 1031.91   16.60
   6  11  -3  131.81   11.76
   5  11   1  255.36   14.32
   5   7   6   87.41    8.69
   4   6  -6   43.29    6.45
   4  10  -1  106.35    9.00
   4  10   1  103.70    8.89
   3   2  -7  165.03    6.06
   3   7  -4  374.82   12.30
   2   3   5   98.74    4.61
   1   4  -1  197.52    5.76
   6  12   1    3.30    7.09
   5   9  -5   75.14    9.14
   5  11   2   44.73    8.14
   4  10  -2   -2.18    4.66
   4  10   2   -0.59    5.55
   4   6   6   39.97    6.39
   4   4   7   57.39    5.72
   3   6  -5   26.38    4.65
   3   8  -3  191.00    9.45
   3   9  -1  161.72    9.32
   3   9   0  146.68    8.97
   3   7   4  377.53   12.21
   3   4   6   20.24    4.24
   2   7   0   15.31    3.96
   1   4   1  201.39    5.72
   6  12   2   30.42    8.41
   5   8  -6   10.31    6.67
   5   9   5   75.55    8.79
   4   8  -5   10.55    5.78
   4   9  -4  177.29   10.65
   3   9   1  158.92    9.01
   3   8   3  200.36    9.57
   3   6   5   30.69    5.03
   2   5  -4  199.00    7.25
   2   6  -3  167.27    7.12
   2   7  -1   23.86    3.89
   2   7   1   25.12    3.92
   5  12   0   67.74    9.31
   4  11  -1  183.19   11.86
   4  11   0   48.88    7.98
   4  10   3   86.96    8.76
   4   8   5   17.45    5.83
   3   9  -2    2.86    4.54
   3   9   2    4.48    4.38
   3   2   7  159.28    5.63
   2   7  -2   68.99    5.57
   2   6   3  169.50    7.10
   2   5   4  187.86    6.97
   1   4  -2  157.67    5.27
   4   7  -6   47.28    6.95
   4  11   1  179.57   11.30
   2   7   2   66.85    5.48
   1   4   2  162.99    5.31
   5  10  -5   50.41    8.47
   4  11  -2  129.81   10.11
   4   7   6   49.40    6.65
   4   5   7   68.33    6.11
   3   8  -4  224.83   10.11
   3   9  -3  147.42    9.03
   3  10   0   19.63    5.52
   5   9  -6    8.57    6.68
   5  12  -3   18.34    7.25
   5  10   5   39.95    7.93
   4   9  -5  102.96    8.99
   3   3  -7  174.04    6.51
   3   7  -5    4.09    4.27
   3  10  -1  526.81   16.13
   3   9   3  146.09    8.90
   3   5   6   93.11    6.18
   2   8  -1  700.65   15.54
   2   8   0  547.15   13.74
   2   8   1  714.51   15.66
   2   4   5  475.61    9.61
   1   5   0 1274.45   15.31
   5   9   6   12.71    6.69
   4  12   0   40.85    7.77
   4   9   5  104.15    8.67
   3  10   2    8.17    5.10
   3   7   5    2.41    4.10
   2   6  -4  334.66    9.75
   2   7  -3   25.63    4.13
   2   7   3   19.82    3.92
   1   5  -1   65.60    3.94
   1   5   1   62.59    4.03
   4   8  -6   16.42    6.12
   2   8  -2  835.77   16.88
   2   8   2  859.43   17.05
   2   6   4  360.57    9.97
   4   8   6   18.96    6.21
   4   6   7    5.01    4.69
   3  10  -3  390.36   14.29
   3  11  -1  487.27   16.37
   3  11   0   29.71    5.98
   3  11   1  484.87   16.37
   5  14  -1    9.39    7.31
   5  14   1    5.28    7.04
   3   4  -7  170.86    6.85
   3   8  -5  113.91    7.58
   3  10   3  396.75   14.03
   3   6   6  285.28    9.88
   2   9  -1    4.31    4.04
   2   9   0  332.41   11.49
   2   9   1    4.12    4.00
   1   5   2  261.99    7.20
   1   4   3  321.42    7.13
   5  14   2   38.63    8.51
   4   9  -6   26.95    6.67
   3  11   2  151.11    9.75
   3   8   5  114.30    7.84
   2   3  -6   33.12    3.20
   2   7  -4   36.25    4.75
   2   5   5   46.08    4.13
   1   6   0 1057.18   15.22
   4  13   2  306.72   15.28
   4   9   6   28.65    6.65
   3  12   0  241.60   12.78
   2   9   2   40.38    5.23
   2   7   4   39.92    4.79
   1   6  -1  478.59   10.36
   1   6   1  481.64   10.47
   5  15  -1   45.33    9.12
   5  15   1   46.53    9.20
   4   7   7   10.80    5.11
   3   9  -5   85.32    7.74
   3  11  -3  364.36   14.17
   3  12  -1  101.89    8.92
   3  12   1  108.04    9.01
   3  10   4    2.85    4.77
   3   4   7  177.35    6.59
   4  14  -1    9.21    6.70
   4  14   1    5.84    6.54
   4  13   3    1.88    5.90
   3   5  -7   34.12    4.56
   3   9   5   79.45    7.48
   3   7   6   61.58    6.25
   2  10  -1  446.16   13.88
   1   5  -3   41.14    3.54
   1   6  -2 2442.56   23.00
   4  10  -6   -0.01    5.54
   4  14   2   63.85    9.12
   2   4  -6   81.77    4.53
   2   8  -4  308.94   10.53
   2   6   5   70.52    5.18
   1   7   0  403.54   10.45
   1   6   2 2443.55   22.93
   1   5   3   38.73    3.45
   4  10   6    0.79    5.72
   4   8   7   12.94    5.39
   3   8  -6  140.11    8.47
   3  11  -4   15.94    5.75
   3  13   0   97.14    9.20
   3  11   4    9.56    5.40
   2  10   2    0.81    3.61
   2   8   4  312.46   10.50
   1   7  -1   13.92    3.08
   1   7   1   15.56    3.47
   4  15   1   40.89    8.43
   4  14   3    5.68    6.35
   3  10  -5  247.17   11.46
   3   8   6  134.97    8.19
   3   5   7   31.21    4.20
   2   7  -5    4.27    3.90
   2  11   0    0.45    4.04
   4   9  -7   72.20    7.66
   4  11  -6   60.85    8.13
   4  15   2   22.29    7.53
   3   6  -7   12.65    4.15
   3  10   5  250.83   11.47
   2   9  -4  156.33    8.52
   2  10   3  324.70   12.02
   2   4   6   75.78    4.29
   1   6  -3  318.09    8.53
   1   7  -2   52.62    4.70
   1   7   2   53.31    4.68
   4  11   6   59.81    8.13
   4   9   7   69.41    7.45
   3   9  -6    0.69    5.08
   2   5  -6    3.99    3.24
   2  11  -2   56.52    6.38
   2   9   4  166.81    8.65
   2   7   5    8.33    3.45
   1   8  -1  372.28   10.81
   1   8   0  426.54   11.38
   1   6   3  330.47    8.64
   3  11  -5  186.54   10.80
   3   9   6    1.45    5.12
   3   6   7   14.50    4.07
   2   8  -5  262.10    9.85
   3   7  -7    2.89    4.01
   3  11   5  181.08   10.56
   2  10  -4    7.24    4.73
   2  11   3   48.72    6.42
   1   7  -3    5.48    3.17
   1   8  -2 1079.61   17.82
   1   8   2 1125.80   18.14
   3  10  -6    2.44    5.64
   2   6  -6  326.81    9.09
   2  12  -2  216.41   11.10
   2  10   4    9.22    4.26
   2   8   5  252.94    9.39
   2   5   6    5.96    3.18
   1   9  -1   78.36    6.17
   1   9   0   61.71    5.43
   1   7   3    5.07    2.83
   1   5   4  305.10    7.54
   3  12  -5   54.08    7.65
   3  12   5   52.36    7.84
   3  10   6    1.68    5.58
   3   7   7    3.51    3.94
   2   9  -5    7.02    4.35
   2  11  -4   -0.38    4.44
   2  13  -2  132.19   10.03
   2  12   3   88.77    8.14
   1   8  -3  253.56    8.94
   1   9  -2   -1.64    3.28
   1   9   2   -3.35    3.20
   3  11  -6   63.85    7.94
   3  13  -5   14.35    6.82
   2  11   4   -4.59    4.20
   2   9   5    8.15    4.49
   2   6   6  340.72    9.06
   1  10  -1  693.53   16.18
   1  10   0  213.48    9.42
   1  10   1  722.85   16.62
   1   8   3  253.24    8.91
   1   6   4  558.83   10.96
   3  13   5    3.13    6.40
   3  11   6   60.05    7.79
   3   8   7   52.25    5.66
   2  10  -5  221.06   10.12
   1   7  -4  134.18    6.39
   1  10  -2    4.69    3.80
   3  12  -6   85.53    8.86
   2  12  -4  262.40   12.12
   2  12   4  247.61   11.98
   2  10   5  238.72   10.45
   2   7   6    0.36    3.86
   1   9  -3   59.42    5.62
   1  11  -1  152.42    8.84
   1  11   0   15.76    4.80
   1  10   2    5.27    3.84
   1   9   3   54.21    5.41
   3  14  -5   24.65    7.31
   3   9   7   55.36    6.37
   2  15  -1   -5.13    6.50
   1  11   1  153.19    8.69
   1   7   4  134.14    6.35
   3  14   5   25.89    7.19
   2  11  -5   30.21    5.85
   2  13  -4   26.30    6.78
   2  14  -3    8.90    6.34
   2   8   6  278.48    9.59
   1   8  -4  225.16    8.41
   1  10  -3  546.77   14.47
   1  11  -2   63.95    6.53
   1  12   0  194.61   10.41
   1  11   2   62.42    6.34
   3  13  -6  101.34    9.64
   2  13   4   27.48    6.78
   2  11   5   33.07    5.86
   1   5  -5   19.95    2.86
   1  12  -1  186.23    9.95
   1  12   1  193.86   10.37
   1  10   3  517.32   14.07
   1   8   4  231.03    8.59
   3  13   6  107.98    9.82
   3  10   7  126.42    8.35
   2  12  -5   69.51    7.41
   2  15  -3   -1.79    6.54
   2  16  -1  269.00   14.66
   1   9  -4   28.76    4.49
   1  11  -3  102.09    7.52
   1  12  -2   26.76    5.71
   1  12   2   24.09    5.59
   0   5  -1    1.08    2.14
   0   5   0   -1.10    1.75
   2  10  -6   -1.03    4.88
   2  14  -4  250.07   13.08
   2  14   4  248.83   13.04
   2  12   5   62.34    7.17
   2   9   6    7.45    4.37
   1  13  -1   11.02    5.56
   1  13   0   27.74    5.93
   1  11   3  104.87    7.58
   1   9   4   28.25    4.44
   0   6   0 1189.36   15.31
   0   5   1    0.44    2.09
   3  11   7  103.24    8.27
   2   5  -7   16.69    2.96
   2  13  -5    0.87    5.80
   2  17   1   45.63    9.47
   1  10  -4   90.12    6.67
   1  12  -3  147.85    9.20
   1  13  -2   72.03    7.88
   1   5   5   18.71    2.82
   0   6  -1  918.31   13.48
   0   7   0   -3.26    2.90
   0   6   1  923.00   13.56
   2  11  -6   26.93    6.19
   2  15  -4    0.92    6.34
   2  15   4    0.60    6.85
   2  13   5   -1.10    5.61
   2  10   6   -1.43    4.44
   1  14  -1   39.86    7.33
   1  14   0  574.91   18.19
   1  13   2   80.03    7.67
   1  12   3  137.67    8.92
   1  10   4   86.19    6.54
   1   6   5  114.73    5.24
   0   5  -2   -4.95    2.22
   0   7  -1   -5.71    2.86
   0   7   1   -7.68    2.77
   2   6  -7   35.98    3.74
   2  14  -5   10.60    6.44
   2  18   0   28.21    9.00
   1   8  -5  178.30    7.53
   1  11  -4    2.38    3.90
   1  13  -3    6.63    5.37
   1  14  -2  284.26   13.51
   1   7   5    1.67    3.05
   0   6  -2 3161.06   24.73
   0   8  -1 2210.13   24.45
   0   8   0 1321.48   18.96
   0   5   2   -4.45    2.25
   2   7  -7    2.06    3.27
   2  12  -6   93.07    8.33
   2  16  -4    3.61    6.67
   2  17  -3   37.00    8.63
   2  18  -2   56.28    9.63
   2  18   1   65.17    9.58
   2  14   5   11.22    6.52
   2  11   6   25.60    6.01
   1   9  -5   24.13    4.50
   1  15  -1   22.87    7.64
   1  15   0    1.30    6.00
   1  15   1   19.18    7.45
   1  14   2  295.73   13.37
   1  13   3    2.03    5.13
   1  11   4    5.27    4.09
   1   8   5  168.02    7.36
   0   9   0   -5.49    3.37
   0   8   1 2197.60   24.34
   0   6   2 3186.10   24.84
   2   8  -7  107.01    6.29
   2  15  -5    1.81    6.46
   2  18   2   48.65    8.75
   2  16   4    2.94    6.52
   2  12   6   88.46    8.46
   1  12  -4  134.29    8.84
   1  14  -3   39.21    7.24
   1  15  -2   24.55    7.56
   1  12   4  140.39    9.12
   0   8  -2 2532.28   26.09
   0   9  -1   -1.52    3.26
   0   9   1   -6.66    3.61
   2  13  -6   62.84    8.10
   2  15   5    3.42    6.77
   2   6   7   40.82    3.73
   1  10  -5  360.24   11.72
   1  13  -4   10.51    5.56
   1  16  -1  250.59   14.28
   1  16   0   49.28    8.69
   1  16   1  240.78   13.96
   1  15   2   19.68    6.61
   1  14   3   45.03    7.27
   1   9   5   21.58    4.50
   0   9  -2   -7.08    3.22
   0  10  -1  956.86   18.51
   0  10   0  188.10    8.64
   0  10   1  945.70   18.39
   0   8   2 2510.95   25.98
   2   9  -7   13.15    4.19
   2  13   6   54.95    7.62
   2   7   7    4.43    3.21
   1  11  -5   46.15    6.36
   1  15  -3   15.82    7.00
   1  16  -2    9.29    7.13
   1  13   4   12.53    5.65
   1  10   5  374.45   11.85
   0  11  -1   -4.31    3.91
   0  11   0   -0.62    3.74
   0   9   2   -7.84    3.18
   2  14  -6  102.50    9.47
   2   8   7  104.09    5.97
   1  14  -4  381.44   15.12
   1  17  -1   20.76    8.09
   1  17   0    0.93    6.08
   1  17   1   14.22    7.85
   1  16   2    7.90    6.25
   1  15   3   15.72    6.15
   0   5  -3    0.22    2.09
   0   6  -3  427.48    9.22
   0   7  -3   -6.01    2.56
   0  10  -2   -2.72    2.82
   0  12   0  907.00   20.20
   0  11   1   -2.05    3.62
   0  10   2   -1.94    3.36
   2  14   6  104.45    9.50
   2   9   7   12.38    4.26
   1  12  -5  104.78    7.99
   1  16  -3  203.44   13.05
   1  17  -2   -0.33    7.18
   1  17   2    3.20    6.99
   1  16   3  219.33   13.23
   1  14   4  354.29   14.62
   1  11   5   48.49    6.05
   0   8  -3 1257.53   18.36
   0   9  -3   -3.18    3.59
   0  11  -2   -2.20    4.01
   0  12  -1  177.08    9.56
   0  11   2   -3.75    3.69
   0   5   3   -1.97    2.02
   0   6   3  433.66    9.29
   0   7   3   -5.94    2.53
   0   8   3 1258.54   18.41
   2  10   7  131.13    7.59
   1  13  -5   -0.86    5.34
   1  15  -4   -0.99    6.12
   1  18  -1   47.41    9.44
   1  18   0   78.93    9.88
   1  18   1   47.57    9.42
   1  15   4   -4.51    6.26
   1  12   5  108.83    8.29
   0  10  -3  633.65   15.09
   0  12  -2  328.48   12.59
   0  13  -1   -2.47    4.83
   0  13   0    0.67    4.83
   0  13   1    0.18    5.17
   0  12   2  359.28   13.12
   0   9   3   -4.46    3.48
   2  11   7   23.37    5.42
   1   6  -6  630.30   10.43
   1   7  -6   13.18    3.64
   1  17  -3    2.62    7.06
   1  18  -2  118.52   11.77
   1  18   2  130.37   12.05
   1  17   3   10.79    7.57
   1  13   5    1.56    5.42
   0  11  -3   -2.09    3.87
   0  13  -2   -2.34    5.00
   0  14   0  844.62   21.67
   0  10   3  646.86   15.24
   1  14  -5   24.10    6.37
   1  16  -4   34.24    7.67
   1  19  -1    9.79    7.76
   1  19   0   35.82    8.58
   1  19   1    3.79    7.82
   1  16   4   41.78    7.94
   0  12  -3  137.63    8.77
   0  14  -1   11.53    5.33
   0  14   1   16.26    5.57
   0  13   2   -5.61    4.86
   0  11   3   -3.02    3.82
   2  12   7   33.15    5.83
   1  11  -6   15.70    5.43
   1  15  -5    7.17    6.71
   1  17  -4   -0.59    6.31
   1  18  -3   48.78    8.39
   1  18   3   41.54    8.85
   1  14   5   22.95    6.35
   1   7   6   11.39    3.62
   1   8   6  357.46    9.79
   0   7  -4   -3.58    2.89
   0   8  -4  588.33   12.60
   0  14  -2  405.01   15.14
   0  15   0   -4.62    5.50
   0  15   1    1.53    6.68
   0  14   2  411.15   15.56
   0  12   3  140.50    8.90
   1  12  -6   39.75    6.67
   1  17   4    1.09    6.56
   1  15   5    9.07    6.48
   1   6   6  625.42   10.22
   1   9   6   -1.80    3.59
   1  10   6   -0.37    4.30
   0   9  -4   -4.54    3.04
   0  10  -4   70.47    6.18
   0  13  -3   -0.06    4.14
   0  15  -2   -0.62    6.52
   0  16   0    0.76    7.03
   0  15   2   -4.31    6.10
   0  13   3   -5.95    4.63
   1  16  -5  138.02   10.94
   1  11   6   19.34    5.20
   0  11  -4   -5.74    3.68
   0  14  -3   15.22    6.06
   0  16   1  580.52   19.74
   0  14   3   17.49    6.30
   0   7   4   -2.75    2.70
   0   8   4  584.12   12.49
   0   9   4   -2.47    3.17
   0  10   4   78.35    6.39
   1  13  -6   27.86    6.41
   1  16   5  146.85   11.09
   1  12   6   36.32    6.38
   0  12  -4  502.78   15.10
   0  15  -3    2.92    6.58
   0  16  -2    6.81    6.14
   0  17  -1    2.59    7.20
   0  17   0   -1.50    6.02
   0  17   1   -1.45    7.40
   0  16   2   11.15    6.91
   0  15   3   -4.90    5.95
   0   6   4  607.95   10.71
   0  11   4   -2.22    3.85
   1  14  -6  120.29    9.50
   1  13   6   29.62    6.56
   0  13  -4  -10.57    4.90
   0  16  -3  450.53   17.63
   0  17  -2    4.90    7.13
   0  18  -1   79.06   10.24
   0  18   0   54.97    9.59
   0  17   2   -6.79    6.78
   0   5   4   -1.77    2.03
   0  12   4  503.77   15.10
   0  13   4   -8.04    5.49
   0  14  -4  491.22   16.64
   0  18  -2  120.03   11.55
   0  18   1   87.43   10.12
   0  16   3  456.84   17.76
   0  14   4  499.68   16.68
   0   9  -5   -2.21    3.90
   0  10  -5  426.42   12.24
   0  15  -4   -7.74    5.86
   0  17  -3   -4.35    6.73
   0  19  -1   -4.76    7.01
   0  19   0    1.83    6.91
   0  19   1   -1.80    7.43
   0  18   2  101.17   10.52
   0  17   3   -5.38    7.03
   0  15   4   -7.45    5.64
   0  11  -5   -5.19    4.14
   0  12  -5  110.27    8.30
   0  16  -4    2.47    6.32
   0  18  -3   79.60   10.14
   0  18   3   79.42    9.93
  -1   9  -1   78.85    6.09
  -1  10  -1  691.83   15.85
  -1  11  -1  142.01    8.53
  -1  12  -1  192.34   10.14
  -1   8   0  427.78   11.14
  -1   9   0   63.03    5.37
  -1  10   0  208.40    9.14
  -1  11   0   11.69    4.25
  -1  12   0  176.54    9.84
  -1   9   1   73.32    5.94
  -1  10   1  708.31   16.15
  -1  11   1  148.04    8.62
   1   9  -7   13.06    4.03
   1  10  -7  171.25    7.80
   0  13  -5   -3.16    4.73
   0  17  -4   -4.02    6.26
   0  16   4    5.03    6.18
   0   8   5  616.32   12.56
   0   9   5   -6.63    3.30
   0  10   5  437.00   12.36
   0  11   5   -7.25    4.45
   0  12   5  106.75    8.16
  -1  10  -2    4.62    3.62
  -1  11  -2   65.30    6.28
  -1   7  -1   14.19    3.35
  -1   8  -1  364.60   10.33
  -1  13  -1   10.22    5.43
  -1   7   0  390.83    9.94
  -1  13   0   28.27    5.91
  -1  14   0  587.47   18.36
  -1   8   1  349.94   10.14
  -1  12   1  193.39    9.95
  -1  13   1   11.64    5.67
   1   8  -7   79.05    4.89
   0  14  -5   11.99    5.74
   0  15  -5   -4.62    6.03
   0  17   4    0.83    6.19
   0  13   5   -2.94    4.64
   0  14   5   11.59    6.12
  -1   8  -2 1081.15   17.37
  -1   9  -2   -2.86    2.70
  -1  12  -2   30.47    5.28
  -1  13  -2   81.85    8.04
  -1  14  -1   40.54    6.55
  -1  15  -1   15.72    6.98
  -1   6   0 1052.58   14.86
  -1  15   0    1.79    6.82
  -1   7   1    9.38    2.83
  -1  14   1   49.33    6.90
  -1   9   2   -1.34    3.24
  -1  10   2    4.19    3.69
  -1  11   2   55.71    6.03
  -1  12   2   30.08    5.72
  -1  13   2   68.32    7.52
   1  10   7  178.49    7.85
   1  11   7   21.31    4.93
   1  12   7   48.87    6.13
   0   6  -5  165.32    5.67
   0  16  -5  247.54   13.49
   0   7   5   -2.95    2.57
   0  15   5    1.09    6.39
  -1  14  -2  286.22   13.01
  -1  15  -2   13.34    6.83
  -1   6  -1  492.72   10.29
  -1  16  -1  264.11   14.36
  -1  16   0   54.07    8.69
  -1   6   1  487.20   10.25
  -1  15   1   13.84    6.38
  -1  16   1  265.08   14.32
  -1   8   2 1087.75   17.47
  -1  14   2  293.44   13.48
   1   7  -7   -1.30    2.55
   1   9   7   12.83    3.84
   1  13   7   -2.82    4.60
   0  16   5  281.07   13.99
  -1  10  -3  540.50   14.05
  -1  11  -3  102.08    7.39
  -1  12  -3  148.25    9.02
  -1  13  -3    2.06    4.99
  -1   7  -2   49.28    4.26
  -1  16  -2    4.48    6.55
  -1  17  -1   12.62    7.62
  -1  17   0   -2.70    6.55
  -1  17   1   14.69    7.53
  -1   7   2   52.74    4.61
  -1  15   2   12.83    6.70
  -1  11   3   99.14    7.41
  -1  12   3  139.99    8.81
   1   8   7   84.72    4.95
   0   6   5  166.15    5.77
  -1   9  -3   54.91    5.34
  -1  14  -3   43.83    7.12
  -1  15  -3   11.20    6.49
  -1   6  -2 2470.79   22.46
  -1  17  -2   -1.24    6.94
  -1  18  -1   36.50    8.67
  -1   5   0 1295.23   15.05
  -1  18   0   75.16   10.11
  -1  18   1   40.14    8.78
  -1  16   2   12.43    6.27
  -1  17   2   -0.24    6.75
  -1   9   3   51.27    5.26
  -1  10   3  536.56   14.04
  -1  13   3    3.28    5.13
  -1  14   3   44.23    7.29
   0  11  -6    0.49    4.40
   0  12  -6  140.69    8.81
   0  13  -6   -0.43    5.51
   0  14  -6  174.85   10.54
   0   5  -5    1.45    2.14
  -1   8  -3  250.64    8.66
  -1  16  -3  217.78   13.14
  -1  18  -2  118.66   11.58
  -1   5  -1   69.87    4.05
  -1  19  -1   -3.59    7.06
  -1  19   0   40.30    9.56
  -1   5   1   63.31    3.90
  -1   6   2 2440.00   22.36
  -1  18   2  115.79   11.35
  -1   8   3  253.10    8.85
  -1  15   3    9.82    6.69
   0  15  -6    2.04    6.24
   0  11   6   -3.05    4.44
   0  12   6  136.12    8.70
   0  13   6   -0.01    5.45
  -1  11  -4    2.65    4.22
  -1  12  -4  133.16    8.84
  -1  13  -4   11.12    5.94
  -1   7  -3    2.64    2.93
  -1  17  -3    2.47    7.11
  -1  19   1    2.97    6.64
  -1  16   3  222.17   12.86
  -1  17   3    4.20    7.04
   0  10   6    0.71    4.14
   0  15   6   -3.27    6.03
  -1  10  -4   85.01    6.33
  -1  14  -4  359.68   14.47
  -1  15  -4   -0.73    6.01
  -1  18  -3   42.61    8.60
  -1   7   3    3.31    2.71
  -1  18   3   37.67    8.36
  -1  11   4    6.42    4.45
  -1  12   4  141.79    8.83
  -1  13   4    8.91    5.44
  -1  14   4  390.36   14.98
   0   8  -6  591.32   11.71
   0   9   6   -1.93    3.75
  -1   9  -4   29.39    4.34
  -1  16  -4   32.09    7.49
  -1  17  -4   -1.83    6.77
  -1   5   2  255.52    7.04
  -1  10   4   90.49    6.55
  -1  15   4   -0.60    6.04
  -1  16   4   35.46    7.49
  -1   8  -4  229.24    8.32
  -1   6  -3  321.90    8.27
  -1   9   4   24.49    4.23
  -1  17   4    0.51    6.53
  -1  13  -5    0.97    5.24
  -1   4   1  198.63    5.51
  -1   6   3  310.18    8.18
  -1   8   4  226.65    8.33
  -2  13   0   25.56    6.52
  -2  14   0  383.61   15.43
  -1  12  -5  110.82    7.94
  -1  14  -5   22.00    6.12
  -1  15  -5    9.75    6.17
  -1  16  -5  136.18   10.65
  -2  12  -1  106.92    8.45
  -2  13  -1    3.34    4.70
  -2  14  -1   11.23    5.38
  -2  15  -1    0.90    6.55
  -2  16  -1  279.84   14.81
  -2  11   0    0.26    4.29
  -2  12   0  386.01   13.88
  -2  15   0    6.41    6.25
  -2  16   0    1.96    6.53
  -2  12   1  120.34    8.89
  -2  13   1   -0.51    5.15
  -2  14   1    9.77    6.01
  -2  15   1   -0.37    6.73
  -2  16   1  288.36   14.98
  -2  11  -1   52.58    6.12
  -2  17  -1   41.59    8.25
  -2  10   0   14.10    4.08
  -2  17   0   -2.72    5.94
  -2  11   1   61.75    6.42
  -1  -5  -3   38.70    4.45
  -1   0  -3   -0.14    2.37
  -2  -9  -4  159.06    9.63
  -2   4  -4   31.12    3.94
  -2 -12  -3   86.45    7.23
  -2 -14  -2  229.87   10.07
  -3 -10  -5  267.62   14.29
  -3   5  -5   64.24    6.07
  -3 -13  -4   51.26    8.06
  -4 -13  -5   -1.61    6.63
  -5   2  -7   16.33    7.82
  -1  -6  -3  321.25    9.98
  -1   1  -3   49.65    3.78
  -1 -10  -2    4.15    3.31
  -1 -13   0   34.08    3.68
  -3  -4  -6   23.53    7.18
  -3  -3  -6  110.46    9.84
  -3  -2  -6  112.55    9.73
  -3  -1  -6  264.54   13.01
  -3 -17  -2    0.00    5.24
  -4 -10  -6    0.21    6.60
  -4   5  -6   71.86    7.56
  -5   3  -7  142.23   11.64
  -1  -7  -3    3.01    3.34
  -1 -12  -1  190.56    7.10
  -2  -4  -5  495.05   15.33
  -2  -3  -5   89.32    7.71
  -2  -2  -5  396.82   13.27
  -2  -1  -5    4.25    4.12
  -2 -10  -4    9.22    5.08
  -2 -13  -3   -0.84    4.65
  -3  -6  -6  293.44   15.09
  -3  -5  -6   82.79    9.05
  -3   0  -6  341.54   14.06
  -3   1  -6  245.07   11.93
  -3 -11  -5  190.28   12.21
  -3 -14  -4  138.35   10.65
  -3 -16  -3  114.66    9.60
  -4  -4  -7   59.98   10.17
  -4  -3  -7  179.76   13.51
  -4  -2  -7   34.34    8.76
  -4  -1  -7   11.94    7.22
  -5   4  -7   47.91    8.41
  -5   8  -6    5.29    5.52
  -1  -8  -3  260.64    9.46
  -2  -6  -5   78.00    7.62
  -2  -5  -5   51.76    6.46
  -2   0  -5    1.08    3.72
  -2 -11  -4   -4.27    4.55
  -2   5  -4  193.95    7.03
  -2 -15  -2    3.75    4.70
  -2 -16  -1  254.13    9.57
  -3  -7  -6   62.78    8.94
  -3   2  -6  109.14    8.82
  -3 -12  -5   51.74    8.78
  -3   6  -5   27.20    4.78
  -4  -6  -7   -1.02    7.55
  -4  -5  -7   66.23    9.69
  -4   0  -7   -1.04    6.58
  -4   1  -7    6.37    6.52
  -4   6  -6   37.70    6.64
  -4   9  -5   98.87    6.72
  -5   5  -7   33.71    7.85
  -1 -11  -2   60.89    5.19
  -2  -7  -5    1.59    5.19
  -2   1  -5   12.35    4.14
  -3  -8  -6  141.79   11.34
  -3 -15  -4   14.23    7.01
  -4  -8  -7   13.05    8.37
  -4  -7  -7    8.91    7.37
  -4   2  -7   39.19    8.13
  -1  -9  -3   56.11    5.56
  -2  -8  -5  251.84   12.11
  -2   2  -5  407.01   12.23
  -2 -12  -4  242.62   11.87
  -2 -14  -3   10.34    5.11
  -3  -9  -6   -1.51    6.15
  -3   3  -6  108.21    8.25
  -3 -13  -5    7.28    6.92
  -3   9  -4   88.33    4.91
  -4  -9  -7   81.19   11.44
  -4   3  -7  167.10   11.69
  -4   7  -6   47.08    6.87
  -1  -4  -4   18.79    4.36
  -1  -3  -4    2.50    3.61
  -1 -13  -1   10.77    3.36
  -2  -9  -5    5.51    5.99
  -3 -10  -6   -0.24    6.26
  -1  -6  -4  580.72   14.77
  -1  -2  -4  562.64   13.18
  -1  -1  -4   36.38    4.74
  -1 -10  -3  525.75   13.71
  -1   3  -3  475.26    8.86
  -1 -12  -2   31.07    4.45
  -1 -14   0  560.75    9.88
  -2 -10  -5  244.38   12.74
  -2   3  -5   99.45    6.67
  -2 -13  -4   19.87    6.17
  -2 -16  -2    0.42    4.78
  -2 -17  -1   42.50    5.27
  -3 -11  -6   53.90    9.39
  -3   4  -6   27.26    5.57
  -3 -14  -5   35.60    8.17
  -3 -16  -4    5.57    6.12
  -4   4  -7   48.91    7.83
  -1  -7  -4  136.73    8.07
  -1   0  -4 1931.01   22.86
  -2  -4  -6   76.84    8.22
  -2 -15  -3    1.78    5.16
  -3  -6  -7   13.63    7.71
  -3  -5  -7   35.68    8.06
  -3  -4  -7  185.84   12.71
  -3  -3  -7  189.64   12.69
  -3  -2  -7  178.32   12.13
  -3  -1  -7   20.39    7.56
  -3 -12  -6   92.91   10.83
  -4  -4  -8    6.65    8.06
  -4  -3  -8   -1.24    7.31
  -4  10  -5   59.60    5.34
  -1  -8  -4  236.34   10.26
  -1 -11  -3  102.66    7.01
  -2  -6  -6  342.23   14.86
  -2  -5  -6    3.20    5.18
  -2  -3  -6   28.18    5.86
  -2  -2  -6   52.68    6.69
  -2  -1  -6  120.67    9.02
  -2 -11  -5   21.78    6.38
  -2   4  -5  497.37   12.78
  -2 -14  -4  247.98   12.53
  -3  -8  -7   60.97   10.13
  -3  -7  -7    9.06    6.98
  -3   0  -7    0.99    6.11
  -3   5  -6   94.60    7.41
  -4  -2  -8   13.24    7.14
  -4  -1  -8   49.01    9.45
  -4   0  -8   30.57    8.43
  -4   5  -7   71.17    8.08
  -1  -9  -4   28.27    5.17
  -1   1  -4   35.78    4.33
  -1 -13  -2   67.29    5.70
  -1 -14  -1   43.52    4.56
  -2  -8  -6  285.63   14.50
  -2  -7  -6    1.34    5.45
  -2   0  -6  527.68   16.08
  -2 -12  -5   69.21    8.59
  -2 -16  -3  204.05   10.84
  -2 -17  -2   14.40    5.34
  -3  -9  -7   61.58   10.22
  -3   1  -7   27.59    6.54
  -3 -13  -6   98.89   10.98
  -4   1  -8   60.49    9.56
  -1 -12  -3  131.39    7.73
  -2  -9  -6    8.57    7.08
  -2   1  -6  102.85    8.06
  -3 -10  -7  127.93   12.49
  -3   2  -7  174.74   11.19
  -3   6  -6  275.84   11.04
  -4   2  -8    8.03    7.14
  -4   6  -7    4.82    6.00
  -1  -5  -5   17.57    5.06
  -1  -4  -5  270.44   11.17
  -1  -3  -5  152.92    8.69
  -1 -10  -4   84.55    7.21
  -1   2  -4  575.71   11.98
  -1 -15   0    6.92    3.03
  -2 -10  -6   -2.28    6.51
  -2   2  -6   53.25    6.14
  -2 -13  -5   -1.61    5.97
  -2   5  -5   44.05    4.86
  -2 -15  -4   -2.75    5.42
  -2   7  -4   37.51    3.57
  -3 -11  -7  113.26   12.06
  -3   3  -7  190.52   11.31
  -4   3  -8   -2.86    6.60
   0  -4  -2 1518.03   15.92
   0  -3  -2   -4.69    1.90
   0  -8  -1 2137.53   17.62
  -1  -7  -5   -1.74    4.60
  -1  -6  -5  115.34    8.08
  -1  -2  -5  753.59   17.00
  -1 -11  -4    4.48    4.66
  -1 -13  -3   10.12    4.73
  -1 -14  -2  284.76    9.88
  -2 -11  -6   27.55    7.67
  -3  -5  -8  117.59   12.31
  -3  -4  -8    8.89    7.93
  -3  -3  -8    2.09    7.32
  -3  10  -4    6.75    2.65
  -4   7  -7   13.08    6.28
   0  -6  -2 3156.27   24.42
  -1  -8  -5  175.25   10.18
  -1  -1  -5   11.03    3.94
  -1   3  -4    5.38    2.98
  -1 -15  -1   14.14    3.92
  -2  -6  -7   40.48    8.49
  -2  -5  -7   22.08    8.00
  -2  -4  -7  268.60   14.46
  -2  -3  -7   53.90    8.70
  -2   3  -6   36.34    5.34
  -2 -14  -5    1.38    6.02
  -2 -16  -4    5.98    5.99
  -2 -17  -3   34.43    6.64
  -2 -18  -2   44.38    6.02
  -3  -7  -8  119.26   12.75
  -3  -6  -8  132.26   12.52
  -3  -2  -8   55.89    8.95
  -3  -1  -8   32.66    8.72
  -3   4  -7  180.41   10.73
  -3   7  -6   67.24    6.73
  -4   4  -8   13.08    6.78
  -1  -9  -5   24.67    6.14
  -1   0  -5   -0.09    2.90
  -1 -12  -4  147.78    9.16
  -2  -8  -7  114.49   11.36
  -2  -7  -7    3.58    6.46
  -2  -2  -7  211.77   12.17
  -2  -1  -7   -2.57    5.67
  -2 -12  -6   95.01    9.82
  -2   6  -5   79.05    5.61
  -3   0  -8  164.10   12.37
  -3   9  -5   84.92    5.47
   0  -8  -2 2487.85   22.96
  -1 -10  -5  353.34   14.14
  -1   1  -5   12.99    3.91
  -1 -14  -3   43.31    5.81
  -1 -15  -2   14.02    4.71
  -2  -9  -7   13.77    7.78
  -2   0  -7   -2.67    5.34
  -2 -13  -6   58.67    9.33
  -2   4  -6   71.87    6.65
  -2 -15  -5    3.08    6.44
  -3   1  -8   25.54    7.68
  -3   5  -7   34.23    6.61
   0  -6  -3  439.26   11.01
   0  -5  -3   -4.57    2.97
   0  -4  -3 2560.25   24.53
  -1  -6  -6  624.68   18.71
  -1  -5  -6   21.07    6.47
  -1  -4  -6   70.64    7.67
  -1 -11  -5   43.67    7.15
  -1 -13  -4   19.21    5.52
  -2 -10  -7  152.66   12.10
  -2   1  -7   -2.80    5.19
  -3   2  -8   53.09    8.49
   0  -7  -3   -8.03    3.00
   0  -3  -3   -6.78    2.49
   0 -10  -1  937.94   12.43
  -1  -8  -6  367.25   15.30
  -1  -7  -6    9.64    5.69
  -1  -3  -6   26.42    5.51
  -1  -2  -6   51.09    6.68
  -1   2  -5  758.55   15.56
  -1   4  -4   17.53    3.19
  -1 -15  -3   10.72    5.19
  -1 -16  -1  222.39    7.82
  -2   2  -7  193.54   10.81
  -2 -14  -6  113.34   10.79
  -2   8  -4  300.12    7.15
  -3   3  -8   -0.36    6.45
  -3   6  -7   13.12    5.81
   0  -8  -3 1253.54   18.95
   0  -2  -3 2398.81   22.41
   0 -10  -2   -1.35    2.65
  -1  -9  -6   -1.98    6.13
  -1  -1  -6   79.29    7.44
  -1 -12  -5  103.10    9.01
  -1 -14  -4  369.23   13.71
  -1 -16  -2    5.29    4.20
  -2  -6  -8  109.05   11.60
  -2  -5  -8   54.17    9.67
  -2  -4  -8   12.96    7.76
  -2 -12  -7   43.31    8.91
  -2   5  -6    7.94    4.03
   0  -9  -3   -3.94    3.47
   0  -1  -3   -4.14    2.47
   0 -11  -1   -2.09    2.48
  -1 -10  -6    0.71    6.32
  -1   0  -6  364.62   13.00
  -1 -13  -5    4.85    5.73
  -1   3  -5  162.67    7.60
  -2  -8  -8   88.30   11.13
  -2  -7  -8   33.05    8.49
  -2  -3  -8    0.87    6.28
  -2  -2  -8   82.28    9.96
  -2   3  -7   57.00    7.13
  -3   4  -8   14.05    6.56
   0  -7  -4   -5.71    3.51
   0  -6  -4  608.77   14.46
   0  -5  -4   -0.36    2.98
   0  -4  -4   22.68    3.94
   0  -3  -4   -0.58    3.32
   0 -10  -3  644.41   14.32
   0 -11  -2   -0.84    2.80
  -1 -11  -6   18.93    7.05
  -1   1  -6   90.71    7.21
  -1 -15  -4    2.49    5.70
  -1 -16  -3  201.99   10.03
  -2  -9  -8   34.75    8.47
  -2  -1  -8    0.10    6.11
  -2   0  -8  356.54   16.05
  -3   7  -7    1.96    5.08
   0  -8  -4  578.72   14.69
   0  -2  -4  705.22   14.36
   0   0  -3   -0.49    2.29
  -1  -7  -7   -0.67    6.91
  -1  -6  -7   63.95    8.51
  -1  -5  -7    7.53    6.16
  -1  -4  -7  189.33   11.92
  -1  -3  -7   49.30    8.03
  -1 -12  -6   27.48    7.52
  -1 -14  -5   19.06    6.48
  -2   4  -7  247.82   11.36
  -2   6  -6  352.82   11.39
  -3   5  -8  133.12   10.32
  -3  10  -5  233.23    7.08
   0  -9  -4   -5.26    3.24
   0  -1  -4   -6.46    3.43
   0 -11  -3   -3.64    3.31
   0 -12  -2  343.57    9.64
  -1  -9  -7    8.69    7.59
  -1  -8  -7   88.47    9.57
  -1  -2  -7  349.35   14.72
  -1   2  -6   42.33    5.50
  -1   4  -5  269.78    9.17
  -1 -16  -4   36.75    6.85
  -1 -17  -2   -1.15    4.01
  -1 -17  -1   12.36    3.58
  -2   1  -8    8.75    6.04
  -3   9  -6    3.03    3.91
   0  -7  -5   -6.58    4.55
   0  -6  -5  164.79    9.20
   0  -5  -5   -3.71    4.12
   0  -4  -5 1003.68   19.92
   0 -10  -4   75.99    6.60
   0 -12  -1  176.98    5.95
  -1 -10  -7  203.84   13.45
  -1  -1  -7    1.13    4.79
  -1 -13  -6   24.26    6.81
  -1 -15  -5    8.87    6.13
  -1 -17  -3   11.71    5.35
  -2  -4  -9  127.21   12.63
  -2  -3  -9   28.42    8.79
  -2   2  -8   83.47    9.07
  -2   5  -7   18.57    5.76
  -3   6  -8  139.45   10.19
   0  -9  -5   -5.72    4.79
   0  -8  -5  625.02   16.94
   0  -3  -5    0.57    3.68
   0 -11  -4    1.00    3.99
   0   0  -4 6140.65   39.43
   0 -12  -3  129.48    7.23
   0   1  -3   -3.21    2.08
  -1 -11  -7   25.38    7.51
  -1   0  -7   -0.99    4.34
  -1 -14  -6  133.22   11.04
  -1   3  -6   38.78    5.20
  -2  -2  -9  110.12   11.42
  -2   3  -8    4.11    6.17
  -2   8  -5  254.06    7.89
   0 -10  -5  432.66   14.90
   0  -2  -5  916.90   18.22
   0 -12  -4  493.98   14.68
   0 -13  -2    0.81    3.49
  -1  -7  -8   20.96    8.48
  -1  -6  -8  151.36   12.55
  -1  -5  -8   31.29    8.51
  -1  -4  -8   -1.83    6.66
  -1 -12  -7   42.71    8.58
  -1   1  -7    5.49    5.34
  -1 -16  -5  125.20    9.87
  -1 -17  -4    2.23    5.52
  -2  -1  -9    0.32    6.17
  -2   0  -9   -1.33    6.53
   0  -7  -6   -5.16    5.83
   0  -6  -6  780.81   20.30
   0  -5  -6   -0.95    5.44
   0 -11  -5   -3.66    4.94
   0  -1  -5   -3.25    3.06
   0   1  -4   -1.46    3.22
   0 -13  -3   -2.78    3.22
   0 -13  -1   -1.51    2.64
  -1  -9  -8    6.86    7.51
  -1  -8  -8   76.58    9.84
  -1  -3  -8   -2.55    5.82
  -1  -2  -8  137.48   11.41
  -1 -13  -7    0.85    6.74
  -1   5  -5   23.48    3.88
  -1 -18  -3   40.20    6.02
  -2   4  -8   10.73    6.22
  -2   6  -7   48.62    6.46
  -3   7  -8  103.95    8.84
   0  -9  -6   -6.28    5.80
   0  -8  -6  609.06   18.35
   0  -4  -6  210.85   10.72
   0  -3  -6   -4.97    4.51
   0 -12  -5  105.21    8.97
   0   0  -5   -1.47    3.34
   0 -13  -4   -6.66    4.33
  -1 -10  -8   16.35    7.26
  -1  -1  -8    0.51    6.87
  -1   2  -7  328.15   13.07
  -1   4  -6   60.38    5.75
  -2   1  -9    2.32    6.80
   0 -10  -6    2.03    5.84
   0  -2  -6   43.56    5.86
   0 -14  -3   20.14    4.77
   0   2  -3 2431.48   19.74
   0 -14  -2  413.88   10.70
  -1   0  -8  392.62   16.35
  -1   3  -7   43.82    6.72
  -2   2  -9   95.51   10.24
   0  -6  -7   81.14    9.33
   0 -11  -6   -2.43    5.68
   0  -1  -6   -4.70    3.81
   0 -13  -5   -4.11    4.95
   0   1  -5   -0.97    3.26
   0 -14  -4  502.09   15.04
   0   2  -4  697.98   12.80
  -1  -6  -9   11.50    8.29
  -1  -5  -9   -0.72    7.68
  -1   1  -8    2.69    6.13
  -2   3  -9   30.47    7.99
  -2   5  -8   59.28    7.41
   0  -9  -7   -1.71    6.89
   0  -8  -7  240.18   13.33
   0  -7  -7   -0.95    5.85
   0  -5  -7    1.52    5.62
   0  -4  -7  467.05   16.65
   0  -3  -7   -1.16    5.95
   0 -12  -6  128.99   10.41
   0   0  -6 1037.87   20.77
   0 -14  -5    6.30    5.75
   0 -15  -3   -7.02    4.55
   0 -14  -1   18.34    3.29
  -1  -4  -9  120.36   11.45
  -1  -3  -9   24.93    8.37
  -1   5  -6   27.47    4.55
  -2   7  -7    5.18    4.84
   0 -10  -7  222.35   13.48
   0  -2  -7  410.85   15.53
   0 -13  -6   -0.75    6.01
   0   2  -5  911.23   16.60
   0 -15  -4   -5.17    5.17
   0 -15  -2   -2.03    3.55
  -1  -2  -9  149.88   11.94
  -1  -1  -9    5.18    7.32
  -1   2  -8  135.38   10.20
  -1   4  -7  193.07    9.89
  -2   4  -9  140.37   11.00
  -2   6  -8  124.41    9.36
  -2   9  -5   10.66    3.13
   0 -12  -7   51.18    8.67
   0 -11  -7   -0.24    5.99
   0  -1  -7   -5.71    5.20
   0 -14  -6  164.82   11.59
   0   1  -6   -0.83    4.07
   0 -15  -5   -0.30    5.81
   0   3  -3   -0.30    2.07
  -1   0  -9   -2.11    6.63
   0  -9  -8   -6.53    7.01
   0  -8  -8  127.48   11.69
   0  -7  -8    1.93    6.43
   0  -6  -8  170.91   12.24
   0  -5  -8   -4.55    5.77
   0  -4  -8    8.66    7.11
   0   0  -7   -4.63    4.88
   0 -16  -4    5.12    5.56
   0   3  -4   -0.45    2.39
   0 -16  -3  436.18   12.73
  -1   1  -9   -0.91    6.39
  -1   3  -8    1.03    5.21
  -1   5  -7    7.14    4.98
  -1   6  -6  644.64   14.29
  -1   7  -4  133.29    4.90
   1  -8  -4  219.46    9.32
   1  -7  -4  132.40    7.50
   1  -6  -4  562.70   13.85
   1  -7  -3    3.58    2.97
   1  -6  -3  323.61    9.37
   0 -10  -8   12.94    6.80
   0  -3  -8    0.11    5.81
   0  -2  -8  161.07   11.68
   0 -13  -7    0.59    5.66
   0 -15  -6   -2.34    5.94
   0   2  -6   45.37    5.49
   0 -16  -5  255.45   12.48
   0   3  -5    0.81    3.20
   0 -16  -2    7.48    3.80
   0 -15  -1    0.02    2.81
  -2   7  -8   29.42    6.64
   1  -8  -5  171.43    9.53
   1  -7  -5   -1.34    4.08
   1  -6  -5  124.26    8.16
   1  -5  -5   23.26    4.96
   1  -9  -4   29.37    4.79
   1  -5  -4  294.04    9.98
   1  -4  -4   14.11    3.89
   1  -9  -3   55.00    5.01
   1  -8  -3  250.56    8.62
   1  -5  -3   42.79    3.99
   0  -1  -8    3.34    6.99
   0   1  -7   -2.95    4.69
  -1   2  -9  147.74   11.40
  -1   4  -8    1.84    5.20
  -2   9  -6    9.07    3.61
   1 -10  -5  355.63   13.33
   1  -9  -5   24.48    5.23
   1  -4  -5  269.40   10.54
   1 -10  -4   82.57    6.47
   1  -3  -4    1.84    2.91
   1 -10  -3  536.91   12.76
   1  -4  -3  324.80    8.91
   1  -7  -2   48.08    4.14
   1  -6  -2 2489.76   21.32
   0  -6  -9   28.75    8.73
   0  -5  -9   -6.09    7.11
   0  -4  -9  198.21   13.80
   0   2  -7  376.67   13.61
   0   3  -6   -3.52    3.30
   0 -17  -4   -1.34    4.92
   0 -17  -3   -2.39    4.33
   1  -9  -6   -5.89    5.51
   1  -8  -6  370.98   14.32
   1  -7  -6   13.84    5.45
   1  -6  -6  617.74   17.66
   1  -5  -6   32.31    5.93
   1  -4  -6   61.97    7.07
   1 -11  -5   50.32    6.78
   1  -3  -5  159.44    8.36
   1 -11  -4    4.82    3.82
   1  -2  -4  565.34   12.89
   1 -11  -3  107.87    6.62
   1  -3  -3  480.45   10.52
   1  -9  -2   -3.24    2.51
   1  -8  -2 1057.80   14.57
   1  -5  -2  262.99    7.11
   0  -3  -9    0.68    7.08
   0   4  -5 1026.01   16.63
   0   4  -4   23.93    3.07
  -1   3  -9   22.48    6.97
  -1   5  -8   42.01    6.89
  -1   6  -7   56.49    6.08
   1  -8  -7   88.86    9.47
   1  -7  -7   -0.07    6.14
   1  -6  -7   50.07    8.02
   1 -11  -6   17.91    6.36
   1 -10  -6    0.80    5.00
   1  -3  -6   32.38    5.90
   1 -12  -5   94.67    8.17
   1  -2  -5  748.44   16.40
   1 -12  -4  142.83    8.30
   1  -2  -3 1834.04   19.71
   1 -10  -2    6.85    2.74
   1  -4  -2  161.20    5.53
   0  -2  -9  175.49   12.40
   0  -1  -9   -1.68    6.60
   0   1  -8   -3.33    5.94
   0 -17  -2    1.73    3.47
  -2   8  -8   77.38    7.22
   1 -10  -7  201.56   12.75
   1  -9  -7   16.66    7.12
   1  -5  -7   11.47    5.90
   1  -4  -7  203.57   11.92
   1 -12  -6   35.47    7.09
   1  -2  -6   39.81    6.06
   1 -13  -5    1.77    5.13
   1  -1  -5   14.10    4.17
   1 -13  -4   13.19    5.23
   1  -1  -4   39.94    4.61
   1 -12  -3  131.69    6.93
   0   2  -8  156.08   10.47
   0   3  -7   -4.52    4.46
   0   4  -6  208.72    8.97
   0 -18  -3   81.50    6.34
  -1   4  -9  116.74    9.90
   1 -11  -7   32.06    7.91
   1  -3  -7   55.70    7.20
   1 -13  -6   25.00    6.55
   1  -1  -6   87.11    7.40
   1 -13  -3    3.13    3.80
   1 -11  -2   57.11    4.27
   1  -3  -2  453.12    8.59
   0   0  -9   -1.96    5.66
  -1   6  -8  160.03    9.83
  -1   7  -7    1.18    4.05
  -2  10  -5  227.90    5.84
   1 -10  -8   12.92    7.13
   1  -9  -8    4.17    6.85
   1  -8  -8   80.17    9.42
   1  -7  -8   28.00    7.45
   1  -6  -8  161.12   11.73
   1  -5  -8   37.21    8.05
   1  -4  -8   -1.31    6.28
   1 -12  -7   47.17    8.09
   1  -2  -7  334.11   13.67
   1 -14  -6  133.58   10.36
   1 -14  -5   18.80    5.74
   1   0  -5   -0.41    3.24
   1 -14  -4  362.84   12.56
   1   0  -4 1899.67   22.11
   1  -1  -3   49.94    3.84
   1 -12  -2   24.93    3.64
   0   1  -9   -1.01    6.45
   0   3  -8   -2.12    5.00
   0   4  -7  454.07   14.09
   0   5  -5    1.77    3.05
  -1   8  -5  168.16    6.08
   1  -3  -8    0.13    6.21
   1 -13  -7   -3.36    5.72
   1  -1  -7    9.37    5.53
   1   0  -6  347.66   12.23
   1 -15  -5    8.55    5.67
   1 -14  -3   41.99    5.32
   0   2  -9  168.77   11.58
   0   5  -6    1.67    3.79
   0   5  -4    0.27    2.27
  -2  10  -6    0.86    2.82
   1  -6  -9   19.77    8.20
   1  -5  -9    7.81    7.34
   1  -2  -8  145.49   11.04
   1   0  -7   -0.93    4.92
   1   1  -5   15.22    3.89
   1 -15  -4   -1.76    4.82
   1   0  -3   -1.06    2.26
   1 -13  -2   78.11    5.02
   1  -2  -2    5.36    1.87
   1  -9  -1   76.59    3.90
   1  -8  -1  361.68    7.04
  -1   6  -9   22.74    6.32
  -1   7  -8   27.13    6.22
   1  -4  -9  121.62   11.44
   1  -3  -9   25.85    8.03
   1  -1  -8    7.39    6.54
   1   1  -6   82.76    6.60
   1 -16  -5  130.15    9.34
   1   1  -4   38.63    4.18
   1 -15  -3   12.77    4.60
   0   3  -9    0.36    6.14
   0   4  -8    7.48    5.29
   0   5  -7    0.81    4.07
   1  -2  -9  158.14   12.24
   1   0  -8  400.96   15.93
   1   1  -7    7.57    5.22
   1 -16  -4   32.32    5.86
   1 -10  -1  699.85    9.91
   1  -1  -9    4.66    6.79
   1   2  -6   45.90    5.13
   1   2  -5  727.29   14.79
   1 -14  -2  282.48    8.34
   1  -1  -2  726.21   10.07
   1 -11  -1  143.24    4.92
   0   4  -9  188.72   11.38
   0   5  -8    2.01    4.94
   0   6  -5  155.46    6.42
   2  -9  -6    9.23    6.03
   2  -8  -6  267.27   12.57
   2  -7  -6    1.00    4.62
   2  -6  -6  352.58   13.85
   2  -9  -5    9.91    5.08
   2  -8  -5  256.58   11.14
   2  -7  -5    3.46    4.49
   2  -6  -5   76.54    6.99
   1   0  -9    0.21    6.22
   1   1  -8    7.61    5.54
   1   2  -7  323.71   12.42
   1 -17  -4    0.49    4.57
   1   2  -4  574.82   11.71
   1 -16  -3  205.37    8.61
   1   1  -3   49.95    3.53
   0   6  -7   89.93    7.02
  -1   8  -8   83.16    7.10
   2 -10  -7  137.01   10.97
   2  -9  -7   13.83    6.27
   2  -8  -7  119.42    9.78
   2  -7  -7    4.61    5.60
   2  -6  -7   42.01    7.19
   2  -5  -7   15.42    6.71
   2 -11  -6   28.81    6.62
   2 -10  -6    1.12    4.76
   2  -5  -6    4.93    4.59
   2  -4  -6   78.03    7.53
   2 -11  -5   31.76    5.96
   2 -10  -5  254.58   11.26
   2  -5  -5   48.36    5.68
   2  -4  -5  501.66   14.23
   2  -9  -4  152.63    8.02
   2  -8  -4  293.66   10.53
   2  -7  -4   38.83    5.00
   2  -6  -4  343.65   11.02
   1   2  -8  137.03    9.94
   1   3  -6   35.92    4.90
   1   3  -5  150.02    7.09
   1 -12  -1  189.24    5.48
  -1   9  -6    0.24    3.09
   2  -9  -8   32.42    7.87
   2  -8  -8   82.33    9.76
   2  -7  -8   28.07    7.28
   2  -6  -8  128.71   11.01
   2  -5  -8   54.18    8.73
   2 -12  -7   34.88    7.25
   2 -11  -7   29.49    7.32
   2  -4  -7  281.75   13.18
   2  -3  -7   57.04    7.92
   2 -12  -6   86.35    8.60
   2  -3  -6   24.55    5.15
   2 -12  -5   66.35    7.05
   2  -3  -5   97.21    7.13
   2 -11  -4   -4.10    3.94
   2 -10  -4    6.80    3.91
   2  -5  -4  204.38    8.50
   1   1  -9    1.57    6.13
   1   3  -7   49.05    6.38
   1 -15  -2   15.20    3.63
   0   5  -9    3.74    5.45
   0   6  -8  168.17    9.62
  -1   9  -5   26.08    3.15
   2  -4  -8    4.89    5.78
   2  -3  -8   -0.44    5.98
   2  -2  -7  211.68   11.66
   2 -13  -6   62.02    8.04
   2  -2  -6   48.69    6.00
   2 -13  -5   -1.13    5.00
   2  -2  -5  401.51   12.42
   2 -12  -4  246.33   10.21
   2  -4  -4   25.49    3.89
   1   2  -9  153.04   11.04
   1   3  -8   -3.43    4.96
   1   3  -4    4.16    2.56
   1 -17  -3    6.41    4.07
   1   0  -2  728.54    9.75
   0   7  -6    1.47    3.80
   2  -4  -9  134.60   11.64
   2  -2  -8   80.49    9.02
   2  -1  -7   -1.77    5.11
   2 -14  -6  125.01    9.66
   2  -1  -6  112.39    8.04
   2 -14  -5    2.90    5.11
   2  -3  -4   17.20    3.53
   2  -9  -3    6.35    3.41
   2  -8  -3  469.75   11.52
   2  -7  -3   17.55    3.47
   2  -6  -3  181.13    7.28
   1   4  -7  203.16    9.80
   1   4  -6   55.01    5.33
   1   2  -3 1877.58   17.77
   1 -13  -1   11.87    2.63
   0   6  -9   23.60    6.15
   0   7  -7    0.15    4.00
   2  -3  -9   41.01    8.59
   2  -1  -8   -0.31    6.08
   2  -1  -5    6.40    3.84
   2 -13  -4   21.68    4.91
   2  -2  -4  278.18    9.42
   2 -11  -3   53.03    5.12
   2 -10  -3  331.63    9.98
   2  -5  -3   65.10    4.93
   1   3  -9   23.62    6.84
   1   4  -8    3.54    5.34
   1   4  -5  272.64    8.92
   1 -16  -2    7.02    3.16
   0   7  -8    1.93    4.92
   2  -2  -9   99.59   10.15
   2   0  -7   -6.30    4.51
   2   0  -6  521.49   14.80
   2 -15  -5    1.72    5.01
   2 -14  -4  247.82   10.37
   2 -12  -3   82.85    5.86
   2  -4  -3  987.92   15.54
   2  -1  -9   -3.33    5.88
   2   0  -8  360.97   14.80
   2   1  -7    2.06    4.77
   2   0  -5    0.30    2.89
   2  -1  -4   -1.62    3.20
   2  -3  -3  154.17    6.55
   1   4  -9  112.87    9.46
   1   5  -7    7.17    4.15
   1   5  -6   33.20    4.53
   2   0  -9    5.09    6.22
   2   1  -8    8.14    6.22
   2   1  -6  114.32    7.50
   2 -15  -4   -1.45    4.64
   2 -13  -3    2.17    3.48
   1   5  -8   41.30    6.37
   1   4  -4   13.43    2.71
   1 -14  -1   45.77    3.23
   0   8  -7  223.31    8.92
  -1  10  -7  167.55    6.81
   2   1  -9   -1.36    5.65
   2   2  -7  200.21   10.23
   2   1  -5   10.38    3.29
   2   0  -4 1910.21   22.59
   2  -2  -3  786.03   13.42
   2  -8  -2  828.96   12.96
   1   5  -9    1.06    5.36
   1   5  -5   21.40    3.51
   0   8  -8  122.72    7.92
  -1  10  -6    0.79    2.57
   3  -7  -8  105.46   10.33
   3  -6  -8  150.19   11.56
   3 -11  -7  107.92    9.67
   3 -10  -7  127.58   10.44
   3  -9  -7   64.34    8.05
   3  -8  -7   71.24    8.17
   3  -7  -7    3.50    5.32
   3  -6  -7   15.94    5.96
   3  -5  -7   34.19    7.42
   3 -10  -6    1.50    5.23
   3  -9  -6   -1.64    5.33
   3  -8  -6  145.42    9.87
   3  -7  -6   72.89    8.01
   3  -6  -6  307.76   13.21
   2   2  -8   81.56    8.24
   2   2  -6   51.68    5.47
   2 -16  -4    3.43    4.42
   2 -14  -3    8.57    3.77
   2 -10  -2    0.56    2.42
   2  -9  -2   36.02    3.55
   2  -7  -2   66.97    4.33
   2  -6  -2 1005.98   13.89
   1   6  -7   52.35    5.85
   3  -5  -8  145.87   10.92
   3  -4  -8   13.45    7.06
   3 -12  -6   91.61    8.87
   3 -11  -6   55.12    7.40
   3  -5  -6   90.34    7.90
   3  -4  -6   28.34    6.22
   3 -10  -5  250.19   11.17
   3  -9  -5   88.05    7.71
   3  -8  -5  117.62    8.26
   3  -7  -5    2.31    4.58
   3  -6  -5   28.42    5.52
   2   2  -9  105.29    9.57
   2   3  -7   53.10    6.33
   2   2  -5  404.26   11.44
   2  -1  -3   88.69    4.98
   2 -11  -2   56.25    4.18
   2  -5  -2   -0.40    2.30
   1   6  -8  150.65    8.97
   1   6  -6  616.98   13.58
   3  -3  -8   -2.52    5.19
   3  -3  -7  190.86   11.15
   3 -13  -6  104.33    8.79
   3  -3  -6  109.79    8.51
   3 -11  -5  184.81    9.99
   3  -5  -5   63.55    6.60
   2   3  -8    4.74    5.14
   2   3  -6   27.22    4.86
   2   1  -4    1.50    2.61
   2 -15  -3    0.23    3.57
   2 -12  -2  201.65    6.89
   1   6  -9   15.16    5.41
   1   5  -4  309.74    7.87
   3  -2  -8   65.37    7.99
   3  -2  -7  188.93   10.86
   3  -2  -6  111.35    8.44
   3 -12  -5   56.88    6.75
   3  -4  -5  357.65   12.18
   3  -8  -4  233.15    9.58
   2   3  -9   29.20    6.65
   2  -4  -2  350.79    8.02
   1   6  -5  115.42    5.75
   0   9  -8   -1.24    3.95
   3  -1  -8   34.79    6.81
   3  -1  -7   22.55    5.93
   3  -1  -6  262.77   11.33
   3 -13  -5    6.37    4.82
   3  -3  -5  424.85   13.01
   3 -10  -4    1.82    3.75
   3  -9  -4   83.34    6.47
   3  -7  -4  371.31   11.55
   3  -6  -4  569.69   14.14
   2   4  -8    9.34    5.30
   2   4  -7  250.11   10.79
   2   3  -5  101.69    6.17
   2   2  -4  276.65    8.49
   2   0  -3   -0.21    2.33
   2  -3  -2  180.24    5.86
   1   7  -8   26.66    5.63
   1   7  -7    0.55    3.79
   1   4  -3  333.07    7.06
   3   0  -8  178.68   11.35
   3   0  -7   -3.60    5.20
   3 -14  -5   25.13    5.41
   3  -2  -5  371.66   12.04
   3 -11  -4   12.18    4.19
   3  -5  -4  657.10   14.75
   3  -4  -4   55.21    5.46
   2   4  -9  121.78    9.49
   2   4  -6   77.66    6.17
   5   5  -5   55.49    7.02
   5  10  -4   11.76    7.15
   5  13  -3    1.23    8.10
   4   8  -4   69.47    8.13
   3   9  -3  140.96    9.56
   2  11  -1   61.99    7.05
   2  13   0   35.63    7.56
   1   7  -1   11.65    3.64
   0   8   2 2496.55   24.33
   0  10   5  435.62   11.13
   6   8  -5   -2.09    7.29
   5   6  -5    1.66    5.74
   4  12  -3   32.80    8.41
   4  16  -1   31.72    9.87
   3   4  -4   49.15    4.96
   3  12  -2  204.13   12.39
   2   4  -3  939.49   14.71
   2   9  -2   44.24    5.99
   1  10   0  204.80    9.63
   0  10   4   79.27    5.71
   5  11  -4   14.10    7.76
   4   9  -4  178.70   11.24
   2   5  -3   74.05    5.56
   2  12  -1  109.97    9.27
   1  12   1  187.44   10.20
   1  14   4  378.44   14.47
   1  14   6  121.74    9.09
   0   7   1   -4.71    2.65
   0  10   6   -0.12    3.52
   5   7  -5   -0.88    5.99
   3   5  -4  652.07   14.76
   3  10  -3  406.50   15.38
   2  10  -2    1.86    4.62
   2  14   0  386.44   16.31
   1   8  -1  371.60   11.33
   0   9   2   -2.43    2.93
   0  10   3  657.98   14.26
   5   8  -5   13.28    7.22
   5  12  -4   51.62    9.88
   4   1  -5    9.66    3.27
   4   2  -5   51.51    4.97
   4  10  -4    4.60    6.56
   4  13  -3   -0.87    6.52
   3   6  -4  561.12   14.85
   2   6  -3  179.95    8.05
   2  13  -1    1.95    6.04
   1  11   0   14.06    4.63
   0  11   4   -4.70    3.72
   0  11   5    3.19    4.27
   4  16  -2    8.02    9.03
   3   7  -4  374.43   13.20
   3  11  -3  341.28   14.98
   2   7  -3   22.03    4.53
   2  11  -2   62.98    7.74
   1   4  -2  165.40    5.98
   1   9  -1   76.01    6.36
   1  13   1   12.45    5.13
   1  14   2  291.85   13.22
   1  15   4    2.82    5.89
   1  15   5    7.72    5.95
   0   8   1 2203.22   23.96
   0  10   2   -0.88    3.36
   0  11   3   -0.04    4.04
   0  11   6   -1.32    3.97
   5   9  -5   66.97    9.29
   4   5  -5  148.13    8.71
   4  11  -4   24.24    7.76
   4  14  -3    9.28    7.54
   3  12  -3   81.69    9.90
   3  16  -1  158.47   13.37
   1   5  -2  265.43    8.25
   1  12   0  190.52   10.77
   0   5   0   -3.07    2.14
   4   6  -5    2.23    4.93
   3   8  -4  256.30   11.60
   2   8  -3  461.92   14.06
   2  12  -2  209.48   12.48
   1   6  -2 2491.41   25.88
   1  10  -1  697.53   17.32
   1  14   1   50.96    7.87
   0   9   1   -3.55    3.48
   0  12   4  490.79   13.89
   0  12   5  106.08    7.43
   4   7  -5   20.40    6.16
   4  12  -4   26.95    8.33
   4  15  -3   30.86    8.88
   3   9  -4   92.16    8.46
   3  13  -3    6.56    7.62
   3  17  -1   58.46   10.44
   2   9  -3    7.93    5.12
   1  13   0   35.88    7.40
   1  16   4   25.15    7.08
   0   6   0 1141.97   15.43
   0  11   2   -2.88    3.69
   0  12   3  126.20    8.16
   5  11  -5  123.78   11.83
   4   8  -5   16.87    6.90
   4  13  -4  120.88   12.19
   2  13  -2  132.00   11.26
   1   7  -2   46.64    5.11
   1  11  -1  156.02    9.51
   1  15   1   24.62    7.46
   0   7   0   -1.07    3.13
   0  10   1  956.34   18.42
   0  12   6  130.83    7.41
   3  10  -4    6.81    6.07
   3  14  -3   40.03    9.67
   2  10  -3  327.01   13.70
   1   8  -2 1078.85   19.84
   1  12  -1  202.96   11.46
   1  14   0  549.38   18.95
   1  17   4    0.08    6.92
   0   8   0 1347.92   19.88
   0  12   2  356.87   12.67
   0  13   4   -4.11    5.08
   0  13   5    0.08    4.99
   4   9  -5  109.79    9.81
   4  14  -4   18.55    9.22
   3  11  -4    7.01    6.89
   2  11  -3   53.38    7.86
   2  16  -1  285.60   16.68
   1   9  -2   -4.33    4.01
   1  17   3    9.94    7.29
   0  11   1   -2.00    3.94
   0  13   3    1.21    4.31
   5   4  -6    3.30    4.59
   4  10  -5   49.54    8.56
   3  15  -3   41.34   10.28
   3  17  -2    0.23    7.77
   2  18   0   31.76    9.83
   1  13  -1    5.88    6.30
   1  15   0    2.37    7.27
   1  16   1  236.03   14.24
   1  17   2    2.10    7.23
   0   9   0   -4.89    3.59
   0  13   2   -3.21    4.39
   0  14   4  507.13   15.92
   0  13   6   -0.80    4.44
   5   3  -6   26.07    4.90
   5   7  -6   74.51    8.62
   4  11  -5   84.03   10.21
   3  12  -4  148.03   12.12
   2  12  -3   86.23    9.52
   2  17  -1   56.33   10.74
   1  10  -2    6.48    4.14
   1  18   3   46.17    9.33
   0  10   0  199.81    9.46
   0  12   1  184.00    9.93
   0  14   3   14.63    5.60
   0  14   5    7.03    5.53
   5   8  -6    9.26    7.08
   4  12  -5   18.34    8.74
   3  13  -4   53.27   10.08
   3  16  -3  143.52   13.98
   2   5  -4  203.30    8.41
   2   6  -4  361.21   11.69
   2  13  -3   -5.33    6.53
   1  11  -2   60.09    7.46
   1  14  -1   46.23    8.43
   1  16   0   60.19    9.77
   1  18   2  121.14   12.01
   0  14   2  400.47   15.03
   5   9  -6   13.86    7.27
   3   5  -5   61.39    6.05
   3   6  -5   32.55    5.64
   3   7  -5   -2.78    4.73
   2   4  -4   26.11    3.90
   2   7  -4   32.01    5.41
   2   8  -4  304.40   12.42
   2  16  -2   -0.26    7.09
   2  18  -1   71.75   11.89
   1  12  -2   24.59    6.71
   0  11   0   -6.11    4.44
   0  13   1   -1.90    4.89
   0  15   3   -1.17    6.22
   0  15   4   -3.09    6.07
   4  13  -5    2.55    7.87
   3   8  -5  111.83    8.94
   3  14  -4  145.28   13.28
   2   9  -4  159.39    9.90
   2  14  -3    6.39    7.81
   1  15  -1   20.40    7.63
   1  17   0    2.89    7.92
   0   5  -1   -4.66    2.60
   0   6  -1  930.59   15.04
   0   7  -1   -8.25    3.35
   0  12   0  867.92   20.73
   0  15   2   -3.61    5.63
   0  15   5   -2.11    5.71
   3   9  -5   76.58    8.41
   3  10  -5  242.67   13.68
   3  15  -4   12.13    9.13
   2  10  -4    5.18    5.75
   2  17  -2   12.38    8.26
   1   5  -3   37.14    4.55
   1   6  -3  310.12   10.15
   1   7  -3    2.81    3.77
   1  13  -2   68.92    8.43
   0   8  -1 2191.61   26.63
   0   9  -1   -8.71    4.17
   0  14   1   22.20    5.85
   0  16   3  426.09   16.82
   0  16   4    4.33    6.76
   3   2  -5  379.56    8.95
   3  11  -5  168.16   12.67
   2  11  -4   -5.96    5.85
   2  15  -3    0.43    7.35
   2  18  -2   56.85   11.50
   1   4  -3  327.11    8.89
   1   8  -3  258.23   10.61
   1   9  -3   51.87    6.57
   1  14  -2  307.97   15.81
   1  16  -1  249.44   15.19
   1  18   0   68.98   10.98
   1  19   1   -1.09    8.02
   0  10  -1  952.20   20.17
   0  13   0    1.23    5.27
   0  15   1   -2.86    6.29
   0  16   2    2.09    6.24
   0  16   5  258.38   12.65
  -1   7   3    4.77    2.44
  -1   8   4  231.83    6.69
   4   7  -6   55.60    7.68
   4   8  -6   16.56    7.25
   4   9  -6   31.46    7.95
   3  12  -5   56.58    9.62
   3  16  -4    1.92    8.41
   2  12  -4  248.51   14.30
   2  16  -3  216.31   16.01
   1  10  -3  534.57   16.79
   1  17  -1   10.80    8.67
   0  11  -1   -5.24    4.59
   0  14   0  845.51   22.82
   0  17   4   -1.53    6.63
  -1   8   3  254.80    7.45
  -1   9   3   53.81    4.75
  -1   9   4   28.10    3.76
   4   4  -6    1.87    4.42
   4  10  -6   -0.92    6.90
   3  13  -5    8.79    8.01
   2  13  -4   21.39    8.75
   1   3  -3  481.54    9.56
   1  11  -3   98.62    8.82
   1  15  -2   11.76    7.54
   0  12  -1  191.77   11.06
   0  16   1  556.28   20.11
   0  17   2   -0.17    6.71
   0  17   3   -2.09    6.61
  -1  10   3  528.63   12.55
  -1  10   4   85.69    5.71
   2  14  -4  275.73   16.48
   2  17  -3   39.42   10.06
   1  12  -3  141.22   10.48
   1  16  -2    5.06    8.49
   1  18  -1   44.98   10.39
   0  13  -1   -0.82    5.70
   0  15   0   -3.10    6.50
  -1   7   2   46.51    4.07
  -1   8   2 1070.92   15.80
  -1   9   2   -5.07    3.17
  -1  11   3  110.41    6.98
  -1   9   5   21.10    3.54
   4   3  -6   23.14    4.46
   3  14  -5   29.72    9.47
   1  13  -3    4.42    5.96
   0  16   0    0.03    7.28
   0  17   1    2.66    7.69
   0  18   2  118.44   11.55
   0  18   3   77.23    9.80
  -1  10   2    5.73    3.47
  -1  11   4    0.79    3.70
  -1  10   5  370.76    9.14
   2  15  -4    1.41    7.59
   1  14  -3   37.35    8.45
   1  17  -2    1.87    7.62
   1  19  -1    1.88    7.80
   0   7  -2   -8.76    3.95
   0   8  -2 2527.22   30.29
   0   9  -2   -2.37    4.42
   0  14  -1   18.80    6.46
  -1  11   2   63.93    5.96
  -1  12   3  136.42    8.10
  -1  12   4  129.33    7.70
   4   2  -6   54.55    4.60
   2   7  -5    3.87    4.89
   2   8  -5  255.65   11.93
   2   9  -5    5.93    5.74
   2  16  -4    4.64    7.92
   1  15  -3   16.73    8.88
   1  18  -2  109.31   13.44
   0   6  -2 3161.78   29.56
   0  10  -2    4.21    4.08
   0  11  -2   -1.00    5.19
   0  15  -1    4.90    6.70
   0  17   0   -6.29    7.27
   0  18   1   89.68   10.63
  -1   7   1   13.08    3.38
  -1   8   1  362.37   10.15
  -1   9   1   78.01    5.91
  -1  10   1  703.07   15.93
  -1  12   2   27.89    5.23
  -1  13   3    4.06    4.78
  -1  13   4   13.75    5.66
  -1  11   5   46.69    4.92
   3   8  -6  132.65    9.88
   3   9  -6   -2.60    6.59
   2   6  -5   83.40    6.85
   2  11  -5   30.13    7.89
   2  12  -5   64.30    9.49
   1   8  -4  220.96   10.65
   1   9  -4   29.69    6.11
   1  16  -3  225.04   16.09
   0   5  -2   -4.33    3.00
   0  12  -2  346.11   14.61
   0  13  -2   -3.15    6.22
   0  16  -1  563.65   21.68
   0  18   0   55.93   10.34
   0  19   1   -2.31    7.49
  -1   6   1  485.25    9.75
  -1  11   1  146.65    8.63
  -1  12   1  196.14   10.42
  -1  13   2   73.50    7.45
  -1  14   3   39.96    6.86
  -1  12   5  104.92    6.72
   3   7  -6   49.04    7.15
   3  10  -6    1.98    6.48
   3  11  -6   49.38    9.06
   3  12  -6   95.23   11.57
   2   5  -5   52.06    5.42
   2  13  -5    0.17    7.57
   1   7  -4  127.32    8.08
   1  10  -4   77.05    7.83
   1  11  -4    4.78    6.32
   1  12  -4  129.77   11.19
   1  17  -3    5.79    9.21
   0  14  -2  426.53   18.05
   0  17  -1   -0.12    8.38
  -1  13   1   15.65    5.72
  -1  14   2  284.90   12.79
  -1  14   4  355.37   13.04
  -1  13   5    4.82    4.63
   3  13  -6  110.98   12.27
   2  14  -5    9.17    8.54
   1   6  -4  559.06   14.11
   1  13  -4   16.68    8.71
   0  15  -2   -3.02    7.74
   0  19   0    0.85    8.41
  -1   9   0   70.29    6.14
  -1  10   0  214.08    9.79
  -1  14   1   40.36    6.98
  -1  15   2   19.99    6.35
  -1  15   3   11.07    6.02
  -1  15   4   -2.43    6.13
   2  15  -5    2.83    8.47
   1   5  -4  304.24   10.06
   1  14  -4  394.93   18.46
   1  18  -3   41.88   10.19
   0   4  -2 1490.83   17.26
   0  16  -2    2.59    8.17
   0  18  -1   91.07   12.01
  -1   8   0  446.51   11.99
  -1  11   0    9.40    4.19
  -1  12   0  172.86   10.15
  -1  15   1   19.96    6.74
  -1  16   2    5.39    6.90
  -1  16   3  208.47   12.55
  -1  14   5   21.26    5.19
   4   8  -7    7.30    6.59
   4   9  -7   72.65    9.33
   1  15  -4   -4.97    7.35
   0   9  -3   -5.57    4.66
   0  10  -3  646.28   18.47
   0  11  -3   -2.84    5.69
   0  12  -3  138.99   10.87
   0  19  -1    0.24    8.38
  -1   7   0  402.42   10.66
  -1  13   0   38.95    7.24
  -1  14   0  585.18   19.17
  -1  16   4   33.99    7.38
  -1  15   5    8.82    5.69
   3   4  -6   25.54    4.73
   1   4  -4   15.52    3.59
   1  16  -4   38.64    9.52
   0   8  -3 1229.02   22.37
   0  13  -3   -3.31    6.44
   0  17  -2   -1.22    7.38
  -1   6   0 1076.20   15.63
  -1  15   0   -0.89    6.97
  -1  16   1  226.59   13.54
  -1  17   2    0.77    6.79
  -1  17   3    5.99    6.58
   1  17  -4    0.11    7.85
   0   7  -3   -5.27    3.32
   0  14  -3   13.51    7.54
   0  15  -3   -2.46    8.74
   0  18  -2  111.19   12.58
  -1   9  -1   78.65    6.88
  -1  10  -1  721.22   17.96
  -1  11  -1  155.84    9.79
  -1  12  -1  182.95   10.92
  -1  16   0   53.64    9.20
  -1  17   1    9.45    7.62
  -1  18   2  112.66   11.44
  -1  18   3   48.71    8.85
  -1  17   4    2.67    6.30
  -1  16   5  130.39    9.24
   2   9  -6    9.78    6.68
   2  10  -6   -6.41    5.76
   2  11  -6   18.76    7.51
   2  12  -6   92.15   10.84
   2  13  -6   63.96   10.49
   1  10  -5  363.58   15.43
   1  11  -5   42.02    8.29
   1  12  -5  105.14   10.89
   0   6  -3  436.14   12.16
  -1   8  -1  378.13   11.89
  -1  13  -1   11.17    5.65
  -1  14  -1   47.70    8.44
  -1  17   0   -0.18    7.42
  -1  18   1   40.16    9.14
   4   5  -7   67.49    6.41
   3   3  -6  103.15    6.00
   2   8  -6  287.64   13.09
   2  14  -6  113.26   12.54
   1   8  -5  166.89    9.91
   1   9  -5   18.30    6.37
   1  13  -5   -0.44    6.65
   1  14  -5   24.60    9.28
   0  17  -3   -2.03    8.93
  -1  15  -1   27.59    8.58
  -1   5   0 1275.68   15.51
  -1  19   1    3.60    8.25
   3   9  -7   50.86    8.51
   3  10  -7  127.36   11.43
   3  11  -7   99.59   10.70
   2   7  -6    1.81    5.32
   1   7  -5   -2.77    4.63
   1  15  -5    7.74    8.01
   1  16  -5  145.12   14.15
   0   5  -3   -1.32    3.22
   0  18  -3   82.18   12.45
  -1   7  -1   12.67    3.53
  -1  16  -1  240.23   14.77
  -1  18   0   58.95   10.29
   3   8  -7   57.19    8.36
   0   9  -4   -2.64    4.73
   0  10  -4   80.02    8.51
   0  11  -4    0.52    5.51
   0  12  -4  494.31   18.60
   0  13  -4  -11.43    6.86
   0  14  -4  521.58   21.30
  -1  10  -2    3.61    4.74
  -1  11  -2   61.60    7.21
  -1  12  -2   26.77    6.31
  -1  13  -2   70.87    9.12
  -1  14  -2  297.42   15.65
  -1  17  -1   13.99    7.85
  -1  19   0   37.21    9.60
   2   6  -6  346.74   12.34
   2   2  -5  380.85    8.51
   1   6  -5  112.42    7.44
   0   8  -4  604.10   16.81
   0  15  -4   -3.56    7.58
   0  16  -4    5.92    9.07
  -1   9  -2   -3.18    3.89
  -1  15  -2   23.38    8.01
  -1  16  -2    6.57    8.27
  -1   6  -1  487.56   11.54
  -1  18  -1   49.63    9.70
   0  17  -4   -3.44    8.64
   0   4  -3 2573.72   24.67
  -1   8  -2 1091.03   20.71
  -1  17  -2    0.98    8.59
  -1  19  -1    2.65    7.48
   1  12  -6   29.19    9.00
   1  13  -6   29.72    9.11
   1   5  -5   19.78    4.51
   0   7  -4   -5.05    3.93
  -1  18  -2  120.23   13.31
   2  12  -7   39.41    9.01
   1  10  -6   -1.38    5.89
   1  11  -6   18.27    7.50
   1  14  -6  137.09   13.21
  -1  11  -3  104.46    9.48
  -1  12  -3  130.84   10.41
  -1  13  -3    0.20    5.92
  -1  14  -3   40.33    8.69
  -1  15  -3   13.35    9.13
  -1   7  -2   50.49    5.44
  -1   5  -1   67.56    4.53
  -2  12   1  102.70    7.98
  -2  13   1   -1.32    4.87
  -2  14   1    9.53    5.82
  -2  11   2   52.28    5.91
  -2  12   2  212.70   10.00
  -2  13   2  128.98    8.84
  -2  14   2  245.02   12.01
  -2  15   2   -0.14    5.89
  -2  12   3   83.47    6.97
  -2  13   3   -0.96    4.57
  -2  14   3    7.97    5.40
   2  10  -7  131.31   10.93
   1   9  -6   -4.23    5.36
   0  11  -5   -1.73    6.65
   0  12  -5  122.17   11.53
   0  13  -5   -0.22    6.74
   0  14  -5   12.50    8.58
   0  15  -5   -6.61    8.62
   0  16  -5  282.66   18.05
   0   6  -4  616.51   15.11
  -1  10  -3  537.97   17.16
  -1  16  -3  212.11   15.13
  -1  17  -3    6.93    9.52
  -2  12   0  384.48   14.51
  -2  13   0   27.38    7.00
  -2  14   0  372.77   15.83
  -2  10   1  431.54   13.10
  -2  11   1   52.86    6.22
  -2  15   1   -4.73    5.88
  -2  16   1  267.75   14.40
  -2  10   2   -1.16    3.51
  -2  16   2   -2.66    5.87
  -2  17   2   13.34    7.52
  -2  11   3   52.99    5.50
  -2  15   3   -2.74    5.96
  -2  16   3  212.86   12.12
   2   9  -7   15.85    7.39
   1   8  -6  321.95   13.76
   0  10  -5  446.63   17.10
  -1   9  -3   66.97    6.93
  -1  18  -3   50.32   11.11
  -1   6  -2 2417.34   27.02
  -2  11   0   -3.52    4.29
  -2  15   0   -1.85    6.67
  -2  16   0    8.83    7.42
  -2  17   1   48.30    9.04
  -2  18   1   58.88   10.10
  -2   9   2   41.50    4.67
  -2  18   2   40.15    8.78
  -2  10   3  331.42    9.89
   2   8  -7  107.14    9.67
   1   4  -5  277.65    9.30
   0   9  -5   -1.96    5.64
   0   5  -4    0.26    3.27
  -1   8  -3  252.06   11.23
  -2  13  -1   -4.52    5.88
  -2  14  -1    7.95    6.91
  -2  15  -1   -3.18    7.24
  -2  10   0   19.28    4.84
  -2  17   0    1.62    7.38
  -2  18   0   31.74    9.06
  -2   9   1    0.42    3.59
   1   7  -6   12.33    5.23
   0   8  -5  619.25   17.77
  -1  12  -4  150.31   12.03
  -1  13  -4    7.22    7.61
  -1  14  -4  385.71   18.51
  -1  15  -4   -5.03    8.19
  -1  16  -4   35.39   10.38
  -1   4  -1  195.73    6.53
  -2  11  -1   60.93    7.33
  -2  12  -1  114.57    9.13
  -2  16  -1  276.95   15.69
  -2  17  -1   52.81   10.54
  -2   9   0  348.96   11.76
  -1  11  -4    3.42    5.56
  -1  17  -4   -1.39    7.97
  -1   7  -3    6.23    3.84
   7   5  -2   85.14   10.66
   7   5   3   55.49    9.02
   5   5  -2  150.30    9.98
   5   5   3   66.69    7.11
   4   2  -5   55.10    6.40
   4   4  -3  144.14    8.96
   4   5  -1  378.40   13.25
   4   5   2  213.34    9.60
   4   4   4   34.02    4.93
   4   2   6   61.00    5.20
   7   6   0    9.56    7.97
   6   3  -5  279.81   15.68
   6   4  -4   14.38    7.77
   6   5  -3  192.70   13.47
   6   6   0   96.76   10.61
   6   6   1    2.33    6.93
   6   4   5   14.70    6.51
   5   4  -4   68.38    8.27
   4   1  -6  289.49   12.06
   3  -2  -7  181.51    7.88
   3   4  -2   97.55    6.44
   3   4   3  676.48   13.13
   7   5  -3   70.74   10.33
   7   6  -1    4.52    7.80
   7   6   2   29.08    8.52
   7   5   4   39.02    8.38
   6   2  -6   19.81    8.20
   6   6  -1    0.89    6.34
   6   6   2   13.52    7.13
   6   5   4  150.91   10.81
   6   3   6    5.35    5.80
   5   0  -7   -0.43    6.33
   5   3  -5  222.81   12.70
   5   5  -3   55.63    8.01
   5   6   0  189.58   11.02
   5   6   1    0.63    5.15
   4   5  -2  208.47   10.55
   2   3  -2  186.42    6.89
   7   6  -2   35.41    9.82
   6   6  -2    9.54    7.93
   5   2  -6   61.13    8.35
   5   6  -1   -1.61    4.67
   5   6   2   41.50    6.64
   5   5   4  200.42   10.56
   5   4   5  112.68    8.19
   5   3   6   31.61    5.54
   4   5   3  256.58   10.14
   3   3  -4   16.70    4.64
   7   6   3    7.59    7.15
   6   4  -5   13.65    8.04
   6   5  -4  158.48   12.83
   6   6   3    1.89    6.08
   5   6  -2   43.92    7.61
   4   3  -5  326.25   12.90
   4   4  -4   30.51    5.89
   4   6   0  196.60   10.15
   3   2  -5  394.82   11.97
   3   4  -3  681.30   15.65
   3   5   0 1578.19   22.43
   3   5   1  116.63    6.55
   2  -1  -6  120.47    5.47
   7   7   1   -1.32    7.73
   6   3  -6   -1.22    7.50
   6   6  -3    3.61    7.66
   6   7   0  299.46   15.70
   6   7   1   29.68    8.20
   5   5  -4  196.17   12.20
   5   6   3    1.92    4.80
   4   5  -3  260.50   11.65
   4   6  -1    4.63    4.66
   4   6   1    4.85    3.78
   3   5  -1  104.91    6.75
   3   5   2  407.09   11.18
   2   4   0   60.82    4.40
   7   7  -1   -0.37    7.00
   7   7   2  165.87   13.33
   6   7  -1   27.32    7.72
   6   7   2  262.55   14.35
   6   5   5  123.91    9.94
   5   1  -7   21.11    7.13
   5   4  -5  112.35   10.04
   5   6  -3   -1.19    5.83
   5   7   0  290.56   14.00
   4   2  -6   57.20    6.93
   4   6   2   69.57    6.47
   4   4   5  103.79    6.73
   3  -1  -7   26.24    4.80
   2   2  -4  273.09    8.21
   2   3  -3  158.95    6.81
   2   4  -1 1390.69   18.00
   2   4   1 1357.94   16.50
   7   7  -2  172.37   13.98
   6   7  -2  267.93   15.01
   6   6   4   49.69    7.84
   6   4   6    0.23    5.65
   5   3  -6   30.70    7.34
   5   7  -1    0.22    4.98
   5   7   1   -2.03    4.56
   4   6  -2   69.05    7.03
   4   5   4  346.67   11.31
   3   5  -2  394.66   12.17
   3   4   4   55.53    4.36
   3   3   5  442.57    9.28
   6   5  -5  106.31   11.58
   6   7   3   17.27    6.95
   5   7  -2  164.16   11.56
   5   7   2  163.62   10.45
   5   6   4  119.94    9.12
   5   5   5   55.60    6.89
   4   4  -5  106.62    8.80
   4   5  -4  374.73   14.32
   4   6   3    2.59    4.33
   4   3   6   23.26    4.17
   2   4   2  344.96    8.20
   6   4  -6   -1.17    7.31
   6   7  -3   25.85    7.78
   6   8  -1   -0.10    7.32
   6   8   0    7.71    7.67
   6   8   1   -1.50    7.13
   5   2  -7   18.63    7.31
   5   5  -5   54.45    8.31
   5   6  -4  114.78   10.59
   5   4   6    1.67    4.27
   4   1  -7    9.92    5.66
   4   6  -3    5.14    5.19
   4   7   0  269.31   11.95
   3   3  -5  447.28   13.13
   3   4  -4   54.26    5.81
   3   6   0 1184.32   20.43
   3   5   3   83.61    5.47
   2   4  -2  364.65    9.85
   6   8  -2    4.16    7.44
   6   8   2    5.41    7.10
   5   4  -6   -0.33    6.58
   5   7  -3   -0.58    6.46
   5   7   3   -1.19    4.88
   4   3  -6   26.54    6.51
   4   7  -1   60.55    6.81
   4   7   1   62.39    6.35
   3   5  -3   86.88    6.51
   3   6  -1   65.79    6.19
   3   6   1   67.60    5.81
   6   6  -5   -3.33    7.52
   6   7   4  189.80   11.95
   6   6   5    4.35    6.10
   5   8  -1   43.74    7.95
   5   8   0   97.84    9.17
   5   8   1   45.14    7.66
   4   7  -2   70.42    7.73
   4   7   2   67.88    6.61
   3   0  -7   -1.43    4.06
   2   0  -6  530.53   10.49
   6   8  -3   -3.48    7.69
   6   8   3    0.98    6.47
   5   8  -2   16.45    7.41
   5   8   2   15.05    6.16
   3   2  -6  114.95    7.36
   3   6  -2  975.80   19.45
   3   6   2  958.88   17.39
   2   3  -4   17.89    3.65
   6   9  -1  264.78   15.78
   6   9   0   72.29    9.82
   6   9   1  264.23   15.52
   5   3  -7  137.44   11.10
   5   6  -5    2.16    6.55
   5   7  -4  207.56   13.35
   5   7   4  200.62   11.15
   5   6   5    0.82    5.24
   4   2  -7   38.18    6.89
   4   5  -5  148.68    9.93
   4   6  -4  134.53    9.41
   4   6   4  122.98    7.54
   4   5   5  152.92    7.82
   2   4  -3  926.02   15.77
   2   5  -1  135.28    6.60
   2   5   0  520.02   11.45
   2   5   1  130.94    6.03
   2   4   3  949.16   12.72
   6   7  -5    6.94    7.70
   6   9   2   60.21    9.38
   5   5  -6   78.67    9.36
   5   8  -3   27.62    8.22
   5   8   3   31.38    6.89
   4   4  -6    0.47    5.53
   4   7  -3   51.61    6.87
   4   8  -1   14.96    5.68
   4   8   0   95.19    8.47
   4   8   1   19.16    5.55
   4   7   3   44.85    5.77
   3   4  -5  363.46   12.39
   3   5  -4  678.33   16.61
   3   5   4  626.84   12.64
   6   8  -4   -0.43    7.27
   6   8   4   13.53    7.20
   6   7   5   12.85    6.77
   5   9  -1  102.94   10.40
   5   9   0   54.73    8.05
   5   9   1  109.22   10.21
   5   5   6   62.07    6.48
   4   4   6    2.79    3.78
   3   6  -3   47.45    5.51
   3   7  -1   12.56    4.56
   3   6   3   47.96    5.02
   3   4   5  359.72    8.79
   2   5  -2    8.35    3.41
   6   9  -3  187.93   13.85
   6  10   0   11.49    8.38
   6   9   3  208.53   13.37
   5   4  -7   54.51    8.96
   5   9  -2   15.94    7.72
   5   9   2   11.37    6.41
   4   8  -2   26.44    5.95
   4   8   2   25.68    5.38
   3   3  -6  101.18    7.31
   3   7   1   13.36    3.78
   2   5   2    4.07    2.56
   6  10  -1   37.48    8.90
   5   6  -6   24.35    7.97
   5   7  -5    0.87    5.94
   5   8  -4   83.23    9.63
   4   3  -7  173.43   10.63
   4   6  -5    3.76    5.47
   4   7  -4  201.20   11.38
   3   7  -2  159.19    8.81
   6   8  -5    2.60    7.73
   6  10   2    5.87    7.57
   5   9  -3   98.54   10.36
   5   7   5   -0.28    5.45
   4   5  -6   63.15    7.70
   4   8  -3   21.88    5.91
   4   9   0  317.73   13.76
   4   7   4  203.76    9.69
   3   6  -4  551.29   15.62
   3   7   2  164.94    8.28
   2   1  -6  115.55    5.78
   2   4  -4   29.61    4.06
   5   5  -7   29.50    7.94
   5  10  -1   79.95    9.76
   5  10   0   22.19    7.23
   5  10   1   76.92    9.75
   5   9   3  100.97    9.25
   4   9  -1  205.29   11.56
   4   9   1  204.77   11.18
   4   8   3   11.58    4.65
   4   6   5    5.39    4.23
   3   5  -5   73.91    6.76
   3   7  -3   10.92    4.70
   2   3  -5  101.44    5.93
   2   5  -3   79.82    5.51
   2   6  -1  332.47   10.28
   2   6   0  537.84   12.34
   6  10   3   28.57    8.46
   5   8  -5   14.43    7.69
   5   9  -4   41.25    9.11
   5  10  -2   -5.12    6.24
   5  10   2    2.39    6.12
   5   6   6   17.39    5.24
   4   4  -7   58.52    8.32
   4   7  -5   18.45    6.47
   4   8  -4   68.32    8.59
   4   9  -2   90.11    8.64
   3   4  -6   28.87    5.61
   3   8  -1  278.29   11.69
   3   8   0  446.90   13.86
   2   6   1  327.07    9.55
   6  11  -2   78.88   10.83
   5   7  -6   82.68   10.04
   5  10  -3   78.28   10.73
   4   6  -6   47.30    7.79
   4   9  -3  169.69   11.51
   4   9   2  103.31    8.39
   3   8  -2  370.76   13.47
   3   8   1  279.79   10.93
   3   7   3    6.27    3.97
   3   6   4  543.58   12.33
   2   6  -2 1019.54   17.82
   2   5   3   78.41    4.64
   5  11  -1  231.49   14.72
   5  11   0   25.94    8.42
   4  10  -1  102.24    9.63
   4  10   0   15.25    6.45
   4   5   6   71.75    5.49
   3   7  -4  371.90   13.57
   5  11  -2   46.04    9.71
   5  11   1  221.26   13.79
   5  10   3   69.21    8.63
   5   8   5   17.92    6.38
   4  10  -2   -3.01    5.88
   4  10   1  111.38    9.47
   4   9   3  164.23    9.87
   4   8   4   64.38    6.86
   3   6  -5   32.19    5.51
   3   8  -3  202.41   10.72
   3   8   2  374.65   12.26
   3   5   5   66.62    4.87
   2   5  -4  189.26    8.22
   2   6   2 1017.64   15.74
   1   3  -3  474.30    9.12
   1   4  -1  196.96    6.06
   5   8  -6   13.83    7.72
   5  10  -4    9.12    7.10
   5  11   2   48.52    8.37
   4   5  -7   76.50    8.71
   4   8  -5   15.80    6.81
   4   7   5   20.82    5.22
   3   5  -6   94.87    7.91
   3   9  -1  166.72    9.95
   3   9   0  149.22    9.19
   2   4  -5  491.35   12.21
   2   6  -3  166.16    7.82
   2   7  -1   24.07    4.54
   2   7   0   14.12    4.00
   5  11  -3  192.58   13.82
   5   7   6   77.58    7.20
   4   7  -6   54.87    8.07
   4  10  -3   93.63   10.16
   4  10   2   -0.84    5.17
   3   9  -2    5.13    5.11
   3   9   1  160.35    9.19
   2   0  -7   -0.04    2.83
   2   7   1   26.70    4.20
   1   4  -2  160.70    5.87
   5  12  -1   20.37    7.77
   4  11  -1  196.63   12.67
   4  11   0   53.21    8.24
   3   7  -5    4.44    5.21
   3   8  -4  235.69   11.66
   3   8   3  195.13    9.09
   3   7   4  376.07   10.99
   2   7  -2   66.17    5.74
   5   9  -6    7.65    7.52
   5  12  -2  122.14   11.89
   5  12   1   15.99    7.08
   5  11   3  178.31   12.00
   5   9   5   65.98    7.91
   4   6  -7    1.19    6.54
   4  11   1  182.31   11.70
   3   9  -3  139.11    9.77
   3   9   2    1.14    3.93
   2   6  -4  345.95   11.32
   5  12   2  130.91   11.60
   4   8  -6   19.21    7.07
   4  10   3   78.41    7.92
   4   9   4  173.27    9.67
   4   6   6   38.07    4.88
   3   6  -6  284.85   12.11
   3  10  -1  540.82   17.16
   3  10   0   11.38    5.44
   2   5  -5   49.88    5.39
   2   7  -3   24.79    4.63
   2   7   2   70.26    5.46
   2   6   3  181.92    6.81
   4  11  -3  176.29   12.43
   4  11   2  133.51   10.13
   4   8   5   11.88    5.21
   3  10  -2    5.96    5.55
   3  10   1  533.88   16.21
   3   6   5   27.82    4.26
   2   8  -1  713.77   16.23
   2   8   0  540.16   13.86
   1   4  -3  325.04    8.32
   1   5  -1   68.01    4.27
   1   5   0 1305.38   15.78
   5   8   6    5.98    5.18
   4   7  -7   11.82    7.01
   4  12  -1   38.60    7.99
   3   8  -5  120.89    9.18
   2   1  -7   -0.64    3.04
   2   8  -2  835.97   17.93
   2   8   1  696.14   15.27
   2   5   4  192.45    6.05
   1   5  -2  265.14    8.00
   5  10   5   40.65    7.39
   4   9  -6   28.05    7.49
   4  11  -4   26.08    7.42
   3   5  -7   34.84    6.44
   3   7  -6   58.67    7.72
   3  10  -3  408.73   15.51
   3  10   2   12.14    4.73
   3   9   3  128.93    7.92
   3   8   4  226.71    9.37
   2   7  -4   41.98    5.48
   1   5   1   67.00    3.97
   4  12  -3   29.17    7.84
   4  10   4    1.75    4.80
   3  11  -1  463.32   16.38
   3  11   0   25.61    6.46
   2   6  -5   83.90    6.67
   5  14   0    4.58    7.15
   4   8  -7   15.27    6.91
   4  12   2   74.10    8.52
   4   9   5  104.35    8.08
   4   7   6   45.48    5.26
   3  11  -2  140.24   10.10
   3  11   1  460.60   15.83
   2   9  -1    5.13    3.80
   2   8   2  847.47   16.22
   2   7   3   23.09    3.77
   1   2  -5  740.03   10.75
   1   5  -3   43.60    4.10
   5   9   6   13.48    5.63
   4  10  -6   -1.03    6.54
   4  13  -2  327.07   16.51
   3   3  -8   -1.00    3.98
   3   6  -7   13.84    5.83
   3   7   5    4.55    3.85
   2   2  -7  197.64    7.17
   2   9  -2   42.43    5.58
   2   9   1    6.05    3.90
   1   4  -4   16.28    3.18
   1   6  -1  485.54   10.96
   1   6   0 1064.22   15.54
   5  11   5  121.66    9.86
   3   8  -6  132.59    9.67
   3  12  -1  104.32    9.86
   3  11   2  142.36    9.38
   3  10   3  390.23   13.22
   2   5  -6    6.19    4.10
   2   7  -5    4.98    4.50
   2   8  -4  281.20   11.36
   1   6  -2 2445.51   24.89
   5  15  -1   43.08    9.39
   5  15   0   45.89    9.17
   4   9  -7   66.34    9.28
   3  12   0  237.38   12.43
   3   9   4   87.63    6.91
   2  10  -1  455.15   14.66
   2   6   4  334.14    8.29
   1   6   1  494.72   10.34
   1   5   2  263.94    6.75
   5  15   1   37.40    8.49
   4  11  -6   72.55   10.02
   4  14  -2   66.71    9.79
   4  14   0   31.92    8.01
   4  10   5   63.47    7.54
   3   4  -8   11.78    4.81
   3   7  -7    4.98    6.06
   3   9  -6   -1.25    6.14
   2   3  -7   52.04    5.08
   2  10   0   13.43    4.42
   2   9   2   41.76    5.15
   1   6  -3  320.56    9.63
   4  14   1    9.23    6.60
   4   8   6   17.51    4.61
   2   6  -6  348.05   11.72
   2   9  -4  162.65    9.55
   2  10   1  432.48   13.57
   2   8   3  460.31   11.67
   1   5  -4  309.08    9.00
   1   7  -1   14.80    3.34
   1   7   0  397.46   10.49
   3   8   5  118.29    6.85
   2   8  -5  250.81   10.91
   2  10  -3  330.36   13.03
   1   7  -2   53.58    4.92
   4  15  -2   29.15    8.39
   4  15   0    2.80    6.67
   3   8  -7   60.51    8.04
   3  10  -6    4.01    6.60
   3  10   4    6.25    4.80
   2   4  -7  258.88    9.12
   2  11  -1   54.97    6.64
   4  11   5   98.59    8.58
   2   7  -6    0.90    4.86
   2  10  -4    9.12    5.40
   2   7   4   33.74    3.80
   1   6  -4  581.75   12.97
   1   7  -3    6.19    3.47
   1   8  -1  372.18   11.25
   1   7   1   12.40    3.32
   1   6   2 2438.87   21.53
   3  14  -1   49.83    8.52
   2   9  -5    8.70    5.17
   2  11  -3   44.96    6.58
   2  11   1   57.98    6.69
   2   9   3   11.14    3.84
   1   8  -2 1078.65   18.98
   1   8   0  449.87   11.92
   4  16  -2    7.12    7.65
   4  16   0    4.63    6.86
   3   9  -7   63.10    8.25
   3  11  -6   46.03    8.28
   0   0   0    0.00    0.00
_computing_structure_solution     'SHELXT 2018/2 (Sheldrick, 2018)'
;
_shelx_hkl_checksum              86738
_shelx_res_file
;
TITL decmfasp_a.res in Pbcm
    DecMfAsp.res
    created by SHELXL-2018/3 at 18:35:10 on 30-Jun-2018
CELL 0.56083 4.9045 11.7945 5.8231 90 90 90
ZERR 4       0.0003  0.0005 0.0002  0  0  0
LATT 1
SYMM -X,-Y,0.5+Z
SYMM -X,0.5+Y,0.5-Z
SYMM +X,0.5-Y,-Z
SFAC H N O V
UNIT 16 4 12 4
TEMP 22
SIZE 0.320  0.093  0.089
OMIT 1 2 2
L.S.  20
FMAP 2
PLAN  20
BOND $H
CONF
HTAB
LIST 4
ACTA
EQIV $3 -x+1, y+1/2, -z+1/2
EQIV $4 -x+2, y+1/2, -z+1/2
EQIV $5 x+1, -y+1/2, z-1/2
HTAB N1 O1_$3
HTAB N1 O2_$3
HTAB N1 O2_$4
HTAB N1 O1_$5
HTAB N1 O3
WGHT    0.024800    0.023000
FVAR       0.86575
N1    2    0.935470    0.412861    0.250000    10.50000    0.02195    0.01763 =
         0.03662    0.00000    0.00000   -0.00217
H1    1    0.796086    0.456219    0.250000    10.50000    0.04677
H2    1    1.070761    0.458052    0.250000    10.50000    0.02316
H3    1    0.946573    0.378679    0.137361    11.00000    0.06941
V1    4    0.464399    0.174372    0.250000    10.50000    0.01423    0.01304 =
         0.01082    0.00000    0.00000   -0.00023
O1    3    0.130485    0.169271    0.250000    10.50000    0.01584    0.02555 =
         0.03242    0.00000    0.00000    0.00018
O2    3    0.576978    0.042199    0.250000    10.50000    0.02266    0.01602 =
         0.02911    0.00000    0.00000    0.00311
O3    3    0.581975    0.250000    0.000000    10.50000    0.02345    0.02357 =
         0.01386    0.00500    0.00000    0.00000
HKLF 4
REM  decmfasp_a.res in Pbcm
REM wR2 = 0.0420, GooF = S = 1.130, Restrained GooF = 1.130 for all data
REM R1 = 0.0144 for 754 Fo > 4sig(Fo) and 0.0190 for all 846 data
REM 40 parameters refined using 0 restraints
END
WGHT      0.0248      0.0230
REM Instructions for potential hydrogen bonds
HTAB N1 O1_$3
HTAB N1 O2_$3
HTAB N1 O2_$4
HTAB N1 O1_$5
HTAB N1 O3
REM Highest difference peak  0.325,  deepest hole -0.354,  1-sigma level  0.067
Q1    1   0.2526  0.1927  0.2500  10.50000  0.05    0.32
Q2    1   0.5675  0.0984  0.2500  10.50000  0.05    0.29
Q3    1   0.2663  0.1439  0.2500  10.50000  0.05    0.24
Q4    1   0.5443 -0.0155  0.2500  10.50000  0.05    0.24
Q5    1   0.6198  0.1733  0.2500  10.50000  0.05    0.22
Q6    1   0.5259  0.0631  0.1850  11.00000  0.05    0.20
Q7    1   0.5489  0.2951  0.2500  10.50000  0.05    0.19
Q8    1   0.5094  0.2347  0.0910  11.00000  0.05    0.19
Q9    1   0.5092  0.2807  0.0210  11.00000  0.05    0.18
Q10   1   0.4220  0.3481  0.2500  10.50000  0.05    0.18
Q11   1   0.6395  0.0556  0.1832  11.00000  0.05    0.17
Q12   1   0.1534  0.1205  0.2500  10.50000  0.05    0.17
Q13   1   0.9017  0.3563  0.1286  11.00000  0.05    0.15
Q14   1   0.4181  0.2213  0.2500  10.50000  0.05    0.14
Q15   1   0.9892  0.2500  0.0000  10.50000  0.05    0.14
Q16   1   0.5908  0.0278  0.0111  11.00000  0.05    0.13
Q17   1   0.0090  0.1297  0.2500  10.50000  0.05    0.13
Q18   1   0.9139  0.3107 -0.0250  11.00000  0.05    0.12
Q19   1   1.0805  0.2937 -0.0055  11.00000  0.05    0.12
Q20   1   1.1841  0.5407  0.2500  10.50000  0.05    0.12
;
_shelx_res_checksum              7506
loop_
_space_group_symop_operation_xyz
'x, y, z'
'-x, -y, z+1/2'
'-x, y+1/2, -z+1/2'
'x, -y+1/2, -z'
'-x, -y, -z'
'x, y, -z-1/2'
'x, -y-1/2, z-1/2'
'-x, y-1/2, z'
loop_
_atom_site_type_symbol
_atom_site_label
_atom_site_fract_x
_atom_site_fract_y
_atom_site_fract_z
_atom_site_U_iso_or_equiv
_atom_site_adp_type
_atom_site_calc_flag
_atom_site_occupancy
N N1 0.9355(2) 0.41286(10) 0.250000 0.0254(2) Uani d 1
H H1 0.796(5) 0.4562(18) 0.250000 0.047(6) Uiso d 1
H H2 1.071(4) 0.4581(16) 0.250000 0.023(5) Uiso d 1
H H3 0.947(3) 0.379(2) 0.137(4) 0.069(6) Uiso d 1
V V1 0.46440(4) 0.17437(2) 0.250000 0.01270(5) Uani d 1
O O1 0.1305(2) 0.16927(8) 0.250000 0.02460(18) Uani d 1
O O2 0.57698(19) 0.04220(7) 0.250000 0.02260(17) Uani d 1
O O3 0.58198(18) 0.250000 0.000000 0.02029(16) Uani d 1
loop_
_atom_site_aniso_label
_atom_site_aniso_U_11
_atom_site_aniso_U_22
_atom_site_aniso_U_33
_atom_site_aniso_U_12
_atom_site_aniso_U_13
_atom_site_aniso_U_23
N1 0.0219(5) 0.0176(4) 0.0366(6) -0.0022(4) 0.000 0.000
V1 0.01423(9) 0.01304(8) 0.01082(7) -0.00023(6) 0.000 0.000
O1 0.0158(4) 0.0255(4) 0.0324(5) 0.0002(3) 0.000 0.000
O2 0.0227(4) 0.0160(4) 0.0291(4) 0.0031(3) 0.000 0.000
O3 0.0235(4) 0.0236(4) 0.0139(3) 0.000 0.000 0.0050(3)
loop_
_atom_type_symbol
_atom_type_description
_atom_type_scat_dispersion_real
_atom_type_scat_dispersion_imag
_atom_type_scat_source
H H 0.0000 0.0000 'International Tables Vol C Tables 4.2.6.8 and 6.1.1.4'
N N 0.0030 0.0019 'International Tables Vol C Tables 4.2.6.8 and 6.1.1.4'
O O 0.0056 0.0036 'International Tables Vol C Tables 4.2.6.8 and 6.1.1.4'
V V 0.2276 0.3376 'International Tables Vol C Tables 4.2.6.8 and 6.1.1.4'
loop_
_exptl_crystal_face_index_h
_exptl_crystal_face_index_k
_exptl_crystal_face_index_l
_exptl_crystal_face_perp_dist
2 6 -5 0.0491
-2 -5 4 0.0438
6 -3 -1 0.1449
-9 4 2 0.1751
-11 0 4 0.0323
7 0 -2 0.0563
loop_
_geom_angle_atom_site_label_1
_geom_angle_atom_site_label_2
_geom_angle_atom_site_label_3
_geom_angle_site_symmetry_3
_geom_angle
H1 N1 H2 . 104(2)
H1 N1 H3 . 111.7(15)
H2 N1 H3 . 105.8(15)
H1 N1 H3 6_556 111.7(15)
H2 N1 H3 6_556 105.8(15)
H3 N1 H3 6_556 116(4)
O1 V1 O2 . 107.40(5)
O1 V1 O3 . 109.75(3)
O2 V1 O3 . 111.08(2)
O1 V1 O3 6_556 109.75(3)
O2 V1 O3 6_556 111.08(2)
O3 V1 O3 6_556 107.77(3)
V1 O3 V1 7_565 142.68(5)
loop_
_geom_bond_atom_site_label_1
_geom_bond_atom_site_label_2
_geom_bond_site_symmetry_2
_geom_bond_distance
N1 H1 . 0.85(2)
N1 H2 . 0.85(2)
N1 H3 . 0.77(2)
N1 H3 6_556 0.77(2)
V1 O1 . 1.6388(10)
V1 O2 . 1.6538(9)
V1 O3 . 1.8021(3)
V1 O3 6_556 1.8021(3)
loop_
_geom_hbond_atom_site_label_D
_geom_hbond_atom_site_label_H
_geom_hbond_atom_site_label_A
_geom_hbond_site_symmetry_A
_geom_hbond_distance_DH
_geom_hbond_distance_HA
_geom_hbond_distance_DA
_geom_hbond_angle_DHA
_geom_hbond_publ_flag
N1 H1 O2 3_655 0.85(2) 2.09(3) 2.9400(16) 172(2) yes
N1 H2 O2 3_755 0.85(2) 1.99(2) 2.8364(15) 171.1(18) yes
N1 H3 O3 . 0.77(2) 2.48(2) 2.9690(12) 122.9(17) yes
N1 H3 O1 7_665 0.77(2) 2.49(2) 3.2141(7) 156(2) yes
loop_
_geom_torsion_atom_site_label_1
_geom_torsion_atom_site_label_2
_geom_torsion_atom_site_label_3
_geom_torsion_atom_site_label_4
_geom_torsion_site_symmetry_1
_geom_torsion_site_symmetry_4
_geom_torsion
O1 V1 O3 V1 . 7_565 1.91(3)
O2 V1 O3 V1 . 7_565 120.53(3)
O3 V1 O3 V1 6_556 7_565 -117.57(3)

_cod_database_fobs_code 1549780
