#------------------------------------------------------------------------------
#$Date: 2018-03-28 08:27:17 +0300 (Wed, 28 Mar 2018) $
#$Revision: 207160 $
#$URL: file:///home/coder/svn-repositories/cod/cif/1/54/91/1549173.cif $
#------------------------------------------------------------------------------
#
# This file is available in the Crystallography Open Database (COD),
# http://www.crystallography.net/. The original data for this entry
# were provided by IUCr Journals, http://journals.iucr.org/.
#
# The file may be used within the scientific community so long as
# proper attribution is given to the journal article from which the
# data were obtained.
#
data_1549173
loop_
_publ_author_name
'Ravichandran, K.'
'Ranjith, S.'
'Sankari, S.'
'Beemarao, M.'
'Ponnuswamy, M. N.'
_publ_section_title
;
 4-(4-Chlorophenyl)-1,2,3-selenadiazole
;
_journal_coeditor_code           BV4014
_journal_issue                   3
_journal_name_full               IUCrData
_journal_page_first              x180462
_journal_paper_doi               10.1107/S2414314618004625
_journal_volume                  3
_journal_year                    2018
_chemical_formula_iupac          'C8 H5 Cl N2 Se'
_chemical_formula_moiety         'C8 H5 Cl N2 Se'
_chemical_formula_sum            'C8 H5 Cl N2 Se'
_chemical_formula_weight         243.55
_chemical_name_systematic
;
4-(4-Chlorophenyl)-1,2,3-selenadiazole
;
_space_group_crystal_system      monoclinic
_space_group_IT_number           14
_space_group_name_Hall           '-P 2ybc'
_space_group_name_H-M_alt        'P 1 21/c 1'
_symmetry_space_group_name_Hall  '-P 2ybc'
_symmetry_space_group_name_H-M   'P 1 21/c 1'
_atom_sites_solution_hydrogens   geom
_audit_creation_method           SHELXL-2018/1
_cell_angle_alpha                90
_cell_angle_beta                 97.320(3)
_cell_angle_gamma                90
_cell_formula_units_Z            4
_cell_length_a                   10.3353(9)
_cell_length_b                   14.0058(12)
_cell_length_c                   5.9540(4)
_cell_measurement_reflns_used    1286
_cell_measurement_temperature    296(2)
_cell_measurement_theta_max      26.61
_cell_measurement_theta_min      1.99
_cell_volume                     854.84(12)
_computing_cell_refinement
;
<i>SAINT</i> (Bruker, 2008)
;
_computing_data_collection
;
<i>APEX2</i> (Bruker, 2008)
;
_computing_data_reduction
;
<i>SAINT</i> (Bruker, 2008)
;
_computing_molecular_graphics
;
<i>ORTEP-3 for Windows</i> (Farrugia, 1997)
;
_computing_publication_material
;
<i>SHELXL97</i> (Sheldrick, 2008) and
<i>PLATON</i> (Spek,
2009)
;
_computing_structure_refinement
;
SHELXL2018/1 (Sheldrick, 2015)
;
_computing_structure_solution
;
<i>SHELXS97</i> (Sheldrick, 2008)
;
_diffrn_ambient_temperature      296(2)
_diffrn_measured_fraction_theta_full 0.996
_diffrn_measured_fraction_theta_max 0.994
_diffrn_measurement_device_type  'Bruker SMART APEXII CCD'
_diffrn_measurement_method       '\w and \f scans'
_diffrn_radiation_type           MoK\a
_diffrn_radiation_wavelength     0.71073
_diffrn_reflns_av_R_equivalents  0.0416
_diffrn_reflns_limit_h_max       12
_diffrn_reflns_limit_h_min       -13
_diffrn_reflns_limit_k_max       17
_diffrn_reflns_limit_k_min       -17
_diffrn_reflns_limit_l_max       7
_diffrn_reflns_limit_l_min       -6
_diffrn_reflns_number            11618
_diffrn_reflns_theta_full        25.242
_diffrn_reflns_theta_max         26.613
_diffrn_reflns_theta_min         1.987
_exptl_absorpt_coefficient_mu    4.643
_exptl_absorpt_correction_T_max  0.6539
_exptl_absorpt_correction_T_min  0.5427
_exptl_absorpt_correction_type   multi-scan
_exptl_absorpt_process_details
;
(<i>SADABS</i>; Bruker, 2008)
;
_exptl_crystal_colour            colorless
_exptl_crystal_density_diffrn    1.892
_exptl_crystal_description       block
_exptl_crystal_F_000             472
_exptl_crystal_size_max          0.150
_exptl_crystal_size_mid          0.150
_exptl_crystal_size_min          0.100
_refine_diff_density_max         0.326
_refine_diff_density_min         -0.393
_refine_ls_extinction_method     none
_refine_ls_goodness_of_fit_ref   1.074
_refine_ls_hydrogen_treatment    constr
_refine_ls_matrix_type           full
_refine_ls_number_parameters     109
_refine_ls_number_reflns         1787
_refine_ls_number_restraints     0
_refine_ls_restrained_S_all      1.074
_refine_ls_R_factor_all          0.0702
_refine_ls_R_factor_gt           0.0400
_refine_ls_shift/su_max          0.000
_refine_ls_shift/su_mean         0.000
_refine_ls_structure_factor_coef Fsqd
_refine_ls_weighting_details
'w=1/[\s^2^(Fo^2^)+(0.0166P)^2^+1.3536P] where P=(Fo^2^+2Fc^2^)/3'
_refine_ls_weighting_scheme      calc
_refine_ls_wR_factor_gt          0.0693
_refine_ls_wR_factor_ref         0.0785
_reflns_number_gt                1282
_reflns_number_total             1787
_reflns_threshold_expression     'I > 2\s(I)'
_cod_data_source_file            bv4014sup1.cif
_cod_data_source_block           I
_cod_database_code               1549173
_shelx_space_group_comment
;
The symmetry employed for this shelxl refinement is uniquely defined
by the following loop, which should always be used as a source of
symmetry information in preference to the above space-group names.
They are only intended as comments.
;
_shelx_estimated_absorpt_t_min   0.543
_shelx_estimated_absorpt_t_max   0.654
_shelx_hkl_file
;
   0   0   1    0.30    0.20
   0   0   2 1591.14   43.60
   0   0   3   -1.60    1.30
   0   0   3    0.00    0.30
   0   0   4   96.99    2.80
   0   0   4   97.79    4.50
   0   0   5    0.50    2.20
   0   0   5    0.10    0.40
   0   0   5   -0.60    0.60
   0   0   5   -1.40    1.90
   0   0   6   17.30    3.00
   0   0   6   17.30    3.20
   0   0   7   -2.30    3.70
   0   0   7   -5.20    3.20
   0   1   0    0.10    0.10
   0   1   0    0.20    0.10
   0   1   0    0.00    0.10
   0   1   0    0.00    0.10
   0  -1   0    0.00    0.10
   0  -1   0    0.00    0.10
   0  -1   0    0.10    0.10
   0   1  -1  134.49    3.70
   0   1   1  133.29    4.20
   0   1  -1  127.69    4.50
   0   1   1  132.59    3.70
   0  -1   1  135.39    3.70
   0  -1   1  134.09    5.10
   0  -1   1  126.49    3.60
   0  -1   1  127.49    4.50
   0   1   2  258.47    7.20
   0   1   2  260.07    8.40
   0  -1   2  262.07    7.10
   0  -1   2  255.97    7.10
   0  -1   2  250.57    8.80
   0  -1   2  263.97   10.00
   0  -1  -2  256.27    7.10
   0   1   3   92.49    2.80
   0   1   3   90.49    3.80
   0  -1   3   92.99    3.90
   0  -1   3   87.39    4.00
   0  -1   3   94.89    2.70
   0  -1   3  103.19    2.80
   0  -1   3  100.89    4.50
   0   1   4  144.79    4.10
   0   1   4  141.59    5.60
   0  -1   4  144.39    6.40
   0  -1   4  136.99    4.00
   0  -1   4  141.89    5.90
   0   1   5   21.60    1.10
   0   1   5   21.30    1.30
   0   1   5   21.70    2.80
   0  -1   5   23.10    3.00
   0  -1   5   25.60    3.40
   0  -1   5   19.20    0.80
   0   1   6   39.70    4.70
   0   1   6   41.10    4.80
   0  -1   6   46.00    5.00
   0  -1   6   44.80    5.00
   0   1   7   -1.10    3.20
   0   1   7    0.00    3.40
   0  -1   7    1.00    3.60
   0  -1   7   -4.50    3.10
   0   2   1 1126.59   30.80
   0   2  -1 1168.08   41.30
   0   2   1 1079.49   38.20
   0   2  -1 1098.09   36.80
   0   2   1 1117.69   30.70
   0   2   1 1096.79   34.70
   0   2  -1 1104.69   30.70
   0   2  -1 1074.39   30.30
   0  -2   1 1109.69   41.60
   0  -2  -1 1079.69   30.40
   0  -2   1 1119.99   30.70
   0  -2   1 1089.59   30.70
   0   2  -2   12.30    0.60
   0   2  -2   11.80    0.60
   0   2   2   11.60    0.80
   0   2   2   11.10    1.00
   0   2   2   10.60    0.90
   0  -2   2   11.50    0.80
   0  -2   2   11.10    0.70
   0  -2   2   12.80    1.10
   0  -2   2   13.40    1.50
   0   2   3  141.49    4.20
   0   2   3  140.09    5.10
   0   2   3  139.99    4.20
   0  -2   3  139.49    5.40
   0  -2   3  140.19    4.10
   0  -2   3  142.79    6.10
   0  -2   3  146.79    4.10
   0  -2  -3  140.79    4.10
   0   2   4    2.00    1.60
   0   2   4    2.70    0.70
   0   2   4    1.30    0.90
   0  -2   4    1.60    0.60
   0  -2   4    1.30    0.70
   0  -2   4    4.40    1.70
   0  -2   4    2.80    2.00
   0   2   5   71.99    4.30
   0   2   5   75.79    2.50
   0   2   5   72.49    2.60
   0  -2   5   81.19    4.90
   0  -2   5   71.09    5.10
   0  -2   5   67.69    2.20
   0   2   6    1.90    2.60
   0   2   6    0.00    2.90
   0   2   6   -0.30    0.90
   0   2   6    1.10    2.40
   0  -2   6   -0.10    3.20
   0  -2   6   -0.20    2.50
   0   2   7    5.80    3.40
   0   2   7    3.70    3.40
   0  -2   7    8.90    4.10
   0  -2   7    2.60    3.30
   0   3   0    0.20    0.60
   0   3   0   -0.10    0.40
   0   3   0    0.00    0.50
   0   3   0    0.20    0.50
   0  -3   0    0.00    0.50
   0  -3   0    0.20    0.50
   0  -3   0    0.20    0.40
   0  -3   0   -0.20    0.60
   0   3   1   83.79    2.60
   0   3  -1   82.89    2.60
   0   3   1   83.89    3.50
   0   3   1   84.09    3.40
   0   3  -1   90.39    3.70
   0   3  -1   85.29    2.60
   0   3   1   81.59    2.60
   0  -3   1   80.89    2.60
   0  -3   1   81.29    2.60
   0  -3  -1   80.59    2.70
   0  -3   1   81.59    3.20
   0  -3  -1   83.19    3.60
   0  -3  -1   82.29    2.60
   0  -3   1   86.89    3.70
   0  -3  -1   79.89    3.30
   0  -3  -1   82.49    2.70
   0   3  -2   60.99    2.90
   0   3   2   52.99    2.10
   0   3  -2   57.39    1.90
   0   3   2   54.39    2.00
   0   3   2   55.89    2.00
   0   3  -2   53.99    2.50
   0   3   2   52.19    2.60
   0  -3   2   56.79    2.00
   0  -3   2   54.79    1.90
   0  -3  -2   53.59    2.00
   0  -3   2   54.79    3.00
   0   3  -3   20.40    0.80
   0   3   3   20.90    2.50
   0   3   3   22.60    1.70
   0   3   3   19.40    1.30
   0   3  -3   23.40    0.90
   0   3   3   22.20    1.30
   0  -3   3   20.30    1.10
   0  -3   3   22.50    1.80
   0  -3   3   22.60    2.40
   0  -3   3   21.50    1.30
   0   3   4   44.60    2.80
   0   3   4   44.90    2.10
   0   3   4   45.80    3.80
   0   3   4   43.10    1.90
   0  -3   4   47.30    1.80
   0  -3   4   44.60    1.70
   0  -3  -4   39.50    1.50
   0  -3   4   44.40    3.90
   0  -3   4   45.30    3.60
   0  -3  -4   47.70    1.60
   0   3   5   40.20    4.50
   0   3   5   38.90    1.80
   0   3   5   38.50    3.40
   0   3   5   39.20    2.10
   0  -3   5   45.80    4.20
   0  -3   5   33.10    4.50
   0  -3   5   37.10    1.60
   0   3   6   19.40    1.80
   0   3   6   22.10    2.90
   0   3   6   20.40    3.50
   0  -3   6   19.10    3.90
   0  -3   6   20.50    3.50
   0   3   7    1.80    3.60
   0  -3   7    0.40    3.60
   0  -3   7   -6.60    4.00
   0   4   0 9536.65  354.56
   0   4   0 9687.03  260.97
   0   4   0 9803.52  260.67
   0  -4   0 9999.00  260.57
   0  -4   0 9213.08  260.97
   0  -4   0 9319.07  355.16
   0  -4   0 8965.40  326.17
   0   4  -1   56.99    2.00
   0   4  -1   59.19    2.10
   0   4   1   58.09    2.70
   0   4   1   55.19    2.00
   0   4  -1   59.79    3.00
   0   4   1   58.99    2.10
   0   4   1   56.29    2.80
   0  -4   1   56.99    2.00
   0  -4  -1   58.29    2.60
   0  -4   1   55.29    2.10
   0  -4  -1   55.29    1.90
   0  -4   1   58.19    3.10
   0  -4  -1   55.09    2.10
   0  -4  -1   52.69    2.00
   0  -4  -1   60.89    3.00
   0  -4   1   55.69    2.50
   0   4  -2  846.02   30.60
   0   4   2  793.82   28.20
   0   4   2  824.12   22.40
   0   4   2  801.82   30.30
   0   4   2  757.12   25.20
   0   4  -2  801.62   26.80
   0   4  -2  851.21   22.30
   0   4   2  806.72   22.30
   0   4  -2  798.32   22.20
   0  -4   2  804.02   22.30
   0  -4   2  792.32   22.30
   0  -4  -2  812.12   22.40
   0  -4   2  796.42   30.50
   0   4   3   20.20    1.50
   0   4   3   19.30    1.60
   0   4   3   20.40    1.50
   0   4  -3   21.00    1.20
   0   4  -3   20.70    1.00
   0   4   3   20.50    2.10
   0  -4  -3   20.50    1.50
   0  -4   3   19.20    1.30
   0  -4   3   21.80    1.60
   0  -4   3   25.30    2.70
   0   4   4   71.09    3.40
   0   4   4   74.89    2.90
   0   4   4   74.79    2.70
   0   4   4   79.69    4.70
   0  -4   4   73.69    5.00
   0  -4   4   74.79    2.60
   0  -4   4   74.39    2.70
   0  -4  -4   69.79    2.60
   0  -4   4   72.49    4.10
   0   4   5    4.80    1.40
   0   4   5    6.90    2.60
   0   4   5    5.80    1.80
   0   4   5    4.40    1.20
   0  -4   5    5.20    1.00
   0  -4   5    2.80    3.10
   0  -4   5    5.20    2.50
   0  -4   5    7.10    1.10
   0   4   6   12.50    2.40
   0   4   6    7.10    3.20
   0   4   6   11.10    1.50
   0  -4   6   15.80    4.10
   0  -4   6   11.90    3.20
   0   4   7   -5.00    3.60
   0  -4   7    0.40    3.30
   0  -4   7   -5.50    4.10
   0   5   0   -0.90    0.80
   0   5   0    1.00    0.90
   0   5   0    0.80    0.90
   0   5   0   -0.40    1.00
   0  -5   0    0.00    1.00
   0  -5   0   -0.20    0.60
   0  -5   0   -0.70    1.20
   0  -5   0   -0.10    0.70
   0   5  -1   14.20    1.90
   0   5  -1   13.80    2.00
   0   5   1   16.50    1.70
   0   5   1   16.00    1.10
   0   5   1   16.40    1.80
   0   5   1   14.60    1.30
   0   5  -1   13.20    1.20
   0   5  -1   13.80    1.20
   0  -5  -1   14.90    1.60
   0  -5  -1   14.50    1.50
   0  -5   1   14.90    1.20
   0  -5   1   15.40    1.40
   0  -5  -1   12.70    1.00
   0  -5  -1   16.80    2.20
   0  -5   1   14.80    2.20
   0  -5   1   17.80    1.40
   0   5  -2  247.38    7.10
   0   5   2  244.58    9.80
   0   5   2  256.07    7.30
   0   5   2  238.38    7.30
   0   5   2  242.48    9.30
   0   5  -2  241.38    8.60
   0   5  -2  262.37   10.20
   0   5  -2  256.47    7.20
   0  -5   2  244.88   10.10
   0  -5   2  237.88    7.10
   0  -5   2  238.08    7.30
   0  -5  -2  237.48    7.30
   0  -5   2  252.17    9.10
   0   5   3   44.50    3.30
   0   5   3   43.70    2.10
   0   5  -3   42.60    1.90
   0   5   3   44.50    2.90
   0   5   3   45.20    2.10
   0   5   3   43.60    2.00
   0   5  -3   45.40    2.90
   0  -5   3   42.10    2.20
   0  -5   3   45.90    3.60
   0  -5   3   42.30    1.90
   0  -5  -3   38.90    2.20
   0   5   4  152.18    5.60
   0   5   4  162.38    5.10
   0   5  -4  161.08    4.50
   0   5   4  157.78    7.20
   0   5   4  160.28    5.20
   0   5  -4  147.29    4.50
   0  -5   4  162.48    5.10
   0  -5   4  156.08    7.00
   0  -5   4  152.48    4.90
   0  -5   4  157.08    7.60
   0   5   5    3.10    1.60
   0   5   5    5.70    2.70
   0   5   5    5.10    1.60
   0  -5   5    7.40    2.70
   0  -5   5    0.40    3.20
   0  -5   5    6.30    1.30
   0   5   6   30.60    4.00
   0   5   6   33.20    2.50
   0  -5   6   30.10    4.80
   0  -5   6   33.40    5.20
   0  -5   6   32.10    1.90
   0   5   7   -3.70    3.60
   0  -5   7    0.60    3.40
   0  -5   7   -4.40    4.60
   0   6   0   35.20    1.70
   0   6   0   36.60    2.40
   0   6   0   39.90    1.90
   0   6   0   37.70    2.50
   0  -6   0   39.30    1.90
   0  -6   0   38.00    2.20
   0  -6   0   37.10    2.10
   0  -6   0   32.60    3.00
   0   6   1  358.46   13.00
   0   6  -1  373.36   14.30
   0   6  -1  343.27   13.10
   0   6  -1  374.06   10.40
   0   6   1  372.86   10.40
   0   6  -1  355.26   10.30
   0   6   1  340.97   10.30
   0   6   1  341.77   14.00
   0  -6  -1  350.36   10.50
   0  -6  -1  365.06   14.50
   0  -6   1  367.76   12.90
   0  -6  -1  364.16   13.00
   0  -6   1  347.27   14.30
   0  -6  -1  348.47   10.30
   0  -6   1  372.86   10.40
   0  -6   1  362.96   10.30
   0   6  -2   58.89    3.70
   0   6  -2   54.59    2.30
   0   6  -2   54.79    2.20
   0   6   2   53.59    3.30
   0   6   2   56.29    2.40
   0   6   2   53.89    3.10
   0   6   2   54.89    2.50
   0  -6   2   54.69    2.70
   0  -6   2   51.49    3.40
   0  -6   2   57.69    2.90
   0  -6  -2   53.69    2.60
   0  -6   2   56.09    2.40
   0   6  -3   58.69    2.30
   0   6  -3   62.99    2.50
   0   6   3   62.49    3.90
   0   6   3   55.89    2.90
   0   6   3   58.39    2.60
   0   6   3   65.69    3.60
   0   6  -3   64.99    3.50
   0   6   3   58.29    2.20
   0  -6   3   61.79    2.50
   0  -6   3   58.89    4.30
   0  -6   3   60.49    2.70
   0  -6  -3   58.79    2.80
   0   6   4    9.50    1.70
   0   6  -4    9.10    1.10
   0   6   4   10.90    2.30
   0   6   4   10.00    1.50
   0   6  -4    9.20    1.10
   0   6   4   11.40    1.90
   0   6   4    8.80    1.30
   0  -6   4   10.80    3.00
   0  -6   4    9.60    1.30
   0  -6   4   11.30    1.70
   0  -6   4    8.70    2.50
   0  -6  -4   10.00    1.60
   0   6   5   30.70    2.60
   0   6   5   31.30    3.80
   0   6   5   34.40    2.80
   0  -6   5   31.70    4.20
   0  -6   5   36.10    5.40
   0  -6   5   33.60    2.40
   0   6   6    0.10    1.80
   0   6   6    3.80    3.30
   0  -6   6    0.60    1.30
   0  -6   6    2.30    3.20
   0  -6   6    0.10    4.10
   0   6   7   -1.80    3.60
   0   7   0   -0.20    1.20
   0   7   0    0.10    1.20
   0   7   0   -0.80    1.20
   0   7   0   -0.60    0.80
   0  -7   0   -1.30    1.10
   0  -7   0   -0.60    0.90
   0  -7   0   -0.10    1.30
   0  -7   0   -3.90    1.60
   0   7   1    6.90    1.10
   0   7  -1    6.00    1.20
   0   7  -1    6.90    1.30
   0   7   1    8.60    1.50
   0   7  -1    8.80    1.60
   0   7   1    7.60    1.50
   0   7  -1    5.60    1.60
   0   7   1    6.30    1.10
   0  -7  -1    6.20    1.30
   0  -7   1    5.20    1.60
   0  -7   1    7.20    1.10
   0  -7   1    7.00    1.50
   0  -7  -1    8.60    1.70
   0  -7  -1    6.80    1.30
   0  -7   1    6.70    1.20
   0  -7  -1    4.60    2.00
   0   7   2    2.60    1.20
   0   7   2    4.60    1.30
   0   7   2    0.90    1.30
   0   7  -2    3.80    1.30
   0   7   2    3.10    1.20
   0   7  -2    2.80    1.20
   0  -7   2    2.10    1.40
   0  -7   2    3.70    1.30
   0  -7  -2    2.80    1.10
   0  -7   2    4.20    1.60
   0  -7   2    3.80    1.20
   0  -7  -2    3.50    1.60
   0   7   3   -0.40    1.40
   0   7  -3    0.80    1.10
   0   7   3   -1.40    1.20
   0   7   3    2.90    1.50
   0   7   3    0.10    1.80
   0   7  -3    2.00    1.90
   0  -7   3    0.50    1.70
   0  -7   3    1.30    1.20
   0  -7   3    1.00    2.20
   0  -7   3    1.40    1.30
   0  -7  -3   -0.80    1.60
   0   7   4    3.30    1.60
   0   7   4    7.40    1.80
   0   7   4    5.90    2.30
   0   7   4    4.60    1.60
   0   7   4    4.90    0.90
   0  -7   4    4.70    1.40
   0  -7   4    4.50    2.70
   0  -7   4    4.70    2.40
   0  -7   4    4.80    1.70
   0  -7  -4    6.40    1.80
   0   7   5   36.40    5.00
   0   7   5   32.30    3.00
   0  -7   5   31.60    4.40
   0  -7   5   30.40    2.80
   0  -7   5   38.60    5.20
   0   7   6    6.00    3.50
   0   7   6    5.50    2.10
   0  -7   6    5.80    3.70
   0  -7   6    5.20    4.30
   0  -7   6    4.80    1.60
   0   8   0 1452.25   39.20
   0   8   0 1418.96   39.30
   0   8   0 1470.65   53.49
   0   8   0 1427.06   49.20
   0  -8   0 1481.45   39.30
   0  -8   0 1319.27   39.30
   0  -8   0 1411.56   49.00
   0  -8   0 1345.37   53.59
   0   8  -1   -5.00    1.80
   0   8   1    0.00    1.40
   0   8  -1    0.40    1.10
   0   8   1   -0.40    1.40
   0   8   1    1.40    1.30
   0   8   1    2.00    1.30
   0  -8  -1   -4.20    2.20
   0  -8  -1    1.70    1.30
   0  -8   1   -0.20    1.20
   0  -8  -1   -0.30    1.20
   0  -8   1    1.00    1.20
   0  -8   1   -0.10    1.00
   0  -8   1   -0.40    2.00
   0   8   2  153.38    5.00
   0   8   2  144.19    6.40
   0   8  -2  148.29    5.00
   0   8   2  145.39    6.60
   0   8   2  145.29    5.00
   0  -8   2  140.89    5.20
   0  -8  -2  142.39    5.20
   0  -8   2  146.59    4.90
   0  -8   2  132.49    7.30
   0  -8   2  142.09    5.90
   0   8   3   28.40    3.60
   0   8   3   26.50    2.30
   0   8  -3   26.70    2.10
   0   8  -3   33.60    3.20
   0   8   3   27.00    2.50
   0   8   3   33.10    3.10
   0  -8   3   25.50    4.30
   0  -8   3   28.00    2.10
   0  -8   3   29.90    2.60
   0  -8   3   29.80    3.10
   0  -8  -3   28.70    2.70
   0   8   4   33.00    3.30
   0   8  -4   24.60    1.90
   0   8   4   27.60    3.40
   0   8   4   25.90    2.70
   0   8   4   23.20    2.40
   0  -8   4   24.00    2.50
   0  -8  -4   24.50    3.00
   0  -8   4   28.10    3.70
   0  -8   4   19.50    3.50
   0  -8   4   28.50    2.40
   0   8   5    5.50    2.90
   0   8   5    6.70    2.30
   0  -8   5    6.70    3.20
   0  -8   5    8.80    2.20
   0  -8   5    9.40    3.60
   0   8   6    3.80    2.20
   0   8   6    3.70    3.40
   0  -8   6    1.50    1.90
   0  -8   6    2.30    4.50
   0  -8   6    4.90    3.80
   0   9   0    2.20    1.60
   0   9   0    2.30    1.70
   0  -9   0    3.30    2.00
   0  -9   0    0.40    2.30
   0  -9   0    2.70    1.30
   0   9   1    0.30    1.60
   0   9   1   -0.10    1.60
   0   9  -1   -0.80    1.50
   0   9   1    0.50    1.50
   0   9   1   -1.30    1.40
   0   9  -1   -2.50    1.90
   0  -9   1    0.90    1.20
   0  -9  -1   -5.40    2.50
   0  -9   1   -5.00    2.20
   0  -9   1    0.30    1.10
   0  -9   1   -1.20    1.90
   0  -9  -1   -0.70    1.90
   0  -9  -1   -0.50    1.40
   0   9   2   60.19    3.00
   0   9  -2   66.19    3.10
   0   9   2   66.19    3.80
   0   9   2   70.79    4.00
   0   9   2   63.29    2.90
   0  -9   2   58.89    5.20
   0  -9  -2   67.79    3.70
   0  -9   2   68.69    3.60
   0  -9   2   68.19    3.10
   0  -9   2   69.39    3.60
   0  -9  -2   57.59    5.40
   0   9  -3    5.40    1.50
   0   9   3    7.60    1.80
   0   9   3    6.30    2.30
   0   9   3    4.60    1.90
   0   9  -3    4.70    2.50
   0   9   3    4.30    1.70
   0  -9   3    2.30    2.00
   0  -9   3    5.90    1.80
   0  -9  -3    3.80    2.20
   0  -9   3    3.10    2.30
   0   9   4   67.49    3.80
   0   9  -4   67.39    3.00
   0   9   4   73.39    5.50
   0   9  -4   73.09    4.90
   0  -9   4   68.89    4.20
   0  -9   4   69.69    6.20
   0  -9   4   70.29    5.90
   0  -9  -4   69.69    4.20
   0   9   5    2.00    3.00
   0   9   5    0.60    2.40
   0  -9   5   -0.30    2.20
   0  -9   5    1.60    3.60
   0  -9   5   -4.60    3.90
   0   9   6   12.90    4.00
   0   9   6   12.70    2.70
   0  -9   6    8.50    4.10
   0  -9   6   12.00    2.40
   0  -9   6   13.70    5.10
   0  10   0   45.70    3.90
   0  10   0   41.40    2.50
   0 -10   0   43.00    3.00
   0 -10   0   35.90    5.00
   0 -10   0   44.00    3.50
   0  10  -1   61.19    4.90
   0  10   1   69.79    3.20
   0  10   1   68.29    4.40
   0  10  -1   69.99    3.10
   0 -10   1   61.99    5.50
   0 -10   1   72.29    3.90
   0 -10  -1   58.39    6.00
   0 -10   1   72.69    3.90
   0 -10  -1   78.09    4.10
   0  10  -2   43.60    2.90
   0  10   2   43.40    4.00
   0  10   2   41.40    2.70
   0 -10   2   39.50    3.40
   0 -10   2   40.90    5.10
   0 -10   2   46.80    3.30
   0 -10   2   50.69    2.90
   0 -10  -2   29.50    4.50
   0 -10  -2   42.10    3.60
   0  10  -3   17.30    3.10
   0  10   3   10.80    2.60
   0  10   3   10.20    2.30
   0  10  -3    8.50    2.00
   0 -10   3    7.10    3.30
   0 -10  -3    9.60    2.50
   0 -10   3   15.90    2.20
   0 -10   3   14.80    2.80
   0 -10   3   12.30    3.20
   0  10   4    7.10    2.40
   0  10   4   10.10    3.00
   0  10  -4   13.10    3.40
   0 -10   4    6.90    3.60
   0 -10  -4    4.30    2.50
   0 -10   4    7.70    2.40
   0 -10   4    7.80    3.70
   0  10   5    9.90    2.80
   0  10   5    5.00    3.30
   0 -10   5    4.70    4.50
   0 -10   5    8.30    2.60
   0 -10   5    6.50    3.90
   0  10   6    1.50    3.50
   0  10   6    2.70    2.70
   0 -10   6    2.40    5.10
   0 -10   6    0.30    2.50
   0 -10   6    0.90    4.50
   0  11   0   -2.10    2.10
   0  11   0    0.00    2.00
   0 -11   0    0.70    2.40
   0 -11   0   -4.50    3.00
   0  11  -1   -3.30    2.70
   0  11  -1    1.60    2.00
   0  11   1    1.00    2.20
   0  11   1    0.30    1.60
   0 -11   1   -0.10    2.80
   0 -11  -1    1.40    1.30
   0 -11  -1   -4.60    3.20
   0 -11  -1    0.50    2.50
   0 -11   1   -0.50    1.90
   0  11  -2   -2.10    1.70
   0  11   2   -0.30    2.30
   0  11   2   -2.60    1.60
   0 -11  -2   -3.20    2.40
   0 -11   2   -0.60    2.40
   0 -11   2   -1.60    2.40
   0  11   3    5.30    2.60
   0  11  -3    4.30    1.90
   0  11  -3    3.80    2.70
   0  11   3    5.40    2.40
   0 -11   3    3.50    3.50
   0 -11   3    6.00    3.20
   0 -11   3    8.00    2.70
   0 -11  -3    1.00    2.70
   0  11   4    1.20    2.50
   0  11   4    1.70    2.80
   0  11  -4    1.90    3.10
   0 -11   4    3.30    3.80
   0 -11   4   -2.30    2.60
   0 -11  -4   -1.90    2.90
   0 -11   4    1.90    3.80
   0  11   5   11.90    3.60
   0  11   5   16.20    2.90
   0 -11   5   13.20    4.70
   0 -11   5    6.70    3.10
   0 -11   5    9.90    4.20
   0  12   0  147.29    5.70
   0  12   0  136.09    7.10
   0 -12   0  125.89    5.50
   0 -12   0  143.59    5.70
   0 -12   0  129.29    8.70
   0  12  -1    7.50    3.30
   0  12   1   11.00    2.10
   0  12  -1   17.20    2.10
   0  12   1   10.40    2.80
   0 -12  -1   13.30    2.50
   0 -12  -1    8.70    4.10
   0 -12   1   11.40    2.40
   0 -12  -1   19.00    2.40
   0 -12   1   13.20    3.00
   0 -12   1   10.80    3.70
   0  12   2    8.30    2.60
   0  12  -2   10.30    2.30
   0  12   2   13.20    2.20
   0 -12   2   14.30    3.10
   0 -12   2   12.90    3.10
   0 -12   2    9.60    3.80
   0 -12  -2   15.00    3.20
   0  12  -3   18.30    3.60
   0  12  -3   14.00    2.30
   0  12   3   13.00    3.10
   0  12   3   10.40    2.70
   0 -12   3   13.40    3.70
   0 -12   3    9.10    3.90
   0 -12  -3   14.40    3.20
   0 -12   3   14.90    3.20
   0  12  -4    5.50    3.70
   0  12   4    2.00    2.70
   0  12   4    3.30    3.20
   0 -12   4    3.60    4.00
   0 -12   4    3.30    3.20
   0 -12   4    3.30    3.00
   0  12   5    6.20    2.90
   0  12   5    6.30    3.80
   0 -12   5    0.50    4.70
   0 -12   5    3.20    3.30
   0 -12   5    6.40    4.50
   0  13   0    0.50    2.70
   0  13   0    3.10    2.50
   0 -13   0   -3.80    3.60
   0 -13   0    8.00    2.20
   0 -13   0    4.50    3.20
   0  13  -1   -7.90    3.00
   0  13   1   -3.90    2.50
   0  13   1   -1.40    2.50
   0  13  -1    1.60    2.40
   0 -13   1   -5.20    3.60
   0 -13   1    2.70    2.40
   0 -13   1    0.60    3.20
   0 -13  -1    3.10    1.60
   0 -13  -1    2.30    3.10
   0 -13  -1   -9.50    3.80
   0  13  -2    7.00    2.40
   0  13   2    5.90    2.20
   0  13   2    4.70    2.80
   0 -13   2    4.20    2.50
   0 -13   2    3.70    3.00
   0 -13  -2    3.10    3.30
   0 -13   2    2.40    4.10
   0  13   3   -3.20    2.90
   0  13  -3   -2.10    3.20
   0  13  -3   -1.90    2.10
   0  13   3    2.30    2.80
   0 -13   3   -4.10    3.00
   0 -13   3    3.70    3.60
   0 -13   3    1.80    4.20
   0 -13  -3   -2.30    3.20
   0  13   4   10.40    3.60
   0  13  -4   14.20    3.70
   0  13   4   13.10    3.20
   0 -13   4    8.90    4.60
   0 -13   4   15.00    4.50
   0 -13   4   13.60    3.90
   0  13   5    0.80    3.70
   0  13   5    2.40    3.00
   0 -13   5    5.60    4.80
   0 -13   5    2.00    4.90
   0 -13   5    0.50    3.50
   0  14   0   10.20    3.20
   0  14   0   18.00    2.90
   0 -14   0   10.80    4.50
   0 -14   0   15.10    2.50
   0 -14   0   17.40    3.80
   0  14   1   11.20    3.00
   0  14  -1   15.10    2.80
   0  14   1    6.00    3.00
   0  14  -1    1.50    3.60
   0 -14   1   13.90    2.90
   0 -14   1    8.20    4.50
   0 -14  -1    6.60    4.80
   0 -14  -1   16.00    3.80
   0 -14   1   11.40    3.70
   0  14  -2   20.80    2.90
   0  14   2   13.10    3.30
   0  14   2   16.40    3.20
   0 -14   2    8.00    4.60
   0 -14  -2   16.20    3.80
   0 -14   2   17.10    3.50
   0 -14   2   16.30    3.90
   0  14   3    0.60    3.00
   0  14   3    1.30    3.40
   0  14  -3    0.70    3.40
   0 -14   3    3.00    4.50
   0 -14   3    4.40    3.60
   0 -14   3   -2.50    3.50
   0 -14  -3   -0.70    3.50
   0  14  -4    5.40    3.60
   0  14   4    0.80    3.10
   0  14   4    2.00    3.60
   0 -14   4    9.10    5.00
   0 -14   4    7.10    4.40
   0 -14   4    2.80    3.60
   0  15   0    1.10    2.20
   0  15   0   -4.80    3.00
   0 -15   0   -4.10    4.50
   0 -15   0    0.40    3.80
   0 -15   0    3.50    2.50
   0  15  -1    1.20    2.10
   0  15   1   -1.60    3.40
   0  15   1    4.70    3.10
   0 -15   1   -3.40    4.50
   0 -15  -1    1.70    3.80
   0 -15  -1  -10.30    5.20
   0 -15   1    2.80    2.90
   0 -15   1    3.00    3.10
   0  15   2    5.70    3.10
   0  15   2   -2.00    3.20
   0  15  -2    1.80    2.70
   0 -15  -2    3.70    3.80
   0 -15   2    4.00    3.80
   0 -15   2   -4.60    4.60
   0 -15   2    4.00    3.40
   0  15  -3   -0.10    3.70
   0  15   3    1.40    3.50
   0  15   3    5.20    3.40
   0 -15   3    3.30    4.80
   0 -15  -3    4.30    3.70
   0 -15   3    5.90    3.90
   0 -15   3    2.70    4.30
   0  16   0    7.40    3.70
   0  16   0   16.60    3.40
   0 -16   0   10.40    5.30
   0 -16   0   12.80    4.20
   0  16   1    7.70    3.30
   0  16   1    1.50    3.30
   0  16  -1    9.70    3.20
   0 -16  -1   13.40    4.30
   0 -16   1   13.20    3.40
   0 -16  -1    0.80    5.30
   0 -16   1    2.20    5.10
   0 -16   1   15.00    4.30
   0  16  -2   -0.60    2.90
   0  16   2    3.10    3.40
   0  16   2   -2.50    3.30
   0 -16   2    0.10    5.10
   0 -16   2    3.70    3.30
   0 -16   2    2.60    3.50
   0 -16  -2    3.20    4.20
   0  16   3    3.10    4.10
   0  16   3    7.80    3.60
   0 -16   3    4.20    5.10
   0 -16   3    4.60    4.30
   0 -16   3    5.70    4.60
   0  17   0   -5.80    3.50
   0  17   0    2.70    3.30
   0 -17   0   -4.30    5.20
   0 -17   0    0.20    3.30
   0  17   1   -3.40    3.50
   0  17  -1    4.60    3.30
   0  17   1    5.80    3.50
   0 -17   1    1.90    4.50
   0 -17  -1    1.20    3.30
   0 -17   1   -4.80    5.20
   0 -17  -1  -12.80    5.00
   0  17   2   -3.30    3.70
   0  17   2    1.20    3.60
  -1   0   7   -4.70    3.20
  -1   0   7   -2.30    3.20
  -1   0   7   -2.30    3.30
  -1   0   6   38.80    4.50
  -1   0   6   30.10    4.90
  -1   0   5    0.10    2.20
  -1   0   3   -0.50    1.00
  -1   0   3   -0.30    0.20
  -1   0   2  516.45   13.50
  -1   0   2  489.45   16.50
  -1   0   2  467.65   13.50
  -1   0   1    0.30    0.50
  -1   0   1   -0.10    0.30
  -1   0   1    0.10    0.20
   1   0  -1   -0.10    0.20
  -1   0   1    0.10    0.20
   1   0  -1    0.00    0.50
   1   0   0  157.88    4.90
   1   0   0  118.19    3.90
   1   0   1    0.10    0.50
  -1   0  -1    0.50    0.50
   1   0   1   -0.30    0.30
  -1   0  -1    0.10    0.30
  -1   0  -1   -0.30    0.30
  -1   0  -1    0.30    0.30
   1   0   1    0.00    0.30
   1   0   1    0.20    0.30
   1   0   2  900.61   25.30
   1   0   2  905.21   28.90
  -1   0  -2  927.81   29.00
  -1   0  -2  957.50   25.20
   1   0   2  905.91   34.30
  -1   0  -3   -0.30    0.40
   1   0   3    0.20    0.60
   1   0   3   -0.90    1.20
   1   0   3    0.50    0.90
  -1   0  -3   -0.30    0.40
   1   0   4  340.67   13.40
   1   0   4  340.97    9.50
   1   0   4  336.27   11.70
   1   0   5   -2.00    2.30
   1   0   5   -1.00    0.80
   1   0   5    1.70    1.90
   1   0   6    5.30    2.40
   1   0   6    7.90    3.50
   1   0   7   -1.50    4.00
  -1   1   7    0.60    3.30
  -1   1   7    1.60    3.20
  -1   1   7   -1.40    3.20
  -1  -1   7    2.90    3.30
  -1  -1   7    3.90    3.70
  -1  -1   7   -1.50    3.10
  -1   1   6   50.79    5.40
  -1   1   6   50.39    4.50
  -1  -1   6   51.79    5.10
  -1  -1   6   54.59    5.10
  -1   1   5   47.20    3.70
  -1   1   5   51.79    1.50
  -1   1   5   51.69    4.40
  -1  -1   5   56.49    4.30
  -1  -1   5   47.40    4.30
  -1   1   4  399.86   11.40
  -1   1   4  424.16   11.40
  -1   1   4  415.66   13.70
  -1   1   3  137.79    3.90
  -1   1   3  139.39    3.90
  -1  -1   3  135.49    5.30
  -1   1   2  361.56    9.70
  -1   1   2  354.16    9.70
  -1   1   2  344.47   12.50
   1  -1  -2  341.07    9.60
  -1  -1   2  351.26   11.90
  -1  -1   2  356.26    9.60
   1   1  -1  939.71   25.20
   1   1  -1  896.61   30.10
  -1   1   1  905.41   25.40
  -1   1   1  945.21   31.40
  -1   1   1  888.01   25.30
   1  -1  -1  908.41   31.40
   1  -1  -1  913.51   25.30
  -1  -1   1  907.01   25.20
  -1   1   0  334.67    9.40
  -1   1   0  360.86   12.90
   1   1   0  350.26    9.40
  -1   1   0  299.67   10.70
  -1  -1   0  358.06   10.80
   1  -1   0  339.37   11.90
   1  -1   0  343.27    9.40
   1  -1   0  325.97    9.40
   1  -1   0  362.96   10.80
  -1   1  -1  642.94   20.50
  -1   1  -1  650.23   17.90
  -1   1  -1  677.73   24.40
  -1   1  -1  665.53   17.90
   1   1   1  612.54   17.90
   1   1   1  654.13   20.40
   1  -1   1  645.94   17.90
   1  -1   1  661.53   24.40
   1  -1   1  653.73   20.50
   1  -1   1  661.13   17.90
  -1  -1  -1  670.83   20.40
  -1  -1  -1  624.84   17.90
   1   1   2   35.10    1.30
   1   1   2   35.60    1.80
  -1   1  -2   35.00    1.30
   1  -1   2   35.90    2.10
  -1  -1  -2   36.40    1.40
  -1  -1  -2   39.80    1.90
   1  -1   2   36.30    1.40
   1  -1   2   35.90    1.30
   1  -1   2   37.90    2.10
   1   1   3   13.50    1.80
  -1   1  -3   11.90    0.80
   1   1   3   13.40    0.90
  -1   1  -3   11.80    0.70
  -1  -1  -3   13.20    0.90
   1  -1   3   15.40    2.00
   1  -1   3   10.70    1.70
   1  -1   3   11.70    1.20
  -1  -1  -3   10.30    0.90
   1  -1   3   11.50    0.80
   1   1   4    1.50    0.70
   1   1   4    3.90    1.40
   1   1   4    3.30    1.70
   1  -1   4    3.20    2.00
   1  -1   4    2.40    1.50
   1  -1   4    0.20    0.70
   1   1   5    8.90    2.00
   1   1   5    8.70    2.60
   1   1   5    8.50    1.00
   1  -1   5    8.90    2.90
   1  -1   5    8.60    2.10
   1  -1   5    7.90    0.90
   1   1   6   13.00    2.60
   1   1   6   13.40    3.10
   1   1   6   12.80    1.60
   1  -1   6   11.50    2.70
   1  -1   6   15.10    3.50
   1   1   7    2.90    3.30
   1  -1   7    4.60    4.20
  -1   2   7   -6.30    3.00
  -1   2   7    4.00    3.20
  -1   2   7    3.20    3.40
  -1  -2   7    3.10    3.60
  -1  -2   7   -0.90    3.90
  -1   2   6    2.60    2.60
  -1   2   6    2.40    2.90
  -1  -2   6    0.90    2.70
  -1  -2   6    2.10    3.20
  -1   2   5   39.50    1.70
  -1   2   5   41.80    3.50
  -1   2   5   36.40    1.50
  -1   2   5   42.10    4.30
  -1  -2   5   38.10    4.30
  -1  -2   5   48.00    4.20
  -1   2   4    3.60    0.80
  -1   2   4    6.30    1.60
  -1   2   4    5.20    1.80
  -1   2   4    4.90    0.70
  -1  -2   4    7.90    1.90
  -1  -2   4    3.40    0.50
  -1   2   3   -0.40    0.60
  -1   2   3   -2.20    0.60
  -1   2   3   -0.40    1.20
  -1  -2   3    1.50    1.30
  -1  -2   3   -0.40    0.40
  -1  -2   3    1.50    1.30
   1  -2  -3   -0.20    0.30
  -1  -2   3   -0.10    0.50
  -1   2   2   31.90    1.30
   1   2  -2   32.70    1.10
   1   2  -2   32.00    1.90
  -1   2   2   32.70    1.30
  -1   2   2   31.30    2.00
   1   2  -2   35.40    1.10
  -1  -2   2   32.00    1.20
  -1  -2   2   35.30    1.20
  -1   2   1  917.81   25.30
  -1   2   1  932.51   31.50
  -1   2   1  901.11   25.10
   1   2  -1  903.11   25.20
   1   2  -1  903.21   25.40
  -1  -2   1  918.31   34.10
  -1  -2   1  914.11   25.20
   1  -2  -1  913.51   25.10
   1  -2  -1  916.71   31.50
   1  -2  -1  920.11   25.00
   1   2   0    5.20    0.60
  -1   2   0    7.10    1.00
  -1   2   0    5.50    0.70
   1   2   0    5.00    0.50
  -1   2   0    4.60    0.50
  -1   2   0    5.10    0.50
   1   2   0    5.30    0.40
  -1   2   0    5.10    0.60
   1  -2   0    4.40    0.60
   1  -2   0    5.80    0.70
  -1  -2   0    6.10    0.60
  -1  -2   0    6.20    0.60
   1  -2   0    5.70    0.50
   1  -2   0    4.90    0.50
  -1   2  -1  478.65   13.30
   1   2   1  479.75   13.30
  -1   2  -1  490.55   15.30
   1   2   1  472.45   18.00
  -1   2  -1  484.05   13.40
   1   2   1  491.65   15.20
  -1   2  -1  504.75   18.30
   1  -2   1  476.35   15.90
   1  -2   1  476.85   15.30
   1  -2   1  474.75   13.30
   1  -2   1  472.15   13.40
  -1  -2  -1  455.95   13.30
  -1  -2  -1  500.15   15.20
   1  -2   1  490.25   18.30
   1   2   2    1.20    0.60
  -1   2  -2    1.00    0.80
  -1   2  -2    1.60    0.60
   1   2   2    1.80    0.80
   1  -2   2    1.00    0.50
   1  -2   2    0.50    0.90
   1  -2   2    1.50    0.80
  -1  -2  -2    1.40    0.60
   1  -2   2    0.30    1.10
   1  -2   2    0.10    0.60
  -1  -2  -2    1.30    0.80
   1   2   3  543.35   15.10
   1   2   3  521.45   17.40
  -1   2  -3  523.95   14.90
  -1   2  -3  574.54   15.00
   1  -2   3  540.95   20.80
   1  -2   3  541.85   15.00
   1  -2   3  565.24   15.10
   1  -2   3  553.34   18.30
   1  -2   3  520.65   17.70
   1   2   4    2.40    0.80
   1   2   4    2.50    1.80
  -1  -2  -4    2.30    0.60
   1  -2   4    1.60    1.00
  -1  -2  -4    0.80    0.60
   1  -2   4    1.30    0.70
   1  -2   4    3.10    2.20
   1  -2   4    2.80    1.70
   1   2   5  126.29    6.00
   1   2   5  143.49    6.40
   1   2   5  134.19    4.20
   1  -2   5  132.19    4.00
   1  -2   5  131.59    6.60
   1  -2   5  131.69    6.50
   1   2   6   -2.60    2.10
   1   2   6    1.10    1.20
   1   2   6   -0.50    2.80
   1  -2   6    0.70    3.30
   1  -2   6   -1.00    2.70
   1   2   7   27.00    4.00
   1   2   7   20.40    4.30
   1  -2   7   25.70    5.00
  -1   3   7    6.20    3.50
  -1  -3   7    4.60    3.50
  -1  -3   7    0.40    4.50
  -1   3   6   27.50    1.60
  -1   3   6   30.00    3.80
  -1   3   6   24.70    3.50
  -1  -3   6   26.40    4.10
  -1  -3   6   24.90    3.60
  -1   3   5   51.39    4.60
  -1   3   5   48.30    2.20
  -1   3   5   47.70    3.40
  -1   3   5   48.40    2.00
  -1  -3   5   55.49    4.60
  -1  -3   5   41.00    4.80
  -1   3   4  280.27    9.70
  -1   3   4  291.07    8.30
  -1   3   4  287.77   11.20
  -1   3   4  296.17    8.30
  -1  -3   4  286.27    8.10
  -1  -3   4  290.27   11.90
  -1   3   3  255.27    9.70
  -1   3   3  254.37    8.40
  -1   3   3  259.47    7.40
  -1   3   3  256.87    7.30
   1   3  -3  253.47    9.10
  -1  -3   3  254.37    7.20
  -1  -3   3  254.77   10.40
  -1  -3   3  260.47    7.30
   1   3  -2  221.28    6.00
   1   3  -2  210.28    7.50
  -1   3   2  208.48    8.00
  -1   3   2  215.28    6.20
  -1   3   2  210.38    6.20
  -1  -3   2  216.38    8.60
   1  -3  -2  212.68    6.20
  -1  -3   2  212.58    6.10
   1  -3  -2  219.68    6.10
  -1  -3   2  209.28    6.10
   1   3  -1 2108.49   76.29
  -1   3   1 2034.20   56.19
  -1   3   1 2020.20   70.39
  -1   3   1 1902.41   62.89
   1   3  -1 2125.89   56.29
  -1   3   1 1994.50   75.89
  -1   3   1 2045.80   55.29
   1   3  -1 1977.80   56.09
  -1  -3   1 1976.00   55.89
  -1  -3   1 2053.69   76.19
  -1  -3   1 2020.50   55.99
  -1  -3   1 1931.11   69.79
   1  -3  -1 2027.70   70.09
   1  -3  -1 2062.99   55.89
   1  -3  -1 2055.59   55.29
  -1   3   0  134.79    5.10
   1   3   0  134.29    3.90
  -1   3   0  130.19    4.00
   1   3   0  130.79    4.80
   1   3   0  130.49    3.90
  -1   3   0  132.19    4.40
  -1   3   0  128.49    3.90
   1   3   0  139.79    5.30
  -1   3   0  139.99    5.50
   1  -3   0  135.39    4.40
   1  -3   0  133.79    3.90
  -1  -3   0  132.89    5.30
   1  -3   0  129.99    4.00
  -1  -3   0  131.19    4.80
  -1  -3   0  129.69    3.90
   1  -3   0  132.69    5.50
   1  -3   0  138.99    5.10
   1   3   1 1144.39   31.10
   1   3   1 1088.69   42.50
  -1   3  -1 1132.89   31.10
  -1   3  -1 1215.58   42.50
  -1   3  -1 1179.38   31.20
   1   3   1 1110.99   39.00
  -1   3  -1 1116.69   37.70
   1   3   1 1125.19   35.30
  -1  -3  -1 1123.49   31.10
  -1  -3  -1 1122.29   42.80
   1  -3   1 1081.39   39.10
  -1  -3  -1 1145.99   35.50
   1  -3   1 1153.38   31.10
   1  -3   1 1145.69   31.20
   1  -3   1 1137.59   42.50
   1  -3   1 1119.39   35.50
  -1   3  -2  102.69    3.20
  -1   3  -2  111.49    4.70
  -1   3  -2  107.79    3.30
   1   3   2  102.79    4.30
   1   3   2  104.99    3.30
   1   3   2  104.99    3.70
   1  -3   2  104.79    3.30
   1  -3   2  104.39    3.20
   1  -3   2  101.49    4.20
   1  -3   2  106.39    3.90
   1  -3   2  107.19    4.80
  -1  -3  -2  106.49    3.80
  -1  -3  -2  101.89    3.40
  -1   3  -3   24.70    1.30
   1   3   3   25.10    1.90
   1   3   3   23.50    1.40
  -1   3  -3   22.30    1.10
   1  -3   3   23.10    1.20
   1  -3   3   21.80    2.70
  -1  -3  -3   23.50    1.40
   1  -3   3   25.00    1.60
   1  -3   3   23.80    1.80
   1  -3   3   25.40    2.50
   1   3   4    6.50    1.10
   1   3   4    8.40    1.70
   1  -3   4    7.60    0.90
   1  -3   4    7.40    1.10
  -1  -3  -4    3.30    1.00
   1  -3   4    5.80    2.40
  -1  -3  -4    6.90    0.90
   1  -3   4    7.20    2.00
   1   3   5    9.10    2.20
   1   3   5    9.80    1.40
   1   3   5   10.50    1.30
   1  -3   5    8.60    2.30
   1  -3   5    8.80    3.10
   1  -3   5    9.70    1.10
   1   3   6   11.20    2.50
   1   3   6   14.00    1.60
   1   3   6   15.40    2.80
   1   3   6   12.40    2.90
   1  -3   6   15.80    3.80
   1  -3   6   12.40    2.90
   1   3   7   -0.20    3.70
   1  -3   7    4.20    3.60
   1  -3   7   -0.80    4.20
  -1   4   7   -1.50    3.50
  -1  -4   7   -5.40    4.40
  -1  -4   7   -3.80    3.70
  -1   4   6   22.90    1.90
  -1   4   6   19.50    2.60
  -1   4   6   21.70    3.60
  -1  -4   6   24.50    4.00
  -1  -4   6   17.90    4.10
  -1   4   5    0.20    1.80
  -1   4   5   -0.30    1.00
  -1   4   5   -0.30    1.20
  -1   4   5    1.20    1.70
  -1  -4   5    0.60    2.50
  -1  -4   5   -4.20    2.80
  -1  -4   5    1.70    0.80
  -1   4   4    5.70    2.00
  -1   4   4    5.80    1.30
  -1   4   4    4.60    1.20
  -1   4   4    5.00    1.10
  -1  -4   4    4.50    1.00
  -1  -4   4    5.10    2.10
   1  -4  -4    4.50    0.90
  -1  -4   4    4.80    0.90
  -1   4   3   -2.00    0.90
   1   4  -3    2.10    1.70
  -1   4   3    1.30    1.40
  -1   4   3    1.30    0.80
   1   4  -3    1.00    0.60
  -1   4   3    0.60    0.90
   1   4  -3    0.90    0.50
  -1  -4   3    0.50    0.80
  -1  -4   3    0.90    0.90
  -1  -4   3    1.90    1.60
   1  -4  -3    0.60    0.90
  -1   4   2  385.26   10.70
   1   4  -2  394.36   10.50
   1   4  -2  373.46   12.80
  -1   4   2  360.86   11.70
   1   4  -2  366.36   10.50
  -1   4   2  359.76   13.40
  -1   4   2  379.06   14.50
  -1   4   2  367.06   10.60
  -1  -4   2  363.06   10.60
   1  -4  -2  374.16   13.50
  -1  -4   2  379.56   14.60
  -1  -4   2  366.46   10.50
   1  -4  -2  380.26   10.60
   1  -4  -2  381.46   10.70
  -1   4   1  242.28    8.90
   1   4  -1  242.08    7.00
   1   4  -1  249.78    7.00
  -1   4   1  240.98    9.60
  -1   4   1  241.28    7.00
  -1   4   1  239.38    7.00
   1   4  -1  256.27    9.60
   1  -4  -1  240.88    9.80
   1  -4  -1  231.88    7.60
   1  -4  -1  241.68    8.90
  -1  -4   1  237.38    7.00
  -1  -4   1  239.38    8.60
  -1  -4   1  238.48    7.00
   1  -4  -1  240.38    7.10
   1  -4  -1  244.78    7.00
  -1  -4   1  249.08    9.60
  -1   4   0  182.38    7.00
   1   4   0  184.18    5.50
  -1   4   0  184.58    7.60
   1   4   0  201.28    7.40
  -1   4   0  178.88    5.40
  -1   4   0  190.48    5.50
   1   4   0  192.08    5.50
   1   4   0  183.88    6.70
   1  -4   0  182.98    5.40
   1  -4   0  185.98    6.90
   1  -4   0  185.68    5.60
  -1  -4   0  184.08    5.50
  -1  -4   0  179.88    5.50
   1  -4   0  182.18    7.70
  -1  -4   0  190.58    7.50
  -1  -4   0  185.28    6.70
   1  -4   0  188.38    6.10
   1   4   1   58.69    2.20
  -1   4  -1   61.79    2.10
   1   4   1   57.79    2.70
   1   4   1   60.09    2.20
  -1   4  -1   61.49    2.20
   1   4   1   57.79    2.80
  -1   4  -1   62.59    3.10
   1  -4   1   61.49    2.80
  -1  -4  -1   60.29    2.30
  -1  -4  -1   62.79    3.10
  -1  -4  -1   59.79    2.30
   1  -4   1   60.29    2.10
   1  -4   1   61.79    2.70
   1  -4   1   56.19    3.30
   1  -4   1   58.59    2.30
   1   4   2  521.15   14.90
   1   4   2  545.95   14.90
  -1   4  -2  554.44   14.90
  -1   4  -2  533.45   14.80
   1   4   2  524.65   20.10
   1   4   2  531.65   18.90
   1   4   2  529.25   16.80
  -1   4  -2  562.84   20.60
   1  -4   2  518.25   17.30
  -1  -4  -2  527.35   15.00
   1  -4   2  513.75   20.50
   1  -4   2  519.35   14.80
  -1  -4  -2  547.55   16.90
   1  -4   2  530.05   15.00
   1   4   3   14.00    1.60
   1   4   3   14.50    1.70
  -1   4  -3   16.00    2.30
   1   4   3   13.20    1.40
  -1   4  -3   13.70    1.30
   1  -4   3   10.90    2.20
   1  -4   3   12.80    1.20
   1  -4   3   15.60    1.70
  -1  -4  -3   13.10    1.60
   1  -4   3   15.20    2.60
   1  -4   3   13.90    1.40
   1   4   4  216.38    7.80
   1   4   4  227.48    6.70
  -1   4  -4  234.08    6.40
  -1   4  -4  214.48    6.30
   1   4   4  232.38    6.90
   1  -4   4  221.88    9.70
   1  -4   4  222.48    6.70
   1  -4   4  227.68    6.60
   1  -4   4  205.98    8.40
   1   4   5   12.00    2.10
   1   4   5   10.20    1.70
   1   4   5   10.90    2.90
   1  -4   5   10.30    1.40
   1  -4   5    6.60    3.30
  -1  -4  -5    8.70    0.90
   1  -4   5   12.90    2.90
   1   4   6    3.70    2.30
   1   4   6    5.10    1.60
   1   4   6    0.80    3.30
   1  -4   6    3.20    3.00
   1  -4   6   -0.90    3.80
   1   4   7   -1.20    3.70
   1  -4   7    4.00    3.30
   1  -4   7    3.90    4.60
  -1   5   7   -2.20    3.70
  -1  -5   7    0.30    3.50
  -1  -5   7   -7.00    4.50
  -1   5   6   38.10    2.50
  -1   5   6   42.50    5.50
  -1  -5   6   27.80    4.80
  -1  -5   6   36.60    5.50
  -1   5   5   17.90    2.10
  -1   5   5   15.60    1.90
  -1   5   5   17.50    3.00
  -1  -5   5   21.60    3.20
  -1  -5   5   14.60    3.10
  -1  -5   5   19.50    1.70
  -1   5   4  261.17    7.40
  -1   5   4  237.08    8.10
   1   5  -4  205.98    6.70
  -1   5   4  249.18   10.00
   1   5  -4  250.97    6.70
  -1   5   4  253.37    7.40
  -1  -5   4  254.17    7.30
  -1  -5   4  248.18   10.60
  -1  -5   4  247.08    7.20
  -1   5   3   16.80    2.20
  -1   5   3   19.90    2.70
  -1   5   3   12.60    1.50
  -1   5   3   14.30    1.60
  -1   5   3   14.50    1.10
   1   5  -3   15.10    2.20
   1   5  -3   13.20    1.20
   1  -5  -3   16.20    1.50
  -1  -5   3   13.70    1.60
  -1  -5   3   13.40    1.40
  -1  -5   3   18.00    2.90
   1   5  -2  431.06   15.90
  -1   5   2  389.16   11.50
   1   5  -2  424.86   11.50
  -1   5   2  410.06   11.60
   1   5  -2  398.36   11.40
  -1   5   2  408.96   15.80
  -1   5   2  404.66   14.70
   1  -5  -2  408.96   14.70
  -1  -5   2  389.76   11.40
   1  -5  -2  402.56   11.60
  -1  -5   2  412.06   14.30
  -1  -5   2  392.96   15.90
  -1  -5   2  392.16   11.50
   1  -5  -2  401.36   11.50
   1   5  -1   82.59    2.80
  -1   5   1   80.79    2.90
   1   5  -1   88.49    4.00
  -1   5   1   80.69    3.90
   1   5  -1   76.39    3.50
  -1   5   1   85.99    3.80
  -1   5   1   78.49    2.80
   1   5  -1   79.59    2.70
  -1  -5   1   81.29    3.30
   1  -5  -1   81.69    2.80
   1  -5  -1   79.69    2.70
  -1  -5   1   73.79    2.80
  -1  -5   1   81.49    4.00
  -1  -5   1   77.89    2.80
   1  -5  -1   75.99    3.50
   1  -5  -1   79.59    3.00
   1  -5  -1   81.69    4.30
   1   5   0  553.04   15.50
   1   5   0  549.85   19.30
  -1   5   0  556.94   15.50
  -1   5   0  539.25   21.20
  -1   5   0  541.05   15.40
  -1   5   0  525.25   19.50
   1   5   0  587.94   21.10
   1   5   0  580.64   15.50
  -1  -5   0  566.64   15.50
   1  -5   0  542.75   15.60
   1  -5   0  544.05   21.30
   1  -5   0  548.45   19.40
  -1  -5   0  542.05   21.10
  -1  -5   0  539.95   19.20
   1  -5   0  563.74   17.50
  -1  -5   0  533.85   15.50
   1  -5   0  561.54   15.50
   1   5   1  119.79    3.80
   1   5   1  114.49    5.00
   1   5   1  116.19    3.80
  -1   5  -1  113.49    5.00
  -1   5  -1  120.19    3.80
  -1   5  -1  118.69    3.70
   1   5   1  114.79    4.70
  -1   5  -1  111.39    5.30
  -1  -5  -1  120.39    4.10
   1  -5   1  106.59    5.50
   1  -5   1  120.49    3.70
   1  -5   1  117.99    4.40
  -1  -5  -1  114.19    3.90
   1  -5   1  116.59    3.90
   1  -5   1  117.59    4.70
  -1  -5  -1  115.59    5.30
  -1   5  -2    4.30    1.50
   1   5   2    4.90    0.80
   1   5   2    4.80    1.00
  -1   5  -2    5.90    1.10
  -1   5  -2    4.50    0.90
   1   5   2    3.40    1.00
  -1   5  -2    7.60    1.30
   1   5   2    4.40    1.00
   1   5   2    4.00    1.10
   1  -5   2    5.20    0.90
   1  -5   2    4.90    1.70
   1  -5   2    4.50    1.20
  -1  -5  -2    6.20    1.20
   1  -5   2    5.10    1.30
   1  -5   2    3.50    1.60
  -1  -5  -2    5.30    0.80
   1   5   3    0.90    1.10
   1   5   3    2.70    1.10
  -1   5  -3   -0.10    0.90
  -1   5  -3    1.50    0.80
   1   5   3    2.60    1.10
   1   5   3    1.90    1.50
   1   5   3    1.40    1.00
  -1   5  -3    0.20    1.50
   1  -5   3   -1.30    2.00
   1  -5   3    0.80    1.30
   1  -5   3    0.40    1.00
   1  -5   3    1.50    1.80
  -1  -5  -3    1.30    1.20
  -1   5  -4    0.50    0.80
   1   5   4   -0.20    2.00
  -1   5  -4   -2.00    0.90
   1   5   4   -0.20    1.10
   1   5   4   -0.80    1.40
   1   5   4    0.90    1.20
   1   5   4    0.60    1.30
   1  -5   4   -0.20    1.30
   1  -5   4    0.10    1.00
   1  -5   4    0.20    2.10
  -1  -5  -4   -1.20    1.40
   1  -5   4   -2.20    2.60
   1   5   5    3.30    1.70
   1   5   5    4.50    1.80
   1   5   5    3.20    2.60
   1  -5   5    3.10    1.50
   1  -5   5    3.40    3.40
   1  -5   5    3.70    2.60
   1   5   6    7.00    1.80
   1   5   6    6.50    2.80
   1  -5   6    7.30    3.30
   1  -5   6    6.50    4.10
   1   5   7    1.70    3.80
   1  -5   7    1.60    4.70
   1  -5   7    6.80    3.40
  -1   6   7    0.10    3.80
  -1  -6   7   -6.00    4.60
  -1  -6   7   -0.10    3.80
  -1   6   6   -1.90    1.60
  -1   6   6    0.30    3.10
  -1  -6   6   -4.30    4.20
  -1  -6   6   -1.00    1.10
  -1  -6   6    3.00    3.30
  -1   6   5   11.90    1.50
  -1   6   5   10.90    2.80
  -1   6   5   14.50    1.90
  -1  -6   5   13.40    1.60
  -1  -6   5   11.80    3.10
  -1  -6   5   11.50    3.10
   1   6  -4    5.80    0.90
  -1   6   4    8.30    2.20
  -1   6   4   10.00    1.70
  -1   6   4    8.20    1.90
   1   6  -4   13.60    2.70
   1   6  -4    8.20    1.00
  -1   6   4    7.10    1.00
  -1   6   4    7.80    1.50
  -1  -6   4    8.40    1.50
   1  -6  -4    7.90    1.50
  -1  -6   4    7.50    2.40
  -1  -6   4    6.00    1.30
  -1   6   3    7.50    1.80
   1   6  -3    9.60    1.10
  -1   6   3    7.80    1.60
  -1   6   3    8.50    1.40
   1   6  -3    6.30    1.10
   1   6  -3   13.50    2.20
  -1   6   3    9.90    1.70
   1  -6  -3    6.30    1.60
  -1  -6   3    8.50    1.30
  -1  -6   3    9.20    2.20
  -1  -6   3    8.50    1.30
  -1   6   2   89.39    4.30
  -1   6   2   86.29    3.20
  -1   6   2   85.09    3.20
   1   6  -2   82.69    3.00
   1   6  -2   88.09    3.10
  -1   6   2   90.79    4.60
   1   6  -2   88.49    4.60
  -1  -6   2   86.29    3.70
  -1  -6   2   86.79    4.70
   1  -6  -2   92.79    4.20
  -1  -6   2   86.09    3.30
   1  -6  -2   84.49    3.10
   1  -6  -2   87.19    3.50
  -1  -6   2   85.89    3.20
   1   6  -1  175.68    7.10
  -1   6   1  163.68    5.10
  -1   6   1  156.38    6.40
   1   6  -1  171.78    5.10
  -1   6   1  158.68    7.00
   1   6  -1  162.78    6.50
   1   6  -1  163.78    5.10
  -1   6   1  167.28    5.20
   1  -6  -1  165.88    7.50
  -1  -6   1  157.28    6.10
   1  -6  -1  160.28    6.50
   1  -6  -1  168.98    5.10
   1  -6  -1  161.98    5.30
  -1  -6   1  166.58    7.20
  -1  -6   1  155.28    5.20
  -1  -6   1  162.28    5.10
   1  -6  -1  161.28    5.30
  -1   6   0   20.60    1.30
   1   6   0   20.20    1.30
  -1   6   0   18.30    2.30
  -1   6   0   20.70    2.30
   1   6   0   19.40    1.60
   1   6   0   19.90    2.00
  -1   6   0   19.00    1.60
   1   6   0   20.70    1.90
   1  -6   0   23.60    1.70
   1  -6   0   20.50    1.50
   1  -6   0   20.40    1.50
  -1  -6   0   15.80    2.00
   1  -6   0   17.70    2.80
  -1  -6   0   20.60    1.60
  -1  -6   0   19.40    1.60
  -1  -6   0   20.60    1.40
   1  -6   0   22.40    1.90
   1   6   1  119.59    4.90
  -1   6  -1  117.69    3.90
  -1   6  -1  115.29    5.30
  -1   6  -1  120.39    5.50
   1   6   1  113.49    3.90
   1   6   1  120.59    3.90
  -1   6  -1  117.99    4.00
   1   6   1  120.59    5.20
  -1  -6  -1  116.09    4.10
  -1  -6  -1  122.59    4.80
   1  -6   1  114.79    4.10
   1  -6   1  117.39    4.70
  -1  -6  -1  118.29    4.20
  -1  -6  -1  115.09    5.80
   1  -6   1  106.39    5.80
   1  -6   1  119.19    3.90
   1  -6   1  127.89    5.00
   1   6   2   -0.60    1.00
   1   6   2   -0.70    1.10
   1   6   2   -0.50    0.90
   1   6   2    1.30    1.00
  -1   6  -2   -0.70    1.00
  -1   6  -2   -1.00    0.90
  -1   6  -2   -0.20    1.10
  -1   6  -2   -0.30    1.50
   1  -6   2   -0.90    1.20
   1  -6   2   -0.20    1.60
   1  -6   2   -0.80    1.30
   1  -6   2   -1.90    1.10
  -1  -6  -2    0.40    0.70
  -1  -6  -2    0.20    1.30
   1  -6   2   -0.80    1.20
   1   6   3  202.08    6.30
  -1   6  -3  218.38    6.20
   1   6   3  201.28    8.20
   1   6   3  197.78    8.20
   1   6   3  208.08    6.30
  -1   6  -3  196.18    6.00
   1   6   3  201.38    6.70
   1  -6   3  195.48    6.10
  -1  -6  -3  193.58    6.40
   1  -6   3  183.88    7.50
   1  -6   3  208.58    8.00
   1  -6   3  188.38    9.00
   1  -6   3  205.98    6.40
   1   6   4   15.40    2.40
   1   6   4   12.10    2.40
   1   6   4   14.60    1.60
   1   6   4   15.40    2.00
   1   6   4   15.70    1.70
   1  -6   4   13.00    2.70
  -1  -6  -4   12.50    1.80
   1  -6   4   14.90    1.50
   1  -6   4   16.80    1.90
   1  -6   4   11.20    3.10
   1   6   5   58.79    5.30
   1   6   5   61.19    3.30
   1   6   5   58.59    3.50
   1  -6   5   61.29    5.90
   1  -6   5   54.09    3.10
   1  -6   5   53.09    4.70
   1   6   6    0.90    3.40
   1   6   6    3.70    2.00
   1  -6   6    5.40    3.20
   1  -6   6    4.70    4.30
   1  -6   6    4.00    1.60
  -1   7   6    1.60    1.90
  -1   7   6    3.70    3.40
  -1  -7   6    2.10    3.60
  -1  -7   6   -3.60    4.40
  -1  -7   6    3.00    1.50
  -1   7   5   26.40    2.40
  -1   7   5   23.20    3.40
  -1  -7   5   24.70    3.60
  -1  -7   5   24.20    3.60
  -1  -7   5   22.30    2.50
   1   7  -4   80.89    4.60
  -1   7   4   72.79    3.40
  -1   7   4   73.69    3.40
  -1   7   4   80.29    5.20
  -1  -7   4   73.39    5.60
  -1  -7   4   75.79    3.60
   1  -7  -4   71.59    3.40
  -1  -7   4   74.19    3.10
  -1   7   3  159.98    7.20
   1   7  -3  159.08    6.40
  -1   7   3  157.78    5.30
  -1   7   3  153.78    7.00
  -1   7   3  154.48    5.20
   1   7  -3  156.48    4.90
   1  -7  -3  151.08    5.50
  -1  -7   3  160.78    6.30
  -1  -7   3  150.38    7.60
  -1  -7   3  154.98    5.00
  -1  -7   3  149.99    5.30
  -1   7   2   98.09    3.60
  -1   7   2  108.69    5.10
   1   7  -2  108.29    3.70
  -1   7   2  107.59    3.80
   1   7  -2   99.19    3.60
  -1   7   2  101.79    5.20
  -1  -7   2  105.29    3.70
  -1  -7   2  104.99    3.90
   1  -7  -2  102.39    4.00
  -1  -7   2   99.99    5.60
  -1  -7   2  103.49    4.30
  -1   7   1  968.00   25.90
  -1   7   1  920.71   25.90
  -1   7   1  931.51   32.50
   1   7  -1  921.11   32.50
   1   7  -1  936.41   25.80
   1   7  -1  952.30   25.90
  -1   7   1  901.61   35.20
   1   7  -1 1011.10   35.30
  -1  -7   1  907.21   35.30
   1  -7  -1  913.11   28.90
  -1  -7   1  941.71   25.80
  -1  -7   1  893.81   32.10
  -1  -7   1  884.11   25.90
   1  -7  -1  908.91   26.00
   1  -7  -1  952.10   35.70
   1  -7  -1  945.91   25.90
   1  -7  -1  859.91   32.40
  -1   7   0   78.29    3.00
   1   7   0   78.19    3.70
   1   7   0   76.19    3.10
  -1   7   0   72.19    3.00
   1   7   0   79.89    4.10
  -1   7   0   72.89    4.10
   1   7   0   79.29    3.00
  -1   7   0   72.69    4.00
   1  -7   0   74.79    3.70
  -1  -7   0   74.89    2.80
  -1  -7   0   72.59    4.40
  -1  -7   0   77.09    3.20
   1  -7   0   69.69    4.80
   1  -7   0   73.79    3.00
   1  -7   0   72.79    3.00
  -1  -7   0   78.49    3.50
   1  -7   0   78.79    3.20
   1   7   1  507.55   15.10
   1   7   1  529.85   20.40
  -1   7  -1  549.54   15.10
  -1   7  -1  534.45   19.30
  -1   7  -1  546.75   20.90
  -1   7  -1  547.65   15.10
   1   7   1  557.14   15.10
   1   7   1  547.05   18.90
   1  -7   1  528.45   18.90
  -1  -7  -1  534.55   16.80
  -1  -7  -1  543.25   18.80
  -1  -7  -1  496.75   20.80
  -1  -7  -1  498.75   15.10
   1  -7   1  539.15   15.10
   1  -7   1  512.65   15.20
   1  -7   1  491.05   20.80
   1  -7   1  524.35   17.20
  -1   7  -2   45.50    2.30
   1   7   2   46.80    2.40
   1   7   2   44.60    2.50
   1   7   2   44.60    3.10
  -1   7  -2   50.19    2.60
   1   7   2   44.10    2.90
   1  -7   2   46.50    3.20
  -1  -7  -2   44.50    2.70
   1  -7   2   45.70    2.60
   1  -7   2   45.70    2.30
   1  -7   2   44.50    3.30
   1  -7   2   36.80    4.00
  -1  -7  -2   46.80    2.10
   1   7   3   22.60    2.00
   1   7   3   23.10    2.30
  -1   7  -3   22.10    1.70
   1   7   3   23.50    2.40
  -1   7  -3   23.00    2.60
   1   7   3   20.40    2.50
   1  -7   3   21.90    2.80
   1  -7   3   19.80    2.90
   1  -7   3   26.10    2.10
   1  -7   3   19.50    2.30
  -1  -7  -3   21.80    2.40
  -1   7  -4    5.70    1.20
   1   7   4    7.20    2.40
   1   7   4    4.70    1.50
   1   7   4    7.70    2.00
   1   7   4    7.80    1.60
   1   7   4    7.70    1.40
  -1  -7  -4    4.80    2.00
   1  -7   4    5.20    2.70
   1  -7   4    4.20    3.00
   1  -7   4    6.60    1.70
   1  -7   4    6.10    1.50
   1   7   5    6.10    2.90
   1   7   5    5.50    2.10
   1  -7   5    8.90    3.10
   1  -7   5    5.50    3.70
   1  -7   5    5.90    2.00
   1   7   6    3.90    2.10
   1   7   6    3.60    2.70
   1  -7   6    8.80    3.50
   1  -7   6    4.60    1.80
   1  -7   6    2.10    4.50
  -1   8   6    6.90    2.20
  -1   8   6    6.80    2.80
  -1  -8   6    6.80    1.90
  -1  -8   6    3.10    4.70
  -1  -8   6    9.90    3.90
  -1   8   5   -1.10    1.80
  -1   8   5    2.40    2.80
  -1  -8   5    1.80    2.00
  -1  -8   5    2.20    3.30
  -1  -8   5   -3.20    3.70
   1   8  -4    3.10    2.80
  -1   8   4   -0.50    1.70
  -1   8   4    3.80    2.00
  -1   8   4    2.90    2.40
   1   8  -4    0.30    1.10
  -1  -8   4    5.90    2.90
   1  -8  -4    0.90    2.00
  -1  -8   4    1.20    1.70
  -1  -8   4    1.90    1.50
  -1  -8   4   -1.00    1.90
  -1   8   3   -0.80    1.40
   1   8  -3   -0.50    1.20
  -1   8   3    1.80    2.00
   1   8  -3   -0.60    2.20
  -1   8   3   -2.80    1.50
  -1  -8   3   -1.20    1.60
  -1  -8   3   -1.10    1.40
  -1  -8   3   -1.10    2.40
   1  -8  -3   -3.60    1.70
  -1  -8   3   -0.90    1.50
  -1   8   2  148.99    5.20
  -1   8   2  156.38    5.20
  -1   8   2  145.59    6.90
  -1   8   2  148.29    6.70
   1   8  -2  154.08    5.10
  -1  -8   2  157.38    6.00
   1  -8  -2  146.89    5.40
  -1  -8   2  153.68    5.10
  -1  -8   2  146.39    5.20
  -1  -8   2  139.79    7.40
  -1   8   1  137.99    6.10
   1   8  -1  146.39    6.60
   1   8  -1  140.09    4.70
  -1   8   1  133.09    6.40
   1   8  -1  125.39    6.10
  -1   8   1  134.79    4.60
  -1   8   1  138.79    4.60
  -1  -8   1  136.89    4.70
   1  -8  -1  135.29    4.70
   1  -8  -1  139.59    5.90
  -1  -8   1  131.59    6.70
   1  -8  -1  140.09    5.00
  -1  -8   1  138.89    4.90
   1  -8  -1  121.19    7.20
  -1  -8   1  134.49    5.40
   1   8   0   98.19    3.60
  -1   8   0   95.29    3.80
   1   8   0  109.59    5.20
  -1   8   0   97.39    5.10
  -1   8   0  106.59    5.40
  -1   8   0   99.69    3.60
   1   8   0   97.99    4.60
   1   8   0  101.99    3.90
  -1  -8   0  103.69    4.10
   1  -8   0  106.29    3.80
   1  -8   0  101.99    4.10
  -1  -8   0   98.69    5.60
   1  -8   0  103.69    4.70
  -1  -8   0   98.39    3.80
  -1  -8   0  100.49    4.30
   1  -8   0   97.39    3.90
   1  -8   0   94.69    6.00
   1   8   1   54.59    2.90
  -1   8  -1   42.80    4.40
  -1   8  -1   51.59    2.40
   1   8   1   52.59    3.30
   1   8   1   62.19    3.40
   1   8   1   57.69    2.70
   1  -8   1   55.59    3.10
   1  -8   1   60.09    3.20
  -1  -8  -1   42.40    4.70
  -1  -8  -1   52.49    3.10
  -1  -8  -1   57.19    3.10
   1  -8   1   52.99    3.20
   1  -8   1   46.50    4.40
   1  -8   1   54.69    2.70
   1   8   2  135.79    5.00
  -1   8  -2  144.49    4.80
  -1   8  -2  136.19    5.40
   1   8   2  138.99    4.80
   1   8   2  146.29    6.20
   1   8   2  136.29    6.20
   1  -8   2  149.39    6.10
  -1  -8  -2  141.79    5.10
  -1  -8  -2  135.39    7.20
   1  -8   2  139.29    5.90
   1  -8   2  139.39    4.70
  -1  -8  -2  132.89    4.80
   1  -8   2  142.59    5.10
   1  -8   2  124.59    7.20
  -1   8  -3   26.00    2.20
  -1   8  -3   30.90    2.60
   1   8   3   24.30    2.60
   1   8   3   28.60    3.50
   1   8   3   25.30    2.30
   1   8   3   32.40    2.70
   1  -8   3   26.80    3.20
   1  -8   3   21.00    3.30
   1  -8   3   25.20    2.30
   1  -8   3   30.10    2.70
  -1  -8  -3   27.60    2.80
   1   8   4   75.69    3.70
   1   8   4   78.89    3.80
  -1   8  -4   68.49    3.00
   1   8   4   74.69    4.20
   1   8   4   76.39    5.30
   1  -8   4   76.19    5.70
   1  -8   4   76.49    4.00
  -1  -8  -4   70.19    3.90
   1  -8   4   66.59    5.90
   1   8   5   17.80    2.60
   1   8   5   16.20    3.40
   1  -8   5   12.60    3.60
   1  -8   5   15.10    4.10
   1  -8   5   14.30    2.30
   1   8   6    0.50    2.30
   1   8   6    2.70    3.60
   1  -8   6    7.10    4.10
   1  -8   6   -2.00    4.70
   1  -8   6    1.00    2.00
  -1   9   6    9.10    3.80
  -1   9   6   13.20    2.50
  -1  -9   6    6.50    5.00
  -1  -9   6   11.80    2.30
  -1  -9   6   14.00    4.30
  -1   9   5    2.10    3.10
  -1   9   5    2.60    2.40
  -1  -9   5    1.90    3.40
  -1  -9   5    2.70    2.20
  -1  -9   5   -1.10    4.10
   1   9  -4   75.69    3.30
  -1   9   4   82.99    5.80
   1   9  -4   84.79    5.10
  -1   9   4   87.49    4.10
  -1  -9   4   78.79    4.00
  -1  -9   4   76.19    6.50
   1  -9  -4   78.49    4.10
  -1   9   3    0.00    2.10
   1   9  -3   -1.20    1.50
  -1   9   3    0.30    1.60
  -1   9   3   -1.30    1.80
   1   9  -3    1.40    2.50
  -1  -9   3    1.30    1.50
  -1  -9   3   -0.70    1.90
  -1  -9   3    0.60    1.40
  -1  -9   3    2.00    2.80
   1  -9  -3   -3.10    2.00
  -1   9   2  214.08    6.70
   1   9  -2  204.08    6.50
  -1   9   2  200.78    8.60
  -1   9   2  202.28    6.70
  -1  -9   2  199.08    7.80
  -1  -9   2  197.18    6.80
  -1  -9   2  209.68    6.60
  -1  -9   2  196.98    9.60
   1  -9  -2  203.28    7.00
  -1   9   1    1.70    1.80
   1   9  -1   -1.90    1.80
  -1   9   1    4.80    1.30
  -1   9   1    5.60    1.80
   1   9  -1    4.30    1.60
  -1  -9   1    3.30    2.30
   1  -9  -1   -1.20    2.80
  -1  -9   1    3.20    1.20
   1  -9  -1    3.30    1.60
  -1  -9   1    3.90    1.60
  -1  -9   1    4.30    1.90
   1  -9  -1    4.50    1.10
  -1   9   0  243.78    9.80
  -1   9   0  244.78    7.70
   1   9   0  250.27    9.60
   1   9   0  247.78   10.30
   1   9   0  231.58    7.50
   1  -9   0  239.58   11.20
   1  -9   0  246.58    8.00
   1  -9   0  232.38    9.40
  -1  -9   0  240.18    7.80
  -1  -9   0  249.18    9.20
   1  -9   0  251.67    8.40
  -1  -9   0  226.38   10.80
  -1   9  -1   16.80    1.90
   1   9   1   20.20    2.50
   1   9   1   13.30    1.90
   1   9   1   18.40    1.90
  -1   9  -1    8.70    2.50
   1  -9   1    9.30    2.80
   1  -9   1   16.00    2.30
  -1  -9  -1   18.20    2.30
  -1  -9  -1    9.20    3.00
   1  -9   1   15.00    1.60
  -1  -9  -1   15.60    2.20
   1  -9   1   17.20    2.20
   1  -9   1   14.60    2.30
   1   9   2   16.90    2.50
  -1   9  -2   14.90    1.80
   1   9   2   13.40    1.70
   1   9   2   13.20    1.90
   1   9   2    9.40    2.00
  -1  -9  -2    5.10    2.90
  -1  -9  -2   12.60    1.20
   1  -9   2   15.00    1.80
   1  -9   2    8.30    2.30
  -1  -9  -2   11.30    2.30
   1  -9   2   10.30    2.20
   1  -9   2   12.90    2.60
  -1   9  -3    1.40    2.10
   1   9   3   -3.80    1.60
   1   9   3   -0.10    2.00
   1   9   3   -1.50    1.70
  -1   9  -3    0.00    1.40
   1   9   3    1.50    1.40
   1  -9   3   -1.40    2.80
   1  -9   3   -1.40    2.80
  -1  -9  -3   -2.00    2.00
   1  -9   3    1.20    2.10
   1  -9   3    0.80    1.50
   1   9   4   -0.90    2.00
   1   9   4    1.70    2.50
  -1   9  -4   -1.10    1.50
   1  -9   4    0.60    2.30
   1  -9   4    0.70    3.20
   1  -9   4    1.40    3.50
  -1  -9  -4    0.90    2.40
   1   9   5    1.20    2.10
   1   9   5    1.00    2.40
   1  -9   5   -0.10    3.10
   1  -9   5    1.90    3.80
   1  -9   5    2.20    2.30
   1   9   6    3.10    2.50
   1   9   6    0.90    3.40
   1  -9   6    1.20    5.00
   1  -9   6    3.00    3.80
   1  -9   6   -1.30    2.30
  -1  10   6   -0.20    2.50
  -1  10   6    1.00    3.80
  -1 -10   6   -4.20    4.60
  -1 -10   6    0.50    4.50
  -1 -10   6   -0.80    2.30
  -1  10   5    1.90    2.30
  -1  10   5   -0.40    3.10
  -1 -10   5   -3.50    3.20
  -1 -10   5    2.10    3.80
  -1 -10   5   -1.20    2.50
  -1  10   4    3.60    2.50
  -1  10   4    3.10    2.90
   1  10  -4    4.80    3.30
   1 -10  -4    0.20    2.30
  -1 -10   4    2.50    2.20
  -1 -10   4    1.80    2.70
   1  10  -3   22.10    2.20
  -1  10   3   18.80    3.00
  -1  10   3   22.70    2.60
   1  10  -3   25.60    3.40
   1 -10  -3   18.80    2.80
  -1 -10   3   15.10    2.00
  -1 -10   3   20.20    2.60
  -1 -10   3   22.00    2.50
  -1 -10   3   16.90    3.40
  -1  10   2   24.50    2.90
  -1  10   2   28.90    4.00
   1  10  -2   26.50    2.60
  -1 -10   2   25.50    2.70
  -1 -10   2   30.60    2.80
  -1 -10   2   29.40    2.60
  -1 -10   2   22.00    3.40
   1 -10  -2   27.10    3.40
   1  10  -1    7.20    2.40
  -1  10   1   13.20    1.80
  -1  10   1   11.40    2.40
   1  10  -1   15.60    1.80
   1 -10  -1   12.60    1.50
  -1 -10   1   10.40    1.60
  -1 -10   1   16.90    2.50
  -1 -10   1    7.10    2.80
   1 -10  -1   12.80    2.60
   1 -10  -1    4.80    3.40
  -1  10   0   14.80    1.80
   1  10   0   18.10    2.20
  -1  10   0   13.00    2.50
   1  10   0   13.00    2.10
  -1 -10   0   15.00    2.50
   1 -10   0   12.60    2.80
  -1 -10   0   13.80    2.20
   1 -10   0   22.50    2.60
  -1 -10   0   13.00    2.90
   1 -10   0   16.60    2.60
  -1  10  -1    3.70    2.60
   1  10   1    7.60    1.90
  -1  10  -1   10.40    2.00
   1  10   1   10.90    2.10
   1 -10   1   12.60    2.20
   1 -10   1    6.80    3.10
  -1 -10  -1    8.00    2.40
  -1 -10  -1    4.20    3.00
   1 -10   1   10.70    2.50
   1  10   2    1.50    2.00
  -1  10  -2    0.20    1.80
   1  10   2   -0.40    2.00
   1  10   2    3.80    1.80
   1 -10   2    4.50    2.50
   1 -10   2    2.80    1.80
   1 -10   2   -2.40    2.80
   1 -10   2    0.60    2.30
  -1 -10  -2    3.40    2.40
  -1 -10  -2    0.80    1.00
   1  10   3   37.90    3.20
   1  10   3   28.40    3.30
   1  10   3   36.10    4.20
  -1  10  -3   36.40    3.40
  -1  10  -3   33.30    2.60
  -1 -10  -3   32.70    3.50
   1 -10   3   27.80    4.40
   1 -10   3   34.40    4.70
   1 -10   3   34.30    3.40
   1 -10   3   36.40    2.70
   1  10   4   12.60    3.00
   1  10   4   13.70    2.80
   1 -10   4   10.90    3.70
   1 -10   4   13.30    4.00
   1 -10   4   16.10    2.80
  -1 -10  -4   14.80    3.00
   1  10   5    7.70    3.40
   1  10   5   12.90    2.60
   1 -10   5   10.60    2.80
   1 -10   5    9.40    3.90
   1 -10   5   13.00    4.60
   1  10   6    2.80    3.90
   1  10   6    8.70    2.90
   1 -10   6   -0.50    5.10
   1 -10   6    4.00    2.60
   1 -10   6    6.00    4.10
  -1  11   5    9.70    3.70
  -1  11   5    8.70    3.00
  -1 -11   5    8.30    4.70
  -1 -11   5    8.70    4.10
  -1 -11   5    7.70    2.80
   1  11  -4   11.80    3.90
  -1  11   4    7.20    2.60
  -1  11   4    6.00    2.50
  -1 -11   4    7.30    3.00
   1 -11  -4    5.60    2.70
  -1 -11   4    7.10    3.90
  -1  11   3   47.70    3.70
   1  11  -3   44.90    3.30
  -1  11   3   47.30    5.10
  -1 -11   3   49.00    6.00
   1 -11  -3   47.20    4.10
  -1 -11   3   45.70    3.90
   1  11  -2   23.60    2.80
  -1  11   2   23.30    3.00
  -1  11   2   27.50    2.80
  -1 -11   2   25.00    2.90
   1 -11  -2   26.10    3.20
  -1 -11   2   27.70    2.80
  -1 -11   2   21.20    3.80
   1  11  -1  194.88    8.70
  -1  11   1  195.68    6.60
  -1  11   1  199.48    8.50
   1  11  -1  178.18    6.20
  -1 -11   1  193.08    6.90
   1 -11  -1  163.38   10.20
   1 -11  -1  189.58    7.10
  -1 -11   1  165.18    9.30
   1 -11  -1  180.08    6.50
  -1 -11   1  183.48    7.50
  -1  11   0   13.90    2.80
   1  11   0   15.80    2.40
   1  11   0   16.80    2.40
  -1  11   0   19.50    2.50
  -1 -11   0   11.20    3.30
   1 -11   0   17.90    2.40
  -1 -11   0   20.80    2.90
   1 -11   0   21.70    2.80
   1 -11   0   10.50    3.70
  -1  11  -1  102.89    4.20
   1  11   1  104.49    5.60
  -1  11  -1   97.39    6.60
   1  11   1  110.59    4.80
   1 -11   1  113.89    5.20
   1 -11   1  114.19    5.50
  -1 -11  -1  107.59    8.00
   1 -11   1   98.89    7.40
  -1 -11  -1  106.89    5.10
   1  11   2    9.70    2.40
   1  11   2    8.90    2.40
  -1  11  -2   10.00    2.20
   1 -11   2    5.60    3.50
   1 -11   2   10.50    2.80
   1 -11   2    8.80    2.80
  -1 -11  -2    8.00    2.80
  -1 -11  -2    6.40    1.10
  -1  11  -3    8.10    2.60
  -1  11  -3    5.30    2.20
   1  11   3    5.40    2.50
   1  11   3    7.20    2.50
   1 -11   3    3.00    3.50
  -1 -11  -3    8.10    2.70
   1 -11   3    4.90    3.10
   1 -11   3    2.90    3.20
   1  11   4    3.40    2.90
   1  11   4    2.80    2.50
   1 -11   4    1.40    3.70
  -1 -11  -4    1.80    2.70
   1 -11   4    2.30    2.70
   1 -11   4    0.90    3.70
   1  11   5    1.70    3.40
   1  11   5    1.40    2.60
   1 -11   5    0.30    4.60
   1 -11   5    5.60    4.10
   1 -11   5   -1.20    2.60
  -1  12   5    0.60    2.70
   1  12  -5    7.60    4.10
  -1  12   5    2.60    3.50
  -1 -12   5    2.40    2.80
  -1 -12   5   -1.80    4.50
  -1 -12   5    5.30    4.50
  -1  12   4    1.60    2.70
   1  12  -4    0.30    3.70
  -1  12   4    0.20    3.30
  -1 -12   4    1.00    2.80
  -1 -12   4   -0.90    3.80
  -1 -12   4    2.50    3.20
  -1  12   3    0.80    2.40
   1  12  -3    0.80    1.90
  -1  12   3    2.40    2.90
   1 -12  -3    2.30    3.00
  -1 -12   3    0.00    3.60
  -1 -12   3    2.00    2.80
  -1  12   2   30.70    4.70
   1  12  -2   30.10    3.10
  -1  12   2   30.40    3.60
  -1 -12   2   26.70    3.10
  -1 -12   2   25.70    4.10
   1 -12  -2   31.10    3.60
  -1  12   1   37.90    3.50
   1  12  -1   35.30    3.40
   1  12  -1   20.60    3.30
  -1  12   1   34.30    4.60
  -1 -12   1   41.80    4.10
   1 -12  -1   30.00    2.70
  -1 -12   1   27.20    4.10
   1 -12  -1   36.20    4.20
   1 -12  -1   23.80    5.20
   1  12   0   19.60    2.70
   1  12   0   18.20    3.00
  -1  12   0   24.40    2.70
  -1  12   0   18.30    3.40
   1 -12   0   18.60    2.40
  -1 -12   0   23.60    3.20
  -1 -12   0   12.50    3.80
   1 -12   0   23.80    3.30
   1 -12   0   17.50    4.20
  -1  12  -1   22.80    2.70
  -1  12  -1   13.60    3.80
   1  12   1   19.50    2.90
   1  12   1   22.30    2.80
  -1 -12  -1   17.10    4.10
  -1 -12  -1   25.00    3.30
   1 -12   1   16.40    4.10
   1 -12   1   17.70    3.20
   1 -12   1   30.70    3.90
  -1  12  -2   18.60    2.60
   1  12   2   16.10    2.80
   1  12   2   22.10    2.50
  -1 -12  -2   21.10    3.30
  -1 -12  -2   23.60    1.50
   1 -12   2   11.70    4.10
   1 -12   2   20.30    3.40
   1 -12   2   22.10    3.30
   1  12   3   16.00    2.90
  -1  12  -3   15.00    3.10
  -1  12  -3   13.70    2.30
   1  12   3   12.20    3.10
   1 -12   3   13.20    4.30
   1 -12   3   15.90    3.80
   1 -12   3   13.70    3.20
  -1 -12  -3   15.80    3.50
   1  12   4   13.80    3.00
   1  12   4   11.30    3.10
   1 -12   4    8.80    4.20
   1 -12   4   14.60    4.40
   1 -12   4   12.80    3.70
   1  12   5    4.70    3.60
   1  12   5    9.40    3.00
   1 -12   5    7.80    5.00
   1 -12   5    8.30    4.60
   1 -12   5   10.10    3.60
  -1  13   5    1.00    3.90
   1  13  -5    0.60    4.20
  -1  13   5    4.60    3.30
  -1 -13   5    8.30    4.80
  -1 -13   5    3.50    3.40
  -1 -13   5    2.40    5.00
  -1  13   4   21.40    3.20
  -1  13   4   15.40    3.80
   1  13  -4   18.30    4.30
  -1 -13   4   17.00    4.80
  -1 -13   4   15.10    3.80
  -1 -13   4   15.30    4.50
   1  13  -3   -0.20    2.10
  -1  13   3    2.60    2.80
  -1  13   3    2.90    3.10
  -1 -13   3    3.70    3.60
   1 -13  -3    4.50    3.30
  -1 -13   3    2.60    4.20
  -1  13   2   54.59    5.80
  -1  13   2   62.19    4.40
   1  13  -2   63.29    4.00
  -1 -13   2   64.89    4.90
  -1 -13   2   54.89    7.00
   1 -13  -2   67.99    5.20
  -1  13   1    0.60    2.70
   1  13  -1   -8.00    2.90
   1  13  -1    1.70    2.40
  -1  13   1    0.40    2.50
  -1 -13   1   -2.70    3.60
  -1 -13   1   -0.60    3.10
   1 -13  -1    0.70    1.60
   1 -13  -1   -7.50    4.20
   1 -13  -1    1.70    3.20
   1  13   0   56.29    4.10
  -1  13   0   51.59    4.00
  -1  13   0   47.20    5.50
   1  13   0   47.40    5.30
   1 -13   0   57.99    3.90
   1 -13   0   48.30    3.90
  -1 -13   0   43.70    6.60
  -1 -13   0   49.70    4.60
   1 -13   0   47.50    7.20
   1  13   1    1.50    2.40
  -1  13  -1    0.50    2.40
   1  13   1   -0.20    1.90
  -1  13  -1   -9.00    3.10
   1 -13   1    5.80    2.50
  -1 -13  -1   -5.30    3.70
  -1 -13  -1   -1.00    3.00
   1 -13   1   -2.80    3.90
   1 -13   1    0.40    3.20
   1  13   2    2.70    2.60
   1  13   2    1.60    2.80
  -1  13  -2    1.40    2.40
   1 -13   2    4.50    3.40
  -1 -13  -2    3.10    3.30
   1 -13   2   -0.40    4.20
   1 -13   2    0.50    3.10
   1  13   3    2.40    2.60
   1  13   3    0.70    2.80
  -1  13  -3   -1.10    2.20
  -1  13  -3   -0.30    2.90
   1 -13   3   -0.20    3.60
   1 -13   3   -1.70    4.20
   1 -13   3    0.70    3.30
  -1 -13  -3    4.20    3.30
   1  13   4    3.40    3.00
  -1  13  -4    4.40    3.20
   1  13   4    0.80    3.20
   1 -13   4    1.10    4.40
   1 -13   4   -2.80    3.70
   1 -13   4    1.90    4.10
  -1  14   4    4.50    3.20
  -1  14   4    1.10    3.70
   1  14  -4   -0.20    4.30
  -1 -14   4   -0.20    3.50
  -1 -14   4    1.40    4.70
  -1 -14   4    3.10    4.40
  -1  14   3    9.20    3.20
  -1  14   3    9.80    3.60
  -1 -14   3   10.20    3.90
  -1 -14   3    7.90    4.50
  -1 -14   3   14.40    3.80
   1 -14  -3    9.70    3.60
  -1  14   2    1.50    3.10
   1  14  -2    4.50    2.50
  -1  14   2    1.70    2.90
  -1 -14   2    0.70    4.20
  -1 -14   2    7.20    3.50
   1 -14  -2   -0.20    3.40
  -1  14   1   -0.40    3.00
   1  14  -1   -5.20    3.20
   1  14  -1    2.80    2.60
  -1  14   1    0.80    2.80
   1 -14  -1   -3.50    4.70
  -1 -14   1    0.10    4.10
  -1 -14   1    5.20    3.50
   1 -14  -1    7.90    3.70
   1  14   0    7.80    2.80
   1  14   0    2.50    2.70
  -1  14   0    4.40    2.10
  -1  14   0    1.50    3.20
   1 -14   0    0.10    4.60
  -1 -14   0   -1.20    4.00
   1 -14   0    9.80    3.70
   1 -14   0    6.40    2.50
  -1 -14   0   11.50    3.50
  -1  14  -1    2.60    2.60
   1  14   1   -0.10    2.10
   1  14   1   -4.50    2.50
  -1  14  -1  -11.20    3.60
   1 -14   1   -0.20    2.80
  -1 -14  -1   -1.10    3.30
  -1 -14  -1   -6.70    4.60
   1 -14   1   -1.70    3.40
   1 -14   1   -3.10    4.20
  -1  14  -2    4.70    2.50
   1  14   2    5.40    3.00
   1  14   2    4.90    2.90
   1 -14   2    3.20    3.70
   1 -14   2   -0.40    3.50
  -1 -14  -2    1.30    3.60
   1 -14   2   -1.40    4.60
  -1  14  -3    1.90    3.10
   1  14   3    4.40    3.10
   1  14   3    3.00    3.10
   1 -14   3    3.00    3.70
  -1 -14  -3    7.60    3.70
   1 -14   3    2.30    4.70
   1 -14   3    7.70    4.20
   1  14   4    7.10    3.30
   1  14   4    7.10    3.60
   1 -14   4    4.20    3.80
   1 -14   4    4.30    4.90
   1 -14   4    6.30    4.60
  -1  15   3   10.30    3.30
  -1  15   3    4.30    3.50
  -1 -15   3    9.20    4.00
  -1 -15   3    1.00    4.70
  -1 -15   3   15.50    4.10
   1 -15  -3    4.40    4.00
   1  15  -2   10.30    2.70
  -1  15   2    4.90    3.50
  -1  15   2   13.30    3.30
  -1 -15   2    7.60    3.40
   1 -15  -2   10.60    4.10
  -1 -15   2    6.00    3.90
  -1 -15   2    6.40    4.50
  -1  15   1   20.60    3.30
   1  15  -1   19.80    3.20
  -1  15   1   13.40    3.60
   1  15  -1    5.00    3.60
  -1 -15   1   12.50    4.80
   1 -15  -1   20.40    3.40
  -1 -15   1   24.60    4.20
   1 -15  -1    6.60    5.30
  -1  15   0   -1.40    3.40
   1  15   0    1.10    3.00
  -1  15   0   -1.10    2.90
   1  15   0   -2.30    2.90
  -1 -15   0    2.00    3.70
  -1 -15   0    6.90    2.50
   1 -15   0    2.30    2.90
   1 -15   0    4.30    2.70
  -1 -15   0   -2.50    4.30
   1 -15   0   -2.60    4.70
  -1  15  -1   -2.00    3.80
   1  15   1    2.30    3.20
  -1  15  -1   10.90    3.10
   1  15   1   11.30    2.60
   1 -15   1    9.50    3.20
  -1 -15  -1   16.50    4.00
   1 -15   1    4.70    4.60
   1 -15   1   13.30    4.10
  -1 -15  -1    2.10    4.70
   1  15   2    1.30    3.00
  -1  15  -2    1.60    2.80
   1  15   2    3.90    3.20
   1 -15   2    1.00    3.00
   1 -15   2    1.00    3.70
  -1 -15  -2   -1.90    3.70
   1 -15   2    0.10    5.10
   1  15   3    3.00    3.30
   1  15   3    2.10    3.20
   1 -15   3    1.40    4.00
   1 -15   3    0.20    5.00
   1 -15   3    2.40    3.90
  -1 -15  -3    3.20    3.90
  -1  16   3    1.10    3.90
  -1  16   3    4.90    3.40
  -1 -16   3    7.00    4.20
  -1 -16   3    1.00    4.00
  -1 -16   3   -1.30    5.20
  -1  16   2    0.20    3.80
  -1  16   2    4.20    3.20
   1  16  -2    6.80    3.00
  -1 -16   2    4.90    4.30
  -1 -16   2    4.90    3.50
  -1 -16   2    3.80    5.00
   1 -16  -2    7.20    4.10
  -1  16   1    3.70    3.20
   1  16  -1    9.50    3.10
  -1  16   1    2.10    3.60
   1  16  -1   -5.70    3.50
  -1 -16   1    8.00    3.10
   1 -16  -1   -5.30    5.40
   1 -16  -1    9.40    4.40
  -1 -16   1    4.20    4.10
  -1 -16   1    3.70    4.90
  -1  16   0    5.50    3.20
  -1  16   0   -6.40    3.60
   1  16   0   -8.00    3.30
   1  16   0    9.20    3.20
  -1 -16   0   -1.70    4.70
   1 -16   0   -6.20    5.40
   1 -16   0    2.80    4.10
  -1 -16   0    5.90    4.10
  -1  16  -1  -10.90    4.10
   1  16   1    8.80    3.20
  -1  16  -1    4.70    3.10
   1  16   1    0.00    3.40
   1 -16   1    6.00    3.40
   1 -16   1    5.60    4.20
  -1 -16  -1   10.90    4.30
   1 -16   1   -2.10    5.00
  -1 -16  -1   -1.90    5.00
  -1  16  -2    3.40    3.10
   1  16   2   -2.00    3.50
   1  16   2    5.70    3.50
   1 -16   2   -0.40    5.30
   1 -16   2    5.00    4.00
  -1 -16  -2   -0.90    4.10
   1 -16   2   -3.00    4.20
   1  16   3    6.30    3.60
   1  16   3    5.00    3.60
   1 -16   3    4.50    4.40
   1 -16   3    5.20    5.50
  -1  17   2    4.00    4.00
  -1  17   2   14.70    3.70
  -1  17   1   -2.90    3.70
  -1  17   1    2.50    3.50
   1  17  -1   -0.30    3.00
   1 -17  -1  -10.70    5.50
   1 -17  -1   -0.10    4.40
  -1 -17   1    4.50    4.40
  -1 -17   1   -3.50    5.50
  -1  17   0    6.30    3.50
   1  17   0   -9.90    3.70
  -1  17   0   -3.40    3.90
   1  17   0   11.60    3.50
  -1 -17   0    1.30    5.00
   1 -17   0    3.40    5.70
   1 -17   0    7.70    4.50
  -1 -17   0    3.00    4.40
   1  17   1   -4.70    3.20
  -1  17  -1  -11.20    4.30
   1  17   1    6.70    3.40
  -1  17  -1    1.60    3.30
  -1 -17  -1   -6.50    5.00
   1 -17   1   -1.10    3.40
   1 -17   1    0.30    5.50
  -1 -17  -1    7.00    4.50
  -2   0   7   -4.40    3.40
  -2   0   7   -2.50    3.20
  -2   0   7    1.30    3.40
  -2   0   6   57.69    5.20
  -2   0   6   59.09    5.40
  -2   0   5   -0.60    2.00
  -2   0   4  393.26   14.30
  -2   0   4  347.67   10.60
  -2   0   4  423.16   10.60
  -2   0   3    0.50    1.30
  -2   0   3   -0.30    1.00
  -2   0   3   -0.40    0.40
  -2   0   3   -0.50    0.40
   2   0  -2    4.90    0.50
  -2   0   2    4.90    0.50
  -2   0   2    5.30    0.50
  -2   0   2    7.60    1.10
  -2   0   2    4.60    0.80
  -2   0   1   -0.50    0.40
  -2   0   1   -0.30    0.30
   2   0  -1    0.00    0.60
   2   0  -1   -0.70    0.30
   2   0  -1   -0.30    0.40
  -2   0   1    0.80    0.50
   2   0   0  272.57    9.30
  -2   0   0  256.67    7.40
   2   0   0  264.37    8.50
  -2   0   0  257.17    7.40
  -2   0   0  266.67    8.50
   2   0   0  256.87    7.40
  -2   0  -1   -0.30    0.50
  -2   0  -1    0.60    0.70
   2   0   1    3.00    0.90
  -2   0  -1   -1.00    0.50
  -2   0  -1   -0.40    0.50
   2   0   1   -0.90    0.50
   2   0   2  170.78    5.00
  -2   0  -2  170.88    5.00
  -2   0  -2  176.68    6.10
  -2   0  -2  173.28    5.10
   2   0   2  167.28    6.10
   2   0   2  169.98    6.70
   2   0   3    2.20    1.00
  -2   0  -3    2.20    1.30
   2   0   3    0.20    0.80
  -2   0  -3   -0.70    0.80
   2   0   3    4.70    1.60
  -2   0  -4   51.39    2.00
   2   0   4   56.49    3.80
   2   0   4   56.89    3.30
  -2   0  -4   59.29    2.00
   2   0   4   58.49    2.20
   2   0   5    7.60    2.60
   2   0   5    0.90    1.00
   2   0   5    3.90    1.80
   2   0   6   10.40    3.60
   2   0   6    5.70    2.40
   2   0   7    1.60    3.70
  -2   1   7   -0.60    3.40
  -2   1   7   -1.60    3.00
  -2   1   7   -6.80    3.30
  -2  -1   7   -5.60    3.60
  -2  -1   7    0.50    3.40
  -2  -1   7   -1.80    3.60
  -2   1   6   -1.00    2.50
  -2   1   6   -2.90    2.70
  -2  -1   6    0.80    2.50
  -2  -1   6    0.00    3.00
  -2  -1   6   -2.80    2.60
  -2   1   5    0.60    2.00
  -2   1   4  111.29    3.30
  -2   1   4  114.49    3.30
  -2   1   4  115.19    5.30
  -2   1   3  195.58    7.20
  -2   1   3  201.28    5.60
  -2   1   3  195.88    7.60
  -2   1   3  192.38    5.60
  -2  -1   3  204.08    5.50
  -2  -1   3  196.88    7.20
  -2   1   2  792.02   21.90
  -2   1   2  800.82   26.50
  -2   1   2  786.22   21.90
  -2   1   2  793.92   27.70
   2   1  -2  808.62   26.60
   2   1  -2  813.02   22.10
  -2  -1   2  807.22   21.90
   2  -1  -2  805.82   21.90
  -2  -1   2  786.62   27.60
  -2   1   1  386.76   10.90
  -2   1   1  393.16   13.00
  -2   1   1  388.86   12.40
  -2   1   1  394.76   13.70
   2   1  -1  405.66   10.80
  -2   1   1  385.76   10.80
   2   1  -1  379.06   13.50
  -2  -1   1  405.56   13.50
   2  -1  -1  394.66   13.70
  -2  -1   1  389.26   10.80
   2  -1  -1  384.46   10.90
   2  -1  -1  388.96   10.80
   2  -1  -1  381.56   13.00
   2   1   0  392.56   10.90
  -2   1   0  399.66   11.00
  -2   1   0  391.16   10.90
  -2   1   0  397.26   12.60
  -2   1   0  389.36   14.90
  -2   1   0  393.46   13.80
   2   1   0  396.06   12.60
   2  -1   0  389.16   10.90
   2  -1   0  409.66   12.60
  -2  -1   0  383.56   12.60
  -2  -1   0  385.06   10.90
   2  -1   0  392.96   11.00
   2  -1   0  406.26   13.80
  -2   1  -1  901.41   24.30
  -2   1  -1  871.51   33.10
   2   1   1  879.91   24.30
  -2   1  -1  877.61   27.80
  -2   1  -1  903.71   24.30
   2   1   1  896.01   27.80
   2  -1   1  885.51   27.80
   2  -1   1  893.51   24.40
  -2  -1  -1  885.91   27.80
   2  -1   1  877.91   24.30
   2  -1   1  861.71   33.00
  -2  -1  -1  873.51   24.30
   2   1   2  309.07    8.90
  -2   1  -2  322.27   10.50
  -2   1  -2  314.27   12.00
  -2   1  -2  321.37    8.90
   2   1   2  290.37   11.80
  -2   1  -2  322.87    8.90
   2   1   2  311.67   10.40
   2  -1   2  311.37   10.40
   2  -1   2  319.97    8.90
   2  -1   2  320.97    9.00
  -2  -1  -2  320.77    9.00
  -2  -1  -2  325.67   10.40
   2  -1   2  316.57   12.10
  -2  -1  -2  304.47    8.90
   2   1   3  399.46   14.80
  -2   1  -3  406.96   11.00
   2   1   3  373.36   12.90
   2   1   3  396.76   11.00
   2  -1   3  398.96   15.10
  -2  -1  -3  346.87   10.90
  -2  -1  -3  411.76   11.00
   2  -1   3  394.66   11.00
   2  -1   3  378.76   13.10
  -2  -1  -3  388.86   12.90
   2   1   4   59.99    3.20
   2   1   4   55.09    2.20
  -2   1  -4   48.80    1.90
   2   1   4   56.99    3.50
  -2   1  -4   58.49    2.00
  -2  -1  -4   58.79    2.10
   2  -1   4   57.39    3.50
  -2  -1  -4   47.30    2.10
   2  -1   4   58.09    4.00
   2  -1   4   56.89    2.20
   2   1   5   94.29    5.10
   2   1   5   87.59    4.90
   2   1   5   88.29    3.20
   2  -1   5   87.09    3.10
   2  -1   5   97.39    5.60
   2  -1   5   89.59    5.30
   2   1   6   13.10    3.20
   2  -1   6   10.10    3.50
   2  -1   6   10.90    2.60
   2   1   7    3.10    3.90
   2  -1   7    6.40    4.10
  -2   2   7   12.40    3.60
  -2   2   7   12.20    3.40
  -2  -2   7    7.60    4.40
  -2  -2   7    5.90    3.60
  -2  -2   7    7.30    3.50
  -2   2   6    2.60    2.70
  -2   2   6    3.10    2.30
  -2  -2   6    0.70    3.30
  -2  -2   6    0.10    3.20
  -2   2   5  113.59    6.00
  -2   2   5  110.19    5.30
  -2   2   5  110.29    3.30
  -2   2   5  105.29    3.30
  -2  -2   5  122.49    6.40
  -2   2   4    8.90    1.10
  -2   2   4    9.20    1.10
  -2   2   4   10.10    1.80
  -2  -2   4    6.60    0.70
  -2   2   3  545.35   15.10
   2   2  -3  540.05   18.60
  -2   2   3  550.24   15.10
  -2   2   3  538.45   19.40
  -2  -2   3  557.94   15.00
   2  -2  -3  535.45   15.00
  -2   2   2   29.20    1.30
  -2   2   2   29.90    1.30
   2   2  -2   30.70    1.90
  -2   2   2   28.80    1.80
   2   2  -2   30.60    1.10
   2  -2  -2   29.10    1.20
   2  -2  -2   27.40    1.30
   2  -2  -2   29.80    1.90
  -2  -2   2   29.90    1.20
  -2   2   1  694.13   23.80
  -2   2   1  686.93   18.80
  -2   2   1  681.53   18.90
  -2   2   1  686.13   21.40
   2   2  -1  699.93   18.80
  -2  -2   1  669.93   18.80
   2  -2  -1  690.63   18.80
  -2  -2   1  700.83   23.60
   2  -2  -1  655.93   23.80
   2  -2  -1  672.23   18.90
  -2   2   0    0.30    0.50
  -2   2   0    0.10    0.50
   2   2   0    0.00    0.50
  -2   2   0    0.60    0.70
  -2   2   0   -0.30    0.50
  -2   2   0    2.60    0.80
  -2  -2   0    0.50    0.50
   2  -2   0    0.40    0.70
   2  -2   0    1.60    0.80
   2  -2   0   -0.10    0.60
   2  -2   0    0.30    0.50
  -2  -2   0    1.40    0.70
   2   2   1  255.57    8.30
  -2   2  -1  257.87    7.20
  -2   2  -1  256.07    7.30
   2   2   1  249.78    7.20
  -2   2  -1  258.27    8.40
  -2   2  -1  242.58   10.00
   2  -2   1  253.27   10.00
  -2  -2  -1  242.28    7.20
   2  -2   1  253.07    8.40
   2  -2   1  256.07    7.20
  -2  -2  -1  256.57    8.40
   2  -2   1  251.87    7.30
  -2   2  -2    1.50    0.70
   2   2   2    1.70    0.40
  -2   2  -2    1.60    0.90
  -2   2  -2    1.80    0.90
   2   2   2    1.60    0.60
   2   2   2    4.30    1.10
  -2   2  -2    1.70    0.70
   2  -2   2    1.90    1.00
  -2  -2  -2    0.40    0.80
   2  -2   2    1.80    0.70
   2  -2   2    1.90    1.10
   2  -2   2    0.90    0.80
  -2  -2  -2    1.70    0.90
   2   2   3   44.00    2.20
  -2   2  -3   39.00    1.80
   2   2   3   48.60    2.60
   2   2   3   43.10    1.80
   2  -2   3   42.70    2.10
   2  -2   3   43.70    2.80
  -2  -2  -3   39.00    1.80
  -2  -2  -3   46.40    2.50
   2  -2   3   41.70    3.10
  -2  -2  -3   42.90    1.90
   2  -2   3   39.40    1.70
  -2   2  -4   -0.70    0.70
  -2   2  -4   -1.70    0.60
   2   2   4   -0.80    1.60
   2   2   4    0.70    1.10
   2   2   4   -1.90    0.90
  -2  -2  -4   -1.00    0.80
   2  -2   4    3.40    2.30
   2  -2   4    0.30    0.80
   2  -2   4    1.30    1.70
  -2  -2  -4    0.30    0.90
   2   2   5  140.09    6.00
   2   2   5  145.19    6.20
   2  -2   5  139.69    6.80
  -2  -2  -5  113.49    3.80
  -2  -2  -5  137.79    3.80
   2  -2   5  148.19    6.90
   2   2   6    0.50    2.90
   2  -2   6    1.10    3.50
   2  -2   6    3.20    2.60
   2   2   7   15.80    3.60
   2  -2   7   18.80    4.70
  -2   3   7    0.20    3.30
  -2  -3   7   -2.40    4.20
  -2  -3   7    0.40    3.30
  -2  -3   7   -0.10    3.90
  -2   3   6    1.90    0.80
  -2   3   6    2.20    2.30
  -2   3   6    1.50    2.80
  -2  -3   6    3.40    3.30
  -2  -3   6   -1.70    3.60
  -2   3   5   -0.20    0.90
  -2   3   5    0.10    1.70
  -2   3   5    1.00    2.20
  -2   3   5   -2.00    0.90
  -2  -3   5    4.80    2.70
  -2   3   4  115.39    5.60
  -2   3   4  114.09    3.70
  -2   3   4  112.79    3.70
  -2  -3   4  119.49    6.00
  -2  -3   4  112.69    3.50
  -2   3   3  134.59    4.20
   2   3  -3  140.49    3.90
  -2   3   3  136.79    4.20
  -2   3   3  143.09    5.90
   2   3  -3  127.29    3.80
   2   3  -3  136.99    5.40
  -2  -3   3  140.69    4.10
   2  -3  -3  140.19    4.10
  -2  -3   3  142.99    6.30
  -2   3   2  444.56   15.80
   2   3  -2  464.75   12.20
   2   3  -2  411.56   12.20
   2   3  -2  443.66   15.00
  -2   3   2  445.86   12.40
  -2   3   2  438.26   12.30
  -2  -3   2  433.56   17.00
   2  -3  -2  439.86   15.70
   2  -3  -2  457.25   12.30
   2  -3  -2  432.26   12.40
  -2  -3   2  442.06   12.30
  -2   3   1  226.38    6.50
  -2   3   1  227.18    8.40
  -2   3   1  220.78    9.00
  -2   3   1  226.78    6.50
  -2   3   1  222.48    7.30
   2   3  -1  229.68    6.40
  -2  -3   1  228.58    8.90
   2  -3  -1  224.78    6.60
  -2  -3   1  218.48    6.50
   2  -3  -1  223.98    6.50
   2  -3  -1  230.98    7.30
   2  -3  -1  227.28    8.30
   2   3   0   80.39    2.60
  -2   3   0   84.89    3.60
  -2   3   0   86.69    3.80
  -2   3   0   82.69    2.60
  -2   3   0   81.29    2.70
  -2   3   0   78.39    2.90
  -2  -3   0   76.19    2.60
   2  -3   0   81.89    3.90
   2  -3   0   85.09    3.60
   2  -3   0   78.19    2.70
   2  -3   0   84.39    3.10
   2  -3   0   79.19    2.60
  -2  -3   0   81.49    3.40
   2   3   1  810.82   25.60
   2   3   1  849.02   30.60
   2   3   1  829.22   22.50
  -2   3  -1  817.92   22.50
  -2   3  -1  836.52   25.70
  -2   3  -1  828.22   30.80
  -2   3  -1  823.92   22.40
  -2  -3  -1  786.92   22.50
   2  -3   1  807.22   22.40
  -2  -3  -1  782.02   25.60
   2  -3   1  840.82   25.80
   2  -3   1  799.22   28.30
   2  -3   1  789.82   30.70
   2  -3   1  811.42   22.50
  -2  -3  -1  783.52   30.50
   2   3   2  138.29    4.20
  -2   3  -2  136.99    4.20
   2   3   2  141.39    5.00
   2   3   2  130.79    5.30
  -2   3  -2  138.69    5.10
  -2   3  -2  142.49    4.30
  -2   3  -2  149.19    6.00
  -2  -3  -2  134.59    4.30
   2  -3   2  138.99    4.40
  -2  -3  -2  147.19    5.00
   2  -3   2  132.99    5.30
   2  -3   2  135.19    4.20
   2  -3   2  136.69    6.10
   2  -3   2  138.49    5.00
  -2   3  -3  500.05   18.60
   2   3   3  484.05   13.50
  -2   3  -3  507.45   13.50
  -2   3  -3  478.75   13.40
   2   3   3  469.85   15.60
   2  -3   3  478.95   13.40
  -2  -3  -3  473.35   13.60
   2  -3   3  470.65   16.30
   2  -3   3  449.16   15.90
   2  -3   3  494.85   13.60
   2  -3   3  472.25   18.70
  -2  -3  -3  477.75   15.60
   2   3   4   14.70    1.60
  -2   3  -4   16.70    1.20
   2   3   4   17.00    2.20
  -2   3  -4   16.70    1.30
   2  -3   4   19.30    1.50
   2  -3   4   19.80    3.20
  -2  -3  -4   18.60    1.60
   2  -3   4   17.10    1.90
   2  -3   4   13.70    2.80
   2   3   5   80.89    4.70
   2   3   5   80.29    4.30
   2  -3   5   81.59    5.10
   2  -3   5   87.69    5.70
   2   3   6    4.70    2.80
   2   3   6    1.20    1.60
   2  -3   6    4.50    3.50
   2  -3   6    4.30    2.70
   2   3   7   -4.70    3.70
   2  -3   7    0.50    4.50
  -2   4   7    3.20    3.60
  -2  -4   7    2.20    3.80
  -2  -4   7   -1.90    4.30
  -2   4   6   46.80    5.50
  -2   4   6   48.50    3.90
  -2   4   6   46.70    2.20
  -2  -4   6   48.50    5.70
  -2  -4   6   45.90    5.90
  -2   4   5   11.10    2.60
  -2   4   5   10.00    1.30
  -2   4   5    8.60    1.30
  -2   4   5    9.80    1.80
  -2  -4   5   12.40    2.80
  -2  -4   5   11.40    1.20
  -2   4   4  288.27    8.40
  -2   4   4  287.57    8.40
  -2   4   4  285.67   11.30
  -2  -4   4  292.07   12.10
  -2  -4   4  292.37    8.30
   2  -4  -4  283.57    8.20
   2   4  -3    2.90    0.60
  -2   4   3    1.50    1.00
  -2   4   3    2.50    1.50
   2   4  -3    4.40    1.90
   2   4  -3    2.60    0.60
  -2   4   3    1.40    1.00
   2  -4  -3    2.50    0.90
  -2  -4   3    3.50    1.00
   2  -4  -3    1.10    1.00
  -2  -4   3    5.60    1.70
   2   4  -2    1.00    0.70
  -2   4   2    2.50    0.60
   2   4  -2    2.40    0.80
  -2   4   2    1.90    1.00
  -2   4   2    1.40    0.80
  -2   4   2    1.70    0.80
  -2  -4   2    3.80    1.40
  -2  -4   2    2.10    0.90
   2  -4  -2    2.20    0.90
   2  -4  -2    2.00    1.10
   2  -4  -2    1.70    0.90
  -2   4   1    1.10    0.80
  -2   4   1    0.80    0.60
   2   4  -1    1.00    0.60
  -2   4   1    1.30    0.50
  -2   4   1    1.00    0.80
   2   4  -1    0.40    0.70
  -2   4   1    2.50    1.10
   2  -4  -1    0.00    0.90
   2  -4  -1    0.30    0.70
   2  -4  -1   -0.20    0.90
  -2  -4   1    1.60    0.70
   2  -4  -1    1.20    0.70
  -2  -4   1    0.80    0.30
  -2  -4   1    1.30    1.00
   2   4   0   71.59    2.40
  -2   4   0   71.39    2.70
  -2   4   0   70.39    2.40
  -2   4   0   75.69    3.70
  -2   4   0   68.89    2.50
   2   4   0   73.49    3.20
   2   4   0   69.99    2.80
  -2   4   0   74.89    3.50
  -2  -4   0   72.79    3.30
   2  -4   0   70.99    2.40
   2  -4   0   68.09    2.50
  -2  -4   0   65.59    2.50
   2  -4   0   73.29    3.40
   2  -4   0   72.69    2.90
   2  -4   0   75.79    3.90
   2   4   1    5.60    1.00
  -2   4  -1    5.30    1.00
  -2   4  -1    3.80    0.90
  -2   4  -1    3.60    1.30
   2   4   1    5.20    0.90
  -2   4  -1    3.60    0.90
   2   4   1    5.60    0.90
  -2  -4  -1    6.60    1.10
  -2  -4  -1    1.80    0.90
   2  -4   1    3.30    1.40
   2  -4   1    4.20    0.80
   2  -4   1    3.40    1.00
   2  -4   1    4.30    1.20
   2  -4   1    5.90    1.10
  -2  -4  -1    5.10    1.00
  -2   4  -2   99.29    3.30
   2   4   2   88.99    3.90
   2   4   2   98.09    3.80
   2   4   2   98.49    3.20
  -2   4  -2   98.09    3.10
  -2   4  -2  107.89    5.00
   2  -4   2   91.69    3.30
   2  -4   2   94.49    3.10
   2  -4   2   92.99    4.30
  -2  -4  -2   98.49    3.80
   2  -4   2   88.39    4.70
  -2  -4  -2   92.59    3.30
  -2   4  -3    2.70    1.00
   2   4   3    4.30    1.30
   2   4   3    2.40    0.80
   2   4   3    2.30    1.10
  -2   4  -3    4.10    1.60
  -2   4  -3    4.10    1.00
   2  -4   3    2.70    1.50
   2  -4   3    3.90    2.00
   2  -4   3    2.90    0.90
   2  -4   3    3.00    1.30
  -2  -4  -3    2.40    1.10
   2  -4   3    2.80    1.70
  -2  -4  -3    4.40    1.30
   2   4   4   44.40    3.10
   2   4   4   39.50    2.20
  -2   4  -4   41.30    2.00
  -2   4  -4   38.50    1.70
   2  -4   4   43.90    2.50
  -2  -4  -4   35.30    2.20
   2  -4   4   41.20    2.00
   2  -4   4   37.00    4.10
   2  -4   4   42.20    4.10
   2   4   5    3.70    1.70
   2   4   5    5.90    2.10
   2   4   5    0.70    1.40
   2  -4   5    4.70    2.60
   2  -4   5    4.10    3.10
   2  -4   5    3.20    1.50
   2   4   6    6.60    1.80
   2   4   6    9.70    2.70
   2  -4   6    7.70    2.70
   2  -4   6    9.30    4.10
   2   4   7    1.00    4.10
  -2   5   7    2.50    3.70
  -2  -5   7    0.90    4.20
  -2  -5   7   -6.50    4.40
  -2   5   6    1.40    1.40
  -2   5   6    2.40    2.90
  -2  -5   6    5.60    3.40
  -2   5   5    2.20    2.50
  -2   5   5    5.50    1.50
  -2   5   5    3.00    1.50
  -2  -5   5    0.00    2.60
  -2  -5   5    4.80    1.10
  -2   5   4   40.50    2.30
   2   5  -4   56.09    3.80
  -2   5   4   46.90    4.00
  -2   5   4   46.90    2.30
  -2   5   4   50.79    2.50
   2   5  -4   43.30    1.40
  -2  -5   4   45.50    2.30
  -2  -5   4   52.19    4.40
   2   5  -3   64.89    2.30
  -2   5   3   62.29    2.60
   2   5  -3   65.09    3.60
  -2   5   3   65.59    3.90
  -2   5   3   61.09    2.70
   2  -5  -3   65.39    2.60
  -2  -5   3   62.59    2.60
   2  -5  -3   60.39    2.70
  -2  -5   3   72.39    4.30
   2   5  -2  301.97    8.80
  -2   5   2  294.27    9.70
  -2   5   2  308.77   12.40
  -2   5   2  304.47    8.90
  -2   5   2  310.27    9.00
   2   5  -2  318.57    8.80
  -2   5   2  306.67   11.50
   2  -5  -2  310.87    8.90
   2  -5  -2  308.87    9.10
   2  -5  -2  308.87   11.50
  -2  -5   2  317.77   12.40
  -2  -5   2  311.77   10.90
  -2  -5   2  302.87    8.90
  -2   5   1  138.19    4.30
  -2   5   1  134.49    4.30
   2   5  -1  135.59    4.20
   2   5  -1  126.99    5.00
   2   5  -1  137.59    4.20
  -2   5   1  136.49    6.00
  -2   5   1  131.99    4.40
  -2   5   1  127.19    5.50
   2   5  -1  141.09    5.80
   2  -5  -1  136.99    4.50
   2  -5  -1  136.69    6.30
   2  -5  -1  133.39    5.50
  -2  -5   1  126.99    4.20
  -2  -5   1  132.09    4.80
   2  -5  -1  134.19    4.20
  -2  -5   1  139.29    5.90
   2  -5  -1  139.29    4.60
  -2   5   0  289.17    8.30
  -2   5   0  282.27   10.60
  -2   5   0  279.97    8.20
   2   5   0  275.87   10.00
  -2   5   0  281.17    9.20
   2   5   0  278.67    8.30
  -2   5   0  287.97   11.40
   2   5   0  305.57   11.10
   2   5   0  293.97    8.20
   2  -5   0  268.27   11.50
   2  -5   0  283.77    8.20
  -2  -5   0  284.97   11.20
   2  -5   0  282.27    9.30
   2  -5   0  279.17   10.50
   2  -5   0  282.07    8.40
  -2  -5   0  271.27    8.20
  -2   5  -1  330.87    9.40
   2   5   1  339.07   12.60
  -2   5  -1  335.77    9.50
   2   5   1  328.67   11.70
  -2   5  -1  324.67   13.10
   2   5   1  316.17    9.40
   2   5   1  342.77    9.50
  -2   5  -1  325.77   10.90
  -2  -5  -1  337.07   10.80
  -2  -5  -1  310.97   12.80
  -2  -5  -1  318.77    9.50
   2  -5   1  325.97    9.60
   2  -5   1  337.67   10.90
   2  -5   1  327.67    9.40
   2  -5   1  311.67   13.20
   2  -5   1  318.97   11.90
  -2   5  -2  307.27    8.70
   2   5   2  275.87   11.40
  -2   5  -2  299.67    8.60
  -2   5  -2  314.67   12.30
   2   5   2  296.57   11.00
   2   5   2  298.47    9.80
   2   5   2  293.37    8.60
   2  -5   2  272.67   12.10
  -2  -5  -2  292.37    8.70
   2  -5   2  294.77    8.80
   2  -5   2  299.97    8.60
  -2  -5  -2  312.07    9.90
   2  -5   2  291.77   10.30
   2  -5   2  299.87   11.10
  -2   5  -3  116.89    3.90
  -2   5  -3  127.89    4.10
  -2   5  -3  129.09    6.10
   2   5   3  127.59    4.80
   2   5   3  120.19    5.10
   2   5   3  128.69    4.10
  -2  -5  -3  129.09    4.80
   2  -5   3  120.59    4.00
  -2  -5  -3  121.19    4.30
   2  -5   3  121.49    6.40
   2  -5   3  117.59    5.60
   2  -5   3  118.89    4.30
   2   5   4   56.39    3.10
   2   5   4   55.89    2.80
   2   5   4   61.59    3.50
   2   5   4   55.69    2.60
   2  -5   4   54.69    4.50
   2  -5   4   60.69    2.50
  -2  -5  -4   53.99    2.90
   2  -5   4   58.69    4.70
   2  -5   4   58.89    3.00
   2   5   5   48.20    3.60
   2   5   5   46.90    5.40
   2   5   5   47.70    3.10
   2  -5   5   50.79    5.30
   2  -5   5   43.60    2.90
   2  -5   5   43.30    5.40
   2   5   6    9.40    3.70
   2   5   6    6.30    2.00
   2  -5   6   11.00    4.30
   2  -5   6    6.60    3.00
  -2   6   7    8.40    4.00
  -2  -6   7    5.10    5.00
  -2  -6   7    3.80    4.10
  -2   6   6   10.90    1.80
  -2   6   6   13.10    3.50
  -2  -6   6   12.60    4.00
  -2  -6   6    8.80    1.20
  -2  -6   6    6.30    3.50
  -2   6   5   72.39    3.30
  -2   6   5   75.89    3.40
  -2   6   5   74.89    5.60
  -2  -6   5   72.99    5.20
  -2  -6   5   72.39    3.10
  -2   6   4   34.70    1.70
  -2   6   4   36.30    4.00
   2   6  -4   31.10    1.60
  -2   6   4   34.50    2.50
   2   6  -4   31.20    1.40
  -2   6   4   34.20    2.30
   2   6  -4   37.20    3.70
   2  -6  -4   32.30    2.20
  -2  -6   4   39.90    4.50
  -2  -6   4   31.90    2.40
  -2   6   3  310.37    9.30
   2   6  -3  319.37    9.00
  -2   6   3  313.17   12.80
   2   6  -3  319.87   11.40
   2   6  -3  315.77    9.00
  -2   6   3  298.57   11.80
  -2   6   3  318.27    9.30
   2  -6  -3  307.17    9.30
  -2  -6   3  310.07   12.90
  -2  -6   3  310.37    9.20
  -2   6   2  109.79    3.80
  -2   6   2  113.39    5.40
   2   6  -2  112.39    3.70
  -2   6   2  103.39    3.80
   2   6  -2  112.49    3.80
  -2   6   2  111.09    5.20
   2  -6  -2  111.59    4.00
  -2  -6   2  110.79    5.50
  -2  -6   2  105.49    3.80
  -2  -6   2  109.99    4.30
   2  -6  -2  111.39    3.80
   2  -6  -2  108.49    5.00
  -2   6   1  174.38    7.40
   2   6  -1  179.68    7.10
  -2   6   1  192.28    5.90
   2   6  -1  187.68    5.80
  -2   6   1  183.58    5.80
   2   6  -1  209.48    8.00
  -2   6   1  189.48    8.10
   2   6  -1  197.58    5.80
  -2  -6   1  182.58    5.90
   2  -6  -1  187.48    7.50
   2  -6  -1  190.78    6.30
   2  -6  -1  190.88    5.80
  -2  -6   1  197.38    8.00
   2  -6  -1  193.58    8.60
  -2  -6   1  186.28    6.80
   2  -6  -1  184.08    5.90
  -2   6   0    3.60    1.10
  -2   6   0   -0.40    1.10
   2   6   0    1.20    1.00
   2   6   0    1.10    1.10
   2   6   0    0.40    1.00
  -2   6   0    2.80    1.40
  -2   6   0    1.30    1.50
   2   6   0    1.40    0.80
   2  -6   0    1.70    1.40
  -2  -6   0    0.70    1.20
   2  -6   0    0.10    1.80
   2  -6   0    0.60    0.80
  -2  -6   0    0.40    1.20
   2  -6   0    1.70    1.20
   2  -6   0    3.40    1.20
  -2  -6   0    0.60    0.70
   2   6   1   37.90    2.00
   2   6   1   43.60    2.30
   2   6   1   35.50    2.30
  -2   6  -1   37.80    2.00
   2   6   1   34.60    1.80
  -2   6  -1   37.70    3.20
  -2   6  -1   36.30    2.00
  -2   6  -1   33.30    3.20
   2  -6   1   36.80    2.60
  -2  -6  -1   41.80    2.30
  -2  -6  -1   33.80    1.90
   2  -6   1   31.90    2.30
  -2  -6  -1   26.40    2.90
   2  -6   1   35.90    1.90
   2  -6   1   38.40    2.60
   2  -6   1   37.10    3.00
  -2   6  -2    4.70    1.20
  -2   6  -2    4.00    1.90
   2   6   2    5.50    1.30
   2   6   2    3.10    1.30
   2   6   2    4.10    1.00
  -2   6  -2    3.10    1.30
   2   6   2    3.80    1.30
   2  -6   2    3.00    1.90
   2  -6   2    5.00    1.50
   2  -6   2    3.90    1.20
  -2  -6  -2    5.40    1.30
   2  -6   2    3.90    1.50
  -2  -6  -2    5.80    1.50
   2  -6   2    4.00    2.00
   2   6   3   19.50    2.10
   2   6   3   21.20    2.20
   2   6   3   22.00    2.50
   2   6   3   21.20    1.90
   2   6   3   20.90    2.10
  -2   6  -3   20.10    1.80
   2  -6   3   16.50    2.70
   2  -6   3   18.00    2.80
   2  -6   3   19.60    1.90
  -2  -6  -3   19.10    1.90
  -2  -6  -3   24.10    2.10
   2  -6   3   24.50    2.20
   2   6   4    0.80    1.10
   2   6   4   -0.30    2.20
   2   6   4   -0.70    1.70
  -2   6  -4   -1.20    1.10
   2   6   4   -1.90    1.30
   2   6   4    0.20    1.60
   2  -6   4   -0.40    2.40
  -2  -6  -4   -2.40    1.60
   2  -6   4    1.40    1.80
   2  -6   4   -1.10    1.30
   2  -6   4   -1.00    2.20
   2   6   5   79.99    4.00
   2   6   5   84.09    6.20
   2   6   5   85.29    4.40
   2  -6   5   75.89    6.00
   2  -6   5   72.99    5.30
   2  -6   5   77.49    3.70
   2   6   6    0.50    2.70
   2   6   6    3.70    2.10
   2  -6   6    5.20    3.20
   2  -6   6   -1.40    4.40
   2  -6   6    2.40    1.80
  -2   7   6    4.20    1.90
  -2   7   6    4.30    3.40
  -2  -7   6    4.90    3.80
  -2  -7   6   -3.90    3.40
  -2  -7   6    3.70    1.50
  -2   7   5   -0.20    2.10
  -2   7   5    0.00    1.70
  -2  -7   5    2.90    3.20
  -2  -7   5    1.10    1.60
  -2   7   4   54.99    4.60
   2   7  -4   36.50    1.90
  -2   7   4   45.50    2.70
   2   7  -4   50.99    4.10
  -2   7   4   47.10    2.80
  -2  -7   4   58.89    5.10
   2  -7  -4   47.90    2.90
  -2  -7   4   49.90    3.00
   2   7  -3   37.80    3.40
  -2   7   3   41.30    3.80
   2   7  -3   34.00    2.10
  -2   7   3   38.90    2.60
  -2   7   3   32.20    2.40
  -2  -7   3   33.70    2.60
  -2  -7   3   38.80    2.50
   2  -7  -3   37.30    2.60
  -2  -7   3   36.90    3.40
  -2   7   2   39.60    2.30
  -2   7   2   35.10    2.30
  -2   7   2   41.40    3.40
   2   7  -2   37.50    2.30
  -2   7   2   36.20    3.20
  -2  -7   2   36.80    2.30
  -2  -7   2   37.20    3.60
   2  -7  -2   38.20    2.60
  -2  -7   2   39.20    2.20
  -2   7   1   99.89    3.50
   2   7  -1   84.39    4.40
  -2   7   1  100.09    5.20
   2   7  -1   99.29    3.50
  -2   7   1  101.49    4.70
   2   7  -1  109.69    5.10
   2   7  -1  106.49    3.60
  -2   7   1  102.69    3.70
  -2  -7   1   97.99    5.10
   2  -7  -1  103.79    3.80
  -2  -7   1   91.29    3.80
   2  -7  -1  105.39    5.90
   2  -7  -1  102.29    4.70
   2  -7  -1   96.39    4.00
   2  -7  -1   97.69    3.50
  -2  -7   1  102.39    4.00
  -2   7   0   -0.30    1.70
   2   7   0    1.70    1.30
  -2   7   0    3.60    1.40
   2   7   0    1.50    1.20
  -2   7   0    3.30    1.30
  -2   7   0    3.90    1.60
   2   7   0    3.00    1.00
   2   7   0    1.20    1.20
   2  -7   0    2.00    1.20
  -2  -7   0    0.80    1.70
   2  -7   0    3.10    1.40
  -2  -7   0    3.30    1.10
   2  -7   0   -2.00    2.00
   2  -7   0    1.90    1.30
   2  -7   0    2.00    1.60
  -2  -7   0    0.80    0.80
   2   7   1  335.97    9.90
   2   7   1  332.77   12.20
  -2   7  -1  340.47    9.90
   2   7   1  338.47   10.00
   2   7   1  344.27   13.20
  -2   7  -1  336.17   12.90
  -2   7  -1  345.57    9.90
  -2   7  -1  348.17   13.90
   2  -7   1  312.97   13.90
   2  -7   1  336.97   11.40
  -2  -7  -1  347.47   11.20
  -2  -7  -1  325.47   10.00
   2  -7   1  342.57   12.50
   2  -7   1  331.17   10.10
   2  -7   1  329.77    9.80
  -2  -7  -1  316.47   13.60
   2   7   2   19.10    2.20
  -2   7  -2   24.10    1.80
   2   7   2   22.80    2.60
   2   7   2   23.80    2.00
   2   7   2   23.70    2.10
  -2   7  -2   18.50    1.90
   2  -7   2   21.10    2.10
   2  -7   2   22.50    2.70
   2  -7   2   21.60    2.50
  -2  -7  -2   16.40    2.70
   2  -7   2   19.00    2.80
  -2  -7  -2   22.70    2.10
  -2  -7  -2   19.30    2.30
   2  -7   2   19.60    1.80
  -2   7  -3  217.48    6.80
   2   7   3  232.58    7.20
   2   7   3  234.08    7.70
   2   7   3  231.38    7.10
   2   7   3  230.98    9.20
   2   7   3  213.18    9.00
  -2  -7  -3  222.28    7.70
   2  -7   3  230.98    6.90
   2  -7   3  202.08   10.20
   2  -7   3  206.88    8.40
  -2  -7  -3  234.58    7.40
   2  -7   3  229.28    7.30
   2   7   4    0.40    1.60
   2   7   4   -0.80    2.00
  -2   7  -4   -2.10    1.20
   2   7   4    2.00    1.20
   2   7   4    1.30    2.30
   2   7   4   -4.40    1.70
  -2  -7  -4   -0.80    1.70
   2  -7   4   -2.20    3.00
   2  -7   4   -1.60    2.00
   2  -7   4   -0.30    2.90
   2  -7   4    1.10    1.30
   2   7   5   40.80    3.50
   2   7   5   40.40    5.30
   2  -7   5   33.70    5.40
   2  -7   5   36.30    4.70
   2  -7   5   36.40    3.40
   2   7   6    1.00    2.20
   2   7   6    0.10    3.60
   2  -7   6    0.00    1.90
   2  -7   6    2.00    3.30
   2  -7   6   -0.40    4.60
  -2   8   6   26.90    4.10
  -2   8   6   29.40    3.40
  -2  -8   6   25.30    2.70
  -2  -8   6   23.30    4.50
  -2  -8   6   22.30    5.20
  -2   8   5    8.40    3.20
  -2   8   5   12.10    2.30
  -2  -8   5   12.10    3.80
  -2  -8   5    9.30    2.10
  -2   8   4  120.79    4.70
   2   8  -4  125.39    6.20
  -2   8   4  121.79    4.70
   2   8  -4  115.29    4.00
  -2   8   4  121.09    6.70
  -2  -8   4  119.79    5.50
   2  -8  -4  119.99    4.80
  -2  -8   4  120.79    7.40
  -2  -8   4  123.99    4.80
   2   8  -3    3.30    2.70
  -2   8   3    3.40    1.70
  -2   8   3    3.40    1.50
  -2   8   3    2.60    2.10
   2   8  -3    0.30    1.30
   2  -8  -3    2.60    1.90
  -2  -8   3    2.50    1.20
  -2  -8   3    3.30    1.70
  -2  -8   3    3.30    2.40
   2   8  -2    1.20    1.30
  -2   8   2    4.10    1.90
  -2   8   2   -0.50    1.50
  -2   8   2    0.50    1.40
   2  -8  -2   -0.30    1.80
  -2  -8   2    0.30    1.60
  -2  -8   2   -0.40    1.70
  -2  -8   2    1.20    0.90
  -2   8   1    2.40    1.50
  -2   8   1    2.70    1.50
  -2   8   1    4.00    1.50
   2   8  -1    1.70    1.40
   2   8  -1   -2.70    1.40
   2   8  -1   -0.30    1.60
  -2  -8   1    3.10    0.90
  -2  -8   1    1.30    1.60
   2  -8  -1    1.30    1.90
   2  -8  -1    2.40    1.20
  -2  -8   1    2.10    2.00
   2  -8  -1   -1.60    2.40
  -2   8   0   -1.40    1.30
   2   8   0   -1.50    1.20
   2   8   0    1.00    1.10
  -2   8   0   -0.10    1.50
   2   8   0    0.20    1.30
   2   8   0    0.10    1.50
  -2   8   0   -2.10    1.80
   2  -8   0   -1.00    1.30
   2  -8   0    0.40    1.40
  -2  -8   0   -0.10    1.60
   2  -8   0   -1.50    2.30
   2  -8   0    0.60    1.40
  -2  -8   0   -1.80    1.70
  -2  -8   0   -1.00    1.00
   2  -8   0    1.60    1.40
  -2   8  -1   -4.60    2.00
  -2   8  -1   -0.60    1.50
   2   8   1    0.30    1.30
   2   8   1    0.80    1.30
   2   8   1    0.10    1.50
   2   8   1    0.60    1.30
   2  -8   1    0.20    1.90
   2  -8   1   -0.50    1.40
  -2  -8  -1    1.70    1.20
   2  -8   1    0.70    1.40
  -2  -8  -1    0.80    1.30
   2  -8   1    0.30    1.30
  -2  -8  -1   -3.70    2.00
   2  -8   1    0.10    1.80
  -2   8  -2   28.20    2.20
   2   8   2   31.10    2.60
   2   8   2   29.90    2.60
  -2   8  -2   32.00    2.20
   2   8   2   33.10    3.00
   2   8   2   27.70    2.30
  -2  -8  -2   32.70    2.80
   2  -8   2   24.10    3.30
   2  -8   2   32.00    2.90
  -2  -8  -2   19.90    2.80
   2  -8   2   31.70    2.20
   2  -8   2   33.70    3.40
  -2  -8  -2   27.50    2.50
   2   8   3    4.50    2.00
   2   8   3    7.10    1.90
  -2   8  -3    4.10    1.40
   2   8   3    3.70    1.60
   2   8   3    4.90    1.30
   2  -8   3    4.90    2.80
  -2  -8  -3    3.50    2.00
   2  -8   3    3.50    2.70
   2  -8   3    5.10    1.70
   2  -8   3    5.50    2.00
  -2  -8  -3    5.30    1.20
   2   8   4   21.60    3.00
   2   8   4   20.80    2.40
  -2   8  -4   18.60    2.10
   2  -8   4   22.50    2.50
   2  -8   4   19.10    3.40
   2  -8   4   18.80    3.80
  -2  -8  -4   19.40    2.40
   2   8   5    4.20    3.10
   2   8   5    1.80    2.10
   2  -8   5    5.90    4.10
   2  -8   5    2.80    3.30
   2  -8   5    1.70    2.30
   2   8   6   11.20    2.50
   2   8   6    2.80    3.60
   2  -8   6    9.40    3.70
   2  -8   6   -2.30    4.60
   2  -8   6    3.40    2.30
  -2   9   6    0.80    3.60
  -2   9   6    1.10    2.40
  -2  -9   6    2.10    4.10
  -2  -9   6   -0.10    5.00
  -2  -9   6   -0.90    2.00
   2   9  -5   15.80    4.10
  -2   9   5    7.40    3.20
  -2   9   5    4.50    2.40
  -2  -9   5    6.10    2.40
  -2  -9   5   10.20    3.80
   2   9  -4   14.40    3.70
  -2   9   4    9.40    2.90
  -2   9   4    9.60    2.20
   2   9  -4   12.60    1.70
   2  -9  -4    7.20    2.40
  -2  -9   4   10.80    2.40
  -2  -9   4   11.60    3.40
  -2   9   3   -1.00    1.70
   2   9  -3   -0.60    1.30
  -2   9   3   -1.20    1.60
  -2   9   3    0.80    2.40
   2  -9  -3    1.90    2.10
  -2  -9   3    4.10    2.70
  -2  -9   3    0.20    1.20
  -2  -9   3   -0.50    1.90
  -2   9   2   61.89    3.40
   2   9  -2   66.49    3.10
  -2   9   2   69.09    4.80
  -2   9   2   63.39    3.20
  -2  -9   2   61.69    4.40
  -2  -9   2   65.99    3.20
   2  -9  -2   65.09    3.80
  -2  -9   2   57.89    3.40
  -2   9   1    3.50    2.10
  -2   9   1    4.40    1.70
   2   9  -1   -0.40    1.80
   2   9  -1    4.30    1.30
   2  -9  -1   -2.60    2.70
   2  -9  -1    3.50    1.30
  -2  -9   1    2.60    2.20
  -2  -9   1    6.70    1.90
  -2  -9   1    1.80    1.10
   2  -9  -1    5.70    2.20
  -2   9   0   87.89    3.60
   2   9   0   95.89    3.90
   2   9   0   92.49    4.40
  -2   9   0   94.49    5.40
   2   9   0   98.89    5.00
  -2  -9   0   93.49    4.10
   2  -9   0   96.89    4.20
   2  -9   0   87.69    6.40
   2  -9   0   88.59    4.30
  -2  -9   0   82.69    5.50
  -2  -9   0   91.09    4.10
  -2   9  -1   32.60    4.40
   2   9   1   50.29    3.20
  -2   9  -1   49.40    2.50
   2   9   1   48.80    3.40
   2   9   1   50.99    3.00
  -2  -9  -1   48.30    3.20
   2  -9   1   46.40    2.40
  -2  -9  -1   50.99    2.90
  -2  -9  -1   32.40    4.80
   2  -9   1   48.60    3.40
   2  -9   1   43.00    5.10
   2  -9   1   49.60    3.80
   2   9   2  111.49    4.50
   2   9   2  114.99    5.30
  -2   9  -2  114.79    4.20
   2   9   2  111.99    5.30
  -2   9  -2  112.89    4.40
  -2  -9  -2  107.69    4.70
   2  -9   2   97.29    6.20
  -2  -9  -2   86.79    6.40
   2  -9   2  108.19    4.80
   2  -9   2  116.19    4.20
  -2  -9  -2   97.09    4.50
   2  -9   2  110.99    5.40
   2   9   3   16.60    2.40
  -2   9  -3   15.60    1.90
   2   9   3   14.00    2.30
   2   9   3   11.10    2.30
   2   9   3    8.20    2.00
   2  -9   3   15.40    2.10
  -2  -9  -3   16.30    1.80
   2  -9   3   12.00    2.70
  -2  -9  -3   13.30    2.40
   2  -9   3    5.90    3.20
   2  -9   3   12.20    2.50
   2   9   4   25.90    2.70
   2   9   4   23.50    3.20
  -2  -9  -4   24.60    2.80
   2  -9   4   18.10    3.70
   2  -9   4   21.90    3.00
   2  -9   4   17.30    4.00
   2   9   5    8.70    3.40
   2   9   5    9.40    2.70
   2  -9   5    9.80    3.80
   2  -9   5   10.20    4.50
   2  -9   5    5.70    2.60
   2   9   6    4.30    2.60
   2   9   6    4.90    3.90
   2  -9   6    6.60    3.90
   2  -9   6   -1.40    4.80
   2  -9   6    1.80    2.50
  -2  10   6    6.80    2.70
  -2  10   6   10.60    4.10
  -2 -10   6    4.40    5.00
  -2 -10   6    6.30    2.50
  -2 -10   6    9.30    4.40
  -2  10   5   30.00    3.20
   2  10  -5   36.30    4.90
  -2  10   5   25.30    3.90
  -2 -10   5   33.20    4.00
  -2 -10   5   26.40    4.60
  -2  10   4   18.20    2.60
   2  10  -4   22.40    4.10
  -2  10   4   11.30    3.20
  -2 -10   4   16.80    2.60
  -2 -10   4   12.10    3.10
   2 -10  -4   15.80    2.90
   2  10  -3  124.89    4.70
  -2  10   3  125.79    5.00
  -2  10   3  110.89    6.20
  -2 -10   3  126.39    5.10
  -2 -10   3  110.89    6.70
   2 -10  -3  120.39    5.30
  -2 -10   3  118.09    5.20
  -2  10   2   62.89    4.90
  -2  10   2   60.59    3.60
   2  10  -2   58.89    3.20
  -2 -10   2   56.59    3.20
   2 -10  -2   60.29    3.40
  -2 -10   2   55.39    3.70
  -2 -10   2   61.39    5.40
   2  10  -1   21.50    2.70
   2  10  -1   33.70    2.80
  -2  10   1   30.80    4.20
  -2  10   1   31.70    2.40
   2 -10  -1   28.00    2.50
  -2 -10   1   30.80    2.50
  -2 -10   1   31.30    3.10
   2 -10  -1   24.20    4.20
   2 -10  -1   36.70    3.50
  -2 -10   1   25.40    4.20
  -2  10   0    6.60    1.60
  -2  10   0    5.20    2.50
   2  10   0    4.80    1.80
   2  10   0    8.70    2.00
  -2 -10   0    4.00    2.50
  -2 -10   0    3.30    1.30
   2 -10   0    4.50    2.50
  -2 -10   0    5.80    1.80
   2 -10   0    6.90    1.90
   2 -10   0    2.30    3.30
   2  10   1   -0.70    1.60
  -2  10  -1   -7.20    2.50
   2  10   1    0.00    1.70
  -2  10  -1   -0.70    1.80
   2  10   1    0.00    1.50
   2 -10   1   -0.70    2.00
   2 -10   1   -6.00    2.80
  -2 -10  -1    0.60    2.30
  -2 -10  -1   -6.70    2.40
  -2 -10  -1    0.40    1.40
   2 -10   1   -3.40    2.30
   2  10   2    1.40    1.80
  -2  10  -2    2.00    1.80
  -2  10  -2    2.30    1.80
   2  10   2    1.10    1.50
   2  10   2   -0.10    2.00
  -2 -10  -2   -3.20    1.50
  -2 -10  -2   -0.20    2.30
   2 -10   2    3.70    2.50
   2 -10   2   -0.40    2.40
   2 -10   2    0.10    2.50
   2  10   3    3.60    2.30
   2  10   3    6.30    2.30
  -2  10  -3    6.00    1.90
   2  10   3    6.60    1.70
   2 -10   3    7.20    1.90
   2 -10   3    7.80    2.70
   2 -10   3    6.50    3.20
   2 -10   3    5.00    3.50
  -2 -10  -3    5.50    2.50
   2  10   4    1.90    2.60
   2  10   4   -0.10    2.60
   2 -10   4   -0.80    2.50
   2 -10   4    2.10    3.80
   2 -10   4    3.60    3.60
  -2 -10  -4    0.20    2.40
   2  10   5   26.40    3.10
   2  10   5   20.40    3.70
   2 -10   5   19.60    4.90
   2 -10   5   19.40    4.30
   2 -10   5   21.50    3.30
  -2  11   5    0.10    2.40
   2  11  -5    2.00    4.10
  -2  11   5   -0.70    3.50
  -2 -11   5    3.70    4.20
  -2 -11   5    3.40    2.70
  -2  11   4    7.40    2.70
  -2  11   4    7.40    2.50
   2  11  -4   11.00    4.00
  -2 -11   4    5.90    2.60
  -2 -11   4    4.80    3.80
  -2  11   3    4.40    2.40
  -2  11   3    1.40    2.90
   2  11  -3    4.80    1.80
  -2 -11   3    8.50    2.90
  -2 -11   3    6.40    3.60
   2 -11  -3    8.80    2.90
  -2  11   2    0.90    1.70
  -2  11   2    1.70    2.00
   2  11  -2    1.40    1.90
  -2 -11   2    2.10    1.30
   2 -11  -2    2.20    2.10
  -2 -11   2    1.20    3.10
  -2 -11   2    6.50    2.60
  -2  11   1   38.40    2.70
  -2  11   1   40.10    4.70
   2  11  -1   30.00    4.40
   2  11  -1   42.20    3.30
  -2 -11   1   42.70    3.70
  -2 -11   1   38.00    2.80
   2 -11  -1   38.80    4.00
  -2 -11   1   34.50    5.00
   2 -11  -1   33.10    2.90
   2 -11  -1   29.30    4.80
  -2  11   0   19.00    2.10
   2  11   0   19.90    2.10
   2  11   0   16.00    2.40
  -2  11   0   15.20    3.00
   2 -11   0   22.60    3.10
  -2 -11   0   12.40    1.80
  -2 -11   0   16.50    2.80
  -2 -11   0   11.90    3.10
   2 -11   0   10.90    3.90
   2 -11   0   20.40    3.10
  -2  11  -1   73.39    6.30
  -2  11  -1   87.79    4.20
   2  11   1   79.29    4.70
   2  11   1   86.59    4.40
  -2 -11  -1   75.29    6.40
   2 -11   1   88.49    7.20
  -2 -11  -1   81.99    4.00
   2 -11   1   86.59    4.90
   2 -11   1   82.69    4.80
  -2 -11  -1   86.69    4.70
  -2  11  -2   -0.50    1.90
   2  11   2   -1.30    2.20
   2  11   2    0.60    2.00
  -2  11  -2   -0.10    1.90
   2 -11   2   -3.80    2.60
  -2 -11  -2   -4.30    1.60
  -2 -11  -2   -2.80    2.60
   2 -11   2   -4.30    3.30
   2 -11   2    0.00    2.80
  -2  11  -3   59.59    3.80
   2  11   3   57.79    4.10
  -2  11  -3   58.29    3.50
   2  11   3   55.89    5.00
   2 -11   3   63.09    4.60
  -2 -11  -3   55.09    4.20
   2 -11   3   58.49    5.60
   2 -11   3   55.89    6.80
   2  11   4    4.80    2.70
   2  11   4    5.50    3.00
   2 -11   4    4.20    2.90
   2 -11   4    2.80    3.90
   2 -11   4    5.20    3.20
   2  11   5   16.20    3.30
   2  11   5   10.60    3.60
   2 -11   5    7.30    3.80
   2 -11   5   10.80    3.40
   2 -11   5   10.80    4.40
   2  12  -5    8.60    4.90
  -2  12   5    2.80    2.80
  -2  12   5    0.60    3.60
  -2 -12   5    3.60    4.50
  -2 -12   5    2.40    3.20
   2  12  -4   32.70    4.90
  -2  12   4   22.00    4.00
  -2  12   4   29.40    3.30
  -2 -12   4   27.10    3.70
  -2 -12   4   28.20    4.80
  -2  12   3    0.50    2.40
   2  12  -3    2.40    2.20
  -2  12   3    0.90    3.00
  -2 -12   3    3.80    3.10
   2 -12  -3   -1.50    3.00
  -2 -12   3   -1.20    3.60
  -2  12   2   -1.20    2.80
  -2  12   2   -0.50    2.40
   2  12  -2    1.20    2.10
  -2 -12   2    0.10    3.30
   2 -12  -2   -0.80    2.90
  -2 -12   2    3.60    2.80
   2  12  -1    0.30    2.50
  -2  12   1    8.80    2.50
   2  12  -1    7.40    2.30
  -2  12   1    5.30    2.90
  -2 -12   1    6.60    2.90
   2 -12  -1    5.20    3.10
   2 -12  -1    3.90    2.00
  -2 -12   1    4.70    1.60
  -2 -12   1    5.00    3.20
   2 -12  -1   -1.30    4.20
   2  12   0    0.30    2.30
  -2  12   0   -0.40    2.20
   2  12   0   -0.90    2.10
  -2  12   0   -1.50    2.90
   2 -12   0    0.70    2.20
   2 -12   0    0.80    3.00
  -2 -12   0    2.20    2.80
  -2 -12   0   -2.50    3.00
   2 -12   0   -3.50    3.80
   2  12   1    1.20    2.20
   2  12   1    0.40    1.80
  -2  12  -1   -7.10    3.50
  -2  12  -1   -1.10    2.20
   2 -12   1   -3.80    3.70
   2 -12   1    5.10    2.80
   2 -12   1    0.90    3.00
  -2 -12  -1    1.70    2.20
  -2 -12  -1    2.00    1.70
  -2 -12  -1   -6.30    3.50
  -2  12  -2    4.60    2.30
   2  12   2    4.90    2.30
   2  12   2    8.10    2.60
  -2  12  -2    8.90    2.20
   2 -12   2    7.80    3.40
   2 -12   2    2.00    4.00
   2 -12   2    4.10    3.00
  -2 -12  -2    7.00    3.00
  -2  12  -3    2.30    2.40
   2  12   3    5.00    2.70
  -2  12  -3    1.70    2.40
   2  12   3    5.00    2.70
  -2 -12  -3    5.20    3.00
   2 -12   3    5.10    3.60
   2 -12   3    2.40    4.10
   2 -12   3    2.40    3.20
   2  12   4    5.20    3.20
   2  12   4   15.10    3.10
   2 -12   4    5.20    4.40
   2 -12   4    6.40    3.30
   2 -12   4    3.90    4.30
   2  12   5    1.40    3.60
   2  12   5    5.40    3.20
   2 -12   5    4.10    4.50
   2 -12   5   -1.30    4.80
   2 -12   5    0.00    3.50
  -2  13   5    3.20    3.40
   2  13  -5   -1.00    4.60
  -2  13   5    3.30    3.90
  -2 -13   5    3.30    3.10
  -2 -13   5    4.50    4.70
  -2 -13   5    4.30    5.00
  -2  13   4    0.30    3.60
   2  13  -4    1.90    4.40
  -2  13   4    4.50    3.20
  -2 -13   4    6.20    3.20
  -2 -13   4    5.70    4.50
   2  13  -3    6.40    2.20
  -2  13   3    3.20    3.20
  -2  13   3    6.90    2.80
  -2 -13   3    4.80    4.10
   2 -13  -3    5.30    3.40
  -2 -13   3    6.70    3.20
   2  13  -2   13.50    2.60
  -2  13   2   13.80    2.40
  -2  13   2    9.10    3.40
   2 -13  -2   16.30    3.70
  -2 -13   2    4.20    3.90
  -2 -13   2   14.80    3.30
   2  13  -1   -6.20    2.60
   2  13  -1    5.70    2.50
  -2  13   1    0.20    3.00
  -2  13   1    1.00    2.50
   2 -13  -1    4.10    3.30
  -2 -13   1    2.30    3.60
  -2 -13   1    3.80    3.10
   2 -13  -1   -8.80    4.30
   2 -13  -1    0.70    1.90
  -2  13   0   17.60    2.90
   2  13   0   11.20    2.80
   2  13   0   18.60    2.90
  -2  13   0   13.00    3.40
   2 -13   0   11.20    4.70
   2 -13   0   16.30    2.70
  -2 -13   0   14.30    2.70
   2 -13   0   15.20    2.90
  -2 -13   0   15.00    4.00
  -2  13  -1    0.00    2.50
  -2  13  -1   -6.60    3.30
   2  13   1    2.30    2.60
   2  13   1    0.40    2.40
   2 -13   1    1.00    2.90
   2 -13   1   -4.60    4.10
  -2 -13  -1   -6.00    3.90
   2 -13   1    1.50    3.30
  -2 -13  -1    1.10    2.40
   2  13   2   24.20    3.30
   2  13   2   18.40    3.00
  -2  13  -2   25.30    3.00
   2 -13   2   15.00    4.80
   2 -13   2   20.50    3.70
  -2 -13  -2   25.20    3.70
   2 -13   2   25.20    3.90
   2  13   3   -0.40    2.80
   2  13   3   -1.60    2.60
  -2  13  -3    2.00    2.40
  -2  13  -3   -0.20    2.40
  -2 -13  -3   -2.00    3.10
   2 -13   3    0.10    4.50
   2 -13   3   -3.30    3.40
   2 -13   3   -1.90    3.70
   2  13   4    5.70    3.20
   2  13   4    6.10    3.00
   2 -13   4    4.90    3.60
   2 -13   4    2.90    4.60
   2 -13   4    5.60    4.50
  -2  14   4    1.50    3.00
   2  14  -4    0.90    4.60
  -2  14   4    1.00    3.20
  -2 -14   4    4.70    4.60
  -2 -14   4    2.30    3.50
  -2  14   3   23.30    4.20
  -2  14   3   32.00    3.60
   2 -14  -3   31.00    4.20
  -2 -14   3   22.10    5.00
  -2 -14   3   30.00    4.00
  -2  14   2    6.30    3.60
   2  14  -2   11.10    2.70
  -2  14   2   15.70    3.20
  -2 -14   2    6.00    4.20
  -2 -14   2   12.90    2.90
   2 -14  -2   14.80    4.00
  -2  14   1    2.40    2.80
   2  14  -1    5.50    2.60
  -2  14   1    3.30    3.30
   2  14  -1   -7.10    3.00
  -2 -14   1    2.70    4.20
   2 -14  -1   -5.00    4.80
   2 -14  -1    3.30    3.60
  -2 -14   1    5.30    3.40
  -2  14   0    5.70    2.90
  -2  14   0    0.30    3.40
   2  14   0    1.00    2.70
   2  14   0    5.70    2.70
   2 -14   0    1.30    4.80
   2 -14   0    7.00    2.70
   2 -14   0    6.00    3.70
  -2 -14   0   -0.10    3.90
  -2 -14   0    6.40    3.40
   2  14   1    0.90    2.80
  -2  14  -1   -8.20    3.60
   2  14   1   -0.10    2.70
  -2  14  -1    0.20    2.00
  -2 -14  -1   -3.90    3.90
   2 -14   1   -1.90    3.60
  -2 -14  -1    6.90    3.50
   2 -14   1    0.20    2.70
   2 -14   1    0.60    2.80
   2  14   2    0.40    2.60
  -2  14  -2   -0.10    2.70
   2  14   2   -0.20    2.90
   2 -14   2   -2.20    4.60
   2 -14   2    1.30    3.70
  -2 -14  -2    0.80    2.60
   2 -14   2    1.30    3.40
   2  14   3    2.40    3.30
   2  14   3    0.80    3.10
  -2 -14  -3    0.40    3.40
   2 -14   3   -2.40    4.20
   2 -14   3    5.50    3.90
   2 -14   3   -1.30    4.80
   2  14   4    2.90    3.30
   2  14   4    3.20    3.70
   2 -14   4    0.20    4.30
   2 -14   4    1.70    5.00
   2 -14   4    2.50    4.60
  -2  15   3   -0.20    3.80
  -2  15   3    2.40    3.30
  -2 -15   3    0.40    4.80
  -2 -15   3    7.90    3.80
   2 -15  -3    2.20    4.00
   2  15  -2    9.50    2.90
  -2  15   2   10.70    2.70
  -2  15   2    4.30    3.70
   2 -15  -2    7.00    4.00
  -2 -15   2   10.10    4.80
  -2 -15   2    8.70    3.00
   2  15  -1   -0.80    3.40
  -2  15   1    6.10    3.60
   2  15  -1   13.00    3.00
  -2  15   1   16.30    3.30
   2 -15  -1   12.10    4.20
  -2 -15   1   17.50    3.90
  -2 -15   1    9.10    4.50
   2 -15  -1   -2.60    5.50
   2  15   0    0.90    3.00
   2  15   0   10.30    2.50
  -2  15   0   12.40    3.20
  -2  15   0    5.00    3.80
   2 -15   0   10.80    4.10
   2 -15   0    9.60    3.10
  -2 -15   0   10.30    3.90
  -2 -15   0    0.40    4.70
   2 -15   0    3.30    5.20
   2  15   1   14.30    3.30
  -2  15  -1    2.70    4.40
   2  15   1    9.50    3.00
  -2  15  -1   14.00    3.20
   2 -15   1    9.30    3.20
   2 -15   1   14.20    4.30
  -2 -15  -1    9.50    4.70
  -2 -15  -1   15.00    4.00
   2 -15   1   11.80    5.30
   2  15   2    0.00    3.20
   2  15   2    2.70    3.10
  -2  15  -2   -0.40    2.80
  -2 -15  -2    2.80    3.00
   2 -15   2    1.80    4.10
   2 -15   2   -0.20    4.00
   2 -15   2   -5.10    4.90
   2  15   3    8.70    3.40
   2  15   3    9.80    3.40
   2 -15   3    7.40    4.30
   2 -15   3    2.80    4.20
  -2 -15  -3    5.70    3.90
   2 -15   3    8.90    5.50
  -2  16   3    0.60    4.10
  -2  16   3    0.20    3.50
  -2 -16   3    2.80    4.80
  -2 -16   3   -1.30    4.10
   2  16  -2    7.90    3.00
  -2  16   2   -1.80    4.20
  -2  16   2    2.60    3.50
  -2 -16   2    2.40    3.90
  -2 -16   2    1.50    4.70
   2 -16  -2    5.00    4.40
   2  16  -1    7.80    3.00
  -2  16   1    1.80    3.30
  -2  16   1   -2.20    3.60
  -2 -16   1    2.30    3.10
   2 -16  -1   -4.10    5.50
   2 -16  -1    3.10    4.20
  -2 -16   1    6.20    4.80
   2  16   0    6.00    3.20
   2  16   0   -7.50    3.10
  -2  16   0   -0.10    3.20
  -2  16   0   -1.80    4.00
   2 -16   0   -4.90    5.50
  -2 -16   0   -4.90    4.80
  -2 -16   0    6.10    4.10
   2 -16   0    3.00    4.30
   2  16   1   -4.10    3.10
  -2  16  -1  -10.20    3.90
   2  16   1    1.30    2.50
  -2  16  -1   -1.40    3.20
   2 -16   1    2.10    4.20
   2 -16   1   -0.80    5.40
  -2 -16  -1   -8.50    4.50
  -2 -16  -1    2.20    4.10
   2 -16   1    2.20    3.40
  -2  16  -2    1.20    3.00
   2  16   2    2.10    3.40
   2  16   2    4.40    3.50
  -2 -16  -2    6.60    4.00
   2 -16   2    1.70    4.30
   2 -16   2   -0.10    5.30
   2 -16   2    0.30    4.10
   2  17  -1    7.70    3.20
  -2  17   1    5.60    2.80
  -2  17   1   -6.10    3.80
  -2 -17   1    2.50    5.10
   2 -17  -1    7.00    4.70
   2 -17  -1  -11.60    5.90
  -2 -17   1    6.50    3.40
  -2  17   0   -8.20    4.00
   2  17   0    2.90    3.40
  -2  17   0    4.80    3.50
  -2 -17   0    5.60    4.40
   2 -17   0   -1.30    5.60
  -2 -17   0   -0.60    5.30
   2 -17   0    5.30    4.60
   2  17   1   -0.90    3.50
  -2  17  -1    1.70    3.30
  -2  17  -1   -8.90    4.10
   2  17   1    3.50    2.70
   2 -17   1   -4.40    5.60
   2 -17   1    3.70    4.70
  -2 -17  -1   -7.10    4.70
  -2 -17  -1    6.80    4.50
  -3   0   7   -0.10    3.60
  -3   0   7    0.40    3.50
  -3   0   7    0.50    3.00
  -3   0   6   61.79    5.10
  -3   0   5    5.70    2.00
  -3   0   4   17.30    1.00
  -3   0   4   16.50    1.00
  -3   0   4   15.90    2.50
  -3   0   3    0.90    1.10
  -3   0   3   -1.00    0.70
  -3   0   3   -0.60    1.40
  -3   0   3   -2.20    0.60
   3   0  -2  210.58    6.00
  -3   0   2  213.88    7.80
   3   0  -2  206.18    7.70
  -3   0   2  216.48    6.10
   3   0  -2  210.68    7.50
  -3   0   2  214.28    6.20
   3   0  -1   -0.50    0.50
  -3   0   1    2.70    0.90
   3   0  -1    0.30    0.60
  -3   0   1    2.00    0.70
  -3   0   1   -0.70    0.60
  -3   0   1   -0.80    0.60
  -3   0   0  161.18    4.90
   3   0   0  163.48    4.90
  -3   0   0  169.78    5.00
  -3   0   0  165.38    5.80
   3   0   0  166.28    5.90
   3   0   0  173.68    6.20
   3   0   1    0.20    0.50
  -3   0  -1    0.50    0.80
  -3   0  -1    1.30    0.70
  -3   0  -1    2.10    0.70
  -3   0  -1    1.10    0.90
   3   0   1    2.90    1.20
   3   0   2  202.78    7.40
   3   0   2  204.98    6.10
  -3   0  -2  211.08    7.30
  -3   0  -2  208.78    8.00
  -3   0  -2  202.88    6.10
  -3   0  -2  219.68    6.30
   3   0   2  203.48    8.10
   3   0   3    1.20    1.00
  -3   0  -3    0.50    1.00
   3   0   3    1.30    0.90
   3   0   3    6.50    1.70
  -3   0  -3    2.70    1.00
  -3   0  -3    2.10    1.40
   3   0   4  136.59    4.30
  -3   0  -4  145.39    4.50
   3   0   4  127.09    5.90
   3   0   4  128.39    6.00
   3   0   5    2.70    2.70
   3   0   5    2.20    1.70
   3   0   6    2.20    3.60
  -3   1   7   16.80    3.70
  -3   1   7   21.30    3.90
  -3  -1   7   16.00    3.40
  -3  -1   7   19.20    4.40
  -3  -1   7   13.90    4.50
  -3   1   6    6.70    2.70
  -3  -1   6    7.40    2.60
  -3   1   5  143.39    6.80
  -3   1   5  132.99    4.10
  -3   1   5  142.19    4.10
  -3  -1   5  149.99    6.80
  -3   1   4    6.00    0.80
  -3   1   4    3.90    1.60
  -3   1   4    5.50    0.80
  -3  -1   4    5.60    0.70
  -3  -1   4    4.40    1.60
  -3  -1   4    5.90    0.70
   3   1  -3   78.09    3.70
  -3   1   3   74.19    2.50
   3   1  -3   74.29    2.20
  -3   1   3   75.79    3.50
   3   1  -3   69.19    2.20
  -3   1   3   75.19    2.50
  -3   1   3   82.39    3.90
  -3  -1   3   76.29    2.50
   3  -1  -3   75.29    2.30
  -3  -1   3   77.49    2.50
  -3  -1   3   79.59    3.60
   3   1  -2   45.10    1.60
  -3   1   2   46.30    2.20
   3   1  -2   42.70    2.40
  -3   1   2   48.80    2.60
  -3   1   2   47.60    1.80
  -3   1   2   44.70    1.70
   3  -1  -2   45.70    2.30
   3  -1  -2   46.20    1.60
  -3  -1   2   45.70    2.20
  -3  -1   2   47.50    1.70
   3   1  -1  239.88    6.70
   3   1  -1  237.28    8.30
  -3   1   1  229.88    6.70
  -3   1   1  244.08    8.60
  -3   1   1  233.08    6.80
  -3   1   1  235.88    7.80
   3  -1  -1  237.88    6.70
  -3  -1   1  231.38    6.70
  -3  -1   1  240.68    8.30
   3  -1  -1  226.68    8.60
   3  -1  -1  226.18    6.80
   3  -1  -1  231.28    8.00
  -3   1   0    1.10    0.70
  -3   1   0    0.80    0.80
  -3   1   0    1.10    0.80
  -3   1   0   -0.10    0.60
   3   1   0   -0.30    0.60
   3   1   0    1.40    1.00
   3  -1   0    1.80    0.80
  -3  -1   0    2.20    0.90
   3  -1   0   -1.00    0.80
  -3  -1   0    0.50    0.50
   3  -1   0    1.00    1.00
   3  -1   0    0.30    0.50
  -3   1  -1  313.57   11.90
  -3   1  -1  298.07   10.00
   3   1   1  311.67   10.20
  -3   1  -1  313.37    8.80
   3   1   1  297.67    8.60
  -3   1  -1  298.67    8.70
   3  -1   1  317.97   10.20
   3  -1   1  297.87   11.70
   3  -1   1  299.87    8.70
  -3  -1  -1  298.67    8.70
  -3  -1  -1  303.77   10.10
  -3  -1  -1  315.07   11.50
   3  -1   1  301.27    8.80
  -3  -1  -1  301.17    8.80
   3   1   2  103.19    4.30
  -3   1  -2  110.09    4.50
   3   1   2  105.49    4.10
   3   1   2  104.89    3.40
  -3   1  -2  107.99    3.50
  -3   1  -2  104.89    4.30
  -3   1  -2  103.29    3.40
  -3  -1  -2  103.59    3.40
   3  -1   2  102.89    3.30
   3  -1   2  101.79    4.40
  -3  -1  -2  105.69    3.50
   3  -1   2  103.39    4.50
  -3  -1  -2  104.59    4.20
   3  -1   2  104.69    3.60
   3   1   3  261.37   10.60
   3   1   3  281.87    8.00
  -3   1  -3  290.37    8.10
   3   1   3  279.47    9.70
  -3   1  -3  266.27    8.00
   3  -1   3  263.07   10.90
   3  -1   3  266.67    9.80
  -3  -1  -3  280.67    8.00
  -3  -1  -3  289.87    8.20
   3  -1   3  276.97    8.00
  -3  -1  -3  283.57    9.70
   3   1   4   42.40    2.00
   3   1   4   40.20    2.70
   3   1   4   43.90    3.90
   3  -1   4   37.80    2.00
   3  -1   4   40.90    3.90
   3  -1   4   38.90    3.20
  -3  -1  -4   32.80    1.90
   3   1   5   77.59    5.00
   3   1   5   71.09    4.20
   3  -1   5   77.49    4.80
   3  -1   5   84.69    5.40
   3   1   6   20.80    3.60
   3  -1   6   14.80    3.80
  -3   2   7   10.40    3.50
  -3   2   7    7.60    3.50
  -3  -2   7    7.80    4.20
  -3  -2   7   10.60    3.10
  -3  -2   7    6.80    3.90
  -3   2   6    0.60    2.50
  -3   2   6   -2.90    2.70
  -3  -2   6    0.60    3.00
  -3  -2   6    2.10    2.30
  -3   2   5   16.80    1.30
  -3   2   5   11.40    1.30
  -3   2   5   12.40    2.40
  -3  -2   5   14.50    2.20
  -3   2   4    7.50    1.00
  -3   2   4    7.30    0.90
  -3   2   4    4.00    1.60
  -3  -2   4    5.60    0.80
  -3  -2   4    6.50    1.50
  -3   2   3 1143.59   30.60
  -3   2   3 1116.89   38.80
   3   2  -3 1113.69   30.50
  -3   2   3 1133.49   37.00
   3   2  -3 1109.49   37.10
   3   2  -3 1045.60   30.70
  -3   2   3 1102.99   30.60
   3  -2  -3 1126.59   30.50
  -3  -2   3 1121.29   38.50
  -3  -2   3 1122.09   30.50
  -3   2   2   17.90    1.20
   3   2  -2   19.00    1.50
  -3   2   2   19.70    1.90
  -3   2   2   18.10    1.50
  -3   2   2   19.40    1.10
   3   2  -2   19.40    1.10
   3  -2  -2   20.40    1.10
   3  -2  -2   20.90    1.70
  -3  -2   2   20.00    1.30
   3  -2  -2   20.40    1.30
  -3  -2   2   20.10    1.20
   3   2  -1 1744.63   46.90
  -3   2   1 1696.13   53.29
  -3   2   1 1781.72   56.69
   3   2  -1 1697.63   58.89
  -3   2   1 1688.93   47.10
  -3   2   1 1710.83   46.90
  -3   2   1 1684.23   58.79
   3  -2  -1 1729.53   46.80
   3  -2  -1 1684.73   58.89
  -3  -2   1 1712.23   47.10
   3  -2  -1 1705.23   46.90
   3  -2  -1 1670.73   53.39
  -3   2   0   21.20    1.80
  -3   2   0   22.20    1.50
  -3   2   0   22.10    1.90
   3   2   0   25.00    1.80
  -3   2   0   19.70    1.20
  -3   2   0   19.30    1.10
   3   2   0   17.80    1.10
   3  -2   0   28.70    1.80
   3  -2   0   20.30    1.40
   3  -2   0   25.30    1.90
  -3  -2   0   21.10    1.30
   3  -2   0   20.00    1.20
  -3  -2   0   23.70    1.70
   3   2   1  890.61   24.70
  -3   2  -1  916.71   28.40
  -3   2  -1  881.81   24.70
   3   2   1  882.41   28.30
  -3   2  -1  893.21   24.80
  -3   2  -1  920.51   33.80
   3  -2   1  912.31   33.70
   3  -2   1  882.41   24.90
  -3  -2  -1  880.41   28.40
   3  -2   1  897.31   28.40
   3  -2   1  901.31   24.70
  -3  -2  -1  893.81   24.80
   3   2   2   13.00    1.70
  -3   2  -2   11.00    1.20
  -3   2  -2   13.30    1.90
   3   2   2   12.10    1.20
  -3   2  -2   10.30    1.40
  -3   2  -2   11.30    1.20
   3  -2   2   11.90    1.80
  -3  -2  -2   12.70    1.80
  -3  -2  -2   12.30    1.30
   3  -2   2   12.70    1.50
   3  -2   2    9.10    1.40
   3  -2   2   10.90    1.10
  -3   2  -3  157.38    6.40
   3   2   3  153.68    6.00
  -3   2  -3  144.09    4.70
  -3   2  -3  150.38    4.80
   3   2   3  140.79    5.80
   3   2   3  152.18    4.70
  -3  -2  -3  155.08    4.90
  -3  -2  -3  149.09    4.80
  -3  -2  -3  158.38    5.90
   3  -2   3  159.28    5.10
   3  -2   3  154.88    6.30
   3  -2   3  140.79    6.60
   3  -2   3  152.28    4.70
   3   2   4    1.20    1.00
   3   2   4    1.40    1.20
   3   2   4    2.00    2.10
  -3  -2  -4    1.10    1.20
   3  -2   4    2.70    1.70
   3  -2   4    0.40    1.10
   3  -2   4    3.90    2.50
   3   2   5    5.70    2.50
   3   2   5    2.60    1.40
   3  -2   5    9.10    3.20
   3  -2   5    5.30    2.20
   3   2   6    3.40    3.20
   3  -2   6    4.20    3.70
  -3   3   7   19.10    3.90
  -3  -3   7   22.00    3.60
  -3  -3   7   19.90    5.10
  -3  -3   7   17.80    4.20
  -3   3   6    5.10    2.80
  -3   3   6    7.60    2.60
  -3   3   6    7.40    1.00
  -3  -3   6    4.40    2.60
  -3  -3   6    8.70    3.40
  -3   3   5  115.59    6.10
  -3   3   5  106.69    3.70
  -3   3   5  115.39    3.60
  -3  -3   5  118.89    6.70
  -3  -3   5  100.49    3.30
  -3  -3   5  114.89    5.70
  -3  -3   5  113.29    3.40
  -3   3   4   21.40    1.50
  -3   3   4   25.20    3.20
  -3   3   4   21.60    1.60
  -3  -3   4   21.40    1.50
   3   3  -3   55.09    1.90
   3   3  -3   54.19    1.90
   3   3  -3   59.39    3.30
  -3   3   3   54.69    2.20
  -3   3   3   51.89    2.90
  -3   3   3   55.29    2.20
  -3   3   3   60.89    3.50
  -3  -3   3   56.59    2.10
   3  -3  -3   46.80    2.10
  -3  -3   3   55.69    2.80
   3  -3  -3   56.09    2.10
  -3   3   2   28.50    1.50
  -3   3   2   29.50    1.70
  -3   3   2   31.30    2.40
  -3   3   2   28.00    1.70
  -3   3   2   26.70    1.60
   3   3  -2   28.30    1.30
   3  -3  -2   27.80    1.50
   3  -3  -2   26.80    1.60
   3  -3  -2   30.50    2.10
  -3  -3   2   27.90    1.50
  -3  -3   2   29.00    1.40
  -3   3   1  136.19    4.20
  -3   3   1  127.29    5.80
  -3   3   1  142.69    5.60
   3   3  -1  134.09    4.00
  -3   3   1  133.29    4.10
  -3   3   1  136.09    4.70
  -3   3   1  133.39    4.70
   3  -3  -1  137.59    4.30
   3  -3  -1  136.99    4.10
   3  -3  -1  138.89    4.90
  -3  -3   1  133.39    4.10
   3  -3  -1  135.39    5.50
  -3   3   0    2.50    1.00
  -3   3   0    1.40    0.80
  -3   3   0    1.50    0.80
   3   3   0    0.80    0.60
  -3   3   0    5.50    0.70
  -3   3   0    1.90    0.90
   3  -3   0    2.30    1.10
   3  -3   0    2.70    1.10
   3  -3   0    1.60    0.90
  -3  -3   0    1.50    0.70
  -3  -3   0    1.20    0.80
   3  -3   0    2.90    0.80
   3  -3   0    0.50    0.70
  -3   3  -1  359.86   11.80
  -3   3  -1  362.36   10.20
   3   3   1  356.06   11.80
  -3   3  -1  345.87   10.20
   3   3   1  358.36   10.20
  -3   3  -1  367.06   14.10
  -3  -3  -1  348.87   10.20
   3  -3   1  370.66   14.10
   3  -3   1  360.86   11.90
   3  -3   1  335.27   12.90
  -3  -3  -1  355.76   13.40
  -3  -3  -1  353.96   11.80
   3  -3   1  362.96   10.20
   3  -3   1  361.56   10.30
  -3   3  -2   19.80    2.50
  -3   3  -2   23.70    1.50
  -3   3  -2   23.10    1.80
   3   3   2   23.40    2.30
  -3   3  -2   22.90    1.60
   3   3   2   20.10    1.40
   3  -3   2   21.50    1.40
  -3  -3  -2   22.40    2.00
   3  -3   2   24.50    2.60
  -3  -3  -2   21.80    1.60
   3  -3   2   22.40    1.90
   3  -3   2   17.60    2.50
  -3   3  -3  323.17    9.40
  -3   3  -3  337.27    9.50
  -3   3  -3  343.57   13.10
   3   3   3  330.07   11.20
   3   3   3  329.07    9.50
   3  -3   3  299.77   13.10
   3  -3   3  325.27   11.30
  -3  -3  -3  337.67   11.20
  -3  -3  -3  316.97    9.50
   3  -3   3  323.37   11.50
   3  -3   3  324.27    9.40
   3  -3   3  335.97    9.70
   3   3   4    8.40    1.30
   3   3   4   11.70    2.10
   3   3   4    8.70    1.40
   3  -3   4    9.90    1.70
   3  -3   4    8.90    1.30
   3  -3   4   10.70    2.80
   3  -3   4    9.80    2.20
  -3  -3  -4    9.40    1.50
   3   3   5   89.09    5.30
   3  -3   5   83.69    6.00
   3  -3   5   82.89    5.50
   3   3   6   13.10    3.40
   3  -3   6   14.30    2.90
   3  -3   6   16.60    4.20
  -3   4   7    2.90    3.50
  -3  -4   7   -1.60    3.90
  -3  -4   7    5.20    3.10
  -3  -4   7   -8.10    4.40
  -3   4   6   28.20    3.60
  -3   4   6   35.30    5.10
  -3   4   6   29.30    1.90
  -3  -4   6   34.00    5.60
  -3  -4   6   30.80    4.50
  -3   4   5    5.20    2.40
  -3   4   5    3.50    1.20
  -3  -4   5    5.10    2.70
  -3  -4   5    2.50    1.00
   3   4  -4   12.80    2.90
  -3   4   4    9.90    1.30
  -3   4   4    7.20    2.00
  -3   4   4   10.80    1.30
  -3  -4   4    8.20    1.20
  -3  -4   4    9.40    2.50
   3  -4  -4    8.00    1.10
  -3   4   3   59.29    3.70
  -3   4   3   56.29    2.40
   3   4  -3   59.29    3.50
  -3   4   3   59.79    2.50
   3   4  -3   60.79    2.10
  -3  -4   3   58.19    2.30
  -3  -4   3   65.49    4.00
   3  -4  -3   58.19    2.30
   3  -4  -3   55.79    2.50
   3   4  -2  216.38    6.20
  -3   4   2  215.58    6.50
  -3   4   2  212.48    6.40
  -3   4   2  224.88    8.40
   3   4  -2  215.08    6.30
  -3   4   2  211.58    7.10
  -3  -4   2  218.78    8.90
   3  -4  -2  214.98    6.50
  -3  -4   2  210.08    7.50
   3  -4  -2  221.18    6.40
  -3  -4   2  209.08    6.40
   3  -4  -2  209.18    8.20
  -3   4   1  181.98    5.80
   3   4  -1  203.28    5.80
  -3   4   1  203.48    6.00
  -3   4   1  195.88    8.10
  -3   4   1  199.38    7.70
  -3   4   1  194.48    6.50
   3  -4  -1  195.98    6.00
  -3  -4   1  191.08    5.80
   3  -4  -1  191.68    7.50
   3  -4  -1  191.28    6.70
  -3  -4   1  203.68    8.00
   3  -4  -1  199.08    5.80
  -3   4   0  148.19    4.60
  -3   4   0  141.59    4.60
  -3   4   0  145.49    6.40
   3   4   0  149.49    4.60
  -3   4   0  152.28    5.20
  -3   4   0  150.08    6.20
   3  -4   0  145.79    6.60
  -3  -4   0  151.78    6.00
  -3  -4   0  149.69    5.40
   3  -4   0  153.38    6.00
   3  -4   0  144.49    4.70
   3  -4   0  140.89    4.50
  -3  -4   0  143.59    4.60
   3  -4   0  150.98    5.40
  -3   4  -1   18.50    1.20
  -3   4  -1   22.00    1.80
  -3   4  -1   19.40    2.40
   3   4   1   23.60    1.90
   3   4   1   18.40    1.40
  -3   4  -1   18.40    1.50
   3  -4   1   18.40    2.50
   3  -4   1   18.60    1.40
   3  -4   1   20.00    2.20
   3  -4   1   21.50    2.20
  -3  -4  -1   19.90    1.60
  -3  -4  -1   15.90    1.60
   3  -4   1   14.90    1.70
  -3  -4  -1   22.90    2.00
  -3   4  -2  104.59    4.20
   3   4   2  108.39    3.60
  -3   4  -2  105.39    3.50
  -3   4  -2  103.79    5.30
   3   4   2  107.49    4.40
  -3   4  -2  105.79    3.70
   3  -4   2  101.39    3.40
   3  -4   2  102.99    4.80
   3  -4   2   98.89    3.80
   3  -4   2   94.69    5.30
   3  -4   2  104.79    3.90
  -3  -4  -2  110.09    4.30
  -3  -4  -2  103.59    3.70
   3   4   3   18.30    2.40
  -3   4  -3   13.00    2.10
  -3   4  -3   15.70    1.60
   3   4   3   13.50    1.60
   3  -4   3   16.60    2.60
   3  -4   3   15.00    1.60
  -3  -4  -3   18.20    2.50
   3  -4   3   11.80    1.70
  -3  -4  -3   15.10    1.80
   3  -4   3   14.50    1.80
   3  -4   3   11.90    2.30
   3   4   4  101.99    4.80
   3   4   4   89.79    3.80
  -3   4  -4   92.79    3.40
   3   4   4   98.09    3.60
   3   4   4   91.49    3.80
  -3  -4  -4   90.29    3.70
   3  -4   4   99.39    3.50
   3  -4   4  102.69    5.80
   3  -4   4  109.09    4.00
   3  -4   4   91.59    5.70
   3   4   5   13.00    2.50
   3  -4   5    9.10    2.70
   3  -4   5   11.80    2.10
   3  -4   5   11.60    3.00
   3   4   6    5.40    2.90
   3   4   6    0.60    2.00
   3  -4   6   -1.40    3.90
   3  -4   6    1.80    2.80
  -3   5   7   10.60    3.90
  -3  -5   7    1.50    4.90
  -3  -5   7    7.70    4.30
  -3   5   6    3.30    1.40
  -3   5   6    4.90    3.10
  -3  -5   6    4.00    3.60
  -3   5   5   66.99    3.00
  -3   5   5   72.79    5.30
  -3   5   5   61.49    3.40
  -3  -5   5   63.79    2.80
  -3  -5   5   69.49    5.70
   3   5  -4    0.00    0.60
   3   5  -4    2.20    2.60
  -3   5   4    0.60    1.20
   3   5  -4    0.30    0.60
  -3   5   4    0.80    1.30
  -3   5   4    1.40    2.00
  -3  -5   4    0.60    2.20
  -3  -5   4    1.70    1.30
   3  -5  -4   -0.30    0.70
  -3   5   3   26.00    3.10
  -3   5   3   23.30    2.00
  -3   5   3   20.50    1.60
   3   5  -3   19.50    1.40
   3   5  -3   24.70    2.80
  -3   5   3   18.90    1.60
   3   5  -3   19.20    1.50
  -3  -5   3   24.10    3.30
   3  -5  -3   18.10    1.90
   3  -5  -3   23.00    1.70
  -3  -5   3   23.50    1.90
   3   5  -2   23.40    1.70
  -3   5   2   25.60    1.50
  -3   5   2   24.60    2.30
  -3   5   2   24.10    1.80
  -3   5   2   27.80    2.80
   3   5  -2   26.60    1.60
  -3   5   2   24.10    1.70
   3  -5  -2   25.90    2.50
   3  -5  -2   25.20    1.90
  -3  -5   2   25.30    1.20
  -3  -5   2   26.20    1.80
   3  -5  -2   26.20    1.60
  -3  -5   2   26.70    2.80
   3   5  -1  136.39    4.20
  -3   5   1  132.29    5.80
  -3   5   1  135.29    6.10
  -3   5   1  133.19    4.30
   3   5  -1  125.99    4.20
  -3   5   1  127.39    4.20
  -3   5   1  128.89    4.60
   3  -5  -1  130.09    5.60
   3  -5  -1  130.89    4.50
  -3  -5   1  136.79    5.80
   3  -5  -1  132.49    4.90
   3  -5  -1  137.59    4.20
  -3  -5   1  125.69    4.30
  -3   5   0    3.90    1.40
  -3   5   0    2.80    1.60
   3   5   0    1.10    0.60
  -3   5   0    2.30    0.90
  -3   5   0    2.50    0.90
   3   5   0    1.90    1.00
  -3   5   0    0.20    1.00
   3  -5   0    1.90    1.30
  -3  -5   0    1.30    0.90
   3  -5   0    1.80    1.20
   3  -5   0    2.70    1.30
  -3  -5   0    1.80    1.10
  -3  -5   0    2.40    1.20
   3  -5   0    1.40    1.30
   3  -5   0    0.90    1.00
   3   5   1   96.99    3.30
  -3   5  -1   95.69    3.80
  -3   5  -1   86.29    3.10
  -3   5  -1   98.19    4.90
  -3   5  -1   92.69    3.20
   3  -5   1   86.19    5.00
   3  -5   1   89.09    3.20
  -3  -5  -1   89.69    3.20
  -3  -5  -1   93.59    3.80
   3  -5   1   96.39    4.10
   3  -5   1   89.29    3.30
  -3  -5  -1   81.09    4.20
   3  -5   1   91.99    4.30
  -3   5  -2  135.19    4.50
  -3   5  -2  135.59    6.60
   3   5   2  133.89    5.20
  -3   5  -2  131.09    4.30
  -3   5  -2  132.39    5.20
   3   5   2  133.29    5.10
   3   5   2  136.59    4.40
  -3  -5  -2  138.99    5.30
   3  -5   2  129.39    6.50
   3  -5   2  135.49    5.70
   3  -5   2  128.59    4.60
  -3  -5  -2  123.19    4.30
   3  -5   2  137.29    5.90
   3  -5   2  132.49    4.30
  -3   5  -3  143.99    7.00
   3   5   3  138.39    4.60
   3   5   3  139.59    5.50
  -3   5  -3  130.49    4.40
   3  -5   3  128.09    6.80
   3  -5   3  139.09    5.00
  -3  -5  -3  142.29    5.60
   3  -5   3  138.29    4.50
   3  -5   3  132.69    6.30
  -3  -5  -3  130.59    4.80
  -3   5  -4   55.49    2.60
   3   5   4   54.49    2.30
   3   5   4   60.29    3.90
   3   5   4   55.89    2.70
   3   5   4   53.69    2.30
   3  -5   4   56.49    2.70
   3  -5   4   55.69    5.00
  -3  -5  -4   53.79    3.10
  -3  -5  -4   60.39    3.70
   3  -5   4   58.39    3.00
   3  -5   4   54.89    4.90
   3   5   5   44.90    4.00
   3   5   5   40.30    2.90
   3  -5   5   37.90    5.20
   3  -5   5   35.80    4.60
   3  -5   5   37.30    3.10
   3   5   6   15.80    3.90
   3   5   6   16.70    2.40
   3  -5   6   14.00    3.30
   3  -5   6   14.70    4.80
  -3   6   7    1.80    3.70
  -3  -6   7    3.70    4.40
  -3   6   6    6.30    3.30
  -3   6   6    3.00    1.70
  -3  -6   6    4.50    1.30
  -3  -6   6    3.10    3.60
  -3   6   5    4.80    1.70
  -3   6   5    2.80    1.30
  -3   6   5    6.20    2.70
  -3  -6   5    5.80    2.60
  -3  -6   5    4.40    1.60
   3   6  -4   33.90    3.80
  -3   6   4   30.10    1.90
   3   6  -4   25.90    1.50
  -3   6   4   33.10    4.10
  -3   6   4   27.60    2.20
   3   6  -4   26.70    1.50
  -3   6   4   29.00    2.30
  -3  -6   4   30.00    4.40
  -3  -6   4   29.00    2.30
   3  -6  -4   25.00    2.30
  -3   6   3  495.15   18.20
  -3   6   3  464.75   15.50
   3   6  -3  484.15   14.00
   3   6  -3  507.25   17.40
  -3   6   3  498.05   14.20
   3   6  -3  499.25   13.90
  -3   6   3  501.05   14.20
  -3  -6   3  500.15   17.30
  -3  -6   3  499.05   19.60
  -3  -6   3  488.35   14.10
   3  -6  -3  492.55   14.30
   3   6  -2   66.79    2.70
  -3   6   2   66.49    2.80
  -3   6   2   63.39    4.10
  -3   6   2   63.19    2.40
  -3   6   2   65.89    2.80
   3   6  -2   65.29    2.70
  -3   6   2   63.59    3.70
   3  -6  -2   63.19    3.00
  -3  -6   2   67.59    4.20
  -3  -6   2   65.79    2.80
  -3  -6   2   65.09    2.50
   3   6  -1  663.93   19.10
  -3   6   1  685.93   26.20
   3   6  -1  716.93   19.10
  -3   6   1  702.73   24.30
  -3   6   1  674.03   21.40
   3   6  -1  602.64   23.40
  -3   6   1  691.33   19.10
  -3   6   1  676.03   19.20
   3  -6  -1  691.23   21.70
   3  -6  -1  677.83   19.10
  -3  -6   1  646.14   19.10
   3  -6  -1  692.13   24.20
   3  -6  -1  700.63   19.30
  -3  -6   1  683.53   25.90
  -3   6   0   65.49    3.80
  -3   6   0   71.19    2.90
   3   6   0   68.19    3.00
  -3   6   0   72.39    4.10
   3   6   0   65.69    2.70
   3   6   0   73.79    3.50
   3   6   0   72.39    2.80
  -3   6   0   66.89    2.60
  -3   6   0   69.09    2.70
   3  -6   0   67.99    3.20
   3  -6   0   73.19    2.80
   3  -6   0   66.59    4.20
  -3  -6   0   67.89    3.60
   3  -6   0   66.89    3.80
  -3  -6   0   65.39    2.70
   3  -6   0   70.19    3.30
  -3   6  -1  323.67   12.90
  -3   6  -1  350.66   10.10
   3   6   1  350.26   10.00
   3   6   1  356.56   13.20
   3   6   1  339.37   12.30
  -3   6  -1  348.17   10.00
  -3   6  -1  362.86   14.10
  -3   6  -1  349.77   11.50
  -3  -6  -1  331.47   10.10
  -3  -6  -1  348.97   11.50
   3  -6   1  343.77   10.00
   3  -6   1  351.66   11.70
   3  -6   1  336.37   14.10
   3  -6   1  333.47   10.20
  -3  -6  -1  320.67   13.50
   3  -6   1  334.87   12.70
   3   6   2   49.90    2.40
   3   6   2   54.39    2.50
   3   6   2   54.19    2.80
   3   6   2   52.69    3.20
  -3   6  -2   49.10    2.50
  -3   6  -2   47.70    4.10
   3  -6   2   50.79    2.40
  -3  -6  -2   50.19    2.80
   3  -6   2   46.10    4.20
   3  -6   2   47.90    2.90
  -3  -6  -2   52.39    3.20
   3  -6   2   50.69    3.70
   3   6   3   64.09    2.90
   3   6   3   68.29    3.00
   3   6   3   72.29    3.70
  -3   6  -3   68.89    2.80
   3  -6   3   62.29    5.00
  -3  -6  -3   71.29    3.70
  -3  -6  -3   69.29    3.30
   3  -6   3   75.29    3.40
   3  -6   3   62.99    4.00
   3  -6   3   70.89    2.90
   3   6   4    8.30    1.90
   3   6   4    8.30    1.10
   3   6   4    6.80    2.10
  -3   6  -4    6.90    1.40
   3   6   4    3.50    1.60
   3  -6   4    6.20    2.20
   3  -6   4    8.60    1.60
   3  -6   4    3.70    3.20
   3  -6   4    5.70    2.60
  -3  -6  -4   10.50    2.00
  -3  -6  -4    5.80    2.00
   3   6   5    4.50    2.20
   3   6   5    1.70    3.10
   3   6   5    7.00    2.40
   3  -6   5    4.20    3.10
   3  -6   5    4.80    2.10
   3  -6   5    4.00    3.00
   3   6   6    0.40    2.20
   3   6   6   -2.10    3.60
   3  -6   6    5.40    3.40
   3  -6   6    2.30    2.10
   3  -6   6    4.20    4.50
  -3   7   6    0.50    3.30
  -3   7   6    2.10    1.90
  -3  -7   6    1.50    3.90
  -3  -7   6    2.50    1.50
   3   7  -5   45.90    4.90
  -3   7   5   33.50    2.90
  -3   7   5   37.40    5.20
  -3  -7   5   32.00    2.80
  -3  -7   5   33.00    5.50
  -3   7   4   16.40    1.90
   3   7  -4   17.70    3.60
  -3   7   4   12.30    2.30
  -3   7   4   14.70    1.90
  -3   7   4   12.30    0.80
  -3   7   4   13.30    0.90
  -3  -7   4   15.70    2.00
  -3  -7   4   12.60    3.10
  -3  -7   4   12.50    1.50
   3  -7  -4   14.60    1.90
  -3   7   3    7.70    1.60
  -3   7   3    9.00    1.80
  -3   7   3    6.40    2.20
   3   7  -3    9.70    1.40
  -3  -7   3    9.30    2.50
  -3  -7   3    9.20    1.80
   3  -7  -3    8.40    1.90
  -3  -7   3    5.70    1.00
  -3   7   2    8.30    1.70
   3   7  -2    8.60    1.60
  -3   7   2    8.30    0.90
  -3   7   2    9.50    1.60
  -3   7   2    8.80    1.50
  -3  -7   2    9.70    1.10
  -3  -7   2    8.90    1.60
   3  -7  -2    9.80    1.80
  -3  -7   2    7.60    1.80
  -3   7   1   38.10    2.00
  -3   7   1   36.50    1.90
  -3   7   1   39.20    3.60
   3   7  -1   36.30    2.30
  -3   7   1   41.80    3.50
  -3   7   1   40.80    2.30
   3  -7  -1   37.30    2.70
   3  -7  -1   32.60    2.50
  -3  -7   1   36.90    2.40
  -3  -7   1   40.20    3.30
   3  -7  -1   35.60    4.30
  -3   7   0    0.40    1.40
  -3   7   0    1.70    1.90
   3   7   0    0.50    1.10
  -3   7   0    1.20    1.30
   3   7   0    2.60    0.90
   3   7   0   -0.80    1.20
  -3   7   0    2.20    1.70
   3   7   0    0.60    1.40
  -3   7   0    2.10    1.10
   3  -7   0    0.70    1.40
  -3  -7   0    1.70    1.50
   3  -7   0    2.00    1.80
   3  -7   0    2.00    1.50
  -3  -7   0    1.90    1.50
   3  -7   0   -0.50    2.20
   3  -7   0   -0.20    1.20
   3   7   1  168.28    6.60
   3   7   1  163.28    6.30
  -3   7  -1  155.88    5.40
  -3   7  -1  156.58    5.10
  -3   7  -1  148.89    7.30
   3   7   1  165.28    5.30
   3   7   1  156.88    5.40
  -3  -7  -1  157.98    5.40
  -3  -7  -1  162.98    6.10
   3  -7   1  158.48    5.60
  -3  -7  -1  150.48    7.20
   3  -7   1  161.98    6.30
   3  -7   1  148.89    7.80
   3  -7   1  160.88    5.20
   3   7   2    2.00    0.90
  -3   7  -2    3.70    1.40
   3   7   2    3.40    1.50
   3   7   2    1.60    1.40
   3   7   2    1.80    1.60
  -3  -7  -2    0.20    1.40
   3  -7   2    2.40    2.30
  -3  -7  -2    3.70    1.70
   3  -7   2    3.80    2.30
   3  -7   2    0.70    1.90
  -3  -7  -2    0.30    1.60
   3  -7   2    2.30    1.30
   3   7   3  201.08    6.60
   3   7   3  199.58    6.30
  -3   7  -3  203.58    6.20
   3   7   3  180.18    7.60
   3   7   3  197.18    8.30
   3   7   3  194.78    7.00
   3  -7   3  188.88    8.20
   3  -7   3  190.08    6.60
   3  -7   3  195.98    6.30
   3  -7   3  180.08    9.30
  -3  -7  -3  189.18    6.50
  -3  -7  -3  192.68    7.30
   3   7   4   -0.30    1.90
  -3   7  -4    0.70    1.40
   3   7   4   -1.90    1.80
   3   7   4    1.00    1.90
  -3  -7  -4    4.70    1.60
   3  -7   4    1.30    2.80
   3  -7   4    0.10    2.20
  -3  -7  -4    0.60    1.90
   3  -7   4   -0.50    2.50
   3   7   5   44.80    5.80
   3   7   5   46.40    3.80
   3  -7   5   39.50    3.60
   3  -7   5   39.90    5.00
   3  -7   5   44.60    6.00
   3   7   6    4.70    2.40
   3   7   6    1.80    3.70
   3  -7   6    3.80    4.80
   3  -7   6    2.80    2.30
   3  -7   6    7.20    3.70
  -3   8   6    5.20    2.10
  -3   8   6    2.20    3.30
  -3  -8   6    2.00    4.10
  -3  -8   6    4.70    1.90
   3   8  -5    9.60    4.00
  -3   8   5    5.40    3.10
  -3   8   5    6.00    1.90
  -3  -8   5    6.00    2.00
  -3  -8   5    7.30    3.70
  -3   8   4    0.80    2.10
  -3   8   4    0.70    2.60
   3   8  -4    1.30    1.30
   3   8  -4    6.60    3.60
  -3  -8   4    0.50    2.00
   3  -8  -4   -0.50    2.00
  -3  -8   4    2.80    3.10
  -3   8   3   67.29    3.40
  -3   8   3   65.19    3.20
   3   8  -3   66.69    2.90
  -3   8   3   65.09    4.30
  -3  -8   3   67.89    3.60
  -3  -8   3   65.79    3.10
   3  -8  -3   66.39    3.60
  -3  -8   3   63.19    4.60
  -3   8   2  125.39    4.50
   3   8  -2  132.59    4.60
  -3   8   2  130.89    4.70
  -3   8   2  124.29    6.00
  -3  -8   2  130.59    4.80
  -3  -8   2  128.29    4.80
  -3  -8   2  131.79    6.80
   3  -8  -2  125.49    4.70
   3   8  -1  160.98    5.30
  -3   8   1  158.88    5.40
   3   8  -1  165.08    7.50
  -3   8   1  161.98    7.30
  -3   8   1  159.78    5.40
   3  -8  -1  146.39    8.30
   3  -8  -1  157.48    5.90
  -3  -8   1  148.69    5.80
  -3  -8   1  156.48    7.40
   3  -8  -1  159.88    5.80
  -3  -8   1  151.48    5.40
  -3   8   0   82.69    5.10
  -3   8   0   83.69    3.60
   3   8   0   85.09    4.30
   3   8   0   80.89    3.70
   3   8   0   83.69    3.60
  -3  -8   0   76.99    3.30
   3  -8   0   75.59    5.20
   3  -8   0   83.69    4.00
  -3  -8   0   80.89    4.90
   3  -8   0   79.59    3.80
   3   8   1   37.50    2.70
  -3   8  -1   29.70    4.20
   3   8   1   37.10    2.90
  -3   8  -1   36.20    2.50
   3   8   1   35.20    2.30
   3  -8   1   38.90    2.40
  -3  -8  -1   37.60    2.90
   3  -8   1   32.90    4.60
   3  -8   1   37.60    3.10
  -3  -8  -1   39.90    2.80
   3  -8   1   42.60    3.70
  -3  -8  -1   28.80    3.90
   3   8   2   20.30    2.10
   3   8   2   20.30    2.20
  -3   8  -2   21.80    2.60
   3   8   2   22.80    2.80
   3   8   2   18.90    2.20
  -3  -8  -2   12.40    2.40
   3  -8   2   21.90    2.10
   3  -8   2   24.00    2.60
   3  -8   2   22.00    2.90
  -3  -8  -2   19.40    2.40
  -3  -8  -2   24.00    2.80
   3  -8   2   14.70    3.20
   3   8   3   20.70    2.20
   3   8   3   17.80    2.50
  -3   8  -3   23.40    2.50
   3   8   3   20.50    1.90
   3   8   3   25.10    3.00
  -3  -8  -3   25.50    2.90
   3  -8   3   22.40    2.70
  -3  -8  -3   24.80    2.80
   3  -8   3   25.40    2.30
   3  -8   3   16.50    3.30
   3  -8   3   21.20    3.50
   3   8   4   54.69    5.00
   3   8   4   52.89    3.70
  -3   8  -4   46.40    2.80
   3   8   4   53.49    3.40
  -3  -8  -4   48.50    3.90
   3  -8   4   52.59    4.10
   3  -8   4   48.80    5.60
   3  -8   4   46.60    5.70
   3   8   5   13.10    2.50
   3   8   5    8.10    3.30
   3  -8   5   12.10    2.70
   3  -8   5    9.20    4.40
   3  -8   5    7.70    3.40
   3   8   6    5.00    2.60
   3   8   6   -0.20    3.80
   3  -8   6   -1.50    4.90
   3  -8   6    6.30    2.60
   3  -8   6    8.40    3.60
  -3   9   6    0.50    2.40
  -3   9   6    3.20    3.60
  -3  -9   6   -1.90    2.10
  -3  -9   6    2.30    4.50
  -3   9   5    7.40    2.50
  -3   9   5    8.20    2.80
   3   9  -5   13.50    4.30
  -3  -9   5    8.20    2.30
  -3  -9   5    9.30    4.00
   3   9  -4    4.60    3.70
  -3   9   4    2.30    2.10
  -3   9   4    3.60    2.90
  -3  -9   4    3.40    3.30
   3  -9  -4    1.60    2.30
  -3  -9   4    1.60    2.00
  -3   9   3    3.30    1.90
  -3   9   3    2.00    2.50
   3   9  -3    1.20    1.40
  -3   9   3    1.30    1.70
  -3  -9   3    2.50    2.70
  -3  -9   3    2.20    2.00
  -3  -9   3    2.40    1.00
   3  -9  -3    1.50    2.40
  -3   9   2    3.90    1.90
   3   9  -2    5.90    1.70
  -3   9   2    4.30    1.70
  -3   9   2    5.50    2.40
  -3  -9   2    7.40    2.00
  -3  -9   2    4.20    0.90
   3  -9  -2    3.50    2.30
  -3  -9   2    6.60    2.60
  -3   9   1   30.50    2.30
   3   9  -1   35.40    2.70
  -3   9   1   32.00    4.20
  -3  -9   1   35.20    3.90
  -3  -9   1   40.90    3.00
   3  -9  -1   29.40    4.00
   3  -9  -1   33.90    3.30
   3  -9  -1   30.20    2.80
  -3  -9   1   31.50    2.00
   3   9   0    1.90    1.50
   3   9   0    2.10    1.30
  -3   9   0    1.50    1.90
  -3   9   0    3.80    1.40
   3   9   0    2.30    1.70
   3  -9   0    1.80    1.90
   3  -9   0   -3.00    2.80
   3  -9   0    1.90    2.20
  -3  -9   0    3.90    1.60
  -3  -9   0    1.50    2.20
   3   9   1   10.40    2.00
   3   9   1   10.40    1.80
  -3   9  -1   11.20    1.60
  -3   9  -1    2.30    2.70
   3   9   1    5.80    1.60
   3  -9   1    9.30    2.30
  -3  -9  -1    9.40    1.80
   3  -9   1   10.50    2.50
  -3  -9  -1    5.30    2.40
  -3  -9  -1    9.60    2.20
   3  -9   1    6.40    3.10
   3   9   2   62.99    4.10
   3   9   2   68.19    3.70
   3   9   2   60.99    3.50
  -3   9  -2   69.09    3.40
   3  -9   2   59.39    5.90
   3  -9   2   62.69    4.00
   3  -9   2   69.49    3.20
  -3  -9  -2   65.49    3.80
   3  -9   2   59.99    4.00
  -3  -9  -2   48.40    3.90
   3   9   3   44.10    3.50
   3   9   3   38.80    2.70
   3   9   3   45.50    4.10
  -3   9  -3   39.80    2.80
   3  -9   3   44.30    2.80
   3  -9   3   43.80    3.80
  -3  -9  -3   39.10    3.20
   3  -9   3   38.80    5.60
   3  -9   3   42.30    5.00
  -3  -9  -3   40.20    3.50
   3   9   4   38.00    4.80
   3   9   4   39.70    3.70
  -3  -9  -4   33.10    3.40
   3  -9   4   29.90    4.60
   3  -9   4   40.60    5.90
   3  -9   4   39.70    3.80
   3   9   5    9.00    3.20
   3   9   5   17.00    2.70
   3  -9   5    7.10    3.80
   3  -9   5    6.50    4.60
   3  -9   5   10.10    3.10
  -3  10   6    3.90    2.70
  -3  10   6    5.90    4.00
  -3 -10   6    4.90    2.50
  -3 -10   6   10.10    4.80
   3  10  -5    6.30    4.40
  -3  10   5    2.10    3.30
  -3  10   5    0.00    2.60
  -3 -10   5    1.70    3.90
  -3 -10   5   -0.30    2.40
   3  10  -4   31.00    4.70
  -3  10   4   20.90    3.60
  -3  10   4   25.00    2.80
   3 -10  -4   23.10    3.10
  -3 -10   4   23.00    2.70
  -3 -10   4   22.50    4.10
   3  10  -3  106.39    4.40
  -3  10   3  103.09    4.70
  -3  10   3  109.19    6.80
  -3 -10   3  109.39    4.80
   3 -10  -3  104.69    5.10
  -3 -10   3  103.79    6.40
   3  10  -2   40.40    2.90
  -3  10   2   35.80    4.80
  -3  10   2   33.70    3.30
  -3 -10   2   41.50    3.40
  -3 -10   2   35.20    2.20
   3 -10  -2   32.30    3.70
  -3 -10   2   33.20    4.90
   3  10  -1  122.49    6.10
  -3  10   1  148.19    5.30
  -3  10   1  139.79    7.10
   3  10  -1  129.49    4.80
   3 -10  -1  133.79    5.40
  -3 -10   1  129.49    5.30
   3 -10  -1  120.69    8.50
   3 -10  -1  146.49    5.80
  -3 -10   1  130.49    7.20
  -3 -10   1  134.29    5.40
   3  10   0   41.30    3.20
  -3  10   0   39.00    4.90
   3  10   0   47.10    3.20
  -3  10   0   41.50    3.20
  -3 -10   0   36.20    2.80
   3 -10   0   34.30    4.70
  -3 -10   0   35.10    4.20
   3 -10   0   37.80    3.80
   3 -10   0   41.90    3.50
   3  10   1   66.19    3.30
  -3  10  -1   74.29    3.70
  -3  10  -1   43.90    5.60
   3  10   1   66.49    4.10
   3  10   1   72.79    4.10
  -3 -10  -1   56.89    5.60
  -3 -10  -1   68.19    3.80
   3 -10   1   71.99    4.40
   3 -10   1   68.89    6.40
   3 -10   1   64.59    4.40
  -3 -10  -1   65.09    3.50
   3  10   2   39.50    4.00
   3  10   2   34.20    3.40
  -3  10  -2   34.50    2.30
  -3  10  -2   35.00    3.00
   3  10   2   32.20    3.00
   3 -10   2   29.10    3.00
  -3 -10  -2   36.00    3.60
  -3 -10  -2   29.90    3.00
   3 -10   2   30.40    4.20
   3 -10   2   28.20    4.30
   3  10   3   12.80    2.60
   3  10   3   16.60    2.70
  -3  10  -3   15.80    2.20
   3 -10   3   15.60    3.00
   3 -10   3   15.60    3.80
  -3 -10  -3   14.10    2.80
   3 -10   3   12.60    3.90
   3  10   4    3.20    2.60
   3  10   4    2.20    2.50
  -3 -10  -4    1.10    2.60
   3 -10   4    2.70    4.00
   3 -10   4    1.90    2.80
   3 -10   4    3.50    4.00
   3  10   5   -0.20    3.30
   3  10   5    5.50    3.00
   3 -10   5   -1.00    3.00
   3 -10   5    5.30    4.80
   3 -10   5    2.90    3.90
   3  11  -5   11.50    4.90
  -3  11   5    5.40    2.70
  -3  11   5    4.90    3.80
  -3 -11   5    5.10    2.90
  -3 -11   5    7.00    4.40
   3  11  -4   -2.40    4.20
  -3  11   4   -1.30    2.50
  -3  11   4    1.10    3.00
  -3 -11   4    3.90    2.60
  -3 -11   4    1.60    3.70
  -3  11   3    2.00    3.00
  -3  11   3    1.30    2.30
   3  11  -3    2.80    2.00
   3 -11  -3   -1.10    2.70
  -3 -11   3    1.30    2.60
  -3 -11   3    3.20    3.50
  -3  11   2    3.10    2.90
  -3  11   2    3.50    2.40
   3  11  -2    4.50    2.10
  -3 -11   2    5.40    2.60
  -3 -11   2    1.60    3.20
  -3 -11   2    2.10    1.10
   3 -11  -2    3.70    2.90
   3  11  -1    7.70    2.20
  -3  11   1    7.70    2.40
   3  11  -1    0.40    2.10
  -3  11   1    7.30    2.80
  -3 -11   1    7.10    2.00
  -3 -11   1    4.70    1.30
   3 -11  -1    7.80    2.30
   3 -11  -1    0.00    4.10
   3 -11  -1    3.80    2.00
  -3 -11   1    7.20    3.00
   3  11   0   -1.70    2.10
   3  11   0   -1.60    1.70
  -3  11   0   -2.40    2.90
  -3  11   0    0.00    2.20
  -3 -11   0    1.70    2.60
  -3 -11   0   -2.20    2.50
   3 -11   0   -5.20    3.40
   3 -11   0   -1.20    2.10
   3 -11   0   -3.40    2.10
  -3  11  -1   27.60    4.10
   3  11   1   42.20    3.50
  -3  11  -1   33.70    2.70
   3  11   1   37.00    3.80
   3 -11   1   34.60    3.30
  -3 -11  -1   37.90    3.90
   3 -11   1   45.60    4.60
   3 -11   1   29.10    4.60
  -3 -11  -1   38.70    3.40
  -3 -11  -1   29.60    4.00
  -3  11  -2    1.20    2.20
  -3  11  -2    0.00    1.60
   3  11   2   -2.90    2.30
   3  11   2   -2.20    1.50
   3  11   2   -2.00    2.00
   3 -11   2    0.80    3.00
  -3 -11  -2   -5.10    1.90
   3 -11   2   -0.90    2.90
  -3 -11  -2    0.20    2.70
   3 -11   2   -1.80    3.70
  -3  11  -3   62.19    3.80
   3  11   3   64.59    4.40
   3  11   3   69.39    5.20
   3 -11   3   65.39    5.90
   3 -11   3   53.39    7.10
   3 -11   3   69.09    4.90
  -3 -11  -3   63.29    4.60
   3  11   4    1.50    3.00
   3  11   4    1.20    2.70
   3 -11   4   -2.50    3.40
   3 -11   4    1.40    3.90
   3 -11   4   -0.30    4.00
   3  11   5    9.70    3.70
   3  11   5   15.90    3.10
   3 -11   5   10.60    4.40
   3 -11   5   10.10    5.20
   3 -11   5   11.20    3.60
  -3  12   5    3.50    3.20
  -3  12   5    7.70    4.00
   3  12  -5   14.20    5.20
  -3 -12   5    4.90    3.20
  -3 -12   5    2.00    4.50
  -3  12   4    3.20    3.50
  -3  12   4    0.20    2.70
   3  12  -4    0.00    4.70
  -3 -12   4    1.10    3.10
  -3 -12   4   -0.50    4.20
  -3  12   3   21.60    3.80
  -3  12   3   26.70    3.20
   3  12  -3   26.60    2.90
  -3 -12   3   21.90    4.40
   3 -12  -3   23.10    3.60
  -3 -12   3   23.40    3.40
  -3  12   2   28.00    3.90
  -3  12   2   37.90    3.80
   3  12  -2   37.10    3.40
  -3 -12   2   36.50    5.90
  -3 -12   2   37.20    4.00
   3 -12  -2   33.70    3.90
   3  12  -1   41.60    3.50
  -3  12   1   39.30    3.80
   3  12  -1   27.90    3.30
  -3  12   1   41.80    5.40
   3 -12  -1   30.50    3.40
   3 -12  -1   35.70    3.60
  -3 -12   1   40.10    5.50
   3 -12  -1   24.40    5.40
  -3 -12   1   42.00    4.10
   3  12   0   21.90    2.70
  -3  12   0   21.60    2.90
  -3  12   0   19.60    3.60
   3  12   0   23.50    2.90
  -3 -12   0   19.20    2.70
   3 -12   0   20.50    2.90
   3 -12   0   16.10    4.80
   3 -12   0   20.70    2.90
  -3 -12   0   18.70    3.50
   3  12   1   16.20    2.80
  -3  12  -1    2.70    3.90
   3  12   1   11.90    2.20
  -3  12  -1   20.30    2.80
  -3 -12  -1    9.30    3.70
   3 -12   1   15.50    3.40
  -3 -12  -1   17.20    2.40
   3 -12   1   15.60    4.40
   3 -12   1   17.20    3.00
  -3 -12  -1   18.40    3.30
   3  12   2    3.60    2.60
  -3  12  -2    3.00    2.30
   3  12   2    2.10    2.20
  -3  12  -2    2.80    1.70
   3 -12   2    2.20    3.30
  -3 -12  -2    1.80    2.30
   3 -12   2    5.90    3.30
   3 -12   2   -0.40    3.90
   3  12   3   12.40    3.00
   3  12   3    6.80    2.70
  -3  12  -3    9.40    2.50
  -3 -12  -3    4.60    3.20
   3 -12   3    7.50    4.10
   3 -12   3    9.00    3.50
   3 -12   3    6.70    4.20
   3  12   4   12.40    3.20
   3  12   4   19.60    3.40
   3 -12   4   16.70    3.80
   3 -12   4   14.80    4.70
   3 -12   4   14.20    4.60
  -3  13   4   -1.20    3.20
  -3  13   4    1.00    3.80
   3  13  -4   -1.10    4.80
  -3 -13   4    0.00    4.30
  -3 -13   4    1.80    3.50
  -3  13   3    2.40    3.40
  -3  13   3    5.20    2.90
   3 -13  -3    9.70    3.60
  -3 -13   3    2.80    3.00
  -3 -13   3    4.00    4.10
  -3  13   2    1.70    3.40
   3  13  -2    1.00    2.50
  -3  13   2    2.30    2.10
   3 -13  -2    1.60    3.50
  -3 -13   2    3.90    3.00
  -3 -13   2    6.30    3.70
  -3  13   1    4.70    3.40
  -3  13   1    4.50    2.20
   3  13  -1    7.80    2.60
   3  13  -1   -2.70    2.50
   3 -13  -1    3.90    2.70
   3 -13  -1    4.70    2.30
  -3 -13   1    8.20    2.50
   3 -13  -1   -3.80    4.90
  -3 -13   1    6.70    3.90
  -3  13   0   -3.80    3.30
  -3  13   0    0.10    2.60
   3  13   0    4.20    2.60
   3  13   0   -1.10    2.20
  -3 -13   0    1.20    3.20
   3 -13   0    0.80    2.60
   3 -13   0    0.70    2.60
   3 -13   0   -2.10    4.60
  -3 -13   0   -1.00    3.60
   3  13   1   -1.20    2.00
   3  13   1   -1.50    2.00
  -3  13  -1   -8.90    3.40
  -3  13  -1   -3.40    2.50
  -3 -13  -1   -5.80    3.30
   3 -13   1    0.90    3.40
  -3 -13  -1    0.50    3.20
   3 -13   1   -7.30    4.20
   3 -13   1   -3.50    3.00
  -3  13  -2   17.40    2.90
   3  13   2   12.90    2.90
   3  13   2   16.30    3.20
  -3 -13  -2   17.60    3.70
   3 -13   2   18.30    5.00
   3 -13   2   20.10    4.00
   3 -13   2   20.20    4.20
   3  13   3   11.70    3.20
   3  13   3    8.10    3.00
  -3 -13  -3   10.70    3.50
   3 -13   3   11.60    3.90
   3 -13   3   11.20    4.20
   3 -13   3    5.00    4.70
   3  13   4    8.60    3.20
   3  13   4    8.30    3.70
   3 -13   4   10.90    4.90
   3 -13   4   10.60    4.30
   3 -13   4   12.80    5.10
   3  14  -4    6.90    5.30
  -3  14   4   11.30    3.40
  -3  14   4    7.30    4.20
  -3 -14   4    4.10    3.90
  -3 -14   4    8.10    4.90
  -3  14   3   12.40    4.00
  -3  14   3   13.10    2.70
   3 -14  -3   14.20    4.00
  -3 -14   3   17.10    3.70
  -3 -14   3   11.10    4.60
  -3  14   2    9.50    3.10
  -3  14   2    7.50    3.80
   3  14  -2   15.90    2.80
  -3 -14   2    7.30    4.30
   3 -14  -2    6.90    3.90
  -3 -14   2    6.90    3.50
  -3  14   1   15.00    3.10
   3  14  -1   16.90    3.00
  -3  14   1    6.90    3.70
   3  14  -1    1.60    2.90
  -3 -14   1    9.10    4.10
  -3 -14   1   15.60    3.70
   3 -14  -1   -2.00    5.30
   3 -14  -1   12.40    3.90
  -3  14   0    9.80    3.10
  -3  14   0    1.30    3.70
   3  14   0    4.60    2.70
   3  14   0   11.20    3.00
   3 -14   0   11.00    3.90
   3 -14   0    1.10    4.80
  -3 -14   0    9.10    3.60
  -3 -14   0    3.80    3.90
   3 -14   0    9.00    2.90
   3  14   1    7.70    3.00
   3  14   1    5.30    2.40
  -3  14  -1    4.90    2.90
  -3  14  -1   -4.00    4.00
  -3 -14  -1    6.20    2.80
   3 -14   1    6.10    3.40
   3 -14   1    6.80    3.10
   3 -14   1    4.70    3.90
  -3 -14  -1    1.60    3.90
  -3  14  -2    9.50    3.00
   3  14   2   13.00    3.30
   3  14   2    9.20    3.00
  -3 -14  -2   15.50    3.90
   3 -14   2   10.30    3.90
   3 -14   2   13.20    4.10
   3 -14   2    5.90    5.10
   3  14   3   -0.20    2.90
   3  14   3    1.80    3.30
  -3 -14  -3    5.60    3.50
   3 -14   3    4.30    4.00
   3 -14   3    2.80    4.20
   3 -14   3    2.30    5.10
  -3  15   3   -1.40    4.00
  -3  15   3    2.60    3.40
   3 -15  -3   -1.10    3.90
  -3 -15   3    3.20    3.80
  -3 -15   3    2.40    4.70
  -3  15   2   -0.90    3.80
  -3  15   2    5.60    3.30
   3  15  -2    4.60    2.70
   3 -15  -2    4.30    4.10
  -3 -15   2    0.80    4.30
  -3 -15   2    4.40    3.80
   3  15  -1    5.90    2.90
  -3  15   1    2.90    3.20
  -3  15   1   -2.30    3.60
   3 -15  -1    3.10    4.10
  -3 -15   1    5.20    3.90
  -3 -15   1    1.10    4.50
   3 -15  -1   -8.80    5.20
  -3  15   0   -8.20    3.70
  -3  15   0    0.00    2.30
   3  15   0   -3.90    2.70
   3  15   0    0.90    3.00
   3 -15   0   -4.80    4.00
  -3 -15   0    0.30    2.90
   3 -15   0   -6.00    5.30
  -3 -15   0    1.70    4.10
   3  15   1    4.50    2.60
  -3  15  -1  -10.70    4.40
   3  15   1    5.70    3.20
  -3  15  -1    6.60    2.50
   3 -15   1    4.60    3.60
   3 -15   1    0.10    5.30
   3 -15   1    8.10    4.30
  -3 -15  -1   -4.30    4.00
  -3 -15  -1   10.40    3.90
   3  15   2    2.80    2.50
  -3  15  -2   -0.20    3.00
   3  15   2    0.10    3.00
   3 -15   2   -0.50    4.20
  -3 -15  -2    0.80    3.80
   3 -15   2    3.20    4.10
   3 -15   2   -6.10    5.00
   3  15   3    8.00    3.30
   3  15   3   14.40    3.00
   3 -15   3   12.00    4.60
   3 -15   3    7.80    5.60
   3 -15   3    0.60    4.40
  -3 -15  -3   11.50    4.00
  -3  16   2    4.80    3.40
  -3  16   2   -0.60    4.10
   3 -16  -2    4.10    4.40
  -3 -16   2    9.10    4.20
  -3 -16   2    2.80    4.80
  -3  16   1   -2.90    3.80
  -3  16   1    4.40    3.30
   3  16  -1    6.50    3.20
  -3 -16   1    3.50    4.50
  -3 -16   1    7.20    4.10
   3 -16  -1    1.10    4.40
   3 -16  -1  -12.00    6.00
   3  16   0    3.20    2.50
  -3  16   0   -4.70    4.10
  -3  16   0   -0.50    3.30
   3 -16   0   -0.50    4.40
   3 -16   0   -3.80    5.30
  -3 -16   0    1.30    4.10
  -3 -16   0   -0.70    4.80
  -3  16  -1   -9.70    4.30
   3  16   1    2.20    3.10
  -3  16  -1    4.60    3.20
   3  16   1    6.40    3.30
   3 -16   1    2.60    5.60
   3 -16   1    1.00    3.90
   3 -16   1    2.70    4.60
  -3 -16  -1    5.00    4.20
  -3 -16  -1   -5.90    4.30
  -3  16  -2   -3.60    3.10
   3  16   2    1.90    3.50
   3  16   2    1.60    3.20
   3 -16   2    5.80    4.70
   3 -16   2   -3.40    4.30
   3 -16   2   -1.20    5.20
  -3 -16  -2   -1.60    3.90
   3  17  -1    8.10    3.30
  -3  17   1   -5.30    4.00
  -3  17   1    1.60    3.60
   3 -17  -1    0.80    4.50
  -3 -17   1    0.80    4.80
  -3 -17   1    5.00    3.40
   3 -17  -1  -16.20    6.10
  -3  17   0   -5.60    4.30
  -3  17   0    1.50    3.60
   3  17   0    1.40    3.30
   3 -17   0   -1.00    4.60
  -3 -17   0   -1.30    5.10
   3 -17   0   -8.80    6.00
  -3 -17   0    2.10    4.40
  -4   0   7    0.80    2.90
  -4   0   6   -2.40    2.60
  -4   0   5    0.40    0.80
  -4   0   5    0.80    1.90
  -4   0   5   -0.80    0.70
  -4   0   4    2.60    0.90
  -4   0   4    2.80    1.60
  -4   0   4    2.10    0.90
  -4   0   3   -2.60    0.90
  -4   0   3   -0.60    0.90
  -4   0   3    2.30    1.20
   4   0  -3    0.20    0.70
   4   0  -2  196.28    7.40
  -4   0   2  200.98    7.50
  -4   0   2  198.68    6.00
   4   0  -2  202.58    7.20
  -4   0   2  197.38    5.90
   4   0  -2  202.08    5.80
  -4   0   1    0.60    0.80
   4   0  -1   -0.20    0.70
  -4   0   1   -0.80    0.80
  -4   0   1    2.00    1.10
  -4   0   1    1.50    0.80
   4   0  -1   -0.20    0.90
  -4   0   0  233.28    7.00
  -4   0   0  245.18    7.20
   4   0   0  238.68    8.40
   4   0   0  238.18    7.00
  -4   0   0  240.28    8.30
   4   0   0  252.27    8.90
  -4   0  -1    3.30    1.30
   4   0   1    0.90    0.90
  -4   0  -1    2.50    0.90
   4   0   1    1.90    1.20
  -4   0  -1    0.50    0.80
  -4   0  -1    3.20    1.10
   4   0   2  942.71   25.80
  -4   0  -2  941.01   29.70
  -4   0  -2  917.31   25.80
  -4   0  -2  922.51   25.90
  -4   0  -2  942.21   34.70
   4   0   2  904.41   29.70
   4   0   3   -1.00    1.00
  -4   0  -3    0.30    1.10
   4   0   3    1.20    2.10
   4   0   3    1.10    0.90
  -4   0  -4  262.37    8.00
   4   0   4  271.97   10.20
   4   0   4  262.77   10.70
   4   0   4  283.77    8.10
   4   0   5   -0.20    1.60
   4   0   5    0.80    3.00
   4   0   6   74.49    6.30
  -4   1   7   13.10    3.40
  -4   1   7   11.10    3.80
  -4  -1   7   11.20    4.10
  -4  -1   7   13.90    3.20
  -4   1   6    3.00    2.80
  -4  -1   6    0.30    2.60
  -4   1   5   17.30    1.40
  -4   1   5   19.80    1.40
  -4   1   5   16.10    2.40
  -4  -1   5   17.10    1.20
  -4  -1   5   14.30    1.10
  -4  -1   5   16.40    2.40
  -4   1   4   96.89    3.20
  -4   1   4   96.09    5.00
  -4   1   4   94.29    3.20
  -4  -1   4   96.49    3.20
  -4  -1   4   93.09    4.40
  -4  -1   4   97.49    3.10
   4   1  -3  262.27    7.50
  -4   1   3  267.97   10.00
  -4   1   3  268.57    7.80
  -4   1   3  267.27    9.50
   4   1  -3  268.87    9.70
  -4   1   3  266.47    7.70
  -4  -1   3  263.47    7.60
  -4  -1   3  266.57    9.80
   4  -1  -3  260.37    7.60
  -4  -1   3  269.37    7.80
   4   1  -2  876.61   30.80
   4   1  -2  920.41   24.60
  -4   1   2  894.91   28.30
  -4   1   2  928.11   24.80
   4   1  -2  872.41   29.70
  -4   1   2  874.31   24.70
  -4   1   2  898.71   31.10
  -4  -1   2  893.91   24.80
  -4  -1   2  864.51   24.60
   4  -1  -2  904.41   29.70
   4  -1  -2  891.91   31.10
   4  -1  -2  896.71   24.60
  -4  -1   2  894.01   30.90
  -4   1   1  143.49    5.30
   4   1  -1  147.49    4.40
  -4   1   1  146.49    4.60
  -4   1   1  143.29    5.70
  -4   1   1  141.29    4.40
   4   1  -1  144.39    5.50
  -4  -1   1  147.39    5.40
  -4  -1   1  143.19    4.50
   4  -1  -1  146.79    5.20
  -4  -1   1  146.89    5.30
   4  -1  -1  146.59    4.40
   4  -1  -1  144.49    4.60
   4  -1  -1  146.49    5.80
   4   1   0  169.48    6.20
  -4   1   0  165.98    6.00
   4   1   0  178.88    6.40
  -4   1   0  165.28    5.10
  -4   1   0  163.18    5.20
   4   1   0  167.58    5.00
   4  -1   0  178.18    6.30
   4  -1   0  167.98    5.30
   4  -1   0  169.48    5.10
  -4  -1   0  170.38    6.10
   4  -1   0  171.38    6.60
  -4  -1   0  166.08    5.20
  -4  -1   0  162.18    5.10
  -4   1  -1   42.40    2.30
   4   1   1   43.90    2.50
   4   1   1   43.00    1.90
  -4   1  -1   40.50    1.90
  -4   1  -1   44.80    2.10
  -4   1  -1   46.50    2.80
  -4  -1  -1   41.80    1.90
   4  -1   1   43.40    1.90
   4  -1   1   49.10    2.90
  -4  -1  -1   47.70    2.60
  -4  -1  -1   45.10    2.30
   4  -1   1   47.30    2.30
  -4  -1  -1   42.00    2.10
  -4   1  -2  178.78    7.20
  -4   1  -2  171.88    5.50
  -4   1  -2  178.88    5.50
   4   1   2  166.58    5.30
   4   1   2  176.18    6.60
  -4   1  -2  165.68    6.40
  -4  -1  -2  175.28    5.50
  -4  -1  -2  171.48    5.40
   4  -1   2  171.88    5.30
   4  -1   2  168.78    6.70
  -4  -1  -2  178.18    6.50
   4  -1   2  180.58    5.60
  -4  -1  -2  169.58    6.60
   4  -1   2  171.78    7.10
   4   1   3   35.00    3.30
  -4   1  -3   34.80    2.00
   4   1   3   34.70    1.80
   4   1   3   37.40    2.00
   4  -1   3   36.60    1.90
   4  -1   3   38.00    2.70
   4  -1   3   36.60    2.90
  -4  -1  -3   34.90    2.00
   4   1   4   56.39    2.90
  -4   1  -4   57.49    2.60
   4   1   4   66.59    4.40
   4   1   4   63.19    2.80
   4  -1   4   55.89    2.70
  -4  -1  -4   56.59    2.70
   4  -1   4   58.69    4.60
   4  -1   4   57.89    3.80
   4   1   5    0.00    2.90
   4  -1   5    1.80    3.10
   4  -1   5    0.10    1.70
   4   1   6   11.70    4.00
   4  -1   6   10.30    4.00
  -4   2   7    8.60    3.60
  -4  -2   7    5.00    3.10
  -4  -2   7    4.70    4.40
  -4   2   6    0.00    2.90
  -4   2   6    0.00    0.80
  -4  -2   6    1.40    2.50
  -4   2   5  132.49    6.50
  -4   2   5  121.99    4.10
  -4   2   5  137.79    4.10
  -4  -2   5  131.09    4.00
  -4  -2   5  134.89    6.20
  -4  -2   5  120.49    3.90
  -4   2   4    1.60    1.70
  -4   2   4    1.10    0.90
  -4   2   4    2.30    1.00
   4  -2  -4    1.10    0.60
  -4  -2   4    2.30    1.00
  -4  -2   4    0.50    0.90
  -4  -2   4    1.40    1.30
   4   2  -3  412.36   11.30
  -4   2   3  411.16   14.80
  -4   2   3  407.26   11.60
  -4   2   3  404.26   14.00
  -4   2   3  408.16   11.50
   4   2  -3  396.56   14.10
  -4  -2   3  410.26   14.40
   4  -2  -3  402.36   14.80
  -4  -2   3  406.06   11.50
   4  -2  -3  404.06   11.40
  -4   2   2    2.30    1.20
  -4   2   2    2.70    1.00
  -4   2   2    0.20    0.90
  -4   2   2    4.50    1.20
  -4   2   2    1.80    1.10
   4   2  -2    0.80    0.80
   4  -2  -2    0.70    0.90
  -4  -2   2    1.60    0.70
   4  -2  -2    3.50    1.00
  -4  -2   2    1.40    0.90
   4  -2  -2    1.70    0.80
   4   2  -1  802.82   22.40
  -4   2   1  778.12   25.60
  -4   2   1  794.02   22.40
   4   2  -1  803.02   27.90
  -4   2   1  835.12   22.60
  -4   2   1  819.92   28.30
   4  -2  -1  813.12   22.40
   4  -2  -1  817.42   26.70
   4  -2  -1  817.52   22.50
  -4  -2   1  797.22   22.40
  -4  -2   1  819.22   25.80
   4  -2  -1  811.62   28.40
   4  -2  -1  799.92   25.80
  -4   2   0    2.90    0.80
   4   2   0    3.70    1.50
  -4   2   0    5.50    1.20
  -4   2   0    3.80    1.00
  -4   2   0    3.60    1.10
   4   2   0    2.30    0.90
  -4  -2   0    4.40    1.00
   4  -2   0    3.40    1.20
   4  -2   0    4.40    1.50
   4  -2   0    3.50    0.90
   4  -2   0    5.10    1.20
  -4  -2   0    3.40    1.00
  -4   2  -1 1998.60   55.39
   4   2   1 1996.80   63.29
   4   2   1 2047.80   55.39
  -4   2  -1 2093.09   75.49
  -4   2  -1 2047.40   63.19
  -4   2  -1 2078.39   55.49
  -4  -2  -1 1994.20   63.29
   4  -2   1 2042.70   69.59
   4  -2   1 2033.10   55.49
   4  -2   1 2005.00   63.29
   4  -2   1 1974.10   55.39
   4  -2   1 1947.01   75.69
  -4  -2  -1 2005.10   55.39
  -4   2  -2    1.30    1.10
   4   2   2    2.40    1.00
  -4   2  -2    1.50    1.10
  -4   2  -2    0.70    1.40
  -4   2  -2    3.40    1.20
   4   2   2    3.20    1.60
   4  -2   2    3.70    1.40
  -4  -2  -2    0.80    1.00
   4  -2   2    2.30    1.00
  -4  -2  -2    2.90    1.50
  -4  -2  -2    4.60    1.20
   4  -2   2    3.50    1.90
   4  -2   2    2.40    1.30
  -4   2  -3  278.57   10.80
  -4   2  -3  261.87    8.00
   4   2   3  272.07    8.00
   4   2   3  265.57    9.70
  -4  -2  -3  268.17    8.10
   4  -2   3  281.67    8.00
   4  -2   3  259.57   10.90
   4  -2   3  266.37    9.90
   4  -2   3  272.17    8.30
   4   2   4    4.00    2.40
  -4   2  -4    0.60    1.30
   4   2   4    1.80    1.40
   4  -2   4    2.80    1.80
   4  -2   4    9.70    2.90
   4  -2   4    0.80    1.30
  -4  -2  -4    0.90    1.40
   4   2   5    4.90    2.90
   4  -2   5    4.70    3.40
   4  -2   5    4.50    2.10
   4   2   6    7.80    3.40
   4  -2   6    8.80    4.10
  -4   3   7   29.90    4.30
  -4  -3   7   21.20    3.50
  -4  -3   7   22.40    4.70
  -4   3   6    2.80    3.00
  -4   3   6    0.80    1.10
  -4  -3   6   -0.40    3.40
  -4  -3   6    0.70    2.30
  -4   3   5   50.19    4.50
  -4   3   5   47.60    2.30
  -4  -3   5   47.20    3.70
  -4  -3   5   46.50    2.10
  -4  -3   5   39.40    1.90
  -4   3   4   24.50    1.70
   4   3  -4   29.70    3.40
  -4   3   4   26.50    3.40
  -4   3   4   24.30    1.80
  -4  -3   4   25.10    1.70
  -4  -3   4   23.50    2.40
   4  -3  -4   23.40    1.40
  -4   3   3  241.38    8.10
   4   3  -3  231.58    8.80
  -4   3   3  245.28    7.00
  -4   3   3  246.58    9.40
  -4   3   3  235.78    7.10
  -4   3   3  237.68    8.60
   4   3  -3  241.58    6.90
  -4  -3   3  238.98    8.60
   4  -3  -3  232.38    7.10
   4  -3  -3  241.38    9.20
  -4  -3   3  229.68    7.00
   4  -3  -3  236.38    7.00
  -4   3   2  486.75   17.50
  -4   3   2  476.75   13.60
   4   3  -2  491.85   13.60
  -4   3   2  484.55   16.30
  -4   3   2  482.75   15.60
  -4   3   2  485.05   13.80
   4  -3  -2  468.95   13.60
  -4  -3   2  509.15   16.70
   4  -3  -2  470.15   13.70
   4  -3  -2  484.75   17.40
  -4  -3   2  479.15   13.60
  -4   3   1  160.28    6.50
  -4   3   1  157.88    5.00
   4   3  -1  157.88    4.80
   4   3  -1  157.98    5.60
  -4   3   1  159.28    5.60
  -4   3   1  153.08    4.90
   4  -3  -1  156.18    6.00
   4  -3  -1  161.48    6.50
  -4  -3   1  157.88    4.90
   4  -3  -1  157.48    5.10
   4  -3  -1  159.08    4.80
  -4   3   0   53.59    2.30
  -4   3   0   52.99    2.60
  -4   3   0   52.49    3.20
  -4   3   0   55.99    3.20
  -4   3   0   54.99    2.30
   4   3   0   55.29    2.20
   4  -3   0   52.99    1.90
   4  -3   0   50.29    2.50
  -4  -3   0   55.39    2.90
  -4  -3   0   55.09    2.30
   4  -3   0   52.49    2.00
   4  -3   0   59.19    3.20
   4  -3   0   53.79    3.00
  -4   3  -1    3.80    1.30
  -4   3  -1    1.60    1.10
   4   3   1    1.10    0.70
   4   3   1    5.00    1.50
  -4   3  -1    4.00    1.30
  -4   3  -1    4.70    1.10
  -4  -3  -1    5.60    1.30
   4  -3   1    4.20    1.10
  -4  -3  -1    3.60    1.30
   4  -3   1    4.00    1.40
   4  -3   1    3.10    1.00
   4  -3   1    3.10    1.40
   4  -3   1    2.90    1.30
  -4   3  -2   72.59    2.80
  -4   3  -2   70.99    3.00
   4   3   2   69.89    2.70
   4   3   2   66.89    3.60
  -4   3  -2   60.89    4.20
   4  -3   2   66.79    3.50
   4  -3   2   68.59    2.70
  -4  -3  -2   68.79    3.60
   4  -3   2   70.59    3.10
  -4  -3  -2   68.09    2.90
   4  -3   2   70.29    4.10
   4   3   3   28.50    3.50
   4   3   3   25.20    1.90
  -4   3  -3   28.10    1.90
  -4   3  -3   29.20    3.00
   4  -3   3   24.30    3.30
  -4  -3  -3   28.10    2.90
   4  -3   3   26.60    2.00
   4  -3   3   31.30    3.60
  -4  -3  -3   28.30    2.30
   4  -3   3   28.00    2.40
   4   3   4   46.10    4.00
  -4   3  -4   42.30    2.50
   4   3   4   47.10    2.60
   4  -3   4   51.89    4.80
   4  -3   4   52.39    3.00
   4  -3   4   43.80    4.00
   4  -3   4   41.50    2.30
  -4  -3  -4   44.70    2.70
   4   3   5    8.50    2.90
   4  -3   5    8.80    3.60
   4  -3   5    8.60    2.40
   4   3   6   10.00    3.30
   4  -3   6   10.80    4.30
  -4   4   7    2.50    3.80
  -4  -4   7   -4.10    3.90
  -4   4   6    1.30    3.10
  -4   4   6   -1.20    1.20
  -4  -4   6   -0.60    3.30
  -4  -4   6    0.80    2.10
  -4   4   5    1.90    2.40
  -4   4   5    0.90    1.30
  -4  -4   5    0.00    1.70
  -4  -4   5    0.70    1.20
  -4  -4   5    4.20    3.00
   4   4  -4    0.70    0.60
  -4   4   4    2.60    2.10
  -4   4   4    1.40    1.20
  -4   4   4    2.60    1.30
   4   4  -4    0.90    0.60
   4   4  -4    3.30    2.70
  -4  -4   4    1.00    1.20
  -4  -4   4    3.10    1.20
   4  -4  -4    0.40    0.30
  -4   4   3    1.80    1.60
   4   4  -3    1.10    0.90
  -4   4   3    2.90    1.10
  -4   4   3    2.40    1.20
  -4   4   3    1.90    1.20
   4   4  -3    4.20    2.30
   4   4  -3    1.00    0.90
  -4   4   3    3.00    1.70
   4  -4  -3    3.70    1.10
  -4  -4   3    0.60    0.80
  -4  -4   3    2.60    1.10
   4  -4  -3    1.60    1.30
  -4   4   2  113.49    3.90
  -4   4   2  114.99    3.90
   4   4  -2  120.59    3.80
  -4   4   2  114.49    4.40
  -4   4   2  117.59    5.40
  -4   4   2  116.29    4.30
   4  -4  -2  119.89    3.90
  -4  -4   2  110.29    3.80
   4  -4  -2  110.89    5.10
   4  -4  -2  115.39    4.00
  -4   4   1    4.80    0.80
  -4   4   1    4.30    1.40
  -4   4   1    4.00    1.20
  -4   4   1    4.10    1.00
   4   4  -1    2.70    1.00
  -4   4   1    3.40    1.10
  -4   4   1    4.30    1.10
  -4  -4   1    3.80    1.10
   4  -4  -1    3.60    1.30
   4  -4  -1    4.30    1.00
   4  -4  -1    1.70    1.40
   4  -4  -1    3.40    1.40
  -4   4   0  163.28    5.20
  -4   4   0  169.28    5.40
  -4   4   0  170.68    7.40
   4   4   0  165.88    5.20
  -4   4   0  172.38    7.00
  -4   4   0  171.18    6.00
   4  -4   0  165.18    5.50
   4  -4   0  177.38    6.30
  -4  -4   0  160.68    5.20
   4  -4   0  171.68    6.90
   4  -4   0  168.78    5.20
  -4  -4   0  173.88    6.90
  -4  -4   0  172.78    6.30
  -4   4  -1   20.70    1.70
   4   4   1   18.70    1.30
   4   4   1   21.90    2.30
  -4   4  -1   23.80    2.70
  -4   4  -1   22.20    1.80
  -4   4  -1   20.90    2.00
   4  -4   1   20.40    2.80
   4  -4   1   20.40    2.70
   4  -4   1   20.90    2.10
  -4  -4  -1   20.90    2.20
  -4  -4  -1   23.70    1.90
  -4  -4  -1   18.10    1.60
   4  -4   1   23.20    2.50
   4  -4   1   23.20    1.60
   4   4   2  579.54   18.90
   4   4   2  588.64   16.40
  -4   4  -2  587.34   16.40
  -4   4  -2  569.54   22.80
   4  -4   2  586.94   19.20
  -4  -4  -2  598.84   19.10
   4  -4   2  562.64   22.50
   4  -4   2  586.64   16.60
   4  -4   2  562.14   19.20
   4  -4   2  583.74   16.40
  -4  -4  -2  565.04   16.40
  -4   4  -3    4.50    2.00
   4   4   3    5.20    1.40
  -4   4  -3    7.90    1.50
   4   4   3    5.60    2.20
  -4  -4  -3    7.80    2.00
   4  -4   3    5.70    1.70
   4  -4   3    7.90    1.50
  -4  -4  -3    5.80    1.70
   4  -4   3    8.60    2.60
   4  -4   3    5.00    1.50
   4  -4   3    2.70    2.00
   4   4   4  162.78    5.40
   4   4   4  159.78    6.80
  -4   4  -4  162.58    5.30
   4  -4   4  169.88    5.80
   4  -4   4  158.18    8.00
  -4  -4  -4  156.38    5.60
   4  -4   4  171.58    5.40
   4  -4   4  166.88    7.70
   4   4   5   -1.30    2.90
   4  -4   5   -0.40    2.70
   4  -4   5    1.30    2.50
   4   4   6   43.80    5.40
   4  -4   6   35.30    5.10
  -4   5   7    4.10    3.60
  -4  -5   7   -1.80    4.30
  -4   5   6    4.10    3.30
  -4   5   6    5.00    1.50
  -4  -5   6    3.40    2.30
  -4  -5   6    6.20    3.80
  -4   5   5    0.80    1.50
  -4   5   5    3.80    2.60
  -4  -5   5    0.50    1.40
  -4  -5   5    1.20    1.70
  -4  -5   5    2.70    3.10
  -4   5   4  104.39    3.90
  -4   5   4  105.59    3.90
   4   5  -4   97.69    3.30
  -4   5   4  104.79    4.20
   4   5  -4  100.69    3.30
   4   5  -4  107.39    5.70
  -4   5   4  109.69    5.90
  -4  -5   4  117.39    6.40
   4  -5  -4  107.39    3.80
  -4  -5   4  103.39    3.90
  -4  -5   4  109.89    4.60
  -4   5   3  121.19    6.00
   4   5  -3  116.29    4.00
   4   5  -3  122.19    3.90
   4   5  -3  125.39    5.70
  -4   5   3  122.19    4.10
  -4   5   3  122.19    4.50
  -4   5   3  119.49    4.90
  -4   5   3  115.39    4.20
  -4  -5   3  133.79    6.40
  -4  -5   3  120.39    4.20
   4  -5  -3  116.09    4.20
  -4  -5   3  117.19    4.50
  -4   5   2  505.45   17.20
   4   5  -2  515.45   14.40
  -4   5   2  526.55   18.70
  -4   5   2  514.15   14.60
  -4   5   2  498.25   16.30
  -4   5   2  523.65   14.70
   4   5  -2  501.25   14.50
   4  -5  -2  515.95   14.70
   4  -5  -2  518.75   14.50
   4  -5  -2  508.15   18.70
  -4  -5   2  524.05   19.90
  -4  -5   2  486.75   14.50
  -4   5   1   54.09    2.50
  -4   5   1   52.89    3.70
  -4   5   1   51.29    2.10
  -4   5   1   54.59    3.60
  -4   5   1   51.29    2.40
   4   5  -1   50.59    2.30
  -4   5   1   55.09    2.50
   4  -5  -1   50.99    2.30
   4  -5  -1   56.09    3.50
   4  -5  -1   47.70    3.10
  -4  -5   1   48.10    2.50
   4  -5  -1   52.59    2.80
  -4  -5   1   52.79    3.30
   4   5   0  155.38    5.00
  -4   5   0  155.68    5.10
  -4   5   0  155.38    7.10
  -4   5   0  158.68    5.60
  -4   5   0  154.28    6.80
  -4   5   0  158.38    5.10
   4  -5   0  158.48    5.00
   4  -5   0  162.38    6.70
   4  -5   0  151.68    5.90
   4  -5   0  149.88    5.30
  -4  -5   0  157.18    6.50
  -4  -5   0  155.18    5.90
  -4  -5   0  151.78    5.10
   4  -5   0  149.39    7.30
  -4   5  -1   33.80    1.80
  -4   5  -1   40.70    3.40
  -4   5  -1   35.70    2.40
   4   5   1   31.10    2.00
  -4   5  -1   36.50    2.10
   4  -5   1   37.00    3.10
   4  -5   1   34.90    2.50
  -4  -5  -1   36.00    2.30
  -4  -5  -1   31.00    2.30
  -4  -5  -1   33.40    2.50
   4  -5   1   36.80    2.00
   4  -5   1   34.50    2.90
   4  -5   1   32.40    3.50
   4   5   2  149.69    4.90
   4   5   2  146.89    5.80
  -4   5  -2  144.79    7.50
  -4   5  -2  143.19    4.80
  -4  -5  -2  144.19    5.90
   4  -5   2  142.59    5.20
   4  -5   2  151.08    4.80
   4  -5   2  152.48    6.40
   4  -5   2  139.09    7.10
  -4  -5  -2  147.89    5.00
  -4   5  -3   18.90    2.20
   4   5   3   17.70    1.80
   4   5   3   19.10    2.40
   4  -5   3   13.10    2.50
  -4  -5  -3   20.50    2.40
   4  -5   3   14.30    3.00
   4  -5   3   14.20    2.10
   4  -5   3   15.70    1.70
  -4  -5  -3   17.90    1.90
   4  -5   3   18.30    1.80
  -4   5  -4   26.20    2.30
   4   5   4   28.60    3.80
   4   5   4   23.50    2.20
   4  -5   4   31.90    2.90
  -4  -5  -4   22.60    2.50
   4  -5   4   27.60    4.50
   4  -5   4   25.90    3.20
   4   5   5    2.00    2.70
   4  -5   5   -0.80    3.80
   4  -5   5    2.30    2.70
   4  -5   5    0.30    2.20
   4   5   6   14.20    2.60
   4  -5   6   16.40    4.70
  -4   6   6    7.20    1.80
  -4   6   6    6.90    3.30
  -4  -6   6    7.10    4.10
  -4  -6   6    6.90    1.60
   4   6  -5   50.89    4.20
  -4   6   5   52.39    5.20
  -4   6   5   46.60    3.10
  -4  -6   5   46.20    3.50
  -4  -6   5   56.19    5.90
  -4  -6   5   47.90    2.90
   4   6  -4    5.80    3.20
  -4   6   4    3.40    2.40
   4   6  -4    2.50    0.90
  -4   6   4    2.70    1.20
  -4   6   4    2.10    1.60
  -4   6   4    2.80    1.40
  -4  -6   4    4.10    1.70
  -4  -6   4    3.40    2.80
   4  -6  -4    3.50    1.50
  -4  -6   4    0.80    1.10
   4   6  -3  138.99    4.60
  -4   6   3  136.49    5.00
  -4   6   3  146.59    6.90
  -4   6   3  147.79    5.00
  -4   6   3  141.29    4.80
  -4  -6   3  133.69    5.10
  -4  -6   3  150.18    7.20
  -4  -6   3  144.29    4.90
   4  -6  -3  138.09    4.90
  -4  -6   3  138.69    5.10
  -4   6   2    4.60    1.40
  -4   6   2    5.50    1.50
   4   6  -2    4.10    1.30
  -4   6   2    4.70    2.10
  -4   6   2    4.50    1.00
  -4  -6   2    5.80    1.60
   4  -6  -2    4.40    1.70
  -4  -6   2    5.70    1.40
  -4   6   1  303.17    8.70
  -4   6   1  264.17   11.00
  -4   6   1  264.57   12.10
   4   6  -1  290.17    8.60
  -4   6   1  291.57    9.50
  -4   6   1  286.77    8.50
   4  -6  -1  298.57   10.00
  -4  -6   1  299.57   11.60
  -4  -6   1  281.17    8.60
   4  -6  -1  295.77    8.90
  -4   6   0   18.30    2.50
   4   6   0   16.90    1.80
  -4   6   0   25.40    2.90
  -4   6   0   23.20    1.90
   4   6   0   23.90    1.60
  -4   6   0   23.50    2.00
  -4   6   0   23.70    2.10
   4  -6   0   22.90    3.60
   4  -6   0   24.70    2.80
   4  -6   0   24.10    1.90
  -4  -6   0   22.20    2.20
   4  -6   0   23.30    2.60
  -4  -6   0   24.20    2.50
   4  -6   0   20.10    2.10
  -4  -6   0   27.30    2.30
  -4   6  -1  716.73   19.80
  -4   6  -1  695.93   22.60
  -4   6  -1  718.53   27.40
   4   6   1  724.13   19.80
   4  -6   1  723.93   22.90
  -4  -6  -1  687.13   19.90
  -4  -6  -1  697.33   22.70
   4  -6   1  678.23   27.30
   4  -6   1  711.13   19.80
   4  -6   1  691.53   20.00
  -4  -6  -1  666.33   26.60
   4   6   2   10.80    2.10
   4   6   2   10.80    1.60
  -4   6  -2   10.40    1.60
   4  -6   2    7.60    2.50
   4  -6   2   10.10    2.10
  -4  -6  -2    8.40    2.10
   4  -6   2   12.40    2.20
  -4  -6  -2   10.80    1.90
   4  -6   2    9.90    1.50
  -4   6  -3   93.99    3.80
   4   6   3  104.29    5.00
   4   6   3   98.99    3.90
  -4  -6  -3  107.29    5.10
   4  -6   3   94.19    6.10
   4  -6   3   97.59    5.80
  -4  -6  -3  102.19    4.40
   4  -6   3  101.29    3.80
   4  -6   3  102.99    4.40
   4   6   4    6.40    2.40
  -4   6  -4    4.90    1.60
  -4  -6  -4    5.30    2.00
   4  -6   4    4.80    3.50
   4  -6   4    3.10    2.40
   4  -6   4    3.80    2.60
   4   6   5    1.50    2.60
   4  -6   5    3.50    3.00
   4  -6   5   -2.30    2.20
   4  -6   5    2.00    3.90
   4   6   6    3.10    4.00
   4   6   6    9.50    2.70
   4  -6   6   14.10    5.00
  -4   7   6    4.60    3.40
  -4   7   6    1.70    2.00
  -4  -7   6   -0.40    4.00
  -4  -7   6    0.70    1.60
  -4   7   5   37.90    3.10
   4   7  -5   44.40    5.00
  -4   7   5   34.90    5.10
  -4  -7   5   36.20    5.90
  -4  -7   5   31.30    3.00
   4   7  -4    2.80    3.40
  -4   7   4    0.70    2.50
   4   7  -4    0.40    0.90
  -4   7   4   -0.80    1.60
  -4   7   4    0.90    1.50
  -4  -7   4    1.50    1.80
   4  -7  -4   -3.30    1.70
  -4  -7   4   -0.20    1.20
  -4  -7   4    4.50    3.00
  -4   7   3  113.09    4.20
  -4   7   3  110.89    4.20
  -4   7   3  105.29    3.90
   4   7  -3  112.09    3.90
  -4   7   3  113.49    6.20
   4  -7  -3  114.99    4.40
  -4  -7   3  105.69    3.90
  -4  -7   3  110.59    4.20
  -4  -7   3  104.09    3.90
  -4  -7   3  114.99    6.40
   4   7  -2   76.99    3.20
  -4   7   2   83.99    3.40
  -4   7   2   73.59    5.00
  -4   7   2   71.49    2.90
  -4   7   2   72.99    3.40
  -4  -7   2   75.59    3.30
  -4  -7   2   79.29    4.90
   4  -7  -2   74.49    3.70
  -4   7   1   79.19    4.50
  -4   7   1   79.39    3.20
  -4   7   1   81.89    3.50
   4   7  -1   78.09    3.40
  -4   7   1   85.39    3.30
   4  -7  -1   79.89    3.90
   4  -7  -1   81.19    4.10
  -4  -7   1   81.39    3.50
  -4  -7   1   87.69    4.70
   4   7   0    5.60    1.70
   4   7   0    5.50    1.00
  -4   7   0    6.80    1.30
  -4   7   0    6.70    1.40
  -4   7   0    5.40    1.80
   4  -7   0    2.00    2.50
  -4  -7   0    4.90    1.60
   4  -7   0    1.20    1.90
  -4  -7   0    6.50    1.80
   4  -7   0    6.40    2.10
  -4  -7   0    6.80    1.60
  -4   7  -1    8.30    1.40
   4   7   1    5.60    1.30
  -4  -7  -1    3.30    1.60
   4  -7   1    6.60    1.50
   4  -7   1    5.70    2.00
   4  -7   1    7.90    2.40
  -4  -7  -1    8.10    1.80
   4  -7   1    4.30    2.60
  -4  -7  -1    6.40    1.70
   4   7   2   11.60    1.80
   4   7   2   10.50    1.50
  -4   7  -2   13.30    1.80
   4  -7   2   13.20    1.70
   4  -7   2    7.60    2.80
   4  -7   2   12.80    2.80
  -4  -7  -2   14.80    2.10
   4  -7   2   13.70    2.40
  -4  -7  -2    9.00    1.50
  -4  -7  -2    9.30    2.30
   4   7   3    6.80    2.20
  -4   7  -3    7.20    1.80
   4   7   3    6.30    1.80
   4   7   3    5.50    2.10
   4  -7   3    8.20    2.30
   4  -7   3    5.10    3.10
   4  -7   3    8.30    1.70
   4  -7   3    9.10    3.10
  -4  -7  -3    8.30    2.40
  -4  -7  -3    8.60    2.30
   4   7   4   12.60    2.60
  -4   7  -4   11.80    1.90
   4   7   4   13.90    2.40
   4   7   4   10.10    2.90
   4  -7   4   10.30    2.80
  -4  -7  -4    7.20    2.20
   4  -7   4   14.00    3.50
   4  -7   4    7.80    3.00
   4   7   5    6.10    2.90
   4   7   5    9.90    3.40
   4   7   5    9.80    2.70
   4  -7   5    6.90    3.10
   4  -7   5    9.10    2.70
   4  -7   5    7.50    4.40
   4   7   6    5.70    2.70
   4   7   6    1.80    3.80
   4  -7   6    4.80    3.50
   4  -7   6    7.70    5.10
   4  -7   6    4.10    2.60
  -4   8   6   -1.70    2.10
  -4   8   6    0.20    3.50
  -4  -8   6   -2.80    1.90
  -4  -8   6    0.20    4.10
  -4   8   5   -2.00    3.00
   4   8  -5   -0.50    4.20
  -4   8   5   -0.10    2.10
  -4  -8   5    1.90    3.50
  -4  -8   5    3.30    2.10
   4   8  -4    0.80    1.40
  -4   8   4   -0.40    1.80
   4   8  -4   -1.30    3.70
  -4   8   4    2.70    2.20
  -4  -8   4   -0.10    3.10
  -4  -8   4    0.10    2.00
   4  -8  -4    0.10    2.10
  -4   8   3    3.80    0.60
  -4   8   3    5.10    1.80
  -4   8   3    4.00    2.50
   4   8  -3    4.50    1.60
  -4   8   3    2.30    1.70
  -4  -8   3    3.40    2.10
  -4  -8   3    3.60    2.70
  -4  -8   3    3.20    0.40
   4  -8  -3    3.90    2.30
  -4   8   2   31.00    3.40
  -4   8   2   32.00    2.40
  -4   8   2   27.90    1.70
  -4   8   2   29.70    2.70
   4   8  -2   28.90    2.30
  -4  -8   2   32.20    4.10
  -4  -8   2   31.70    2.70
   4  -8  -2   29.00    3.10
  -4   8   1    6.60    2.50
  -4   8   1    8.20    1.20
  -4   8   1    9.60    1.90
   4   8  -1    9.40    1.70
  -4  -8   1   10.20    1.90
  -4  -8   1    8.80    2.10
   4  -8  -1    5.90    2.00
   4  -8  -1    7.90    2.30
  -4   8   0   58.69    3.20
   4   8   0   57.19    3.00
   4   8   0   58.79    3.20
  -4   8   0   59.49    3.00
  -4   8   0   53.09    4.10
  -4  -8   0   57.69    2.90
   4  -8   0   59.09    3.70
   4  -8   0   60.99    3.90
  -4  -8   0   59.89    3.50
   4  -8   0   47.70    5.30
  -4  -8   0   54.79    4.20
   4   8   1   28.80    2.70
   4   8   1   29.80    2.80
  -4   8  -1   19.00    3.20
  -4   8  -1   30.60    2.70
  -4  -8  -1   30.80    2.90
   4  -8   1   28.60    3.20
   4  -8   1   19.60    3.50
   4  -8   1   30.60    3.50
  -4  -8  -1   19.80    3.30
  -4  -8  -1   26.60    2.70
   4   8   2  172.08    7.20
  -4   8  -2  173.18    5.80
   4   8   2  176.18    6.10
  -4  -8  -2  170.88    7.10
   4  -8   2  159.18    8.90
   4  -8   2  155.68    6.90
  -4  -8  -2  169.18    6.10
   4  -8   2  167.08    5.50
   4  -8   2  171.98    6.40
  -4   8  -3   13.60    2.10
   4   8   3   11.60    2.40
   4   8   3   13.70    2.50
  -4  -8  -3   15.00    2.60
   4  -8   3   17.50    2.10
   4  -8   3   11.80    3.30
   4  -8   3   12.10    2.90
  -4  -8  -3   13.30    2.70
   4  -8   3   14.80    3.00
   4   8   4   37.20    5.00
   4   8   4   35.00    3.80
   4   8   4   41.30    3.70
   4  -8   4   37.00    4.70
   4  -8   4   36.20    3.80
  -4  -8  -4   34.30    3.80
   4  -8   4   36.10    5.70
   4   8   5   -2.50    3.10
   4   8   5    3.10    2.80
   4  -8   5   -0.30    4.30
   4  -8   5   -1.70    2.40
   4  -8   5   -0.10    3.60
  -4   9   6    7.20    4.00
  -4   9   6    6.40    2.40
  -4  -9   6    7.80    4.80
  -4  -9   6    6.50    2.30
  -4   9   5    0.10    3.30
  -4   9   5    1.70    2.50
   4   9  -5    6.00    4.70
  -4  -9   5    1.90    3.80
  -4  -9   5   -0.50    2.40
  -4   9   4   47.60    3.50
  -4   9   4   43.20    4.50
   4   9  -4   46.10    5.50
   4  -9  -4   44.80    3.40
  -4  -9   4   52.19    6.00
  -4  -9   4   47.20    3.40
  -4   9   3   23.00    2.40
  -4   9   3   24.30    3.40
   4   9  -3   24.40    2.40
  -4   9   3   24.70    2.50
  -4  -9   3   19.20    3.50
  -4  -9   3   21.80    2.70
   4  -9  -3   24.10    2.80
  -4   9   2  143.89    5.50
  -4   9   2  155.98    7.70
   4   9  -2  142.89    5.30
   4  -9  -2  146.19    5.90
  -4  -9   2  146.99    5.50
  -4  -9   2  146.69    7.70
  -4   9   1    4.10    1.60
  -4   9   1    0.70    2.40
   4   9  -1    6.00    1.80
  -4  -9   1    3.90    2.30
   4  -9  -1    0.50    2.00
  -4  -9   1    6.50    2.20
   4  -9  -1    1.90    2.50
  -4   9   0   43.60    2.70
   4   9   0   46.90    2.90
  -4   9   0   44.40    5.00
   4   9   0   49.20    3.20
   4  -9   0   45.50    3.80
  -4  -9   0   47.10    2.80
   4  -9   0   48.50    3.60
  -4  -9   0   42.80    3.90
   4  -9   0   47.30    5.80
   4   9   1    9.80    1.70
  -4   9  -1    5.60    3.10
   4   9   1   11.00    2.30
  -4   9  -1   12.60    2.10
   4   9   1    8.70    1.70
  -4  -9  -1    6.30    2.40
   4  -9   1    8.60    3.40
  -4  -9  -1   13.00    2.20
  -4  -9  -1   10.10    2.40
   4  -9   1    8.60    2.70
   4  -9   1   17.00    2.90
  -4   9  -2   41.10    3.10
   4   9   2   42.90    2.90
   4   9   2   41.40    3.60
   4   9   2   37.20    2.80
  -4  -9  -2   39.90    3.90
   4  -9   2   42.80    5.80
  -4  -9  -2   45.40    3.60
   4  -9   2   46.90    3.90
   4  -9   2   44.70    4.70
  -4   9  -3   -0.50    1.80
   4   9   3    4.00    2.40
   4   9   3    3.50    2.20
   4  -9   3    2.10    2.70
  -4  -9  -3    2.30    2.50
   4  -9   3    4.80    3.50
  -4  -9  -3    5.90    2.40
   4  -9   3    4.20    3.40
   4   9   4    1.10    2.70
   4   9   4    4.30    2.60
  -4  -9  -4   -0.20    2.40
   4  -9   4    4.00    3.20
   4  -9   4    3.60    4.10
   4  -9   4    2.60    3.50
   4   9   5    0.50    3.30
   4   9   5    3.60    3.10
   4  -9   5    1.10    3.10
   4  -9   5   -1.30    4.40
   4  -9   5    1.10    3.60
  -4  10   5    2.90    2.40
  -4  10   5    7.20    3.80
   4  10  -5   11.50    4.90
  -4 -10   5    2.40    4.20
  -4 -10   5    5.60    2.70
  -4  10   4    0.00    3.10
   4  10  -4   -1.30    4.30
  -4  10   4    2.70    2.30
  -4 -10   4    4.00    3.90
  -4 -10   4    2.50    2.70
   4  10  -3   24.30    2.60
  -4  10   3   26.10    2.80
  -4  10   3   21.20    3.50
  -4 -10   3   20.50    2.80
  -4 -10   3   18.20    3.70
   4 -10  -3   22.50    3.00
   4  10  -2    9.10    2.00
  -4  10   2    6.20    2.30
  -4  10   2    3.80    3.00
  -4 -10   2    6.00    2.90
  -4 -10   2   12.00    2.50
   4 -10  -2    8.50    2.90
  -4  10   1   56.79    3.70
  -4  10   1   59.49    5.50
   4  10  -1   54.19    3.00
   4 -10  -1   53.69    4.00
   4 -10  -1   39.00    6.70
   4 -10  -1   61.09    4.30
  -4 -10   1   62.69    5.00
  -4 -10   1   60.69    3.90
  -4  10   0   22.10    3.10
   4  10   0   25.40    3.10
   4  10   0   23.20    2.70
  -4  10   0   26.40    2.70
   4 -10   0   24.90    2.70
  -4 -10   0   20.90    2.90
   4 -10   0   23.30    3.00
   4 -10   0   16.60    4.10
  -4 -10   0   21.60    2.60
   4  10   1  144.39    5.60
  -4  10  -1  139.89    5.40
  -4  10  -1  120.19    7.90
   4  10   1  135.69    6.30
  -4  10  -1  127.09    4.70
   4  10   1  138.19    6.00
  -4 -10  -1  137.69    5.70
  -4 -10  -1  125.49    7.40
   4 -10   1  131.79    8.70
  -4 -10  -1  138.89    6.00
   4 -10   1  148.09    6.80
   4 -10   1  130.19    5.50
   4  10   2   13.20    2.40
   4  10   2   17.20    2.30
   4  10   2   12.10    1.80
  -4  10  -2   19.40    2.50
   4 -10   2   11.50    3.10
  -4 -10  -2   15.90    2.90
   4 -10   2   15.00    3.50
   4 -10   2    8.30    3.90
  -4 -10  -2   14.60    2.80
   4  10   3   14.60    2.80
  -4  10  -3   11.40    2.30
   4  10   3   13.00    2.60
   4 -10   3   11.40    4.00
   4 -10   3   16.30    3.30
  -4 -10  -3   14.00    2.90
   4 -10   3   11.30    3.90
   4  10   4    9.70    2.90
   4  10   4    4.80    2.90
   4 -10   4    4.70    4.30
   4 -10   4    8.30    3.50
   4 -10   4    5.70    4.20
   4  10   5    3.10    2.90
   4  10   5    1.80    3.40
   4 -10   5    6.60    4.00
   4 -10   5   -2.50    4.40
   4 -10   5   -2.50    3.00
   4  11  -5   18.00    5.60
  -4  11   5   11.10    4.10
  -4  11   5   10.50    3.20
  -4 -11   5    7.60    2.90
  -4 -11   5   11.40    4.60
  -4  11   4    1.80    3.40
  -4  11   4    1.90    2.90
   4  11  -4    1.10    5.00
  -4 -11   4    3.50    4.10
  -4 -11   4    3.30    2.70
  -4  11   3   37.10    5.80
  -4  11   3   33.50    3.80
   4  11  -3   39.60    3.40
  -4 -11   3   29.90    3.30
   4 -11  -3   34.40    3.70
  -4 -11   3   39.80    6.00
   4  11  -2    4.40    2.10
  -4  11   2    2.60    1.90
  -4  11   2    0.30    3.10
   4 -11  -2    0.00    2.20
  -4 -11   2    2.70    2.60
  -4 -11   2    4.00    3.50
  -4  11   1   24.60    2.70
   4  11  -1   26.10    2.70
  -4  11   1   18.80    3.00
  -4 -11   1   26.60    3.80
   4 -11  -1   21.50    2.80
   4 -11  -1   23.10    3.50
   4 -11  -1   12.30    4.80
  -4 -11   1   22.90    3.00
  -4  11   0   -1.60    3.10
   4  11   0   -1.20    1.60
  -4  11   0   -1.50    2.20
   4  11   0   -1.10    2.20
   4 -11   0   -7.40    3.80
  -4 -11   0   -2.10    2.50
   4 -11   0   -0.70    3.00
   4 -11   0   -2.10    2.50
  -4 -11   0    0.10    2.00
  -4  11  -1   -1.10    3.20
   4  11   1    3.30    1.90
  -4  11  -1    4.50    2.30
  -4  11  -1    4.60    1.10
   4  11   1    6.20    2.50
  -4 -11  -1    7.70    2.80
   4 -11   1    1.90    3.10
  -4 -11  -1   -1.10    2.90
   4 -11   1    0.70    3.90
   4 -11   1    5.80    3.20
  -4  11  -2    1.00    2.30
   4  11   2    2.60    2.00
   4  11   2    2.80    2.60
   4 -11   2   -1.00    3.00
  -4 -11  -2    3.00    2.80
   4 -11   2    1.00    3.30
   4 -11   2   -1.40    2.30
   4  11   3   -0.90    2.00
  -4  11  -3   -0.70    2.20
   4  11   3    0.30    2.60
   4 -11   3   -3.70    3.10
   4 -11   3    0.40    3.90
   4 -11   3    1.90    3.80
  -4 -11  -3    3.80    2.90
   4  11   4   -2.10    2.80
   4  11   4    6.90    3.00
   4 -11   4    0.90    3.70
   4 -11   4   -3.10    4.30
   4 -11   4    3.50    4.20
   4  11   5    4.70    3.00
   4  11   5    1.30    3.50
   4 -11   5   -1.30    3.20
   4 -11   5    5.80    4.70
   4 -11   5    3.30    4.90
  -4  12   5   -1.40    4.00
   4  12  -5    0.50    5.40
  -4  12   5   -1.00    3.20
  -4 -12   5    1.50    4.60
  -4 -12   5    1.60    3.00
   4  12  -4   -2.60    5.30
  -4  12   4   -0.30    2.80
  -4  12   4    0.50    3.70
  -4 -12   4    4.30    4.20
  -4 -12   4    1.50    3.20
   4  12  -3    5.40    2.50
  -4  12   3    5.90    3.60
  -4  12   3    2.40    2.80
   4 -12  -3    2.20    3.20
  -4 -12   3    2.10    3.20
  -4 -12   3    3.70    3.80
  -4  12   2    2.00    3.40
   4  12  -2    5.70    2.30
  -4  12   2    4.20    2.10
  -4 -12   2    5.80    2.90
  -4 -12   2    6.90    3.60
   4 -12  -2    2.50    3.40
  -4  12   1    3.30    2.00
   4  12  -1   -4.70    2.00
  -4  12   1    1.30    3.30
   4  12  -1    7.00    2.50
  -4 -12   1    3.90    3.20
   4 -12  -1   -9.80    4.40
  -4 -12   1    5.90    2.30
   4 -12  -1   -1.20    3.20
   4 -12  -1    0.30    2.50
  -4  12   0    6.30    3.70
   4  12   0    7.20    2.10
   4  12   0    7.80    2.60
  -4  12   0   11.00    2.70
  -4 -12   0   10.60    3.10
  -4 -12   0    4.30    3.30
   4 -12   0    9.70    3.00
   4 -12   0   11.50    3.50
   4 -12   0    0.50    4.50
  -4  12  -1   14.20    2.80
  -4  12  -1    7.20    3.80
   4  12   1   12.80    2.30
  -4  12  -1   12.00    1.50
   4  12   1   11.20    2.20
  -4 -12  -1    7.10    3.50
   4 -12   1    8.40    4.50
   4 -12   1   14.30    3.50
  -4 -12  -1   16.00    3.30
   4 -12   1   15.40    2.90
   4  12   2   28.10    3.40
  -4  12  -2   27.30    3.10
   4  12   2   30.80    4.50
   4 -12   2   25.60    4.00
  -4 -12  -2   31.00    3.70
   4 -12   2   27.00    4.40
   4 -12   2   16.20    4.90
   4  12   3    9.10    2.80
  -4  12  -3    9.40    2.60
   4  12   3   14.50    3.20
   4 -12   3    9.00    3.70
   4 -12   3    3.00    4.60
   4 -12   3   12.90    4.10
  -4 -12  -3   16.60    3.50
   4  12   4    0.20    3.00
   4  12   4    3.80    3.10
   4 -12   4    5.30    4.50
   4 -12   4   -1.10    3.70
   4 -12   4    1.50    4.60
  -4  13   4    7.70    3.50
  -4  13   4    5.50    4.20
   4  13  -4    2.60    5.70
  -4 -13   4    5.40    4.70
  -4 -13   4   10.30    3.70
  -4  13   3    0.00    2.90
  -4  13   3   -1.10    3.70
   4 -13  -3   -0.30    3.50
  -4 -13   3    1.30    4.10
  -4 -13   3    0.00    3.20
   4  13  -2   21.20    2.90
  -4  13   2   14.10    4.00
  -4  13   2   23.70    2.80
  -4 -13   2   22.20    3.60
  -4 -13   2   14.30    4.20
   4 -13  -2   22.40    4.10
  -4  13   1   -1.60    3.40
  -4  13   1    0.40    2.10
   4  13  -1    4.10    2.60
  -4 -13   1    2.00    3.40
   4 -13  -1   -2.10    2.70
   4 -13  -1   -5.40    2.30
  -4 -13   1    1.90    3.20
   4  13   0    9.70    2.80
   4  13   0    3.80    2.30
  -4  13   0    5.20    2.90
  -4  13   0    5.50    3.00
   4 -13   0    0.20    5.00
   4 -13   0    2.70    3.60
  -4 -13   0    6.20    3.30
   4 -13   0    2.70    3.00
  -4 -13   0   10.60    3.30
  -4  13  -1    2.70    2.80
   4  13   1    4.00    2.80
  -4  13  -1   -6.60    3.80
   4  13   1    2.40    2.20
  -4 -13  -1   -2.80    3.20
   4 -13   1    1.90    2.80
   4 -13   1    3.70    3.10
   4 -13   1   -0.20    4.80
  -4 -13  -1    6.30    3.50
   4  13   2    5.60    3.00
   4  13   2    3.90    2.40
  -4  13  -2    7.60    2.90
   4 -13   2    5.00    3.70
  -4 -13  -2    8.70    3.50
   4 -13   2    5.10    3.90
   4 -13   2    6.90    3.90
   4  13   3    0.50    2.70
   4  13   3    5.60    3.20
   4 -13   3    1.10    3.80
  -4 -13  -3   -0.30    3.40
   4 -13   3    1.00    4.20
   4 -13   3   -1.30    4.60
   4  13   4    1.10    3.20
   4  13   4    5.20    3.30
   4 -13   4    2.10    4.70
   4 -13   4    2.10    5.30
   4 -13   4   -3.20    3.80
  -4  14   4    1.40    4.30
  -4  14   4    1.30    3.20
   4  14  -4   -1.50    5.80
  -4 -14   4    3.80    5.00
  -4 -14   4    0.00    3.40
  -4  14   3    1.30    3.20
  -4  14   3    5.10    4.10
  -4 -14   3    3.60    4.60
   4 -14  -3    1.20    3.90
  -4 -14   3    3.40    3.60
   4  14  -2    5.10    2.60
  -4  14   2    5.30    3.10
  -4  14   2   -3.60    3.50
  -4 -14   2    8.70    3.50
  -4 -14   2    4.70    4.20
   4 -14  -2    5.90    4.00
  -4  14   1    4.50    2.40
  -4  14   1    2.10    3.60
   4  14  -1    8.50    2.90
   4 -14  -1    4.70    3.10
   4 -14  -1   -6.80    5.50
  -4 -14   1    6.70    3.80
  -4 -14   1    5.60    2.80
  -4  14   0   -1.10    4.00
  -4  14   0    8.40    3.20
   4  14   0    7.30    3.00
   4  14   0    5.40    2.50
   4 -14   0    4.00    5.40
  -4 -14   0    3.70    4.00
   4 -14   0    4.90    3.10
  -4 -14   0   10.40    3.70
   4 -14   0   11.20    4.00
  -4  14  -1   17.30    3.40
   4  14   1   15.30    2.70
   4  14   1   18.70    3.40
  -4  14  -1    1.60    4.40
   4 -14   1   15.20    4.20
   4 -14   1   12.00    5.30
   4 -14   1   17.10    3.90
  -4 -14  -1   11.90    4.20
  -4 -14  -1   20.20    3.90
   4  14   2   10.40    3.40
   4  14   2    8.00    2.70
  -4  14  -2    8.50    3.10
   4 -14   2    9.70    4.00
   4 -14   2   10.90    4.20
  -4 -14  -2    8.50    3.90
   4 -14   2    4.80    5.20
   4  14   3    0.30    2.90
   4  14   3    4.80    3.40
   4 -14   3   -0.60    5.00
   4 -14   3   -1.90    4.00
  -4 -14  -3    0.70    3.60
   4 -14   3    0.80    4.40
  -4  15   3    7.10    3.40
  -4  15   3    3.10    4.20
  -4 -15   3    9.70    4.80
  -4 -15   3    3.70    3.70
  -4  15   2    1.10    3.30
   4  15  -2    1.40    2.70
  -4  15   2   -1.70    3.80
   4 -15  -2   -3.40    4.20
  -4 -15   2    3.20    3.90
  -4 -15   2    3.40    4.70
  -4  15   1    6.50    3.30
   4  15  -1    6.50    3.10
  -4  15   1   -1.40    4.00
  -4 -15   1    7.10    4.20
   4 -15  -1  -16.30    5.80
   4 -15  -1    2.10    3.30
  -4 -15   1    8.40    4.00
  -4  15   0   -0.40    3.20
  -4  15   0   -6.70    3.80
   4  15   0    7.20    3.10
  -4 -15   0    4.10    3.00
  -4 -15   0    2.90    3.90
   4 -15   0    3.40    4.30
   4 -15   0   -6.50    5.40
   4  15   1    7.80    3.40
  -4  15  -1  -12.00    4.10
   4  15   1   -1.60    2.70
  -4  15  -1    3.50    3.20
  -4 -15  -1    5.40    3.90
   4 -15   1   -2.50    3.20
  -4 -15  -1   -1.50    4.10
   4 -15   1   -1.90    5.50
   4 -15   1    2.00    3.60
   4  15   2    1.80    2.90
  -4  15  -2   -0.40    3.10
   4  15   2    3.20    3.40
   4 -15   2    4.20    3.90
   4 -15   2    2.10    4.40
  -4 -15  -2   -1.60    3.80
   4 -15   2    1.00    5.40
  -4  16   2   -0.80    3.60
  -4  16   2   -0.40    4.20
  -4 -16   2    4.10    4.30
  -4 -16   2    2.30    4.80
   4 -16  -2   -6.30    4.50
   4  16  -1    8.60    3.30
  -4  16   1   -4.70    4.20
  -4  16   1   -2.90    3.40
  -4 -16   1    1.30    4.20
   4 -16  -1  -16.80    6.00
  -4 -16   1    2.90    4.30
   4 -16  -1   -0.90    4.50
  -4  16   0   -3.00    3.30
  -4  16   0   -6.80    4.40
   4  16   0    7.80    3.20
   4 -16   0   -7.70    6.00
   4 -16   0   -1.10    4.60
  -4 -16   0    0.80    4.20
  -4 -16   0    1.60    4.70
   4  16   1    5.70    2.70
  -4  16  -1    4.40    3.50
   4 -16   1    6.70    3.70
  -4 -16  -1    5.70    4.30
  -4 -16  -1    2.30    4.60
   4 -16   1   -0.70    4.60
  -5   0   7   -1.20    2.90
  -5   0   6   68.69    5.10
  -5   0   5    1.80    1.90
  -5   0   5    0.10    1.10
   5   0  -4  134.39    4.10
  -5   0   4  137.79    4.50
  -5   0   4  137.19    6.10
  -5   0   4  138.79    4.40
   5   0  -3    0.90    2.00
   5   0  -3   -0.30    0.90
  -5   0   3   -0.10    1.00
  -5   0   3    0.00    1.30
  -5   0   3   -1.50    1.00
  -5   0   2  274.77    9.40
  -5   0   2  282.77   10.20
   5   0  -2  268.67    9.70
  -5   0   2  268.37    8.00
   5   0  -2  275.87    8.00
   5   0  -2  274.97   10.10
  -5   0   2  276.47    8.20
   5   0  -1   -2.40    1.10
  -5   0   1   -0.10    1.10
   5   0  -1    0.80    0.70
  -5   0   1    0.50    1.00
  -5   0   1    1.20    1.10
  -5   0   1    0.00    1.30
  -5   0   0   97.69    3.40
   5   0   0  109.79    4.60
   5   0   0  104.89    4.70
   5   0   0   96.19    3.30
  -5   0   0  102.29    4.30
  -5   0   0   95.89    3.70
   5   0   1   -1.30    1.80
  -5   0  -1    0.60    1.00
   5   0   1   -0.30    1.00
  -5   0  -1   -1.30    1.20
  -5   0  -1   -1.40    1.10
  -5   0  -1   -0.60    1.40
  -5   0  -2  154.18    6.60
   5   0   2  154.38    6.50
  -5   0  -2  155.18    5.10
   5   0   2  159.78    5.00
   5   0   3   -2.20    1.20
  -5   0  -3   -3.30    1.30
   5   0   3    1.70    1.90
   5   0   4  223.68    6.80
   5   0   4  214.38    8.50
  -5   0  -4  207.98    6.80
   5   0   4  209.18    8.90
   5   0   5    0.70    3.60
   5   0   6   79.79    6.80
  -5   1   7    0.80    3.00
  -5  -1   7    2.20    3.10
  -5   1   6   17.10    3.00
  -5   1   6   19.00    1.60
  -5  -1   6   20.10    3.00
  -5   1   5   54.19    2.40
  -5   1   5   53.99    4.30
  -5  -1   5   53.39    2.40
  -5  -1   5   52.39    4.20
  -5   1   4   90.29    4.80
  -5   1   4   86.89    3.20
   5   1  -4   80.99    2.60
  -5   1   4   82.39    3.10
  -5  -1   4   87.79    3.10
  -5  -1   4   85.09    4.30
   5  -1  -4   79.89    2.80
  -5  -1   4   81.29    3.10
  -5   1   3   66.29    2.70
  -5   1   3   71.49    3.80
   5   1  -3   69.59    2.50
   5   1  -3   71.29    3.80
  -5   1   3   69.09    2.70
  -5  -1   3   72.09    2.70
   5  -1  -3   70.59    2.50
   5  -1  -3   71.29    3.40
  -5  -1   3   67.79    3.50
  -5  -1   3   70.29    2.80
  -5   1   2  269.57   10.00
  -5   1   2  265.67    7.80
  -5   1   2  267.67    7.90
  -5   1   2  258.47    9.10
   5   1  -2  263.47    9.50
   5   1  -2  259.47    9.50
   5   1  -2  267.57    7.70
  -5  -1   2  250.77    7.70
  -5  -1   2  261.97    9.60
   5  -1  -2  264.37    9.80
  -5  -1   2  266.37    9.20
   5  -1  -2  266.97    9.40
   5  -1  -2  265.77    7.70
  -5  -1   2  268.87    7.90
   5   1  -1  151.98    4.60
  -5   1   1  147.09    5.60
  -5   1   1  141.79    4.60
   5   1  -1  148.69    5.90
  -5   1   1  148.39    5.90
  -5   1   1  147.79    4.70
   5  -1  -1  147.79    4.60
   5  -1  -1  154.08    6.20
  -5  -1   1  143.79    4.70
   5  -1  -1  145.09    5.90
  -5  -1   1  143.39    4.70
  -5  -1   1  146.29    5.70
   5   1   0 1014.70   28.10
  -5   1   0 1025.40   28.30
   5   1   0 1093.09   35.30
   5   1   0  984.80   32.30
  -5   1   0  992.40   32.20
  -5   1   0  981.10   28.10
  -5  -1   0 1008.70   28.20
   5  -1   0 1008.70   28.30
  -5  -1   0  979.80   32.20
  -5  -1   0  989.10   28.10
   5  -1   0 1024.00   32.40
   5  -1   0 1042.00   35.40
   5  -1   0 1031.20   28.10
  -5   1  -1   62.39    3.10
  -5   1  -1   64.89    3.50
  -5   1  -1   65.29    2.80
  -5   1  -1   64.99    2.80
   5   1   1   63.29    3.30
   5   1   1   60.19    2.40
  -5  -1  -1   63.19    2.80
  -5  -1  -1   63.39    2.60
   5  -1   1   58.69    2.50
  -5  -1  -1   64.39    3.10
   5  -1   1   61.69    3.00
   5  -1   1   59.39    3.70
   5  -1   1   65.89    3.20
  -5  -1  -1   57.79    3.30
  -5   1  -2  511.05   20.00
  -5   1  -2  529.65   14.80
   5   1   2  526.05   14.70
   5   1   2  482.95   17.10
   5  -1   2  526.25   14.70
  -5  -1  -2  519.25   14.80
   5  -1   2  514.15   17.30
  -5  -1  -2  520.45   19.40
   5   1   3    1.00    2.30
  -5   1  -3    2.70    1.10
   5   1   3    0.10    1.30
  -5   1  -3    0.60    1.50
   5  -1   3    0.00    2.50
   5  -1   3    1.20    1.30
  -5  -1  -3    2.70    1.50
   5  -1   3    3.10    1.30
   5   1   4    0.70    1.40
  -5   1  -4    1.60    1.50
   5   1   4    4.00    2.80
   5  -1   4    4.40    2.40
  -5  -1  -4    2.70    1.70
   5  -1   4    2.60    1.50
   5  -1   4    2.40    1.60
   5   1   5    2.10    3.30
   5  -1   5   -0.90    3.50
   5   1   6    4.30    3.90
   5  -1   6    4.00    4.40
  -5   2   7   19.50    4.00
  -5  -2   7   14.50    4.60
  -5   2   6    2.90    2.90
  -5   2   6   -0.70    1.10
  -5  -2   6    0.20    2.30
  -5   2   5   42.10    2.30
  -5   2   5   44.60    4.20
  -5  -2   5   41.60    2.20
  -5  -2   5   40.80    3.70
   5   2  -4    0.60    0.60
  -5   2   4    1.30    1.30
   5   2  -4    1.60    2.70
  -5   2   4    1.80    1.80
  -5   2   4    1.50    1.20
   5   2  -4    1.60    0.70
   5  -2  -4    0.70    0.90
  -5  -2   4    1.10    1.40
  -5  -2   4   -1.60    1.10
  -5  -2   4    1.50    1.20
   5   2  -3   86.49    3.10
  -5   2   3   92.19    4.10
  -5   2   3   93.39    3.30
  -5   2   3   90.29    3.40
  -5   2   3   91.59    4.60
   5   2  -3   94.39    4.50
   5  -2  -3   92.29    4.30
  -5  -2   3   87.19    3.30
  -5  -2   3   87.69    3.20
   5  -2  -3   88.89    3.10
  -5  -2   3   88.79    4.00
   5   2  -2    0.40    0.90
  -5   2   2    0.00    1.40
  -5   2   2    2.00    1.30
  -5   2   2    1.00    1.10
   5   2  -2    2.70    0.60
  -5   2   2    0.90    1.20
   5  -2  -2    0.70    0.90
   5  -2  -2    0.80    1.20
   5  -2  -2    1.60    1.20
  -5  -2   2    0.90    1.10
  -5  -2   2    1.60    0.80
   5   2  -1   30.30    1.70
  -5   2   1   31.50    2.30
  -5   2   1   31.90    1.60
  -5   2   1   34.50    2.70
  -5   2   1   32.20    2.00
   5   2  -1   26.50    2.20
   5  -2  -1   33.70    1.90
   5  -2  -1   25.90    2.80
   5  -2  -1   34.50    2.80
  -5  -2   1   32.00    1.90
  -5  -2   1   33.80    2.60
   5  -2  -1   33.50    1.80
   5  -2  -1   30.80    2.10
  -5   2   0   18.40    1.50
  -5   2   0   16.30    1.50
   5   2   0   18.90    1.60
   5   2   0   20.50    2.60
   5  -2   0   19.10    1.60
  -5  -2   0   24.00    1.90
  -5  -2   0   20.50    2.20
   5  -2   0   25.10    2.50
   5  -2   0   19.80    2.10
  -5   2  -1   16.20    2.40
  -5   2  -1   12.90    1.80
   5   2   1   13.40    1.40
   5   2   1   12.70    2.20
  -5   2  -1   13.50    1.60
  -5   2  -1   10.30    1.50
   5  -2   1   17.00    2.40
  -5  -2  -1   12.20    1.50
   5  -2   1   11.30    1.40
   5  -2   1   11.70    1.40
  -5  -2  -1   12.70    1.60
  -5  -2  -1   10.80    1.90
   5  -2   1   12.30    2.20
   5   2   2   14.20    1.70
  -5   2  -2   18.00    2.00
   5   2   2   24.30    3.20
   5  -2   2   20.50    2.40
   5  -2   2   24.90    3.30
   5  -2   2   13.70    1.70
  -5  -2  -2   18.00    2.10
   5  -2   2   19.60    2.50
  -5   2  -3    0.10    1.30
   5   2   3   -0.30    2.50
  -5   2  -3    1.70    1.40
   5   2   3   -1.10    1.20
   5  -2   3    0.30    1.30
   5  -2   3   -0.40    2.50
   5  -2   3    1.60    1.50
  -5  -2  -3    1.00    1.60
   5   2   4    2.00    3.00
   5   2   4    1.30    1.50
  -5   2  -4    0.00    1.50
  -5  -2  -4   -0.20    1.50
   5  -2   4    0.40    1.40
   5  -2   4    1.10    1.80
   5  -2   4    1.50    3.10
   5   2   5   11.40    3.40
   5  -2   5   13.80    4.00
   5   2   6    2.70    4.00
   5  -2   6    1.60    4.00
  -5   3   7    0.90    3.30
  -5  -3   7   -4.30    4.10
  -5   3   6    8.50    3.30
  -5   3   6    9.20    1.40
  -5  -3   6    8.50    3.70
  -5  -3   6    5.90    2.30
  -5   3   5   62.99    5.30
  -5   3   5   62.09    2.80
  -5  -3   5   61.29    2.70
  -5  -3   5   57.29    4.00
  -5   3   4   22.50    1.90
   5   3  -4   23.70    1.40
   5   3  -4   25.20    2.90
  -5   3   4   26.90    3.60
  -5   3   4   25.90    2.00
   5   3  -4   22.60    1.30
  -5  -3   4   22.50    2.50
  -5  -3   4   26.30    1.90
   5   3  -3  148.59    6.30
  -5   3   3  141.79    5.50
  -5   3   3  148.29    4.80
   5   3  -3  146.19    4.60
  -5   3   3  154.28    4.80
  -5   3   3  146.99    5.70
  -5   3   3  146.89    6.60
   5  -3  -3  141.09    4.90
  -5  -3   3  146.49    5.60
  -5  -3   3  149.19    4.80
   5   3  -2  105.09    3.50
  -5   3   2  103.59    4.30
  -5   3   2  102.49    3.60
  -5   3   2  100.59    3.70
  -5   3   2  102.49    5.10
  -5  -3   2  100.79    3.70
   5  -3  -2  101.99    3.50
  -5  -3   2  104.39    3.80
   5  -3  -2  102.29    3.80
   5  -3  -2  100.69    5.00
  -5   3   1  196.68    7.00
   5   3  -1  197.98    6.10
  -5   3   1  196.68    8.00
  -5   3   1  201.38    6.10
   5   3  -1  197.28    7.30
  -5   3   1  206.98    6.30
   5  -3  -1  202.88    8.10
   5  -3  -1  200.68    6.40
  -5  -3   1  191.68    6.10
  -5  -3   1  197.88    7.30
   5  -3  -1  192.38    7.50
   5  -3  -1  208.98    6.10
  -5   3   0  476.95   19.00
  -5   3   0  497.15   13.90
   5   3   0  482.55   13.80
  -5   3   0  474.15   15.90
  -5   3   0  494.05   14.00
  -5   3   0  466.05   17.60
  -5  -3   0  486.65   16.10
  -5  -3   0  493.25   13.90
   5  -3   0  495.15   17.70
   5  -3   0  474.15   14.00
   5  -3   0  508.95   13.90
   5  -3   0  491.65   16.20
  -5   3  -1  126.19    4.40
   5   3   1  129.09    4.20
   5   3   1  123.89    5.40
  -5   3  -1  129.49    6.00
  -5   3  -1  121.69    5.10
  -5   3  -1  123.59    4.30
   5  -3   1  119.19    5.40
   5  -3   1  124.79    5.50
   5  -3   1  125.79    4.60
  -5  -3  -1  119.99    4.20
   5  -3   1  128.89    4.20
  -5  -3  -1  126.99    5.30
  -5   3  -2  261.57    7.90
   5   3   2  257.97    7.80
   5   3   2  250.77    9.40
   5  -3   2  260.97    9.70
   5  -3   2  262.17    8.20
  -5  -3  -2  266.77    8.00
   5  -3   2  249.78   10.70
   5  -3   2  257.47    7.80
  -5   3  -3   19.10    2.10
   5   3   3   22.20    2.80
   5   3   3   16.20    1.90
  -5   3  -3   16.20    2.30
  -5  -3  -3   22.40    2.00
   5  -3   3   18.60    3.20
   5  -3   3   22.40    2.50
   5  -3   3   17.00    2.30
   5  -3   3   17.70    1.90
   5   3   4   10.80    2.80
  -5   3  -4    4.20    1.60
  -5  -3  -4    7.50    1.90
   5  -3   4    6.70    3.40
   5  -3   4    7.40    2.20
   5   3   5   13.40    3.60
   5  -3   5   11.20    2.60
   5  -3   5   10.80    4.10
   5   3   6    4.20    4.00
   5  -3   6    5.00    4.30
  -5   4   7    3.10    3.60
  -5  -4   7   -8.00    4.20
  -5   4   6   41.10    2.60
  -5   4   6   44.40    5.40
  -5  -4   6   45.40    6.50
  -5   4   5    5.10    2.80
  -5   4   5    5.50    1.60
  -5  -4   5    4.30    1.50
  -5  -4   5    4.80    2.70
  -5  -4   5    2.10    1.60
  -5   4   4   93.29    3.60
   5   4  -4  101.59    5.50
  -5   4   4   98.19    5.50
   5   4  -4   86.29    3.10
  -5   4   4   97.39    3.70
  -5   4   4   88.79    4.20
  -5  -4   4   92.89    3.50
  -5  -4   4   95.49    4.20
   5  -4  -4   89.99    3.50
  -5   4   3   16.50    2.10
  -5   4   3   13.30    1.60
  -5   4   3   12.00    2.20
  -5   4   3   14.20    2.00
  -5   4   3   15.60    1.70
   5   4  -3   15.90    2.90
   5   4  -3   10.90    1.30
  -5  -4   3   10.00    1.40
  -5  -4   3   13.30    1.60
   5  -4  -3   11.90    1.60
  -5   4   2  167.18    6.10
  -5   4   2  171.18    5.40
  -5   4   2  172.08    7.40
  -5   4   2  172.48    5.50
  -5   4   2  170.98    6.10
  -5  -4   2  162.98    5.40
   5  -4  -2  161.78    7.20
   5  -4  -2  169.38    5.60
  -5   4   1    1.20    1.30
  -5   4   1    1.50    1.70
  -5   4   1    1.50    1.50
   5   4  -1   -1.90    1.00
  -5   4   1    1.30    1.30
  -5   4   1    0.40    1.20
   5  -4  -1    1.60    1.80
   5  -4  -1    1.00    1.20
   5  -4  -1    1.00    0.90
  -5  -4   1    0.90    1.60
  -5  -4   1   -1.00    1.30
   5  -4  -1   -0.20    1.50
  -5   4   0   44.40    3.30
  -5   4   0   39.50    2.60
   5   4   0   39.50    1.90
  -5   4   0   38.10    2.00
  -5   4   0   48.20    2.40
  -5   4   0   44.90    3.50
   5  -4   0   38.80    2.30
   5  -4   0   44.30    2.00
   5  -4   0   43.10    3.30
   5  -4   0   49.90    3.40
  -5  -4   0   40.60    2.10
  -5  -4   0   46.40    3.00
  -5   4  -1   -0.60    1.00
   5   4   1    1.20    1.80
   5   4   1   -1.10    1.20
  -5   4  -1    1.80    1.60
   5  -4   1    1.10    1.90
  -5  -4  -1    3.00    1.60
   5  -4   1    2.40    1.70
  -5  -4  -1   -0.90    1.50
  -5  -4  -1    1.90    0.80
   5  -4   1   -3.50    1.60
   5  -4   1    1.30    1.00
  -5   4  -2  104.49    6.00
   5   4   2  106.09    4.00
  -5   4  -2  114.49    4.10
   5   4   2  109.79    5.20
  -5  -4  -2  114.29    4.20
  -5  -4  -2  114.09    5.50
   5  -4   2  107.29    4.50
   5  -4   2  109.19    5.90
   5  -4   2  110.39    5.70
   5  -4   2  109.09    3.90
  -5   4  -3    0.20    1.40
  -5   4  -3   -0.50    2.10
   5   4   3    0.40    2.50
   5   4   3   -1.70    1.40
   5  -4   3    0.30    1.40
   5  -4   3   -0.40    2.00
   5  -4   3   -0.70    1.90
   5  -4   3   -0.40    1.40
   5  -4   3    0.80    2.80
  -5  -4  -3    2.30    1.70
  -5   4  -4  140.29    4.90
   5   4   4  141.99    6.60
  -5  -4  -4  130.19    5.10
   5  -4   4  135.69    7.20
   5  -4   4  139.69    7.40
   5  -4   4  146.29    5.50
   5   4   5   -0.30    2.80
   5  -4   5    1.00    2.50
   5  -4   5    1.70    3.90
   5   4   6   54.99    6.40
   5  -4   6   55.19    7.20
  -5   5   6   17.70    3.60
  -5   5   6   18.20    2.00
  -5  -5   6   20.00    2.20
  -5  -5   6   15.90    4.40
  -5   5   5   34.20    4.80
  -5   5   5   30.20    2.70
   5   5  -5   36.90    3.90
  -5  -5   5   27.20    2.90
  -5  -5   5   29.00    2.70
  -5  -5   5   27.60    4.30
   5   5  -4  117.99    6.00
  -5   5   4  102.59    4.00
  -5   5   4  101.39    4.50
  -5   5   4  112.29    4.10
  -5   5   4  107.09    6.10
  -5  -5   4  110.59    4.10
  -5  -5   4  112.09    6.60
   5  -5  -4  104.59    4.10
  -5  -5   4  100.79    4.40
   5   5  -3   13.20    1.50
  -5   5   3   15.50    1.80
  -5   5   3   14.80    2.50
  -5   5   3   17.50    2.20
  -5   5   3   14.70    2.10
  -5   5   3   14.90    1.70
  -5  -5   3   15.20    2.60
  -5  -5   3   14.70    1.80
   5  -5  -3   13.20    1.90
  -5   5   2  242.88    7.50
  -5   5   2  237.78    8.40
  -5   5   2  248.88   10.00
  -5   5   2  246.98    8.60
  -5   5   2  244.58    7.60
  -5  -5   2  253.47   10.30
  -5  -5   2  231.58    7.40
   5  -5  -2  248.68    7.70
  -5   5   1   57.69    2.90
  -5   5   1   61.69    2.80
  -5   5   1   55.39    2.50
  -5   5   1   53.49    3.60
  -5  -5   1   59.69    3.60
   5  -5  -1   53.59    3.10
   5  -5  -1   55.89    3.80
  -5  -5   1   53.09    2.50
  -5   5   0  678.73   25.30
  -5   5   0  689.03   27.30
  -5   5   0  698.23   22.60
  -5   5   0  707.23   20.00
  -5   5   0  723.83   19.90
  -5  -5   0  691.73   19.90
   5  -5   0  727.73   23.00
   5  -5   0  679.03   19.80
   5  -5   0  714.33   20.10
  -5  -5   0  719.33   26.70
  -5  -5   0  714.23   22.90
  -5   5  -1   20.50    3.10
  -5   5  -1   18.30    1.90
   5   5   1   16.40    1.70
   5  -5   1   16.50    2.60
   5  -5   1   16.20    1.70
  -5  -5  -1   17.50    2.20
   5  -5   1   13.70    2.40
  -5  -5  -1   15.20    1.90
   5  -5   1   12.50    2.20
  -5  -5  -1   18.30    2.00
  -5   5  -2  444.46   13.10
   5   5   2  469.25   15.40
  -5   5  -2  473.35   18.70
   5   5   2  424.16   13.00
   5  -5   2  447.16   15.60
  -5  -5  -2  449.95   13.30
   5  -5   2  452.55   13.10
   5  -5   2  439.96   13.40
  -5  -5  -2  487.75   16.10
   5  -5   2  434.56   18.10
   5   5   3   24.70    3.10
  -5   5  -3   25.00    2.30
   5   5   3   19.00    2.00
   5  -5   3   24.20    3.50
  -5  -5  -3   22.80    2.60
   5  -5   3   20.10    2.10
   5  -5   3   21.40    1.90
   5  -5   3   18.90    3.10
   5  -5   3   24.50    2.60
   5   5   4    6.10    2.90
  -5   5  -4    6.30    1.60
   5  -5   4    5.10    2.60
  -5  -5  -4    7.10    2.20
   5  -5   4    6.00    2.70
   5  -5   4    5.40    2.80
   5   5   5    2.40    3.10
   5  -5   5    2.80    2.80
   5  -5   5    3.30    4.00
   5  -5   5    3.00    2.70
   5  -5   6    5.80    4.90
  -5   6   6    1.90    1.80
  -5   6   6    2.70    3.40
  -5  -6   6    0.90    1.70
  -5  -6   6   -0.60    4.00
   5   6  -5   22.10    4.40
  -5   6   5   10.10    2.00
  -5   6   5   11.00    3.20
  -5  -6   5   10.60    3.00
  -5  -6   5   12.30    2.00
  -5   6   4    1.60    1.70
   5   6  -4    5.70    3.60
  -5   6   4    1.60    1.40
  -5   6   4    0.20    1.80
   5   6  -4    3.10    0.90
  -5   6   4    4.30    2.60
   5  -6  -4    3.10    1.70
  -5  -6   4    1.20    0.90
  -5  -6   4    1.50    2.80
  -5  -6   4    2.20    1.80
  -5   6   3   34.80    2.60
  -5   6   3   37.00    4.30
   5   6  -3   32.90    2.30
  -5   6   3   33.60    2.60
  -5   6   3   32.90    2.30
  -5   6   3   39.00    2.60
   5  -6  -3   34.30    2.70
  -5  -6   3   37.00    2.50
  -5  -6   3   37.30    4.30
  -5   6   2    3.00    1.50
   5   6  -2    4.70    1.40
  -5   6   2    3.80    1.20
  -5   6   2    2.30    1.30
  -5   6   2    4.90    1.60
  -5   6   2    3.70    2.30
   5  -6  -2    4.60    1.90
  -5  -6   2    5.40    2.10
  -5  -6   2    6.70    1.60
  -5   6   1   27.40    2.20
  -5   6   1   32.00    2.30
  -5   6   1   26.70    3.70
  -5   6   1   26.50    2.40
  -5  -6   1   33.40    2.50
  -5  -6   1   35.40    3.40
   5  -6  -1   31.10    2.80
   5  -6  -1   25.70    3.40
  -5   6   0   23.30    2.20
  -5   6   0   28.20    3.80
  -5   6   0   27.70    2.40
   5   6   0   27.20    1.80
   5  -6   0   26.60    3.20
  -5  -6   0   26.80    2.70
  -5  -6   0   28.10    2.70
  -5  -6   0   26.80    2.50
   5  -6   0   27.70    2.80
  -5   6  -1    5.00    1.70
  -5  -6  -1    4.10    1.80
   5  -6   1    5.90    2.10
   5  -6   1    5.60    1.50
   5  -6   1    4.90    2.40
  -5  -6  -1    5.20    1.80
   5  -6   1    4.60    2.40
  -5  -6  -1    3.50    1.30
  -5   6  -2   30.60    2.50
   5   6   2   30.90    3.60
   5  -6   2   31.80    2.40
   5  -6   2   31.40    4.40
  -5  -6  -2   31.00    2.40
   5  -6   2   37.30    4.30
   5  -6   2   29.40    2.50
  -5   6  -3    0.80    1.60
   5   6   3    1.40    2.60
   5  -6   3    1.00    2.50
  -5  -6  -3    2.40    2.00
   5  -6   3    1.20    1.60
   5  -6   3    1.30    2.30
   5  -6   3    1.30    2.40
  -5   6  -4    4.30    1.90
   5   6   4    5.70    2.90
   5  -6   4    8.80    2.50
   5  -6   4    4.90    3.00
   5  -6   4    7.40    3.80
  -5  -6  -4    2.70    2.40
   5   6   5    7.10    3.10
   5  -6   5    7.40    2.70
   5  -6   5    2.60    3.20
   5  -6   5    3.10    4.30
   5   6   6    5.70    2.80
  -5   7   6    0.90    3.60
  -5   7   6    0.80    2.00
  -5  -7   6   -0.60    3.30
  -5  -7   6    0.00    1.80
  -5   7   5   49.10    5.80
  -5   7   5   48.00    3.40
   5   7  -5   51.49    4.70
  -5  -7   5   45.80    3.30
  -5  -7   5   43.40    6.20
  -5   7   4    4.40    2.80
   5   7  -4    2.50    1.30
  -5   7   4    3.10    1.80
   5   7  -4    4.20    3.80
  -5  -7   4    2.90    3.10
   5  -7  -4    2.90    1.90
  -5  -7   4    5.20    2.00
  -5   7   3  121.59    6.60
  -5   7   3  110.19    4.80
  -5   7   3  113.59    4.40
  -5   7   3  121.59    4.70
   5   7  -3  106.49    4.10
  -5   7   3  105.79    4.30
  -5  -7   3  120.29    6.70
   5  -7  -3  118.09    4.70
  -5  -7   3  111.79    4.40
  -5   7   2   17.50    1.80
  -5   7   2   15.90    1.70
   5   7  -2   16.20    1.90
  -5   7   2   12.60    2.80
  -5   7   2   15.00    1.70
  -5   7   2   15.40    2.00
  -5  -7   2   15.90    2.50
  -5  -7   2   16.50    2.00
   5  -7  -2   15.00    2.40
  -5   7   1  129.29    4.90
   5   7  -1  124.49    4.50
  -5   7   1  123.99    6.60
  -5   7   1  132.69    4.80
  -5   7   1  131.39    4.60
  -5  -7   1  135.09    6.30
   5  -7  -1  126.59    5.90
  -5  -7   1  119.09    4.50
   5  -7  -1  126.19    5.10
  -5   7   0   83.19    5.50
  -5   7   0   89.49    3.90
  -5   7   0   87.49    4.00
   5   7   0   85.99    3.70
   5  -7   0   92.49    4.70
   5  -7   0   87.19    4.30
   5  -7   0   81.09    6.00
  -5  -7   0   84.59    3.60
  -5  -7   0   90.49    4.70
  -5   7  -1  101.09    4.20
   5   7   1  105.49    4.70
  -5  -7  -1  102.09    5.20
   5  -7   1  105.29    6.60
   5  -7   1  102.69    4.70
   5  -7   1  104.69    5.50
  -5  -7  -1  108.09    4.50
  -5  -7  -1   98.99    5.20
  -5   7  -2   61.79    3.30
  -5  -7  -2   64.29    3.70
   5  -7   2   62.79    4.00
   5  -7   2   60.19    5.50
   5  -7   2   53.89    4.10
  -5   7  -3   36.40    2.80
   5   7   3   42.20    4.00
   5  -7   3   32.20    5.10
   5  -7   3   34.40    4.20
   5  -7   3   39.20    2.70
   5  -7   3   38.60    3.70
  -5  -7  -3   37.80    3.40
   5   7   4    4.90    2.70
   5  -7   4    3.20    2.90
  -5  -7  -4    2.90    2.30
   5  -7   4    2.90    3.30
   5  -7   4    6.30    3.10
   5   7   5   12.70    2.80
   5   7   5   13.30    3.60
   5  -7   5   11.00    3.10
   5  -7   5   11.40    3.70
   5  -7   5   11.80    4.60
  -5   8   6   10.10    4.00
  -5   8   6    8.20    2.30
  -5  -8   6    6.40    4.70
  -5  -8   6    7.20    2.20
  -5   8   5    8.30    2.40
  -5   8   5    5.40    3.40
   5   8  -5   14.50    4.90
  -5  -8   5    5.30    2.30
  -5  -8   5    6.60    4.00
  -5   8   4   34.00    3.10
   5   8  -4   36.10    5.30
  -5   8   4   41.20    5.40
   5  -8  -4   28.70    3.00
  -5  -8   4   34.20    5.60
  -5  -8   4   32.70    3.50
  -5   8   3   14.50    2.10
  -5   8   3   15.50    1.60
   5   8  -3   16.80    2.00
  -5   8   3   11.60    3.10
  -5   8   3   16.60    2.30
   5  -8  -3   15.60    2.50
  -5  -8   3   18.10    2.30
  -5  -8   3   12.70    3.20
  -5   8   2   57.19    5.20
  -5   8   2   48.50    3.20
  -5   8   2   48.30    2.60
   5   8  -2   49.10    3.00
  -5   8   2   47.80    2.50
  -5  -8   2   49.70    3.20
   5  -8  -2   49.80    3.60
  -5  -8   2   50.29    4.70
   5   8  -1    1.50    1.80
  -5   8   1    0.60    1.30
  -5   8   1    0.40    0.90
  -5   8   1    0.80    1.90
  -5   8   1    0.30    1.90
  -5  -8   1    1.90    2.00
   5  -8  -1   -1.40    2.20
  -5  -8   1    1.10    2.00
   5  -8  -1   -2.00    2.30
   5   8   0    3.20    1.10
  -5   8   0    2.50    2.60
  -5   8   0    2.90    1.90
  -5   8   0    6.30    1.70
   5   8   0    8.50    2.00
   5  -8   0    0.60    3.00
   5  -8   0    4.50    2.60
   5  -8   0    2.40    2.40
  -5  -8   0    4.20    2.00
  -5  -8   0    7.40    2.20
   5   8   1    1.10    1.30
  -5   8  -1    0.10    1.40
   5  -8   1   -0.30    2.50
   5  -8   1   -1.70    2.30
  -5  -8  -1   -1.70    1.70
   5  -8   1   -4.00    2.90
  -5  -8  -1    1.90    1.70
  -5   8  -2   38.50    3.10
   5   8   2   33.00    3.40
   5  -8   2   33.90    3.70
   5  -8   2   38.90    4.80
   5  -8   2   37.00    5.40
  -5  -8  -2   39.90    3.50
   5   8   3   -0.80    2.20
  -5   8  -3   -1.50    1.90
   5  -8   3    0.40    3.10
  -5  -8  -3    0.00    2.40
   5  -8   3   -2.30    2.60
   5  -8   3    0.10    3.40
   5   8   4   51.29    4.20
   5   8   4   43.80    5.30
   5   8   4   34.50    4.10
   5  -8   4   37.40    5.00
  -5  -8  -4   42.00    3.70
   5  -8   4   45.80    6.60
   5  -8   4   42.60    4.20
   5   8   5    0.30    3.40
   5   8   5    2.00    2.70
   5  -8   5    3.10    3.40
   5  -8   5    3.20    4.40
   5  -8   5    1.20    3.10
  -5   9   6    9.50    2.70
  -5   9   6    6.70    4.20
   5   9  -6   15.50    5.60
  -5  -9   6    7.40    2.50
  -5  -9   6    5.80    4.70
   5   9  -5   18.20    5.50
  -5   9   5   14.50    3.90
  -5   9   5   10.10    2.60
  -5  -9   5   13.10    2.70
  -5  -9   5   13.60    4.40
  -5   9   4   57.99    3.80
   5   9  -4   52.09    6.40
  -5   9   4   60.19    6.30
  -5  -9   4   62.09    6.50
  -5  -9   4   62.09    4.20
   5   9  -3    1.70    1.90
  -5   9   3   -2.70    2.30
  -5   9   3   -0.60    3.10
  -5  -9   3    2.00    2.50
   5  -9  -3   -0.30    2.40
  -5  -9   3    1.90    3.10
  -5   9   2   88.59    3.60
  -5   9   2   93.79    6.50
  -5   9   2   95.19    4.40
   5   9  -2   94.39    4.10
  -5  -9   2   85.49    3.90
   5  -9  -2   94.19    4.80
  -5  -9   2   97.69    6.10
   5   9  -1    6.40    2.10
  -5   9   1    9.30    1.50
  -5   9   1    6.10    2.20
  -5   9   1    6.10    2.90
   5  -9  -1    3.50    2.60
   5  -9  -1    7.00    2.20
  -5  -9   1    7.70    2.50
  -5  -9   1    6.80    1.80
  -5   9   0  232.58   10.40
  -5   9   0  229.58    7.50
   5   9   0  220.88    8.40
   5   9   0  229.08    7.60
   5  -9   0  226.38    8.00
  -5  -9   0  210.08    9.70
   5  -9   0  206.98   10.70
   5  -9   0  227.68    8.70
  -5  -9   0  222.48    7.60
   5   9   1    0.40    1.50
  -5   9  -1    0.00    1.60
   5   9   1    2.20    2.30
   5  -9   1    2.20    2.80
  -5  -9  -1    2.10    2.40
   5  -9   1    0.70    3.40
   5  -9   1    1.30    2.10
  -5  -9  -1   -2.30    2.10
   5   9   2  170.58    7.60
   5   9   2  176.28    6.30
  -5   9  -2  178.58    6.40
  -5  -9  -2  183.88    6.80
   5  -9   2  175.68    7.10
   5  -9   2  176.68    9.80
   5  -9   2  174.88    8.20
  -5   9  -3   16.50    2.40
   5   9   3   15.30    2.80
   5   9   3   21.80    3.00
   5  -9   3   13.30    4.20
  -5  -9  -3   15.70    3.00
   5  -9   3   14.70    3.90
   5  -9   3   17.80    3.30
   5   9   4    3.50    2.90
   5   9   4    9.30    2.90
   5  -9   4    3.90    3.70
   5  -9   4    8.20    3.50
   5  -9   4   14.40    4.60
   5   9   5    6.30    3.30
   5   9   5   -0.50    3.40
   5  -9   5    2.60    4.90
   5  -9   5    1.60    3.00
   5  -9   5    7.80    3.90
  -5  10   5   -1.00    3.70
   5  10  -5    5.80    5.20
  -5  10   5    1.60    2.80
  -5 -10   5    3.10    2.80
  -5 -10   5    0.40    4.30
  -5  10   4    3.40    2.50
   5  10  -4   -2.10    5.20
  -5  10   4    1.00    3.50
  -5 -10   4    2.80    3.80
  -5 -10   4    3.60    2.80
  -5  10   3    6.40    2.50
  -5  10   3    3.40    3.40
   5  10  -3    8.50    1.90
  -5 -10   3    7.10    3.50
  -5 -10   3   10.50    2.90
   5 -10  -3    4.20    2.80
   5  10  -2    3.90    2.00
  -5  10   2    2.30    2.40
  -5  10   2    3.00    2.40
  -5 -10   2    3.90    2.40
  -5 -10   2    1.20    3.00
   5 -10  -2    3.50    2.80
  -5  10   1   10.00    2.50
  -5  10   1   10.80    3.30
   5  10  -1   12.00    2.40
   5 -10  -1    8.40    3.10
  -5 -10   1   10.40    2.10
  -5 -10   1   10.90    2.80
   5 -10  -1    6.20    2.80
   5  10   0    4.00    1.40
   5  10   0    7.30    2.40
  -5  10   0    6.40    2.40
  -5  10   0    3.20    3.30
  -5 -10   0    7.60    2.60
   5 -10   0   -1.50    3.80
   5 -10   0    7.50    3.10
  -5 -10   0   10.70    2.70
   5 -10   0    4.30    2.90
  -5  10  -1   12.30    2.00
   5  10   1   11.40    2.60
   5  10   1    8.20    1.80
   5 -10   1    4.90    3.80
   5 -10   1   11.60    3.20
  -5 -10  -1   13.80    2.90
   5 -10   1    6.70    3.10
  -5 -10  -1    6.30    2.60
   5  10   2   11.80    2.30
   5  10   2   14.20    2.30
  -5  10  -2   17.40    2.60
   5 -10   2   12.50    3.30
  -5 -10  -2   17.60    3.10
   5 -10   2    9.70    4.10
   5 -10   2   15.00    3.60
   5  10   3    2.50    2.30
   5  10   3    2.80    2.80
  -5  10  -3    1.20    2.50
   5 -10   3   -0.50    3.20
   5 -10   3    0.30    3.80
  -5 -10  -3    7.10    2.90
   5 -10   3    3.90    3.90
   5  10   4    5.30    3.00
   5  10   4    3.90    3.00
   5 -10   4    8.10    4.10
   5 -10   4    9.40    4.70
   5 -10   4    4.60    3.40
   5  10   5    5.00    3.20
   5  10   5    3.80    3.70
   5 -10   5    3.70    5.10
   5 -10   5    5.20    3.80
   5 -10   5    6.20    4.40
  -5  11   5   17.50    4.50
   5  11  -5   27.90    6.50
  -5  11   5   17.70    3.10
  -5 -11   5   18.20    4.80
  -5 -11   5   16.90    3.20
  -5  11   4    1.60    2.60
  -5  11   4   -0.70    3.70
   5  11  -4   -6.70    5.40
  -5 -11   4    0.10    3.90
  -5 -11   4    3.20    2.80
   5  11  -3   42.20    3.60
  -5  11   3   32.40    4.40
  -5  11   3   36.40    3.10
  -5 -11   3   47.80    6.20
   5 -11  -3   38.60    3.90
  -5 -11   3   41.50    4.10
  -5  11   2   -1.80    2.40
  -5  11   2   -2.70    3.30
   5  11  -2   -0.70    2.00
   5 -11  -2   -4.60    3.00
  -5 -11   2   -0.50    3.30
  -5 -11   2    0.60    2.00
  -5  11   1   41.80    3.90
  -5  11   1   37.50    5.70
   5  11  -1   46.70    3.60
  -5 -11   1   39.50    3.20
   5 -11  -1   41.00    4.70
  -5 -11   1   37.80    5.00
   5 -11  -1   32.50    3.60
   5  11   0    3.90    1.60
  -5  11   0    1.90    3.40
  -5  11   0    3.00    1.90
   5  11   0    4.20    2.50
   5 -11   0    5.60    2.90
  -5 -11   0    3.10    2.80
   5 -11   0   -3.40    4.20
  -5 -11   0    6.00    2.90
   5 -11   0    2.50    3.20
   5  11   1   40.40    3.80
  -5  11  -1   44.40    3.90
   5  11   1   37.00    4.00
   5 -11   1   35.10    4.80
  -5 -11  -1   36.40    3.30
   5 -11   1   40.70    4.80
  -5 -11  -1   28.60    4.90
   5 -11   1   24.00    5.00
   5  11   2    4.20    2.30
  -5  11  -2   11.00    2.70
   5  11   2    8.20    2.30
   5 -11   2    5.10    4.40
   5 -11   2    6.90    4.00
  -5 -11  -2   10.30    3.10
   5 -11   2    6.80    2.70
   5  11   3    6.90    2.60
   5  11   3   16.20    3.20
  -5  11  -3   12.20    3.00
   5 -11   3   11.30    4.30
   5 -11   3   10.60    4.50
  -5 -11  -3    8.80    3.30
   5 -11   3   10.60    3.60
   5  11   4    1.40    3.40
   5  11   4    0.00    3.00
   5 -11   4   -1.10    4.60
   5 -11   4   -0.80    3.50
   5 -11   4    2.30    4.30
  -5  12   5    5.50    3.40
  -5  12   5    3.70    4.40
  -5 -12   5    3.50    3.20
  -5 -12   5    6.30    5.10
  -5  12   4    6.10    3.30
  -5  12   4    6.00    4.10
   5  12  -4    1.20    6.20
  -5 -12   4   13.50    3.50
  -5 -12   4    9.70    4.60
  -5  12   3    3.70    2.80
  -5  12   3    2.40    3.70
   5 -12  -3    4.30    3.80
  -5 -12   3   10.00    4.20
  -5 -12   3    6.00    3.10
  -5  12   2    4.90    2.20
   5  12  -2    8.00    2.40
  -5  12   2    3.50    3.70
   5 -12  -2    7.20    3.60
  -5 -12   2    9.60    3.20
  -5 -12   2    8.10    3.80
  -5  12   1    1.50    2.10
   5  12  -1    1.20    1.80
  -5  12   1    0.30    3.60
  -5 -12   1    1.70    3.10
  -5 -12   1    1.80    3.00
   5 -12  -1   -6.50    2.70
   5 -12  -1   -5.80    3.40
   5  12   0   -0.30    1.70
  -5  12   0   -2.70    2.60
  -5  12   0   -3.50    3.40
   5  12   0    0.30    2.50
  -5 -12   0   -0.30    3.10
   5 -12   0  -10.00    4.40
   5 -12   0   -2.40    2.90
   5 -12   0   -6.20    3.40
  -5 -12   0    0.40    2.90
   5  12   1    2.60    2.70
   5  12   1   -0.40    1.90
  -5  12  -1    0.00    2.60
  -5 -12  -1   -1.80    3.00
   5 -12   1   -1.60    3.20
  -5 -12  -1    3.90    3.20
   5 -12   1   -3.30    4.50
   5 -12   1    0.00    3.50
  -5  12  -2    6.60    2.80
   5  12   2    5.60    3.10
   5  12   2    2.80    2.20
  -5 -12  -2    7.80    3.40
   5 -12   2    7.40    3.80
   5 -12   2    5.50    4.60
   5 -12   2    2.30    3.70
   5  12   3    3.70    3.10
   5  12   3   -2.30    2.70
   5 -12   3   -0.50    4.30
   5 -12   3   -3.20    3.80
   5 -12   3    0.00    4.10
  -5 -12  -3    1.40    3.30
   5  12   4    6.10    3.30
   5  12   4   12.20    3.50
   5 -12   4    6.60    4.50
   5 -12   4    8.80    5.10
   5 -12   4    5.20    4.60
  -5  13   4   10.60    3.30
   5  13  -4   10.10    6.90
  -5  13   4   10.20    4.50
  -5 -13   4   12.60    5.10
  -5 -13   4   13.30    3.60
  -5  13   3   -4.50    3.80
  -5  13   3   -2.30    3.00
  -5 -13   3    2.90    4.30
  -5 -13   3    3.30    3.20
   5 -13  -3   -2.40    3.60
  -5  13   2   20.50    2.80
   5  13  -2   21.80    2.90
  -5  13   2   16.10    3.50
  -5 -13   2   17.90    4.40
   5 -13  -2   23.10    4.30
  -5 -13   2   19.50    3.70
  -5  13   1   -2.00    3.60
  -5  13   1    2.40    2.90
   5  13  -1    4.70    2.70
  -5 -13   1    3.90    3.40
   5 -13  -1   -1.00    2.80
  -5 -13   1    2.00    3.40
  -5  13   0   37.90    4.40
  -5  13   0   27.80    4.90
   5  13   0   39.40    4.20
  -5 -13   0   36.30    5.40
   5 -13   0   29.20    6.20
  -5 -13   0   39.70    4.70
   5 -13   0   40.40    5.10
   5 -13   0   37.60    4.20
   5  13   1    1.70    2.10
   5  13   1    2.30    3.00
  -5  13  -1   -2.90    2.90
   5 -13   1   -0.20    3.40
   5 -13   1   -1.60    5.00
  -5 -13  -1    3.90    3.60
  -5 -13  -1   -1.20    3.40
   5 -13   1   -1.50    3.80
   5  13   2   45.80    4.80
  -5  13  -2   37.30    4.30
   5  13   2   36.20    4.90
   5 -13   2   29.40    4.70
   5 -13   2   25.60    4.50
   5 -13   2   22.70    5.80
  -5 -13  -2   36.50    4.30
   5  13   3    1.50    2.70
   5  13   3   11.40    3.60
   5 -13   3    6.80    4.50
   5 -13   3    3.80    5.10
  -5 -13  -3    4.90    3.70
   5 -13   3    3.90    4.00
  -5  14   3   -3.80    4.20
  -5  14   3   -1.60    3.30
  -5 -14   3   -0.10    4.50
  -5 -14   3    4.80    3.70
  -5  14   2   -2.60    4.00
  -5  14   2   -1.00    2.30
   5  14  -2    3.70    2.70
   5 -14  -2   -0.70    4.00
  -5 -14   2    5.20    4.10
  -5 -14   2    2.60    2.80
  -5  14   1   -0.90    3.10
   5  14  -1    1.10    2.80
  -5  14   1   -3.40    4.10
  -5 -14   1    4.70    4.20
  -5 -14   1    0.30    2.70
   5 -14  -1    1.10    4.10
   5  14   0    2.60    3.00
  -5  14   0   -2.10    4.20
  -5  14   0    2.70    3.10
  -5 -14   0    3.20    3.70
   5 -14   0   -5.60    5.40
  -5 -14   0    3.50    3.80
   5 -14   0    3.70    3.20
   5 -14   0   -1.70    3.30
  -5  14  -1    4.30    3.20
   5  14   1    7.30    3.30
   5 -14   1   -2.40    4.00
  -5 -14  -1    5.70    3.00
   5 -14   1   -0.30    4.20
   5 -14   1   -1.80    4.10
  -5 -14  -1   -0.50    3.60
   5  14   2    3.00    2.50
  -5  14  -2    0.20    3.10
   5  14   2    4.00    2.50
   5 -14   2    0.90    5.30
   5 -14   2    3.00    4.10
  -5 -14  -2    4.50    3.90
   5 -14   2    2.80    4.20
   5  14   3    1.70    2.90
   5  14   3    4.50    3.50
   5 -14   3    0.80    4.50
   5 -14   3   -1.30    5.10
   5 -14   3   -3.50    4.50
  -5 -14  -3    6.90    4.00
  -5  15   3    1.10    4.60
  -5  15   3    4.30    3.60
  -5 -15   3   12.50    5.40
  -5 -15   3    9.60    4.40
  -5  15   2   -6.00    4.30
  -5  15   2   -0.50    2.60
   5  15  -2    3.20    2.80
   5 -15  -2   -1.30    4.30
  -5 -15   2   -0.50    4.00
  -5 -15   2    3.30    4.40
  -5  15   1   -0.30    4.30
  -5  15   1    5.50    3.40
   5  15  -1    8.20    3.20
   5 -15  -1    2.90    4.50
  -5 -15   1   10.90    4.20
  -5 -15   1   12.60    4.20
  -5  15   0   -3.40    3.20
  -5  15   0   -7.10    4.30
   5  15   0    2.00    2.40
  -5 -15   0   -2.40    3.60
  -5 -15   0   -2.30    3.90
   5 -15   0    4.00    4.40
   5 -15   0   -3.20    4.50
   5  15   1    7.10    2.70
  -5  15  -1    5.40    3.40
  -5 -15  -1    8.80    4.30
   5 -15   1    1.00    4.60
   5 -15   1    2.40    3.70
   5 -15   1    2.10    5.90
   5  15   2    7.20    3.70
  -5  15  -2   -2.10    3.40
   5 -15   2    1.20    4.70
   5 -15   2    0.80    4.60
   5 -15   2    0.10    5.60
  -5 -15  -2   -0.90    4.10
   5  16  -1    1.40    2.40
  -5  16   1   -8.10    4.40
  -5  16   1   -0.30    2.70
  -5 -16   1    3.10    3.30
  -5 -16   1    4.50    4.20
   5 -16  -1   -1.10    4.60
  -5  16   0  -13.30    4.40
   5  16   0    4.50    3.40
  -5  16   0   -2.80    3.50
  -5 -16   0    4.70    4.50
  -5 -16   0    0.60    4.30
   5 -16   0  -14.00    6.00
   5 -16   0   -2.50    3.50
  -6   0   6   60.19    2.70
  -6   0   6   67.29    5.00
  -6   0   5   -1.90    1.40
  -6   0   5    0.90    2.10
  -6   0   4  311.87   12.20
  -6   0   4  331.17    9.50
  -6   0   4  324.47    9.60
   6   0  -3    1.80    1.10
  -6   0   3   -0.20    1.30
   6   0  -3   -1.50    2.10
  -6   0   3    1.20    1.50
  -6   0   3   -0.50    1.40
  -6   0   2  638.94   17.50
  -6   0   2  611.04   21.70
  -6   0   2  595.94   17.30
   6   0  -2  603.24   20.80
   6   0  -2  616.34   21.70
  -6   0   1   -1.00    1.30
   6   0  -1   -3.00    1.30
  -6   0   1   -0.30    1.50
  -6   0   1   -0.10    1.40
  -6   0   0  140.29    4.90
   6   0   0  136.69    4.60
   6   0   0  143.79    6.10
   6   0   0  152.38    6.00
  -6   0   0  130.19    4.60
  -6   0   0  136.99    5.60
   6   0   1    0.70    1.00
  -6   0  -1    1.30    1.20
   6   0   1    0.10    2.20
  -6   0  -1    3.10    1.60
   6   0   2   45.30    2.20
   6   0   2   51.39    4.30
  -6   0  -2   42.50    3.40
  -6   0  -2   51.49    2.80
  -6   0  -3    5.60    1.90
   6   0   3    3.40    1.50
   6   0   3    7.90    3.00
  -6   0  -4    4.00    1.80
   6   0   4   11.20    3.50
   6   0   5   -3.50    3.80
   6   0   6    2.20    4.40
  -6   1   7    0.00    3.00
  -6   1   6   12.00    3.10
  -6   1   6   15.00    1.60
  -6  -1   6   13.50    1.50
  -6  -1   6   15.60    2.80
  -6   1   5    4.90    2.20
  -6   1   5    0.30    1.50
  -6  -1   5    1.50    2.00
  -6  -1   5   -0.20    1.40
  -6   1   4    4.50    1.50
  -6   1   4    2.30    1.40
  -6   1   4    3.20    1.80
   6   1  -4    9.90    3.00
  -6  -1   4    3.60    1.40
  -6  -1   4    4.00    1.60
  -6  -1   4    5.90    1.80
  -6   1   3    3.50    1.80
  -6   1   3    2.00    1.30
   6   1  -3    3.00    2.30
  -6   1   3    0.40    1.40
   6  -1  -3    4.40    2.10
   6  -1  -3    4.70    1.40
  -6  -1   3    1.10    1.20
  -6  -1   3    2.80    1.40
  -6  -1   3    2.40    1.50
  -6   1   2   53.79    3.40
  -6   1   2   43.70    2.50
  -6   1   2   52.89    2.50
  -6   1   2   47.40    3.10
   6   1  -2   48.20    2.70
  -6  -1   2   44.40    2.50
  -6  -1   2   48.50    2.50
   6  -1  -2   45.00    3.20
   6  -1  -2   47.20    2.80
  -6  -1   2   51.29    2.90
  -6   1   1   19.90    2.60
  -6   1   1   19.90    2.40
   6   1  -1   14.80    1.90
  -6   1   1   19.10    1.90
  -6   1   1   19.20    1.60
  -6  -1   1   16.10    2.20
   6  -1  -1   17.20    2.10
   6  -1  -1   15.60    2.60
  -6  -1   1   21.20    2.00
  -6  -1   1   18.40    1.90
   6   1   0  287.57   10.20
   6   1   0  273.07    8.00
  -6   1   0  254.77    8.10
   6   1   0  264.37    9.70
  -6   1   0  252.67    9.30
  -6   1   0  266.97    8.10
  -6   1   0  254.77   10.80
  -6  -1   0  267.87    8.10
   6  -1   0  271.07    8.00
  -6  -1   0  269.17    9.70
  -6  -1   0  251.77    8.10
   6  -1   0  262.07    9.80
   6  -1   0  274.67   10.30
   6   1   1   30.30    1.80
  -6   1  -1   36.20    3.00
   6   1   1   32.60    3.60
  -6   1  -1   30.80    2.00
   6  -1   1   29.90    3.60
   6  -1   1   31.30    2.10
  -6  -1  -1   32.50    2.50
  -6  -1  -1   35.40    2.50
   6  -1   1   38.90    2.90
   6   1   2  221.08    6.80
  -6   1  -2  234.58    7.00
   6   1   2  227.98    8.70
  -6   1  -2  200.88    9.40
  -6  -1  -2  206.58    8.70
   6  -1   2  215.38    8.80
   6  -1   2  233.48    6.90
  -6  -1  -2  215.58    7.00
   6   1   3  151.98    7.20
   6   1   3  149.79    5.20
  -6   1  -3  147.99    5.30
  -6   1  -3  148.59    6.50
   6  -1   3  153.08    5.20
  -6  -1  -3  150.68    5.50
   6  -1   3  160.18    7.30
  -6   1  -4   60.69    3.60
   6   1   4   74.89    5.70
  -6  -1  -4   65.69    3.40
   6  -1   4   86.49    6.00
   6   1   5   12.80    4.30
   6  -1   5   12.30    4.20
   6   1   6    8.80    4.80
   6  -1   6    7.90    4.70
  -6   2   6   -0.80    1.50
  -6   2   6    2.20    2.70
  -6  -2   6    0.00    1.30
  -6  -2   6   -0.10    2.30
  -6   2   5  102.79    3.90
  -6   2   5  100.39    6.30
  -6  -2   5  102.69    3.90
   6   2  -4    2.80    3.00
  -6   2   4    3.40    1.40
  -6   2   4    4.10    2.30
  -6   2   4    3.10    1.50
  -6  -2   4    3.10    1.60
  -6  -2   4    2.50    1.40
  -6  -2   4    4.00    1.50
   6   2  -3  125.89    5.80
  -6   2   3  131.29    4.50
  -6   2   3  131.89    6.10
  -6   2   3  132.79    5.90
  -6   2   3  130.79    4.60
  -6  -2   3  134.39    5.40
  -6  -2   3  125.29    4.40
   6  -2  -3  134.49    5.80
  -6  -2   3  128.39    4.50
  -6   2   2    5.60    1.80
  -6   2   2    3.50    1.40
   6   2  -2    5.30    0.90
  -6   2   2    5.60    1.60
  -6   2   2    5.50    1.40
   6  -2  -2    6.50    1.70
  -6  -2   2    4.20    1.40
  -6  -2   2    4.80    1.00
   6  -2  -2    4.10    1.50
  -6  -2   2    5.60    1.40
  -6   2   1   94.49    3.60
  -6   2   1   86.49    3.40
  -6   2   1   87.69    4.60
   6   2  -1   81.89    4.20
  -6   2   1   88.39    4.00
  -6  -2   1   83.19    3.40
   6  -2  -1   86.59    4.70
   6  -2  -1   91.39    3.60
  -6  -2   1   81.79    3.20
   6  -2  -1   92.69    4.80
   6  -2  -1   86.09    3.70
  -6   2   0    8.10    1.60
   6   2   0    3.70    2.20
   6   2   0    8.40    1.40
  -6   2   0    3.20    1.50
   6   2   0    4.50    1.30
  -6   2   0    4.20    1.60
  -6   2   0    7.20    1.60
   6  -2   0    5.80    1.10
  -6  -2   0    3.70    1.40
   6  -2   0    9.40    1.70
   6  -2   0    7.20    1.80
  -6  -2   0    6.30    1.30
   6  -2   0    5.40    2.30
  -6   2  -1  271.37   11.60
  -6   2  -1  278.47    8.50
   6   2   1  287.57    8.50
   6   2   1  284.87   10.30
   6  -2   1  283.97    8.90
   6  -2   1  269.37   10.10
   6  -2   1  290.87    8.50
  -6  -2  -1  286.77    8.60
  -6   2  -2    2.00    2.00
   6   2   2    1.90    1.10
  -6   2  -2    6.40    1.70
   6   2   2    7.50    2.60
   6  -2   2    5.10    2.10
   6  -2   2    7.00    2.10
   6  -2   2    3.30    1.50
  -6  -2  -2    5.00    1.80
   6   2   3   45.70    4.60
  -6   2  -3   39.70    3.50
  -6   2  -3   40.50    2.80
   6   2   3   40.90    2.60
   6  -2   3   39.30    2.50
   6  -2   3   47.30    4.90
  -6  -2  -3   39.30    2.90
   6  -2   3   42.20    3.40
   6   2   4    2.50    3.20
  -6   2  -4    1.50    1.80
   6  -2   4    4.20    3.60
   6  -2   4    3.10    1.70
  -6  -2  -4    0.90    2.00
   6   2   5    1.10    3.60
   6  -2   5    2.20    4.00
   6   2   6    1.60    4.10
   6  -2   6    1.30    4.70
  -6   3   6    7.40    1.70
  -6   3   6    6.60    3.00
  -6  -3   6    6.20    1.50
  -6   3   5    1.40    1.60
  -6   3   5    2.70    2.50
  -6  -3   5    1.20    1.50
  -6  -3   5    1.10    1.70
   6   3  -4    6.30    3.10
  -6   3   4    1.60    1.60
  -6   3   4    3.00    1.30
  -6   3   4    4.60    2.20
  -6  -3   4   -0.70    1.30
  -6  -3   4    0.90    1.30
  -6  -3   4    3.40    1.50
  -6   3   3   -0.50    1.50
  -6   3   3   -1.10    1.90
  -6   3   3    0.90    1.30
   6   3  -3    2.20    2.50
  -6   3   3   -0.50    1.30
  -6  -3   3    1.90    0.90
  -6  -3   3    1.40    1.40
   6   3  -2   37.30    1.80
  -6   3   2   34.00    2.40
  -6   3   2   40.10    3.00
  -6   3   2   41.50    3.60
  -6   3   2   39.10    2.40
   6  -3  -2   36.20    2.60
  -6  -3   2   34.20    2.40
   6  -3  -2   33.30    3.20
  -6   3   1   21.60    2.10
  -6   3   1   18.80    2.10
  -6   3   1   16.10    2.20
  -6   3   1   20.20    3.00
   6  -3  -1   18.10    1.60
   6  -3  -1   19.10    2.10
  -6  -3   1   19.90    2.20
   6  -3  -1   17.90    2.30
   6  -3  -1   20.50    2.70
  -6   3   0  226.48    8.50
  -6   3   0  225.88    7.20
  -6   3   0  220.88    9.70
  -6   3   0  233.28    7.20
   6  -3   0  228.68    8.80
  -6  -3   0  235.68    7.30
   6  -3   0  242.58    9.40
   6  -3   0  228.58    7.50
   6   3   1   48.60    3.90
  -6   3  -1   49.99    2.80
  -6   3  -1   47.70    3.60
   6  -3   1   48.90    3.20
   6  -3   1   42.80    2.20
   6  -3   1   49.40    4.20
  -6  -3  -1   44.20    2.50
   6   3   2  236.68    9.20
   6   3   2  228.48    7.30
  -6   3  -2  242.28    7.50
  -6   3  -2  232.48   10.50
   6  -3   2  230.08    9.30
   6  -3   2  241.28    7.40
   6  -3   2  230.28    7.80
  -6  -3  -2  235.68    7.60
   6   3   3  161.88    5.40
  -6   3  -3  149.88    7.60
  -6   3  -3  153.98    5.50
   6   3   3  155.38    7.20
   6  -3   3  156.88    7.40
   6  -3   3  160.58    5.50
  -6  -3  -3  163.98    5.70
   6  -3   3  153.68    7.70
   6  -3   3  160.08    6.00
   6   3   4   50.99    5.10
  -6   3  -4   44.10    2.90
   6  -3   4   53.19    5.90
   6  -3   4   51.89    4.30
  -6  -3  -4   45.20    3.20
   6   3   5   22.80    4.00
   6  -3   5   25.00    4.80
   6   3   6    2.80    4.30
   6  -3   6    0.00    4.90
  -6   4   6   49.90    3.10
  -6   4   6   50.99    5.70
  -6  -4   6   46.80    2.80
  -6  -4   6   48.60    7.10
   6   4  -5    9.20    4.00
  -6   4   5    4.00    2.70
  -6   4   5    4.70    1.70
  -6  -4   5    1.70    1.60
  -6  -4   5    1.90    1.70
  -6   4   4  202.88    6.70
  -6   4   4  199.38    7.60
  -6   4   4  215.48    6.70
   6   4  -4  209.28    8.90
  -6   4   4  214.28    9.20
  -6  -4   4  207.48    6.60
  -6  -4   4  208.88    7.80
  -6   4   3   11.00    2.50
  -6   4   3   13.30    2.00
   6   4  -3   13.90    3.30
  -6   4   3   13.70    1.80
  -6   4   3   14.80    1.80
   6  -4  -3   12.00    1.80
  -6  -4   3   12.40    1.20
  -6  -4   3   11.50    1.90
  -6   4   2  401.26   15.20
  -6   4   2  403.96   11.80
  -6   4   2  411.66   12.00
  -6   4   2  405.16   13.50
   6  -4  -2  398.56   12.00
  -6  -4   2  401.06   11.80
  -6   4   1   61.29    4.30
  -6   4   1   55.29    2.60
  -6   4   1   60.79    3.00
  -6   4   1   59.29    3.40
   6  -4  -1   58.29    3.30
  -6  -4   1   59.89    2.70
   6  -4  -1   60.79    4.20
  -6   4   0   99.09    3.70
  -6   4   0  101.69    5.30
  -6   4   0  100.39    5.30
   6  -4   0  101.79    5.20
  -6  -4   0   98.39    4.00
   6  -4   0   95.99    3.90
  -6   4  -1   22.00    3.10
  -6   4  -1   21.00    2.40
   6   4   1   22.50    2.80
   6  -4   1   20.10    2.40
   6  -4   1   21.30    2.90
  -6  -4  -1   21.10    1.90
  -6  -4  -1   18.70    2.00
  -6   4  -2   26.10    4.20
  -6   4  -2   22.30    2.50
   6   4   2   22.70    3.00
  -6  -4  -2   21.60    2.30
   6  -4   2   21.00    3.40
   6  -4   2   20.20    2.20
   6  -4   2   15.60    2.60
   6  -4   2   20.00    2.50
   6   4   3    6.50    2.80
  -6   4  -3    4.70    2.00
  -6   4  -3    0.30    2.50
   6  -4   3    6.50    3.40
   6  -4   3    3.80    2.30
   6  -4   3    4.30    1.80
   6  -4   3    3.80    2.20
  -6  -4  -3    7.70    2.30
  -6   4  -4    9.00    2.20
   6   4   4   11.70    3.30
   6  -4   4   10.50    2.60
  -6  -4  -4    7.40    2.20
   6  -4   4    9.80    2.70
   6  -4   4   11.20    4.00
   6   4   5    2.80    3.40
   6  -4   5    0.50    4.40
  -6   5   6   12.80    3.70
  -6   5   6   15.60    2.10
  -6  -5   6   13.60    4.60
  -6  -5   6   15.70    2.00
  -6   5   5    1.00    1.90
  -6   5   5    2.30    3.10
   6   5  -5    1.90    3.20
  -6  -5   5    0.70    2.90
  -6  -5   5    0.00    1.80
   6   5  -4    4.20    1.30
  -6   5   4    2.80    1.80
  -6   5   4    3.90    1.90
  -6   5   4    6.60    2.80
   6   5  -4    8.40    3.80
   6  -5  -4    6.80    1.80
  -6  -5   4    3.90    1.80
  -6  -5   4    3.20    1.00
  -6   5   3    4.20    2.30
  -6   5   3    3.20    1.50
  -6   5   3    4.50    1.70
  -6   5   3    2.70    1.70
  -6   5   3    3.70    1.50
   6  -5  -3    4.90    1.80
  -6  -5   3    2.60    1.60
  -6   5   2   31.50    2.60
  -6   5   2   34.50    2.50
  -6   5   2   31.00    2.60
  -6   5   2   33.20    4.00
   6  -5  -2   26.60    2.70
  -6  -5   2   31.50    2.50
  -6   5   1    3.00    1.30
  -6   5   1    1.60    1.60
  -6   5   1    1.20    1.40
  -6   5   1    1.70    1.70
  -6  -5   1    3.00    1.70
   6  -5  -1   -1.60    2.40
   6  -5  -1    1.90    1.90
  -6   5   0  133.99    4.80
  -6   5   0  119.69    6.50
  -6  -5   0  139.19    5.90
   6  -5   0  126.39    5.10
  -6  -5   0  129.19    4.90
   6  -5   0  123.89    6.00
  -6   5  -1    0.30    1.70
  -6  -5  -1    3.40    1.90
   6  -5   1    0.30    2.20
   6  -5   1    1.60    2.60
  -6  -5  -1    1.50    1.10
  -6   5  -2  101.49    4.10
   6   5   2  102.49    5.30
   6  -5   2   89.79    4.10
   6  -5   2   93.09    5.80
   6  -5   2   97.09    5.90
  -6  -5  -2   95.59    4.30
   6   5   3   69.99    4.90
  -6   5  -3   62.39    3.40
   6  -5   3   61.99    3.20
   6  -5   3   63.59    4.20
   6  -5   3   60.49    3.00
  -6  -5  -3   61.29    3.70
   6  -5   3   62.09    5.00
   6  -5   3   66.19    5.80
   6   5   4   62.49    5.70
   6  -5   4   51.79    6.10
  -6  -5  -4   44.20    3.60
   6  -5   4   51.89    5.50
   6  -5   4   60.39    4.60
   6   5   5    5.50    3.30
   6  -5   5    7.70    4.60
  -6   6   6   -1.10    2.00
  -6   6   6    3.60    3.50
  -6  -6   6    0.20    4.20
  -6  -6   6    1.30    1.90
  -6   6   5   49.80    3.40
  -6   6   5   55.49    5.80
   6   6  -5   50.79    4.80
  -6  -6   5   44.10    6.30
  -6  -6   5   53.39    3.50
  -6   6   4   15.70    3.10
  -6   6   4   18.70    2.40
   6   6  -4   20.20    4.40
  -6  -6   4   17.10    2.30
   6  -6  -4   14.50    2.20
  -6  -6   4   13.40    2.90
  -6   6   3   60.89    3.30
  -6   6   3   63.69    5.40
   6   6  -3   58.89    2.90
  -6   6   3   60.59    3.30
  -6   6   3   62.39    3.20
  -6  -6   3   60.69    5.30
  -6  -6   3   58.59    3.20
   6  -6  -3   61.09    3.40
  -6   6   2   20.20    2.20
  -6   6   2   21.40    2.30
  -6   6   2   17.20    2.20
  -6   6   2   18.10    2.50
  -6  -6   2   22.90    3.70
  -6  -6   2   21.90    2.50
   6  -6  -2   17.90    2.40
  -6   6   1   41.90    2.90
  -6   6   1   37.00    4.50
  -6   6   1   41.80    2.70
   6  -6  -1   36.30    4.30
  -6  -6   1   41.50    3.50
  -6  -6   1   44.00    3.00
   6  -6  -1   43.80    3.40
  -6   6   0   19.20    2.20
  -6   6   0   15.60    2.80
  -6  -6   0   23.40    2.80
  -6  -6   0   19.00    2.30
   6  -6   0   17.60    2.90
   6  -6   0   15.60    2.60
  -6   6  -1  103.59    4.30
   6  -6   1  107.39    4.90
  -6  -6  -1  100.29    4.80
   6  -6   1  108.19    5.80
   6  -6   1  101.09    6.80
  -6  -6  -1  103.49    4.50
   6   6   2    6.00    2.50
  -6   6  -2    7.10    2.00
   6  -6   2    6.60    3.20
   6  -6   2    3.40    2.70
  -6  -6  -2    5.10    2.30
   6  -6   2    5.20    2.00
  -6   6  -3    8.70    2.10
   6   6   3   17.60    3.40
   6  -6   3   12.50    2.80
   6  -6   3    8.60    3.10
  -6  -6  -3   10.20    2.50
   6  -6   3   11.80    3.10
   6   6   4    4.60    3.00
   6  -6   4    2.00    2.60
   6  -6   4    0.60    4.00
   6  -6   4    3.70    3.10
  -6  -6  -4    3.10    2.30
   6   6   5    3.20    3.60
   6  -6   5    1.30    4.60
   6  -6   5    0.50    2.70
  -6   7   6    4.20    3.60
  -6   7   6    0.40    2.20
  -6  -7   6   -1.10    4.40
  -6  -7   6    1.70    2.10
   6   7  -5    7.70    4.70
  -6   7   5    3.30    2.30
  -6   7   5   -1.40    3.20
  -6  -7   5    2.50    2.20
  -6  -7   5    1.60    3.80
   6   7  -4    0.80    4.40
  -6   7   4    0.30    1.90
  -6   7   4    1.00    3.00
  -6  -7   4    0.70    3.20
  -6  -7   4    1.20    1.90
   6  -7  -4   -0.70    2.10
   6   7  -3   -1.30    1.80
  -6   7   3   -1.20    1.90
  -6   7   3    1.70    1.70
  -6   7   3   -0.60    2.80
  -6   7   3    1.30    1.80
  -6   7   3   -1.20    1.40
  -6  -7   3    0.00    2.20
   6  -7  -3    1.70    2.10
  -6  -7   3    2.60    2.00
  -6   7   2    8.50    1.50
  -6   7   2    7.00    1.50
   6   7  -2    6.60    1.80
  -6   7   2    6.40    2.80
  -6   7   2    6.60    1.60
   6  -7  -2    4.90    2.30
  -6  -7   2    6.00    2.50
  -6  -7   2    9.80    2.10
  -6   7   1    9.80    1.80
  -6   7   1    7.10    2.80
  -6   7   1    7.20    2.10
  -6  -7   1   10.30    1.80
   6  -7  -1    5.30    2.90
  -6  -7   1    8.90    2.20
   6  -7  -1    7.40    2.00
  -6   7   0   55.59    3.00
  -6   7   0   60.79    5.30
   6   7   0   60.89    3.00
  -6  -7   0   58.49    3.10
  -6  -7   0   62.89    4.00
   6  -7   0   57.79    4.50
   6  -7   0   58.39    3.40
  -6   7  -1   23.30    2.50
   6  -7   1   22.90    3.40
   6  -7   1   21.90    3.00
  -6  -7  -1   24.40    2.50
  -6  -7  -1   19.60    2.90
   6  -7   1   18.00    3.40
  -6   7  -2   97.09    4.40
   6  -7   2   94.99    6.70
  -6  -7  -2   96.79    4.80
   6  -7   2   93.89    5.00
   6  -7   2  100.59    6.30
  -6   7  -3   73.39    3.90
   6   7   3   80.59    5.30
   6  -7   3   79.19    6.50
   6  -7   3   74.69    6.30
  -6  -7  -3   75.99    4.40
   6  -7   3   72.69    4.80
   6   7   4   16.30    3.50
  -6  -7  -4   13.60    3.10
   6  -7   4   13.00    4.50
   6  -7   4   12.50    3.60
   6  -7   4   17.00    3.20
   6  -7   5   19.60    5.20
   6  -7   5   18.50    3.60
   6  -7   5   19.00    4.60
  -6   8   6   18.30    2.70
   6   8  -6   32.70    6.30
  -6   8   6   20.50    4.40
  -6  -8   6   18.20    2.60
  -6  -8   6   15.70    5.20
  -6   8   5    5.90    2.50
  -6   8   5    5.90    3.60
   6   8  -5   15.90    5.50
  -6  -8   5    6.30    2.50
  -6  -8   5    5.10    4.20
  -6   8   4   70.59    6.50
   6   8  -4   60.69    6.60
  -6   8   4   69.39    4.40
  -6  -8   4   71.89    4.30
  -6  -8   4   62.69    6.50
   6   8  -3   21.90    2.30
  -6   8   3   19.50    3.70
  -6   8   3   24.30    2.70
  -6  -8   3   19.10    3.50
  -6  -8   3   22.10    2.60
   6  -8  -3   23.00    3.10
  -6   8   2  139.79    5.50
  -6   8   2  144.49    5.60
   6   8  -2  148.59    5.60
  -6   8   2  138.69    5.50
  -6   8   2  153.18    8.00
  -6  -8   2  143.89    5.60
   6  -8  -2  146.79    6.00
  -6  -8   2  154.38    7.70
   6   8  -1   69.49    3.80
  -6   8   1   69.09    3.40
  -6   8   1   62.99    3.30
  -6   8   1   67.49    5.80
   6  -8  -1   63.89    5.30
  -6  -8   1   73.69    4.00
  -6  -8   1   74.49    4.90
   6  -8  -1   62.59    4.40
  -6   8   0   35.90    5.20
  -6   8   0   38.80    3.40
   6   8   0   36.50    2.50
   6  -8   0   41.20    4.10
   6  -8   0   39.30    4.00
  -6  -8   0   45.70    3.60
  -6  -8   0   33.90    3.80
   6   8   1   26.00    2.80
  -6   8  -1   27.50    2.70
   6  -8   1   28.20    3.80
   6  -8   1   28.60    3.40
  -6  -8  -1   28.70    3.50
   6  -8   1   20.00    3.90
  -6  -8  -1   20.10    3.30
   6   8   2   -0.80    1.90
  -6   8  -2    0.80    2.20
   6  -8   2    3.60    3.60
   6  -8   2   -0.20    3.30
   6  -8   2    1.40    2.90
  -6  -8  -2   -0.60    1.00
  -6  -8  -2   -0.20    2.50
   6   8   3    0.40    2.20
  -6   8  -3   -0.50    2.40
  -6  -8  -3    0.60    2.60
   6  -8   3    2.10    3.60
   6  -8   3    6.20    3.90
   6  -8   3   -2.00    2.80
   6   8   4   14.90    3.30
   6   8   4   13.30    3.20
   6  -8   4   11.50    4.80
   6  -8   4   12.70    3.40
   6  -8   4   11.30    3.70
   6   8   5    3.70    3.10
   6   8   5    1.40    3.40
   6  -8   5    0.80    3.40
   6  -8   5    0.60    5.00
   6  -8   5    6.30    3.90
   6   9  -5    4.40    5.60
  -6   9   5    0.90    2.90
  -6   9   5    1.40    2.70
  -6  -9   5    1.20    2.60
  -6  -9   5    0.20    4.40
   6   9  -4   -3.10    5.20
  -6   9   4   -0.30    2.60
  -6   9   4    4.90    3.40
  -6  -9   4    3.90    2.70
  -6  -9   4    3.30    3.70
  -6   9   3   -1.20    2.50
  -6   9   3    1.60    2.30
   6   9  -3    3.70    2.00
  -6  -9   3    2.00    3.40
   6  -9  -3    2.60    2.70
  -6  -9   3    3.20    2.40
  -6   9   2   11.00    1.60
   6   9  -2   15.40    2.30
  -6   9   2   10.10    3.30
  -6   9   2   13.30    1.70
  -6   9   2   10.90    2.50
   6  -9  -2   10.70    2.80
  -6  -9   2   16.30    2.60
  -6  -9   2   10.20    3.10
  -6   9   1   -1.80    2.20
  -6   9   1    0.90    1.50
   6   9  -1    2.40    2.20
  -6   9   1   -2.30    3.10
   6  -9  -1   -3.00    2.90
   6  -9  -1   -4.10    2.80
  -6  -9   1    3.10    1.90
  -6  -9   1    1.40    2.40
  -6   9   0   48.80    3.80
  -6   9   0   43.80    5.80
   6   9   0   47.70    3.80
   6   9   0   44.40    2.90
  -6  -9   0   51.79    3.90
   6  -9   0   41.10    4.60
   6  -9   0   41.80    4.40
  -6  -9   0   42.30    4.40
   6   9   1   11.20    1.80
  -6   9  -1   13.70    2.10
   6  -9   1   19.00    3.90
   6  -9   1    9.40    3.70
   6  -9   1   13.30    3.30
  -6  -9  -1   17.20    3.00
  -6  -9  -1    9.70    2.30
   6   9   2   26.30    3.80
  -6   9  -2   29.50    3.40
   6  -9   2   26.50    3.70
   6  -9   2   23.90    4.30
   6  -9   2   23.90    4.40
  -6  -9  -2   35.70    4.00
  -6   9  -3    4.40    2.40
   6   9   3    7.90    2.60
  -6  -9  -3   10.80    3.10
   6  -9   3    5.80    4.10
   6  -9   3    2.20    3.30
   6  -9   3   11.70    4.30
   6   9   4   26.20    3.50
   6   9   4   10.40    3.30
   6  -9   4   15.10    4.10
   6  -9   4   19.00    5.00
   6  -9   4   21.50    3.80
  -6  10   5   12.60    4.20
  -6  10   5   10.40    3.10
   6  10  -5   21.80    6.40
  -6 -10   5   13.60    3.10
  -6 -10   5    7.60    4.70
   6  10  -4   12.00    6.30
  -6  10   4   10.00    4.00
  -6  10   4   12.70    3.10
  -6 -10   4   14.30    2.90
  -6 -10   4    8.50    4.10
   6  10  -3   18.10    2.50
  -6  10   3   16.40    2.90
  -6  10   3   10.70    3.90
  -6 -10   3   16.70    3.00
  -6 -10   3   13.60    3.90
   6 -10  -3   15.10    3.20
   6  10  -2   11.00    2.30
  -6  10   2   12.60    3.60
  -6  10   2   10.60    2.10
  -6 -10   2   16.20    2.80
   6 -10  -2   12.30    3.20
  -6 -10   2    9.70    3.30
  -6  10   1    9.10    3.60
   6  10  -1   10.00    2.50
  -6  10   1    7.40    2.10
  -6 -10   1    4.90    2.80
   6 -10  -1    3.30    3.20
  -6 -10   1   10.20    2.30
   6 -10  -1    1.50    3.10
   6  10   0   11.10    2.70
  -6  10   0   11.70    2.70
   6  10   0    5.50    1.40
  -6  10   0    3.30    3.60
   6 -10   0    7.30    3.50
  -6 -10   0   12.50    2.40
  -6 -10   0    8.20    2.70
   6 -10   0    3.80    3.30
   6 -10   0    9.40    3.40
   6  10   1   12.00    2.90
   6  10   1   10.90    2.00
  -6  10  -1   17.80    2.30
   6 -10   1   14.10    3.70
  -6 -10  -1   11.10    2.60
   6 -10   1    9.20    4.20
  -6 -10  -1   18.20    3.20
   6 -10   1   13.70    3.50
   6  10   2    5.70    3.00
  -6  10  -2    5.30    2.60
   6  10   2    5.20    2.30
   6 -10   2    5.30    4.00
  -6 -10  -2   10.00    3.20
   6 -10   2    4.10    3.80
   6 -10   2    6.30    3.50
   6  10   3   -1.40    2.60
   6  10   3    4.40    3.10
  -6  10  -3   -3.10    2.40
   6 -10   3    4.20    4.40
   6 -10   3   -1.90    3.50
   6 -10   3   -2.20    3.80
  -6 -10  -3   -1.80    3.00
   6  10   4    0.30    3.00
   6  10   4    7.30    3.40
   6 -10   4    4.10    3.60
   6 -10   4   -3.20    4.50
   6 -10   4    5.10    4.50
   6  11  -5   -6.60    6.10
  -6  11   5    0.40    2.90
  -6  11   5    1.10    4.30
  -6 -11   5   -0.40    3.00
  -6 -11   5    1.50    4.50
  -6  11   4   -1.60    4.00
   6  11  -4   -9.50    6.30
  -6  11   4   -1.10    2.80
  -6 -11   4   -2.60    4.00
  -6 -11   4    1.20    3.20
  -6  11   3   -0.80    2.60
  -6  11   3   -4.10    3.70
  -6 -11   3    4.20    3.00
   6 -11  -3   -0.60    3.20
  -6 -11   3    3.20    3.90
  -6  11   2   -2.90    3.40
  -6  11   2    0.10    2.70
   6  11  -2    0.50    2.10
  -6 -11   2    2.80    2.80
   6 -11  -2   -0.70    3.30
  -6 -11   2    4.30    3.40
   6  11  -1    5.10    2.50
  -6  11   1    4.90    3.70
  -6  11   1    3.60    2.80
  -6 -11   1    1.50    3.30
   6 -11  -1   -4.00    3.10
  -6 -11   1    5.50    2.30
   6 -11  -1    0.80    3.40
  -6  11   0    3.80    2.10
   6  11   0    3.30    1.50
  -6  11   0   -2.90    3.70
   6  11   0    3.60    2.70
  -6 -11   0    4.40    2.60
   6 -11   0   -4.50    4.40
  -6 -11   0    5.90    3.10
   6 -11   0    3.40    3.50
   6 -11   0    3.60    3.50
  -6  11  -1    8.30    2.80
   6  11   1    8.10    3.00
   6  11   1    6.80    1.90
   6 -11   1   10.70    3.80
  -6 -11  -1    5.60    2.80
  -6 -11  -1    9.60    3.30
   6 -11   1    3.30    4.60
   6 -11   1    6.80    3.70
  -6  11  -2   14.70    2.50
   6  11   2   11.70    2.50
   6  11   2   17.50    3.40
   6 -11   2   13.40    3.20
   6 -11   2   13.50    4.60
  -6 -11  -2   16.70    3.60
   6 -11   2    9.70    4.60
   6  11   3   13.40    2.90
  -6  11  -3   14.80    3.10
   6  11   3   23.10    3.70
   6 -11   3   13.90    4.10
  -6 -11  -3   16.80    3.50
   6 -11   3   16.40    4.80
   6 -11   3   18.00    5.00
   6  11   4    9.80    3.60
   6  11   4    3.40    3.10
   6 -11   4    6.90    4.00
   6 -11   4   -0.50    4.70
   6 -11   4    3.70    4.70
  -6  12   4   10.80    3.60
   6  12  -4    4.70    7.00
  -6  12   4    7.60    4.60
  -6 -12   4   10.50    3.30
  -6 -12   4    7.90    4.80
  -6  12   3    6.70    3.40
  -6  12   3   10.80    3.10
  -6 -12   3    9.50    4.30
   6 -12  -3    9.90    3.60
  -6 -12   3    9.70    3.30
  -6  12   2   27.60    3.30
   6  12  -2   32.30    3.70
  -6  12   2   25.50    4.50
  -6 -12   2   30.60    3.80
  -6 -12   2   27.20    4.40
   6 -12  -2   31.50    4.30
  -6  12   1   21.00    4.40
  -6  12   1   23.70    2.80
   6  12  -1   27.50    3.10
  -6 -12   1   22.50    4.00
   6 -12  -1   13.10    3.70
   6 -12  -1   24.30    4.20
  -6 -12   1   22.10    3.00
  -6  12   0    7.50    3.10
   6  12   0   11.00    3.00
  -6  12   0   -1.20    3.90
  -6 -12   0    5.50    2.80
  -6 -12   0   14.30    3.50
   6 -12   0   -5.60    4.90
   6 -12   0   -2.00    3.50
   6 -12   0   11.10    4.00
  -6  12  -1   10.30    3.10
   6  12   1   16.60    3.30
   6  12   1   11.10    2.20
  -6 -12  -1   13.70    2.90
   6 -12   1    6.20    5.10
   6 -12   1   10.40    3.20
   6 -12   1   10.80    3.90
  -6 -12  -1    7.30    3.10
   6  12   2    4.80    3.20
  -6  12  -2    1.40    2.90
   6  12   2    4.80    2.40
   6 -12   2   -0.70    3.90
   6 -12   2    0.00    4.50
   6 -12   2    0.90    4.80
  -6 -12  -2    5.20    2.80
   6  12   3    7.80    3.60
   6  12   3    0.80    2.90
   6 -12   3   -0.90    4.00
  -6 -12  -3   -0.80    3.60
   6 -12   3    0.40    4.80
   6 -12   3    2.20    4.70
  -6  13   4    0.70    4.50
  -6  13   4    2.70    3.30
  -6 -13   4    0.60    3.40
  -6 -13   4    0.40    4.90
  -6  13   3   -1.70    3.20
  -6  13   3   -1.70    4.20
   6 -13  -3   -0.80    3.90
  -6 -13   3    1.80    3.80
  -6 -13   3    5.80    4.60
  -6  13   2    1.30    3.10
  -6  13   2    1.20    4.00
   6  13  -2    6.40    2.70
   6 -13  -2   -0.90    3.90
  -6 -13   2    3.00    4.00
  -6 -13   2    5.10    3.50
  -6  13   1   -1.60    4.10
   6  13  -1    5.50    2.80
  -6  13   1   -5.10    3.00
   6 -13  -1    2.70    4.00
  -6 -13   1    5.30    3.60
  -6 -13   1    5.60    3.80
   6  13   0   16.70    3.20
  -6  13   0    5.90    4.40
  -6  13   0   12.60    2.70
   6 -13   0    9.90    4.00
   6 -13   0   -0.30    5.50
   6 -13   0   12.40    3.40
  -6 -13   0   17.60    3.90
  -6 -13   0    8.90    3.20
  -6  13  -1   15.50    3.40
   6  13   1   19.20    3.50
   6 -13   1    6.10    5.40
   6 -13   1   11.60    4.10
   6 -13   1   13.30    4.40
  -6 -13  -1   15.80    3.90
  -6 -13  -1   10.70    3.50
   6  13   2   14.00    3.60
   6  13   2    7.10    2.70
  -6  13  -2    6.50    3.30
  -6 -13  -2    9.20    4.00
   6 -13   2    4.10    5.40
   6 -13   2    6.00    4.30
   6 -13   2    6.20    4.40
   6  13   3   -0.60    2.60
   6  13   3    2.70    3.50
   6 -13   3   -1.50    4.40
   6 -13   3   -1.10    5.50
  -6 -13  -3    2.40    3.80
   6 -13   3    1.20    4.80
  -6  14   3   -4.00    4.50
  -6  14   3   -1.70    3.40
  -6 -14   3    4.20    3.80
  -6 -14   3    1.60    4.60
   6  14  -2    5.40    2.90
  -6  14   2   -4.80    4.30
  -6  14   2    1.80    3.40
   6 -14  -2    0.60    4.00
  -6 -14   2    3.30    4.10
  -6 -14   2    6.70    3.70
  -6  14   1   -6.30    4.20
  -6  14   1   -0.70    3.30
   6  14  -1    5.90    3.00
  -6 -14   1    3.10    3.80
  -6 -14   1    4.50    4.10
   6 -14  -1    1.90    4.40
  -6  14   0    1.00    3.20
   6  14   0    7.20    3.20
  -6  14   0   -6.10    4.30
  -6 -14   0    4.30    3.00
   6 -14   0   -2.10    3.80
   6 -14   0   -9.30    5.70
   6 -14   0    0.70    4.30
  -6 -14   0    4.80    3.70
   6  14   1    7.80    3.30
  -6  14  -1   -2.70    3.30
   6 -14   1   -1.60    5.10
  -6 -14  -1    3.40    4.00
   6 -14   1    2.10    4.40
   6 -14   1    0.10    4.50
   6  14   2    9.50    3.70
  -6  14  -2   -2.90    3.30
   6 -14   2   -0.60    4.60
   6 -14   2    3.40    5.60
  -6 -14  -2    5.30    4.10
   6 -14   2    5.50    4.60
  -6  15   2   -2.40    3.60
  -6  15   2   -7.80    4.50
  -6 -15   2    4.20    4.90
   6 -15  -2   -4.90    4.50
  -6 -15   2   -1.40    4.10
  -6  15   1    1.00    3.60
  -6  15   1   -7.20    4.60
   6  15  -1    5.40    3.10
  -6 -15   1    5.50    4.30
   6 -15  -1    2.70    4.60
  -6 -15   1    1.50    4.00
  -6  15   0   -2.30    3.50
  -6  15   0   -6.70    4.60
   6  15   0    7.60    3.40
   6 -15   0   -7.70    6.00
   6 -15   0    0.60    4.70
  -6 -15   0    9.20    4.30
  -6 -15   0    3.60    3.90
   6  15   1    6.30    3.60
  -6  15  -1   -4.30    3.50
  -6 -15  -1    8.40    4.30
   6 -15   1   -0.60    4.00
   6 -15   1   -0.10    4.60
   6 -15   1   -9.30    5.70
  -7   0   6    2.40    2.60
  -7   0   6    0.50    1.70
  -7   0   5    1.20    1.70
  -7   0   5    2.60    2.30
  -7   0   4   83.59    5.00
  -7   0   4   86.79    3.80
   7   0  -3    4.40    2.40
  -7   0   3    1.10    1.80
   7   0  -3    2.30    1.20
  -7   0   3   -1.70    1.40
  -7   0   3    1.00    1.60
  -7   0   2  417.16   12.30
  -7   0   2  412.56   15.00
   7   0  -2  418.66   15.20
  -7   0   2  404.86   12.10
   7   0  -2  403.96   14.40
  -7   0   1    3.50    1.70
   7   0  -1   -1.00    1.80
  -7   0   1   -0.30    1.50
   7   0   0  342.67   12.50
   7   0   0  364.36   13.10
  -7   0   0  328.97   10.20
   7   0   1    0.20    2.70
  -7   0  -1    1.80    1.40
  -7   0  -1    1.60    1.40
   7   0   2   91.19    5.60
  -7   0  -2   69.49    4.80
  -7   0  -2   91.89    4.00
  -7   0  -3    0.90    2.20
   7   0   3    4.40    3.30
  -7   0  -3    1.60    0.90
   7   0   4   20.10    4.30
  -7   0  -4   11.20    2.60
   7   0   5    7.10    4.30
  -7   1   6   16.20    2.00
  -7   1   6   19.50    3.40
  -7  -1   6   17.40    2.00
  -7   1   5   31.00    4.50
  -7   1   5   30.30    2.70
  -7  -1   5   30.00    3.90
  -7  -1   5   27.50    2.80
  -7   1   4   79.89    3.60
  -7   1   4   75.19    5.10
   7   1  -4   76.49    5.00
  -7  -1   4   73.29    3.40
  -7  -1   4   80.39    4.70
  -7   1   3   64.99    3.20
  -7   1   3   65.49    3.20
   7   1  -3   70.29    3.40
   7   1  -3   69.09    4.20
  -7   1   3   65.89    4.20
   7  -1  -3   69.69    4.00
  -7  -1   3   66.69    3.20
  -7  -1   3   67.29    3.20
  -7  -1   3   67.89    3.90
   7  -1  -3   69.29    4.00
  -7   1   2   30.70    3.00
   7   1  -2   29.90    2.50
  -7   1   2   27.60    2.50
  -7   1   2   28.00    2.40
   7  -1  -2   27.40    2.50
   7  -1  -2   27.30    3.10
  -7  -1   2   23.50    1.90
  -7  -1   2   29.60    2.50
  -7  -1   2   34.50    2.70
  -7   1   1   59.99    3.00
   7   1  -1   52.29    4.00
  -7   1   1   60.89    3.10
   7  -1  -1   60.79    4.50
  -7  -1   1   56.69    3.00
  -7  -1   1   58.19    2.70
   7  -1  -1   51.79    4.40
  -7   1   0   41.40    3.10
   7   1   0   37.20    3.30
   7   1   0   48.10    3.60
  -7   1   0   37.40    2.30
  -7  -1   0   42.70    2.40
   7  -1   0   40.30    4.20
   7  -1   0   41.90    3.50
   7   1   1   35.70    4.20
  -7   1  -1   39.00    2.90
  -7   1  -1   41.20    3.30
  -7  -1  -1   40.20    2.90
   7  -1   1   31.20    3.60
  -7  -1  -1   36.70    2.90
  -7   1  -2    7.30    2.20
  -7   1  -2    9.60    1.70
   7   1   2   10.70    3.20
   7  -1   2    5.10    2.40
  -7  -1  -2    4.50    1.50
  -7  -1  -2    8.20    2.10
  -7   1  -3    4.10    2.10
   7   1   3    5.20    3.30
  -7   1  -3    2.50    1.40
  -7  -1  -3    2.50    2.10
   7  -1   3    7.00    3.60
  -7   1  -4   29.00    3.30
   7   1   4   41.50    5.50
   7  -1   4   38.90    4.80
  -7  -1  -4   28.10    3.10
   7   1   5   17.90    4.50
   7  -1   5   16.40    4.80
  -7   2   6    5.30    3.10
  -7   2   6   -0.70    1.80
  -7  -2   6   -0.50    1.60
  -7   2   5    5.50    1.90
  -7   2   5    7.60    2.90
  -7  -2   5    4.40    1.90
  -7  -2   5    5.20    2.10
   7   2  -4    2.60    2.50
  -7   2   4    4.00    2.50
  -7   2   4    3.30    1.80
  -7  -2   4    2.00    1.70
  -7  -2   4    3.30    1.80
  -7   2   3   14.60    2.10
  -7   2   3   11.40    2.50
   7   2  -3   16.90    3.10
  -7   2   3   14.60    1.90
  -7  -2   3   13.60    1.80
  -7  -2   3   16.10    2.40
  -7  -2   3   14.70    2.10
  -7   2   2    5.30    2.00
  -7   2   2    0.10    1.60
   7   2  -2    3.50    1.10
  -7   2   2    4.10    1.70
   7  -2  -2    1.80    1.90
  -7  -2   2    3.30    1.60
  -7  -2   2    4.00    1.70
   7  -2  -2    4.90    1.90
  -7   2   1  196.88    8.20
  -7   2   1  197.58    6.40
   7   2  -1  176.68    8.00
  -7   2   1  200.68    6.60
  -7  -2   1  196.48    6.40
   7  -2  -1  199.88    7.10
  -7  -2   1  193.88    6.50
   7  -2  -1  186.68    8.10
   7  -2  -1  210.18    8.80
   7   2   0   18.60    2.60
  -7   2   0   31.90    3.30
   7   2   0   30.30    3.00
  -7   2   0   24.40    2.60
   7  -2   0   22.30    3.10
  -7  -2   0   20.70    2.10
   7  -2   0   26.40    3.00
  -7   2  -1  218.88    6.90
  -7   2  -1  208.68    9.20
   7   2   1  203.38    8.20
  -7  -2  -1  207.58    8.60
   7  -2   1  197.78    8.60
  -7  -2  -1  214.98    7.00
   7  -2   1  208.48    7.00
  -7   2  -2    8.20    2.10
  -7   2  -2    7.80    2.40
   7   2   2    7.90    3.10
  -7  -2  -2    4.30    1.10
   7  -2   2    7.10    3.20
  -7  -2  -2    9.00    1.80
  -7   2  -3  216.48    7.30
  -7   2  -3  214.58    9.60
   7   2   3  228.38    9.50
  -7  -2  -3  217.28    7.40
   7  -2   3  226.08    9.80
   7   2   4    7.40    3.70
  -7  -2  -4    1.80    2.50
   7  -2   4    8.00    4.00
   7   2   5   35.00    4.90
   7  -2   5   42.60    5.60
  -7   3   6    7.50    2.00
  -7   3   6    6.20    3.20
  -7  -3   6    6.70    1.90
   7   3  -5   51.89    5.30
  -7   3   5   43.30    4.90
  -7   3   5   44.00    3.10
  -7  -3   5   42.20    3.00
  -7   3   4   47.60    4.70
  -7   3   4   48.30    2.90
   7   3  -4   51.29    4.70
  -7  -3   4   44.90    3.20
  -7  -3   4   45.20    3.20
  -7   3   3   70.89    4.90
   7   3  -3   71.69    4.80
  -7   3   3   71.99    3.40
  -7   3   3   68.79    3.30
  -7  -3   3   72.89    3.30
  -7  -3   3   69.89    3.20
  -7  -3   3   67.09    3.40
   7   3  -2   14.80    1.50
  -7   3   2   12.90    2.30
  -7   3   2   11.70    1.90
  -7   3   2   12.00    1.90
  -7  -3   2   11.60    2.00
   7  -3  -2   13.60    2.10
  -7   3   1   48.20    4.00
  -7   3   1   43.40    2.80
  -7  -3   1   49.40    3.00
   7  -3  -1   47.00    3.30
   7  -3  -1   44.80    2.40
   7  -3  -1   39.60    4.30
  -7   3   0   57.19    3.20
   7   3   0   62.69    3.50
   7  -3   0   48.20    3.00
   7  -3   0   54.09    4.70
  -7  -3   0   49.99    2.80
   7   3   1   29.60    4.00
  -7   3  -1   38.80    3.80
  -7   3  -1   31.50    2.40
   7  -3   1   32.80    3.30
   7  -3   1   32.30    3.70
  -7  -3  -1   41.00    3.20
  -7   3  -2    5.60    1.60
  -7   3  -2    8.40    2.50
   7   3   2    9.20    3.10
  -7  -3  -2    4.60    2.30
   7  -3   2    4.90    2.50
   7  -3   2    3.00    3.30
  -7   3  -3    1.40    2.30
  -7   3  -3    2.80    2.00
   7   3   3    5.80    3.30
   7  -3   3    7.20    3.70
  -7  -3  -3    4.20    2.30
   7   3   4   44.60    5.60
  -7  -3  -4   30.20    3.80
   7  -3   4   47.80    6.30
   7   3   5   16.10    4.30
   7  -3   5   15.80    5.00
  -7   4   6    3.10    3.60
  -7   4   6    3.20    2.00
  -7  -4   6    3.50    1.90
  -7  -4   6   -1.60    3.40
  -7   4   5    2.50    2.90
  -7   4   5    0.90    1.90
   7   4  -5    6.60    4.30
  -7  -4   5    2.20    2.00
  -7   4   4   62.89    3.50
  -7   4   4   54.19    5.20
   7   4  -4   62.39    5.10
  -7  -4   4   52.99    3.00
  -7  -4   4   57.89    3.20
  -7   4   3    4.80    1.80
   7   4  -3    2.20    2.60
  -7   4   3    2.40    2.50
  -7   4   3    4.00    1.70
  -7  -4   3    3.80    2.10
   7  -4  -3    7.10    1.90
  -7   4   2  278.87    8.70
  -7   4   2  264.77    8.50
  -7   4   2  285.97   11.20
   7  -4  -2  275.97    8.80
  -7  -4   2  270.77    8.60
  -7   4   1   18.10    2.70
  -7   4   1   19.80    2.20
   7  -4  -1   18.90    2.10
   7  -4  -1   19.20    3.30
  -7  -4   1   20.70    2.30
  -7   4   0  251.97    8.00
   7   4   0  278.97    9.70
   7  -4   0  241.78    9.90
   7  -4   0  249.28    8.30
  -7  -4   0  234.18    7.90
   7  -4   0  248.18    8.40
   7   4   1   26.10    3.30
  -7   4  -1   31.80    2.90
  -7  -4  -1   32.30    3.10
   7  -4   1   32.40    3.40
   7  -4   1   27.60    3.70
  -7   4  -2   73.09    3.90
   7   4   2   83.49    5.60
  -7  -4  -2   76.29    4.10
   7  -4   2   77.79    4.50
   7  -4   2   79.49    6.00
   7   4   3   14.00    3.50
  -7   4  -3   10.50    2.30
   7  -4   3   13.30    4.00
   7  -4   3    9.80    2.60
   7  -4   3   15.80    3.00
  -7  -4  -3   15.30    2.60
   7   4   4   13.70    3.80
   7  -4   4   11.60    2.70
   7  -4   4   10.80    4.40
   7   4   5    8.20    3.90
   7  -4   5    8.70    4.70
  -7   5   6   14.60    2.30
  -7   5   6   14.80    3.80
  -7  -5   6    5.30    4.70
  -7  -5   6   13.50    2.30
   7   5  -5   18.10    4.80
  -7   5   5    7.90    3.20
  -7   5   5    7.00    2.20
  -7  -5   5    4.40    3.90
  -7  -5   5    5.00    2.10
  -7   5   4   62.79    5.70
  -7   5   4   62.09    3.50
   7   5  -4   62.69    5.60
   7  -5  -4   59.29    3.30
  -7  -5   4   61.89    3.70
  -7   5   3   23.50    2.40
  -7   5   3   18.40    3.20
  -7   5   3   20.90    2.40
  -7  -5   3   24.40    2.60
   7  -5  -3   22.70    2.70
  -7   5   2   13.20    2.70
  -7   5   2   15.50    2.00
  -7   5   2   12.80    2.10
   7  -5  -2   16.30    2.50
  -7  -5   2   16.50    2.30
  -7   5   1   19.20    2.90
  -7   5   1   17.20    2.30
   7  -5  -1   18.30    3.30
  -7  -5   1   21.20    2.40
   7  -5  -1   19.00    2.60
  -7   5   0   29.00    2.90
   7  -5   0   25.50    3.50
  -7  -5   0   31.70    3.10
   7  -5   0   28.60    3.50
  -7  -5   0   32.30    3.20
  -7   5  -1    5.30    2.10
  -7  -5  -1    7.10    1.40
   7  -5   1    6.70    3.30
   7  -5   1    8.40    2.60
  -7  -5  -1   11.40    2.40
  -7   5  -2    6.30    2.20
   7   5   2    5.30    2.90
  -7  -5  -2    3.80    2.50
   7  -5   2    5.40    3.60
   7  -5   2    4.90    2.70
   7   5   3    4.40    3.20
  -7   5  -3    3.40    2.10
   7  -5   3    8.50    3.00
   7  -5   3    5.50    4.00
  -7  -5  -3    6.30    2.50
   7  -5   3    3.60    2.70
   7   5   4   16.60    3.80
   7  -5   4   17.20    3.20
   7  -5   4   18.10    4.80
   7  -5   4   16.80    3.60
   7   5   5    8.70    3.90
   7  -5   5   11.90    5.10
  -7   6   6    3.40    4.10
  -7   6   6   -0.30    2.20
  -7  -6   6    1.10    2.20
  -7  -6   6   -4.60    4.60
  -7   6   5    4.10    2.40
   7   6  -5   10.40    5.00
  -7   6   5    2.80    3.40
  -7  -6   5    0.80    3.80
  -7  -6   5    3.80    2.30
   7   6  -4    3.10    4.20
  -7   6   4    1.10    3.00
  -7   6   4    4.00    2.10
  -7  -6   4   -0.40    3.30
  -7  -6   4    2.00    2.10
  -7   6   3    3.80    1.90
  -7   6   3    6.40    2.10
  -7   6   3    2.20    2.90
  -7   6   3    5.70    2.00
  -7  -6   3    6.20    2.40
   7  -6  -3    6.00    2.30
  -7  -6   3    4.20    3.00
  -7   6   2    9.50    2.20
  -7   6   2    8.10    2.80
  -7  -6   2   11.20    2.30
  -7  -6   2   10.70    2.70
   7  -6  -2    6.70    2.50
   7   6  -1   95.99    4.20
  -7   6   1   99.69    4.20
  -7   6   1  116.69    6.60
   7   6  -1  109.59    3.90
   7  -6  -1  111.59    6.30
   7  -6  -1  106.59    5.10
  -7  -6   1  109.79    4.30
  -7  -6   1  124.29    6.10
  -7   6   0   74.89    5.70
  -7   6   0   83.59    4.10
   7  -6   0   71.09    5.50
   7  -6   0   76.09    4.60
  -7  -6   0   84.79    4.60
  -7  -6   0   79.39    4.20
  -7   6  -1  160.98    5.80
   7  -6   1  153.78    6.40
  -7  -6  -1  155.48    6.00
   7  -6   1  156.18    7.70
  -7  -6  -1  148.19    6.60
  -7   6  -2   25.70    3.20
   7   6   2   32.50    3.80
   7  -6   2   33.70    4.40
   7  -6   2   27.50    3.40
  -7  -6  -2   28.50    2.90
   7  -6   2   26.60    3.80
  -7   6  -3  111.29    5.00
   7   6   3  122.49    7.00
   7  -6   3  116.89    7.60
   7  -6   3  118.69    7.50
  -7  -6  -3  117.39    5.40
   7  -6   3  118.69    5.90
   7   6   4    6.80    3.80
   7  -6   4    7.40    3.60
   7  -6   4    5.10    3.20
   7  -6   4    5.40    3.10
   7   6   5   13.20    4.00
   7  -6   5   13.00    5.40
   7   7  -6   19.80    5.90
  -7   7   6   -1.20    2.50
  -7   7   6    4.40    3.90
  -7  -7   6   -4.10    4.40
  -7  -7   6    0.50    2.40
  -7   7   5   29.10    3.10
  -7   7   5   24.40    4.20
   7   7  -5   37.20    6.00
  -7  -7   5   27.10    3.00
  -7  -7   5   24.70    4.10
   7   7  -4   12.20    4.30
  -7   7   4   16.50    2.60
  -7   7   4    9.70    3.70
  -7  -7   4   15.20    2.70
  -7  -7   4   11.40    3.80
   7   7  -3   30.60    2.70
  -7   7   3   26.50    3.80
  -7   7   3   30.70    3.30
  -7  -7   3   34.60    3.30
   7  -7  -3   27.20    3.00
  -7  -7   3   32.40    5.00
  -7   7   2    1.60    2.80
  -7   7   2    0.30    2.20
  -7  -7   2    4.40    2.30
  -7  -7   2    0.50    2.60
   7  -7  -2   -0.80    2.40
  -7   7   1   10.80    2.40
  -7   7   1   10.00    3.10
  -7  -7   1   10.80    2.40
   7  -7  -1    5.90    3.20
  -7  -7   1    9.50    2.50
   7  -7  -1    9.20    2.30
  -7   7   0   47.10    3.00
  -7   7   0   42.60    4.40
   7  -7   0   46.40    3.50
  -7  -7   0   50.69    3.90
   7  -7   0   43.00    5.00
  -7  -7   0   56.29    3.90
  -7   7  -1   10.40    2.50
  -7  -7  -1    5.80    1.70
   7  -7   1    8.10    3.00
  -7  -7  -1   10.20    2.80
   7  -7   1    9.00    3.40
  -7   7  -2    2.10    2.20
   7  -7   2    2.30    2.90
   7  -7   2    1.60    3.00
  -7  -7  -2    0.80    2.70
   7  -7   2   -0.30    2.20
  -7   7  -3    0.10    2.30
   7   7   3    0.20    2.90
  -7  -7  -3    1.40    2.70
   7  -7   3    3.80    3.50
   7  -7   3    9.40    4.40
   7  -7   3    3.00    3.00
   7   7   4   14.60    3.70
   7  -7   4   11.90    3.60
   7  -7   4   13.70    5.00
   7  -7   4   11.80    3.50
   7  -7   5    8.90    3.80
  -7   8   5   -0.70    2.40
  -7   8   5   -2.10    3.70
   7   8  -5    6.10    5.60
  -7  -8   5    4.10    2.70
  -7  -8   5    2.20    4.40
  -7   8   4   18.80    3.90
  -7   8   4   21.10    2.80
   7   8  -4   21.90    6.00
  -7  -8   4   17.30    4.20
  -7  -8   4   20.50    3.00
  -7   8   3    5.60    3.40
  -7   8   3    6.30    2.50
   7   8  -3    6.20    2.00
  -7  -8   3    8.80    2.60
   7  -8  -3    7.60    3.00
  -7  -8   3    1.90    3.30
  -7   8   2   81.09    3.90
   7   8  -2   85.99    4.50
  -7   8   2   77.29    5.70
  -7  -8   2   87.79    6.00
   7  -8  -2   89.39    5.00
  -7  -8   2   88.29    4.50
  -7   8   1   20.10    3.80
  -7   8   1   22.60    2.70
   7  -8  -1   24.00    3.40
  -7  -8   1   31.00    2.90
  -7  -8   1   20.00    2.90
   7  -8  -1   20.20    3.90
  -7   8   0  104.79    4.90
  -7   8   0   98.39    7.00
   7   8   0   98.19    4.40
  -7  -8   0   95.29    5.70
   7  -8   0   98.29    5.50
   7  -8   0   89.59    6.20
  -7  -8   0   97.29    4.40
  -7   8  -1   32.30    3.60
   7   8   1   31.60    3.10
   7  -8   1   30.60    4.30
  -7  -8  -1   32.60    3.20
   7  -8   1   38.10    4.50
  -7  -8  -1   30.30    3.50
  -7   8  -2   48.10    3.90
  -7  -8  -2   46.60    4.40
   7  -8   2   44.40    6.20
   7  -8   2   52.19    6.30
   7  -8   2   43.20    4.80
  -7   8  -3   11.00    2.60
  -7  -8  -3   11.40    3.20
   7  -8   3    8.90    3.70
   7  -8   3   12.90    3.60
   7  -8   3    5.50    4.40
   7   8   4    7.20    3.60
   7  -8   4    8.50    3.50
   7  -8   4    5.50    3.90
   7  -8   4    7.10    4.00
  -7   9   5   -2.10    2.50
   7   9  -5    4.10    6.00
  -7   9   5   -3.50    4.00
  -7  -9   5    0.70    4.60
  -7  -9   5   -1.10    2.70
  -7   9   4   29.60    3.40
   7   9  -4   19.90    6.60
  -7   9   4   21.50    4.40
  -7  -9   4   26.70    3.40
  -7  -9   4   14.80    4.40
   7   9  -3    3.00    2.00
  -7   9   3    1.40    2.60
  -7   9   3   -1.10    3.60
   7  -9  -3    0.40    2.80
  -7  -9   3    4.10    2.70
  -7  -9   3    0.60    3.50
  -7   9   2    0.70    1.90
   7   9  -2    2.90    2.20
  -7   9   2    0.50    3.30
  -7  -9   2    9.20    2.60
  -7  -9   2    2.70    3.00
   7  -9  -2    3.50    3.00
   7   9  -1    2.10    2.40
  -7   9   1   -4.70    3.30
  -7   9   1   -0.30    1.90
   7  -9  -1   -0.40    3.20
  -7  -9   1   -0.80    2.80
   7  -9  -1   -5.20    3.30
  -7  -9   1    3.10    2.80
  -7   9   0   10.40    2.80
  -7   9   0    4.70    3.50
   7   9   0    6.50    1.30
   7  -9   0    1.50    3.70
  -7  -9   0   15.00    3.10
  -7  -9   0    8.50    2.50
   7  -9   0    8.10    3.40
  -7   9  -1    1.70    2.60
   7   9   1    1.90    1.60
   7  -9   1   -0.90    3.60
   7  -9   1    1.30    3.20
  -7  -9  -1    4.10    2.30
  -7  -9  -1    1.00    2.00
   7  -9   1    0.40    3.80
  -7   9  -2    4.00    2.70
   7   9   2    1.60    1.90
   7  -9   2   -0.60    3.50
   7  -9   2    1.10    4.10
  -7  -9  -2    1.90    3.10
   7  -9   2    0.10    3.60
  -7   9  -3   -1.10    2.60
   7   9   3    0.90    2.50
   7  -9   3    0.60    3.60
   7  -9   3    0.50    3.70
  -7  -9  -3    1.90    3.10
   7  -9   3   -0.10    4.60
   7   9   4    3.70    3.20
   7  -9   4    0.70    5.00
   7  -9   4    4.50    4.30
   7  -9   4    6.90    3.70
   7  10  -5    4.00    6.70
  -7  10   5   -0.30    2.70
  -7  10   5   -0.80    4.20
  -7 -10   5    1.00    2.70
  -7 -10   5    0.00    4.80
   7  10  -4  -17.80    6.40
  -7  10   4    0.60    4.00
  -7  10   4    0.40    2.70
  -7 -10   4    0.20    4.10
  -7 -10   4    0.70    3.20
  -7  10   3   -1.60    2.90
  -7  10   3   -3.70    2.70
   7 -10  -3   -2.90    3.10
  -7 -10   3    1.80    3.70
  -7 -10   3    4.00    2.90
  -7  10   2   10.40    2.80
   7  10  -2   10.60    2.50
  -7  10   2    4.60    3.80
  -7 -10   2    7.30    3.30
  -7 -10   2    8.60    2.90
   7 -10  -2    7.00    2.70
  -7  10   1   27.20    4.60
   7  10  -1   41.20    3.90
  -7  10   1   33.20    3.20
   7 -10  -1   38.70    4.30
  -7 -10   1   42.90    4.90
   7 -10  -1   25.30    4.30
  -7 -10   1   46.10    4.40
   7  10   0   53.49    4.30
  -7  10   0   45.00    4.30
   7  10   0   37.60    2.80
  -7  10   0   37.20    4.70
   7 -10   0   37.20    4.50
   7 -10   0   49.90    5.20
  -7 -10   0   44.10    4.80
  -7 -10   0   51.39    4.60
   7  10   1   76.29    4.40
  -7  10  -1   78.19    4.90
   7  10   1   79.39    5.10
  -7 -10  -1   73.49    4.30
   7 -10   1   73.89    5.70
   7 -10   1   63.69    7.90
   7 -10   1   68.29    6.50
  -7 -10  -1   65.19    5.10
  -7  10  -2   14.00    3.10
   7  10   2   20.80    3.50
   7  10   2   12.50    2.40
   7 -10   2   21.00    4.20
   7 -10   2   16.90    5.00
   7 -10   2   20.40    4.60
  -7 -10  -2   20.00    3.60
   7  10   3   47.20    5.20
  -7  10  -3   33.70    3.60
   7  10   3   34.10    5.20
   7 -10   3   30.20    5.50
   7 -10   3   29.80    5.40
  -7 -10  -3   36.70    4.10
   7 -10   3   33.50    4.60
   7  10   4    0.80    3.40
   7  10   4   11.70    3.70
   7 -10   4    2.70    4.60
   7 -10   4    0.70    3.90
   7 -10   4    1.00    5.30
  -7  11   4   -2.90    3.00
   7  11  -4   -4.90    5.70
  -7  11   4   -1.50    4.20
  -7 -11   4    4.10    3.60
  -7 -11   4    1.60    4.40
  -7  11   3    6.50    3.10
  -7  11   3    3.70    4.10
  -7 -11   3    9.20    4.20
  -7 -11   3    7.80    3.30
   7 -11  -3    1.70    3.50
  -7  11   2    4.30    3.00
   7  11  -2    9.70    2.80
  -7  11   2   -0.10    3.80
  -7 -11   2    6.60    3.20
  -7 -11   2    5.40    3.60
   7 -11  -2    5.20    3.60
  -7  11   1    2.00    2.90
   7  11  -1    4.50    2.70
  -7  11   1   -2.60    3.80
  -7 -11   1    4.80    3.30
   7 -11  -1    5.70    3.80
   7 -11  -1   -8.40    3.30
  -7 -11   1    2.00    3.40
  -7  11   0   21.80    4.50
   7  11   0   39.20    4.30
  -7  11   0   31.10    3.60
  -7 -11   0   44.20    4.70
  -7 -11   0   37.70    5.20
   7 -11   0   24.80    4.30
   7 -11   0   26.10    4.20
   7  11   1    0.30    1.80
  -7  11  -1    0.10    2.90
   7  11   1    0.40    3.10
   7 -11   1   -2.60    4.30
   7 -11   1   -4.60    3.90
  -7 -11  -1    0.60    3.40
  -7 -11  -1    0.20    2.70
   7 -11   1   -2.70    3.80
   7  11   2    1.10    2.20
  -7  11  -2   -2.00    2.90
   7  11   2    0.30    2.50
   7 -11   2    1.40    4.40
  -7 -11  -2    1.40    2.70
   7 -11   2   -2.00    4.40
   7 -11   2    1.40    4.00
   7  11   3    0.80    3.50
   7  11   3    0.90    2.70
   7 -11   3    2.70    4.20
   7 -11   3   -1.20    4.80
   7 -11   3   -2.30    4.80
  -7 -11  -3   -2.50    3.60
  -7  12   4    1.50    3.30
  -7  12   4   -3.30    4.50
  -7 -12   4    4.80    4.50
  -7 -12   4    4.20    3.40
  -7  12   3    2.60    3.30
  -7  12   3    0.80    4.10
  -7 -12   3    6.90    3.60
   7 -12  -3    7.20    4.00
  -7 -12   3    5.90    4.30
  -7  12   2   15.10    3.30
   7  12  -2   16.90    2.90
  -7  12   2    8.40    4.40
  -7 -12   2   16.60    4.20
  -7 -12   2   12.90    3.50
   7 -12  -2   10.50    4.10
   7  12  -1   15.90    3.20
  -7  12   1   15.00    3.40
  -7  12   1    9.10    3.60
   7 -12  -1    1.60    3.90
   7 -12  -1   14.90    3.40
  -7 -12   1   15.40    3.70
  -7 -12   1   10.30    3.80
  -7  12   0   19.50    3.50
   7  12   0   19.40    2.80
  -7  12   0   14.30    4.60
   7 -12   0   13.80    4.00
  -7 -12   0   24.60    4.00
  -7 -12   0   19.90    3.40
   7 -12   0   24.10    3.70
  -7  12  -1    7.10    3.30
   7  12   1   17.00    3.50
   7 -12   1   12.80    4.40
   7 -12   1    9.90    5.20
  -7 -12  -1   13.80    4.00
   7 -12   1    8.60    4.30
   7  12   2   17.30    3.70
   7  12   2   11.60    2.70
  -7  12  -2    9.30    3.40
   7 -12   2    6.50    5.10
   7 -12   2   13.50    3.60
   7 -12   2   11.50    4.80
  -7 -12  -2   12.30    4.00
   7  12   3   -0.30    2.90
   7  12   3    7.40    3.80
   7 -12   3   -0.40    4.40
   7 -12   3   -5.20    4.60
  -7 -12  -3    5.50    3.90
   7 -12   3   -1.70    5.10
  -7  13   3    0.30    4.50
  -7  13   3    0.10    3.40
  -7 -13   3    1.90    3.70
  -7 -13   3   -0.50    4.50
   7  13  -2    4.30    2.80
  -7  13   2   -4.00    4.30
  -7  13   2    0.70    3.40
   7 -13  -2   -1.60    4.00
  -7 -13   2    2.50    4.10
  -7 -13   2    4.60    3.70
  -7  13   1   -2.40    4.40
   7  13  -1    3.20    2.90
  -7  13   1    3.60    3.40
  -7 -13   1    5.70    3.80
   7 -13  -1   -0.20    4.30
  -7 -13   1    4.70    3.70
  -7  13   0   -2.30    4.40
  -7  13   0   -1.60    3.30
   7  13   0    7.80    3.20
   7 -13   0    5.30    4.40
   7 -13   0   -2.20    3.60
  -7 -13   0    4.60    3.20
  -7 -13   0    2.50    3.00
   7  13   1    4.30    3.30
  -7  13  -1   -1.50    3.40
   7 -13   1   -3.40    5.10
  -7 -13  -1    1.70    4.00
   7 -13   1   -2.10    4.20
   7 -13   1    9.30    4.60
  -7  13  -2    0.00    3.30
   7  13   2    4.70    3.70
   7 -13   2   -5.60    4.50
   7 -13   2   -1.80    5.20
  -7 -13  -2    4.70    4.10
   7 -13   2   -0.40    5.20
  -7  14   2    6.30    3.70
  -7  14   2   -6.40    4.60
   7 -14  -2    2.90    4.60
  -7 -14   2    2.90    4.30
  -7 -14   2    8.00    4.20
   7  14  -1   11.10    3.20
  -7  14   1    4.50    3.60
  -7  14   1    2.30    4.90
  -7 -14   1   11.10    4.20
  -7 -14   1   10.00    4.20
   7 -14  -1   11.90    4.70
  -7  14   0    9.30    3.80
   7  14   0   16.50    3.60
  -7  14   0   -0.30    4.80
  -7 -14   0   12.10    4.40
   7 -14   0   11.70    4.80
  -7  14  -1   21.50    4.10
   7  14   1   22.40    4.00
   7 -14   1   17.90    5.00
  -7 -14  -1   19.10    3.70
   7 -14   1   12.30    6.10
   7 -14   1   15.10    5.00
  -8   0   6    5.10    2.10
  -8   0   5    0.40    2.50
  -8   0   5   -2.80    2.10
  -8   0   4    7.40    2.00
  -8   0   4    4.30    2.20
   8   0  -3    1.30    1.40
  -8   0   3    1.40    1.90
  -8   0   3    3.80    1.90
   8   0  -3    1.20    2.50
  -8   0   3    1.20    1.80
  -8   0   2   77.49    3.70
   8   0  -2   68.09    4.00
  -8   0   2   69.99    3.60
  -8   0   2   71.99    4.20
   8   0  -2   62.99    4.40
   8   0  -1    5.80    2.10
   8   0   0   58.99    5.00
  -8   0   0   50.69    2.90
   8   0   1    4.00    2.50
  -8   0  -1   10.80    2.30
   8   0   2   -0.60    3.40
  -8   0  -2   -0.80    1.80
  -8   0  -2    0.90    2.30
  -8   0  -3    2.10    2.40
   8   0   3    3.40    3.90
   8   0   4   14.90    4.60
   8   0   5    9.40    4.70
  -8   1   6   10.30    2.30
  -8  -1   6   11.40    2.30
  -8   1   5    5.80    2.80
  -8   1   5    8.30    2.30
  -8  -1   5    7.90    2.70
  -8  -1   5    4.80    2.20
  -8   1   4   15.60    2.80
  -8   1   4   22.70    2.70
   8   1  -4   26.30    3.90
  -8  -1   4   21.10    2.50
  -8  -1   4   18.80    2.30
   8   1  -3   68.59    3.40
  -8   1   3   63.49    3.40
  -8   1   3   65.89    4.70
  -8   1   3   62.59    3.50
   8   1  -3   58.79    4.30
  -8  -1   3   61.89    4.00
  -8  -1   3   67.39    3.40
   8  -1  -3   57.99    4.00
  -8  -1   3   63.09    3.50
   8   1  -2   37.60    3.40
  -8   1   2   46.90    4.00
  -8   1   2   40.90    2.90
  -8   1   2   44.20    3.10
   8  -1  -2   35.10    4.10
   8  -1  -2   35.70    3.00
  -8  -1   2   46.20    3.20
  -8  -1   2   45.40    3.00
  -8   1   1  477.15   13.80
   8   1  -1  424.56   17.50
  -8  -1   1  490.85   13.80
   8   1   0   96.59    5.10
  -8   1   0   93.99    4.30
   8   1   0   86.09    5.00
   8  -1   0   91.29    5.90
  -8  -1   0   91.79    4.30
  -8   1  -1  124.39    6.30
   8   1   1  120.19    6.80
  -8   1  -1  124.29    5.00
  -8  -1  -1  118.29    5.80
  -8  -1  -1  120.59    5.00
   8  -1   1  111.49    6.80
  -8   1  -2   21.80    2.60
   8   1   2   17.80    3.80
  -8   1  -2   16.50    2.60
   8  -1   2   20.00    4.00
  -8  -1  -2   10.60    2.00
  -8  -1  -2   16.60    2.70
   8   1   3   32.70    4.50
  -8   1  -3   29.30    3.30
  -8  -1  -3   29.90    3.60
   8  -1   3   28.90    3.90
   8   1   4   13.80    4.40
   8  -1   4    7.40    4.60
   8   1   5   10.40    4.70
   8  -1   5    4.10    4.70
  -8   2   6   -1.20    2.10
  -8   2   6   -0.40    3.10
  -8  -2   6   -4.00    2.00
  -8   2   5   35.70    5.50
  -8   2   5   38.40    3.40
  -8  -2   5   36.10    3.30
   8   2  -4    7.00    3.50
  -8   2   4   -1.10    1.90
  -8   2   4    0.80    2.50
  -8  -2   4   -0.90    2.20
  -8  -2   4   -2.60    1.60
   8   2  -3   17.50    3.40
  -8   2   3   11.90    2.20
  -8   2   3   14.40    2.20
   8   2  -3   22.30    2.00
  -8   2   3   12.70    2.70
  -8  -2   3   16.10    2.30
  -8  -2   3   16.90    2.30
  -8  -2   3   17.50    2.60
   8   2  -2    1.50    1.30
  -8   2   2    4.70    2.10
  -8   2   2    3.40    2.00
  -8  -2   2    2.30    2.00
   8  -2  -2   -0.80    1.90
  -8  -2   2    0.60    1.80
  -8   2   1  141.79    5.30
  -8  -2   1  151.58    5.40
   8  -2  -1  128.89    5.40
   8  -2  -1  125.99    7.00
  -8   2   0    6.90    1.70
   8   2   0    9.90    3.10
   8   2   0    3.90    1.90
   8  -2   0    0.40    3.20
  -8  -2   0    5.90    2.30
   8   2   1  157.48    7.70
  -8   2  -1  150.38    5.50
  -8   2  -1  153.58    7.50
   8  -2   1  148.19    7.70
  -8  -2  -1  164.18    6.00
  -8  -2  -1  156.28    6.90
  -8   2  -2   -1.40    2.30
  -8   2  -2    3.50    2.30
   8   2   2    0.80    3.40
  -8  -2  -2   -1.70    1.40
   8  -2   2   -3.90    2.50
  -8  -2  -2   -3.60    1.70
   8   2   3  109.69    7.20
  -8   2  -3  107.59    4.80
   8  -2   3  109.29    7.50
  -8  -2  -3  100.99    5.00
   8   2   4    0.80    4.00
   8  -2   4    2.40    4.60
   8   2   5   54.69    7.00
   8  -2   5   62.89    7.70
  -8   3   6    7.90    2.30
  -8   3   6    8.40    3.70
  -8  -3   6    5.70    2.30
   8   3  -5   30.20    4.80
  -8   3   5   13.00    3.60
  -8   3   5   19.80    2.60
  -8  -3   5   16.60    2.40
  -8   3   4    3.00    3.00
   8   3  -4    9.40    3.70
  -8   3   4    7.80    2.30
  -8  -3   4    2.60    2.30
   8   3  -3  106.09    6.00
  -8   3   3  107.79    6.20
  -8   3   3  116.49    4.70
  -8   3   3  115.49    4.70
  -8  -3   3  106.99    4.50
  -8  -3   3  113.59    4.70
  -8   3   2   16.00    2.70
  -8   3   2   19.40    2.40
   8   3  -2   17.40    2.00
  -8  -3   2   14.90    2.30
  -8  -3   2   20.10    2.50
  -8   3   1  493.85   19.10
  -8   3   1  522.25   15.20
   8  -3  -1  518.55   18.30
  -8  -3   1  521.45   15.20
   8  -3  -1  527.55   15.50
   8  -3  -1  518.85   17.50
  -8   3   0   46.20    3.40
   8   3   0   53.09    3.80
   8  -3   0   48.60    3.90
   8  -3   0   46.30    5.20
  -8  -3   0   45.40    3.00
   8   3   1  108.09    5.90
  -8   3  -1  126.39    5.00
   8  -3   1  102.99    6.10
   8  -3   1  125.89    5.60
  -8  -3  -1  126.39    5.20
  -8   3  -2    4.10    2.40
   8   3   2    3.60    3.50
  -8  -3  -2    3.60    0.60
  -8  -3  -2    3.00    0.80
   8  -3   2    5.80    3.70
  -8  -3  -2    3.20    2.60
  -8   3  -3   23.30    2.80
   8   3   3   23.40    4.10
   8  -3   3   26.90    4.70
  -8  -3  -3   19.00    2.90
   8   3   4    4.60    4.00
   8  -3   4    4.20    4.70
   8   3   5    5.80    4.40
   8  -3   5    5.30    4.90
  -8   4   6    4.80    2.30
  -8   4   6    4.40    3.80
  -8  -4   6    3.00    2.20
  -8   4   5   -0.30    3.50
   8   4  -5    5.80    3.60
  -8   4   5    0.70    2.30
  -8  -4   5    3.80    2.30
  -8   4   4    4.60    3.30
  -8   4   4    6.40    2.10
   8   4  -4    5.80    4.10
  -8  -4   4    3.60    2.10
  -8   4   3    4.30    2.00
  -8   4   3    2.00    2.10
  -8   4   3    4.60    2.70
  -8  -4   3    3.90    2.20
  -8  -4   3    1.80    1.80
  -8   4   2   43.90    4.80
  -8   4   2   41.40    3.30
   8   4  -2   39.90    2.00
  -8  -4   2   39.40    3.40
   8  -4  -2   47.10    3.70
   8  -4  -1    9.30    3.50
  -8  -4   1   12.90    2.00
   8   4   0   38.40    3.50
  -8   4   0   30.70    3.30
   8  -4   0   32.60    4.10
  -8  -4   0   37.70    3.60
   8  -4   0   32.80    3.00
   8  -4   0   31.50    1.80
  -8   4  -1    5.90    2.30
   8   4   1    2.80    2.50
  -8  -4  -1    5.90    2.60
   8  -4   1    9.80    2.90
   8  -4   1    0.70    3.40
   8   4   2   -1.20    3.20
  -8   4  -2    0.90    2.30
   8  -4   2    1.50    3.70
  -8  -4  -2    2.90    2.70
   8  -4   2    2.70    2.90
   8   4   3    9.30    3.70
  -8   4  -3    6.40    2.40
  -8  -4  -3    6.90    2.80
   8  -4   3    7.50    4.20
   8   4   4   13.60    4.10
   8  -4   4   12.50    5.00
   8   4   5    2.20    4.60
   8  -4   5    4.10    5.30
  -8   5   6   14.80    2.50
  -8   5   6    9.60    3.90
  -8  -5   6    4.30    4.80
  -8  -5   6   14.10    2.60
  -8   5   5    1.30    2.40
  -8   5   5   -0.50    3.30
   8   5  -5    8.80    4.70
  -8  -5   5    1.60    2.40
  -8   5   4   29.30    3.60
   8   5  -4   33.90    5.30
  -8   5   4   23.70    4.10
  -8  -5   4   31.90    3.70
  -8   5   3   10.10    3.10
  -8   5   3    9.20    2.40
   8  -5  -3   11.40    2.50
  -8  -5   3   11.40    2.40
  -8   5   2   45.60    3.50
  -8   5   2   52.39    5.20
  -8  -5   2   43.80    3.00
   8  -5  -2   47.30    3.80
  -8   5   1  173.88    8.50
  -8   5   1  183.18    6.50
  -8  -5   1  181.78    6.60
   8  -5  -1  180.88    6.90
   8  -5  -1  170.88    8.50
   8   5   0   80.89    4.30
  -8   5   0   70.39    4.10
   8  -5   0   69.39    5.90
   8  -5   0   75.69    4.00
  -8  -5   0   67.69    3.70
  -8   5  -1   44.40    3.60
   8  -5   1   45.50    4.30
   8  -5   1   44.00    5.50
  -8  -5  -1   41.10    3.10
  -8  -5  -1   41.50    3.90
  -8   5  -2   13.70    2.70
   8   5   2   14.90    3.70
   8  -5   2   14.50    3.50
  -8  -5  -2   18.50    2.60
   8  -5   2   15.70    3.30
  -8   5  -3   17.70    2.80
   8   5   3   24.20    4.10
   8  -5   3   15.50    3.50
  -8  -5  -3   18.70    3.20
   8  -5   3   18.50    4.60
   8   5   4    9.10    4.50
   8  -5   4   10.60    4.10
   8   6  -5   22.60    4.70
  -8   6   5   17.60    4.10
  -8   6   5   17.70    2.90
  -8  -6   5   12.70    4.80
  -8  -6   5   17.40    2.80
  -8   6   4    2.30    2.30
   8   6  -4   -0.70    4.80
  -8   6   4   -0.30    3.30
  -8  -6   4    2.60    2.70
  -8  -6   4    1.40    3.90
  -8   6   3    5.10    3.20
  -8   6   3    5.60    2.40
   8  -6  -3    5.40    2.80
  -8  -6   3    5.00    3.10
  -8  -6   3    7.40    2.50
  -8   6   2    6.00    3.10
  -8   6   2    3.80    2.40
  -8  -6   2    4.60    2.50
   8  -6  -2    3.20    2.70
  -8  -6   2    3.20    2.60
  -8   6   1   58.99    5.70
  -8   6   1   57.29    3.90
  -8  -6   1   53.89    4.50
  -8  -6   1   61.49    4.10
   8  -6  -1   59.59    4.50
   8  -6  -1   43.00    5.60
   8   6   0   20.30    2.80
  -8   6   0   14.60    2.20
   8  -6   0   12.30    3.10
  -8  -6   0   10.80    2.20
  -8  -6   0   16.90    3.00
   8  -6   0   13.30    3.80
  -8   6  -1   55.39    3.90
  -8  -6  -1   61.79    4.40
   8  -6   1   58.89    4.70
  -8  -6  -1   51.69    3.60
   8  -6   1   57.19    6.00
  -8   6  -2   -0.50    2.40
   8   6   2   -1.00    3.20
   8  -6   2   -1.40    2.30
  -8  -6  -2   -2.60    2.80
   8  -6   2   -2.10    4.10
  -8   6  -3   52.79    4.00
   8   6   3   55.49    6.30
  -8  -6  -3   51.09    4.60
   8  -6   3   60.49    5.10
   8  -6   3   59.69    7.30
   8   6   4    1.10    4.20
   8  -6   4    8.10    5.20
   8  -6   4    8.00    3.60
  -8   7   5   12.80    4.50
   8   7  -5   18.80    6.00
  -8   7   5   13.90    3.10
  -8  -7   5   10.40    4.80
  -8  -7   5   12.60    3.00
   8   7  -4   -6.50    5.30
  -8   7   4    2.80    2.60
  -8   7   4    0.00    3.60
  -8  -7   4   -2.30    3.80
  -8  -7   4   -0.20    2.50
  -8   7   3   81.29    4.50
   8   7  -3   82.19    4.00
  -8   7   3   84.19    6.90
  -8  -7   3   83.49    6.70
  -8  -7   3   87.89    4.70
   8  -7  -3   78.69    4.70
  -8   7   2    4.10    2.50
  -8   7   2    4.00    3.40
  -8  -7   2    9.90    2.70
   8  -7  -2    7.20    3.00
  -8  -7   2    6.40    3.20
  -8   7   1  238.78   10.80
  -8   7   1  249.58    8.30
  -8  -7   1  254.97   11.00
   8  -7  -1  236.78   11.10
  -8  -7   1  271.17    8.70
   8  -7  -1  254.37    9.00
  -8   7   0   17.50    2.90
  -8  -7   0   14.70    2.50
   8  -7   0    9.50    3.90
  -8  -7   0   12.00    2.40
   8  -7   0   13.60    3.40
  -8   7  -1   52.89    4.10
   8  -7   1   43.50    6.10
  -8  -7  -1   47.90    3.60
   8  -7   1   52.69    4.90
  -8  -7  -1   54.49    4.50
  -8   7  -2   -2.40    2.60
   8  -7   2    1.80    3.40
   8  -7   2   -6.40    4.20
  -8  -7  -2   -1.60    3.10
  -8   7  -3    6.70    2.80
   8   7   3    9.00    3.50
   8  -7   3    8.80    3.60
   8  -7   3   10.70    4.80
  -8  -7  -3    5.90    3.30
   8  -7   3    7.50    3.30
   8   7   4   -4.50    3.40
   8  -7   4    7.60    3.70
   8  -7   4   -3.20    4.90
   8   8  -5   12.90    6.50
  -8   8   5    1.90    2.60
  -8   8   5    2.50    4.20
  -8  -8   5   -1.60    4.40
  -8  -8   5   -0.60    2.90
  -8   8   4    2.20    3.90
   8   8  -4   -0.90    6.00
  -8   8   4   -0.80    2.60
  -8  -8   4    3.00    3.10
  -8  -8   4   -0.40    4.00
   8   8  -3    6.10    2.10
  -8   8   3    0.70    3.60
  -8   8   3    0.60    2.60
  -8  -8   3    2.30    3.50
  -8  -8   3    6.60    2.80
   8  -8  -3    5.30    2.90
  -8   8   2   16.70    2.40
  -8   8   2   10.50    3.80
   8  -8  -2   14.50    3.30
  -8  -8   2   17.10    3.40
  -8  -8   2   14.20    3.10
  -8   8   1    3.40    3.50
  -8   8   1    8.00    2.70
   8  -8  -1    7.00    3.30
  -8  -8   1    5.00    2.60
   8  -8  -1   -1.90    3.60
  -8  -8   1    8.20    2.30
  -8   8   0    8.60    2.80
   8   8   0    7.40    1.40
   8  -8   0    8.10    3.50
  -8  -8   0   10.60    2.50
  -8  -8   0    8.90    2.50
   8  -8   0    7.60    3.80
  -8   8  -1    3.50    2.80
   8  -8   1    4.70    2.80
   8  -8   1   -0.60    4.00
  -8  -8  -1    4.80    1.90
  -8  -8  -1    5.60    2.50
  -8   8  -2    2.70    2.70
  -8  -8  -2   -2.60    3.30
   8  -8   2   -0.60    3.50
   8  -8   2   -5.00    4.20
  -8   8  -3    7.60    2.80
   8  -8   3    9.20    4.00
  -8  -8  -3    8.00    3.40
   8  -8   3    8.20    3.70
   8  -8   3    4.30    5.10
   8  -8   4    5.80    3.90
   8  -8   4    8.00    5.60
  -8   9   5   -0.10    3.10
   8   9  -5    1.20    6.40
  -8   9   5   -0.30    4.30
  -8  -9   5   -0.30    5.10
  -8  -9   5   -1.00    2.70
  -8   9   4   12.60    4.30
   8   9  -4    5.10    7.00
  -8   9   4   18.80    3.50
  -8  -9   4   18.30    3.20
  -8  -9   4   12.70    4.60
  -8   9   3   -0.20    2.80
  -8   9   3   -5.60    2.80
   8  -9  -3   -2.20    3.00
  -8  -9   3    0.80    3.20
  -8  -9   3    1.20    3.70
  -8   9   2   29.20    3.40
  -8   9   2   21.90    4.40
   8   9  -2   36.20    3.80
   8  -9  -2   30.20    3.90
  -8  -9   2   26.30    4.20
  -8  -9   2   28.00    3.50
  -8   9   1   28.40    3.40
  -8   9   1   22.80    4.40
  -8  -9   1   35.80    4.30
  -8  -9   1   39.20    5.20
   8  -9  -1   16.50    4.70
   8  -9  -1   27.80    4.00
  -8   9   0   36.00    4.20
  -8   9   0   24.90    3.80
   8  -9   0   29.70    4.20
  -8  -9   0   40.40    4.60
   8  -9   0   29.80    4.70
  -8  -9   0   32.20    4.60
  -8   9  -1   -0.20    2.90
   8   9   1    0.20    1.70
  -8  -9  -1    0.70    2.60
   8  -9   1    0.90    3.70
   8  -9   1   -2.10    4.20
  -8   9  -2   -0.20    2.90
   8   9   2    1.60    2.20
   8  -9   2    3.20    2.90
   8  -9   2    4.50    4.70
  -8  -9  -2    6.80    3.50
   8   9   3    1.60    2.90
   8  -9   3    0.80    3.90
   8  -9   3   -7.80    4.80
  -8  -9  -3    2.40    3.30
   8  -9   3    4.70    4.00
  -8  10   4   -0.90    3.40
  -8  10   4   -3.60    4.30
   8  10  -4  -15.30    7.00
  -8 -10   4   -3.10    3.00
  -8 -10   4   -1.40    4.40
  -8  10   3   -4.80    4.00
  -8  10   3   -0.40    3.00
   8 -10  -3   -1.40    3.70
  -8 -10   3    1.70    3.10
  -8 -10   3    1.50    3.70
  -8  10   2    0.20    4.00
  -8  10   2    1.30    2.30
   8  10  -2    3.40    2.60
   8 -10  -2   -1.90    3.60
  -8 -10   2    1.30    3.10
  -8 -10   2    1.50    3.50
  -8  10   1    4.80    4.10
  -8  10   1    8.90    3.10
   8  10  -1    9.80    3.00
  -8 -10   1    7.10    3.30
   8 -10  -1    0.40    3.80
   8 -10  -1   10.60    3.90
  -8 -10   1    9.60    3.40
   8  10   0    3.50    2.40
  -8  10   0   -0.10    3.90
  -8  10   0   -2.00    2.90
   8 -10   0   -1.90    4.30
  -8 -10   0    7.30    3.50
  -8 -10   0    4.60    2.70
   8 -10   0    4.40    3.90
  -8  10  -1    1.50    3.10
   8 -10   1    1.40    4.20
  -8 -10  -1    5.40    3.50
   8 -10   1    3.10    3.90
   8  10   2    0.10    2.20
  -8  10  -2   -2.00    3.00
  -8 -10  -2   -0.10    2.80
   8 -10   2    0.70    4.80
   8 -10   2   -2.10    4.20
   8 -10   2    1.10    3.10
   8  10   3    8.70    2.80
   8 -10   3   16.00    4.50
   8 -10   3   11.80    5.30
   8 -10   3    9.90    5.00
  -8 -10  -3   11.70    4.00
  -8  11   4    0.60    3.30
  -8  11   4   -0.30    4.40
  -8 -11   4    1.90    4.80
  -8 -11   4    0.10    3.30
  -8  11   3   23.70    3.60
  -8  11   3   21.10    4.80
  -8 -11   3   24.20    3.80
  -8 -11   3   22.80    4.60
  -8  11   2    2.80    3.20
   8  11  -2    5.60    2.80
  -8  11   2   -2.50    4.00
   8 -11  -2    0.80    3.80
  -8 -11   2   -0.10    3.30
  -8 -11   2    1.80    3.70
   8  11  -1   70.59    4.90
  -8  11   1   57.79    4.20
  -8  11   1   54.49    7.80
   8 -11  -1   61.89    6.10
  -8 -11   1   68.89    6.50
  -8 -11   1   69.69    5.30
  -8  11   0   -5.30    4.00
   8  11   0    2.40    2.40
  -8  11   0    0.70    3.20
  -8 -11   0    3.40    3.60
  -8 -11   0    2.60    2.70
   8 -11   0    6.30    4.20
   8 -11   0   -3.50    4.40
  -8  11  -1   13.00    3.50
   8  11   1   19.60    3.80
   8 -11   1   12.30    3.50
   8 -11   1    8.60    5.10
  -8 -11  -1   10.90    3.90
   8  11   2    5.90    3.60
  -8  11  -2   -2.40    3.20
  -8 -11  -2    3.70    3.90
   8 -11   2   -3.70    4.90
   8 -11   2   -0.10    4.70
   8 -11   2    2.30    4.30
   8  11   3    4.10    4.00
   8  11   3   -0.60    2.90
   8 -11   3   -2.40    4.30
  -8 -11  -3    0.00    4.10
   8 -11   3    1.20    5.00
  -8  12   3   -1.90    3.30
  -8  12   3   -3.40    4.40
  -8 -12   3    3.70    4.10
  -8 -12   3    1.50    4.30
   8  12  -2    5.10    2.90
  -8  12   2    0.30    3.40
  -8  12   2   -2.30    4.40
  -8 -12   2    4.40    3.90
   8 -12  -2   -0.90    4.00
  -8 -12   2    1.90    3.70
   8  12  -1    5.90    3.10
  -8  12   1   -3.40    4.30
  -8  12   1    2.90    3.40
  -8 -12   1    0.10    2.80
  -8 -12   1    4.60    3.50
   8 -12  -1  -12.60    4.50
   8 -12  -1    2.20    4.40
   8  12   0    4.80    3.30
  -8  12   0    5.40    3.50
  -8  12   0   -0.90    4.50
   8 -12   0    3.80    4.50
  -8 -12   0    4.30    3.20
   8 -12   0    1.00    4.60
  -8 -12   0    4.30    3.00
   8  12   1    9.30    2.90
  -8  12  -1   -0.60    3.50
  -8 -12  -1    2.20    4.10
   8 -12   1   -1.70    5.10
   8 -12   1    5.60    4.60
   8  12   2    5.10    3.70
  -8  12  -2   -3.20    3.20
  -8 -12  -2   -3.10    4.10
   8 -12   2   -4.00    4.60
   8 -12   2   -5.10    5.00
   8 -12   2    1.40    5.10
  -8  13   2    5.20    3.60
  -8  13   2   -3.40    4.80
   8 -13  -2    5.80    4.60
  -8 -13   2    7.80    4.20
  -8 -13   2    6.90    4.60
  -8  13   1    0.40    2.80
  -8  13   1   -2.60    3.60
   8  13  -1    9.10    3.20
   8 -13  -1    1.20    3.50
  -8 -13   1    5.00    3.70
  -8 -13   1    6.00    4.10
  -8  13   0    7.50    3.80
   8  13   0   19.70    3.70
  -8  13   0    4.00    4.80
   8 -13   0   11.10    4.70
   8 -13   0    5.50    4.90
  -8 -13   0   13.30    4.40
  -8  13  -1   -2.80    3.40
   8  13   1    4.30    3.60
   8 -13   1    0.30    5.20
   8 -13   1    1.10    4.80
  -8 -13  -1    2.40    4.30
  -9   0   6    9.10    2.50
  -9   0   5   -2.90    2.50
  -9   0   4   41.00    4.60
   9   0  -4   47.90    4.60
  -9   0   4   48.70    3.60
  -9   0   3    2.20    2.00
   9   0  -3    4.30    2.90
  -9   0   3    4.40    2.30
   9   0  -2  234.98    9.30
  -9   0   2  241.08    8.00
  -9   0   1   -0.60    1.80
   9   0   0   93.89    6.60
  -9   0   0   95.09    4.20
  -9   0  -1    6.40    2.70
   9   0   1    1.60    3.70
  -9   0  -2    0.70    2.50
   9   0   2    1.90    4.00
  -9   0  -3    1.50    2.70
   9   0   3    2.40    4.40
   9   0   4    6.00    4.60
  -9   1   6   -5.80    2.40
  -9  -1   6   -8.60    2.30
  -9   1   5    3.80    2.80
  -9   1   5    7.10    2.70
  -9  -1   5    6.60    2.60
   9   1  -4    5.40    3.50
  -9   1   4    2.50    2.60
  -9   1   4    6.50    2.60
  -9  -1   4    4.70    2.30
  -9  -1   4    2.30    2.10
  -9   1   3   51.39    4.70
  -9   1   3   49.70    3.60
   9   1  -3   49.30    4.30
   9  -1  -3   46.50    4.30
  -9  -1   3   49.00    3.60
  -9  -1   3   46.30    3.80
   9   1  -2    4.40    1.90
  -9   1   2    7.90    2.40
  -9   1   2    6.20    2.00
   9  -1  -2    7.00    2.60
  -9  -1   2   10.50    2.50
  -9   1   1   35.50    3.60
  -9  -1   1   37.90    3.60
  -9   1   0   40.40    3.70
   9   1   0   41.90    5.30
  -9  -1   0   45.80    3.80
   9  -1   0   35.70    4.30
  -9   1  -1   67.49    4.30
   9   1   1   61.59    5.00
  -9  -1  -1   73.29    4.40
   9  -1   1   62.49    6.10
  -9  -1  -1   57.69    3.60
  -9   1  -2   29.50    3.20
   9   1   2   28.20    4.50
   9  -1   2   24.90    4.70
  -9  -1  -2   25.10    3.00
  -9   1  -3   30.40    3.30
   9   1   3   26.30    4.90
  -9  -1  -3   27.50    3.40
   9  -1   3   27.20    5.00
   9   1   4   24.80    5.10
   9  -1   4   20.30    5.30
  -9   2   5   67.19    6.30
  -9   2   5   73.29    4.30
  -9  -2   5   67.79    4.40
  -9   2   4    0.00    2.70
   9   2  -4    0.60    3.70
  -9   2   4    1.80    2.20
  -9  -2   4    0.10    2.60
   9   2  -3   99.99    5.80
  -9   2   3  106.39    6.00
  -9   2   3  102.69    4.70
  -9  -2   3   99.79    4.80
  -9   2   2    6.80    2.50
  -9   2   2    4.20    1.80
   9   2  -2    1.50    1.60
   9  -2  -2    6.10    2.30
  -9  -2   2    6.00    2.40
  -9   2   1  120.39    5.10
   9   2  -1   94.39    6.30
  -9  -2   1  114.39    4.60
   9  -2  -1   96.79    6.90
   9  -2  -1  113.89    4.80
  -9   2   0    1.20    2.50
   9  -2   0    4.20    3.60
  -9  -2   0    7.20    2.60
   9   2   1   10.40    3.80
  -9   2  -1   10.50    2.70
   9  -2   1    5.00    3.00
  -9  -2  -1    9.60    2.80
  -9  -2  -1    9.60    1.90
  -9   2  -2   -1.00    2.60
   9   2   2    1.30    3.90
   9  -2   2   -0.60    3.10
  -9  -2  -2    0.00    2.80
   9   2   3   16.30    4.40
  -9   2  -3   20.80    3.00
   9  -2   3   20.20    4.10
  -9  -2  -3   14.60    3.20
   9   2   4    4.90    4.70
   9  -2   4    4.60    5.00
   9   3  -5    9.80    4.50
  -9   3   5    2.90    3.10
  -9   3   5    5.00    2.60
  -9  -3   5    3.10    2.70
  -9   3   4    2.20    2.80
   9   3  -4    4.70    3.90
  -9   3   4    6.40    2.70
  -9  -3   4    4.00    2.80
  -9   3   3   61.39    3.90
   9   3  -3   56.59    5.10
  -9   3   3   60.79    5.20
  -9  -3   3   56.29    4.00
  -9   3   2    7.60    2.40
  -9   3   2    5.20    2.50
  -9  -3   2    8.00    2.60
  -9   3   1   55.69    3.90
   9  -3  -1   48.70    3.00
   9  -3  -1   41.80    5.00
  -9  -3   1   58.79    4.10
  -9   3   0   10.20    2.70
   9  -3   0    6.50    3.90
  -9  -3   0   11.50    2.80
  -9   3  -1   67.49    4.30
   9   3   1   66.99    5.00
  -9  -3  -1   72.19    4.70
   9  -3   1   57.69    6.30
   9   3   2    4.30    3.00
  -9   3  -2    7.60    2.70
   9  -3   2    3.00    3.30
  -9  -3  -2    5.40    3.00
   9   3   3   33.30    5.00
  -9   3  -3   35.50    3.40
   9  -3   3   34.30    4.60
  -9  -3  -3   29.40    3.60
   9   3   4   11.70    4.60
   9  -3   4   11.50    5.30
   9   4  -5    6.50    4.80
  -9   4   5   -0.10    2.30
  -9   4   5    0.90    3.30
  -9  -4   5    0.10    2.60
  -9   4   4   30.30    3.00
  -9   4   4   20.80    3.60
   9   4  -4   28.70    5.10
  -9  -4   4   28.40    3.30
   9   4  -3   -0.70    3.80
  -9   4   3    3.20    3.10
  -9   4   3   -0.50    2.40
  -9  -4   3    2.70    2.90
  -9   4   2  148.69    6.00
  -9   4   2  150.58    7.90
  -9  -4   2  151.88    6.00
  -9   4   1    1.40    2.50
   9  -4  -1   -3.10    3.70
   9  -4  -1    1.00    2.80
  -9  -4   1    2.30    2.10
   9   4   0   64.29    4.60
  -9   4   0   70.79    4.30
  -9  -4   0   66.59    4.50
   9  -4   0   62.29    2.80
   9  -4   0   62.19    4.00
   9  -4   0   54.89    6.20
   9   4   1    6.30    3.70
  -9   4  -1    8.00    2.70
  -9  -4  -1    6.00    3.00
   9  -4   1    7.20    3.30
   9  -4   1   10.80    3.30
   9   4   2    2.90    3.80
  -9   4  -2    4.00    2.10
  -9  -4  -2    0.20    3.10
   9  -4   2   -1.50    4.10
   9   4   3    3.70    4.20
  -9   4  -3    0.40    2.50
  -9  -4  -3   -1.20    3.00
   9  -4   3    2.50    4.70
   9   4   4    7.30    4.60
   9  -4   4    2.70    4.10
  -9   5   5    0.50    3.60
  -9   5   5   -0.30    2.80
   9   5  -5   15.30    5.40
  -9  -5   5    1.80    2.70
  -9   5   4    3.40    2.50
   9   5  -4    1.40    4.80
  -9   5   4   -1.40    3.50
  -9  -5   4    3.80    2.60
  -9   5   3   17.60    3.50
  -9   5   3   22.60    2.90
  -9  -5   3   19.10    3.00
  -9   5   2   20.10    2.80
  -9   5   2   17.00    3.40
  -9  -5   2   23.60    3.10
   9  -5  -2   16.80    3.10
  -9   5   1   18.40    2.90
  -9   5   1    8.70    3.10
  -9  -5   1   18.70    3.10
   9  -5  -1    7.50    4.10
   9  -5  -1   13.30    3.20
  -9   5   0   52.29    3.50
   9  -5   0   49.40    6.20
  -9  -5   0   54.09    3.70
   9  -5   0   60.99    4.80
  -9   5  -1   33.50    3.30
   9  -5   1   29.20    4.70
  -9  -5  -1   26.70    3.10
   9  -5   1   25.60    3.70
  -9  -5  -1   26.70    3.30
  -9   5  -2   32.80    3.90
   9   5   2   36.50    4.70
   9  -5   2   37.60    4.20
   9  -5   2   28.90    5.30
  -9  -5  -2   33.20    3.90
  -9   5  -3   13.80    3.00
   9   5   3   14.40    4.10
   9  -5   3   13.70    5.30
  -9  -5  -3    8.70    3.30
   9   5   4   21.90    5.00
   9  -5   4   22.00    6.00
  -9   6   5   29.70    3.40
  -9   6   5   21.40    4.50
   9   6  -5   38.90    6.50
  -9  -6   5   36.70    4.40
  -9  -6   5   16.50    5.10
  -9   6   4    2.80    3.90
  -9   6   4    6.00    2.70
   9   6  -4    1.80    5.40
  -9  -6   4    0.60    3.90
  -9  -6   4    6.40    3.10
  -9   6   3   39.70    4.00
  -9   6   3   40.40    6.00
  -9  -6   3   46.40    4.00
   9  -6  -3   39.20    4.10
  -9   6   2    5.20    3.40
  -9   6   2   12.50    2.90
   9  -6  -2   11.40    3.20
  -9  -6   2   14.20    2.90
  -9   6   1   59.69    6.00
  -9   6   1   53.59    3.60
   9  -6  -1   58.39    4.90
  -9  -6   1   59.59    4.50
  -9  -6   1   53.59    5.30
   9  -6  -1   47.60    5.70
  -9   6   0   10.80    3.00
   9  -6   0    6.70    4.00
  -9  -6   0   13.00    3.20
  -9  -6   0   11.50    2.50
   9  -6   0   16.40    3.50
  -9   6  -1    4.80    2.80
   9  -6   1    0.70    2.50
   9  -6   1    6.30    4.40
  -9  -6  -1    2.20    2.40
  -9   6  -2   -1.20    2.80
   9  -6   2   -2.10    4.60
   9  -6   2    1.70    3.40
  -9  -6  -2    2.90    3.40
  -9   6  -3   10.60    3.00
   9   6   3    6.60    4.30
   9  -6   3   17.50    5.50
   9  -6   3   12.90    3.90
  -9  -6  -3   11.50    3.60
   9   6   4    0.10    4.00
   9  -6   4    1.90    5.60
  -9   7   5    2.30    2.80
  -9   7   5    1.80    4.10
   9   7  -5    6.60    4.90
  -9  -7   5    3.30    3.10
  -9  -7   5   -4.70    4.60
  -9   7   4    7.30    2.90
  -9   7   4    0.00    3.70
   9   7  -4    2.50    5.90
  -9  -7   4    1.70    4.20
  -9  -7   4    3.40    2.90
  -9   7   3   43.00    4.30
  -9   7   3   34.50    4.60
   9  -7  -3   40.90    4.30
  -9  -7   3   43.70    4.30
  -9  -7   3   46.10    6.80
  -9   7   2    0.70    3.80
  -9   7   2    3.20    2.80
   9  -7  -2    3.10    2.40
  -9  -7   2    1.60    3.10
  -9  -7   2    4.70    3.00
  -9   7   1   47.40    4.40
  -9   7   1   43.50    6.10
   9  -7  -1   31.10    5.00
  -9  -7   1   39.50    3.50
   9  -7  -1   47.00    4.80
  -9  -7   1   44.70    5.30
  -9   7   0    3.00    2.20
  -9  -7   0    6.60    3.20
   9  -7   0   -4.10    4.10
   9  -7   0   -1.10    3.30
  -9  -7   0    0.70    2.30
  -9   7  -1   41.50    4.40
   9  -7   1   40.90    5.50
   9  -7   1   41.50    4.50
  -9  -7  -1   47.00    4.80
  -9   7  -2   -3.00    2.90
   9  -7   2   -1.30    3.70
  -9  -7  -2   -2.30    3.50
   9  -7   2    0.00    4.40
   9  -7   3   22.20    5.80
  -9  -7  -3   18.40    4.00
   9  -7   3   24.50    4.30
  -9   8   4    1.80    4.10
   9   8  -4   -4.60    6.40
  -9   8   4    1.10    3.00
  -9  -8   4   -0.60    4.20
  -9  -8   4    2.60    3.10
  -9   8   3   -1.80    3.00
  -9   8   3    1.80    3.80
  -9  -8   3   -0.30    3.10
  -9  -8   3   -1.90    3.60
   9  -8  -3   -3.30    3.40
  -9   8   2   36.40    4.50
  -9   8   2   34.60    4.70
  -9  -8   2   38.70    4.50
   9  -8  -2   32.30    4.10
  -9  -8   2   31.30    4.40
  -9   8   1    0.70    3.60
  -9   8   1    1.20    3.00
  -9  -8   1    0.50    3.00
   9  -8  -1  -12.70    4.20
  -9  -8   1    3.90    3.30
   9  -8  -1    0.00    3.40
  -9   8   0   19.60    3.40
   9  -8   0   15.80    3.90
   9  -8   0   17.30    4.70
  -9  -8   0   26.10    3.90
  -9  -8   0   15.60    2.80
  -9   8  -1    7.50    3.20
   9  -8   1    6.40    4.00
  -9  -8  -1    4.50    3.60
   9  -8   1    3.00    4.50
  -9   8  -2    0.00    2.30
   9  -8   2   -6.10    3.90
  -9  -8  -2   -4.90    3.70
   9  -8   2   -1.90    5.00
  -9  -8  -3   -2.40    3.70
   9  -8   3    7.80    5.50
   9  -8   3    7.20    4.00
   9   9  -4   -8.60    7.10
  -9   9   4   -2.10    3.20
  -9   9   4   -4.30    4.30
  -9  -9   4   -4.80    4.30
  -9  -9   4    1.00    3.60
  -9   9   3    0.10    4.10
  -9   9   3   -0.10    3.10
  -9  -9   3    1.80    4.00
  -9  -9   3    4.90    3.30
  -9   9   2   18.80    3.50
  -9   9   2   13.00    4.30
   9   9  -2   19.80    3.10
   9  -9  -2   16.20    3.90
  -9  -9   2   13.20    3.80
  -9  -9   2   16.90    3.70
  -9   9   1    3.50    4.10
  -9   9   1    6.80    3.30
   9  -9  -1    7.00    4.00
   9  -9  -1   -8.20    4.10
  -9  -9   1    3.30    3.20
  -9  -9   1    8.80    3.60
  -9   9   0   30.10    3.80
  -9  -9   0   35.20    4.30
   9  -9   0   29.80    4.50
   9  -9   0   19.90    5.10
  -9  -9   0   27.30    4.40
  -9   9  -1    8.30    3.40
   9  -9   1    4.10    4.70
   9  -9   1   10.20    4.20
  -9  -9  -1    8.20    3.90
   9   9   2   16.50    2.80
  -9   9  -2   15.50    3.60
  -9  -9  -2   21.00    4.40
   9  -9   2   18.30    4.50
   9  -9   2   21.60    5.60
   9   9   3    4.40    2.80
   9  -9   3    1.90    3.20
   9  -9   3    1.90    5.70
  -9  -9  -3   -2.60    3.80
  -9  10   4    0.50    4.50
  -9  10   3    3.30    4.50
  -9  10   3    8.30    3.40
  -9 -10   3    8.50    4.40
  -9 -10   3    7.30    3.90
  -9  10   2    8.30    4.40
   9  10  -2   16.40    3.20
  -9  10   2   11.90    3.50
   9 -10  -2   11.40    4.10
  -9 -10   2    8.90    3.70
  -9 -10   2    5.40    4.10
  -9  10   1   10.90    4.60
   9  10  -1   17.60    3.50
  -9  10   1   14.60    3.50
   9 -10  -1    0.00    4.70
  -9 -10   1   11.10    3.60
  -9 -10   1   17.20    4.00
   9 -10  -1   15.60    4.40
  -9  10   0    4.40    3.50
   9 -10   0    9.40    4.40
   9 -10   0    3.60    4.50
  -9 -10   0    9.40    4.00
  -9  10  -1   -3.90    3.30
   9 -10   1   -2.40    4.70
   9 -10   1   -0.60    4.30
  -9 -10  -1    1.20    3.00
  -9  10  -2   -3.60    3.40
   9 -10   2    2.80    5.70
  -9 -10  -2    2.80    4.00
   9 -10   2   -1.40    4.40
  -9  11   3   12.10    3.70
  -9  11   3   10.50    4.80
  -9 -11   3   10.80    4.60
  -9 -11   3   17.40    4.40
  -9  11   2    2.70    3.50
  -9  11   2   -0.30    4.30
   9  11  -2    9.60    3.10
   9 -11  -2    1.20    4.20
  -9 -11   2    0.40    4.10
  -9 -11   2    1.40    3.70
  -9  11   1    4.00    4.70
   9  11  -1   24.70    3.70
  -9  11   1   17.50    3.80
   9 -11  -1    0.40    4.90
  -9 -11   1   13.80    3.80
  -9 -11   1   16.60    4.10
   9 -11  -1   19.00    4.60
  -9  11   0    0.50    3.50
   9  11   0    0.20    3.30
   9 -11   0   -9.80    4.90
   9 -11   0    1.50    4.40
  -9 -11   0   -1.70    3.90
  -9  11  -1    8.10    3.80
   9  11   1   17.80    4.10
  -9 -11  -1   14.20    4.30
   9 -11   1    9.90    5.10
   9 -11   1   15.40    4.90
  -9  11  -2   -1.70    3.50
   9  11   2    2.80    4.00
  -9 -11  -2   -1.90    3.20
   9 -11   2   -4.70    4.70
  -9  12   2   -1.20    4.80
  -9  12   2    4.20    3.70
  -9 -12   2    1.50    4.10
  -9 -12   2    3.40    4.00
   9 -12  -2    2.10    4.60
   9  12  -1    9.40    3.30
  -9  12   1   -4.10    4.70
  -9  12   1   -1.90    2.70
   9 -12  -1    5.00    4.50
  -9 -12   1    4.30    3.80
  -9 -12   1    3.80    3.90
   9  12   0    3.50    3.40
  -9  12   0   -1.00    3.60
  -9 -12   0    5.40    3.30
   9 -12   0   -7.30    5.10
   9 -12   0   -1.20    4.70
  -9  12  -1    0.40    2.90
   9  12   1    3.00    3.80
  -9 -12  -1   -2.30    4.40
   9 -12   1    2.90    4.90
   9 -12   1   -8.80    4.70
 -10   0   5   -3.10    2.80
  10   0  -4   35.10    4.50
 -10   0   4   32.90    3.90
  10   0  -3    0.40    3.00
 -10   0   3   -0.50    2.60
  10   0  -2   45.70    4.30
 -10   0   2   45.80    3.30
 -10   0   1    1.20    2.70
 -10   0   0  151.58    6.20
  10   0   0  135.99    8.30
 -10   0  -1    7.70    3.10
  10   0   1    1.20    3.20
 -10   0  -2  113.49    5.70
  10   0   2   94.89    7.90
  10   0   3   -3.30    4.70
 -10   0  -3   -4.60    3.10
 -10   1   5    6.80    3.00
 -10  -1   5    3.90    2.90
  10   1  -4    8.80    4.30
 -10   1   4   10.40    3.10
 -10   1   4    6.30    2.80
 -10  -1   4   15.40    3.20
  10   1  -3    3.20    3.30
 -10   1   3    0.10    2.30
 -10   1   3    2.50    2.60
  10  -1  -3    6.60    3.40
 -10  -1   3    5.90    2.80
 -10   1   2    4.90    2.70
 -10  -1   2    3.60    2.70
  10  -1  -2    2.70    2.80
 -10   1   1    4.00    2.70
 -10  -1   1    5.30    2.90
 -10   1   0   10.70    2.90
  10   1   0    4.30    4.00
  10  -1   0    5.30    4.10
 -10  -1   0   11.80    3.00
 -10   1  -1   30.20    3.60
  10   1   1   26.50    4.70
 -10  -1  -1   30.60    3.60
  10  -1   1   28.20    4.90
  10   1   2   13.10    4.80
 -10   1  -2   15.00    3.20
 -10  -1  -2   11.70    3.30
  10  -1   2    9.70    3.80
 -10   1  -3    1.60    3.10
  10   1   3    4.90    4.80
 -10  -1  -3    1.50    3.20
  10  -1   3    2.80    4.80
 -10   2   5   17.40    3.20
 -10  -2   5   16.10    3.30
  10   2  -4   -1.30    3.90
 -10   2   4    3.10    2.90
 -10   2   4   -2.20    3.00
 -10  -2   4    3.40    2.80
 -10   2   3   70.39    5.90
 -10   2   3   71.99    4.50
  10   2  -3   79.79    5.90
 -10  -2   3   73.39    4.60
 -10   2   2    0.70    2.70
 -10  -2   2    1.00    2.80
  10  -2  -2   -0.30    2.40
 -10   2   1   86.69    4.90
  10  -2  -1   84.09    4.40
 -10  -2   1   91.29    5.00
 -10   2   0    3.80    2.80
  10  -2   0   -1.20    4.00
 -10  -2   0    3.70    3.00
 -10   2  -1   45.60    4.30
  10   2   1   35.10    5.00
  10  -2   1   44.50    5.50
 -10  -2  -1   45.90    4.60
 -10   2  -2    3.50    2.30
  10   2   2    5.00    4.40
  10  -2   2    0.40    3.50
 -10  -2  -2    5.00    3.30
 -10   2  -3   -7.30    2.90
  10   2   3    3.10    4.70
 -10  -2  -3   -2.80    3.10
  10  -2   3   -1.80    4.70
  10   3  -5   17.50    5.10
 -10   3   5   13.30    2.80
 -10   3   5    9.90    3.80
 -10  -3   5   10.50    2.90
 -10   3   4    3.10    2.70
 -10   3   4    1.40    3.20
  10   3  -4    3.00    4.20
 -10  -3   4   -0.10    3.10
 -10   3   3    6.50    2.80
 -10   3   3    2.30    3.20
  10   3  -3    6.30    4.10
 -10  -3   3    5.70    3.00
 -10   3   2    0.90    2.70
 -10   3   2    1.70    2.60
 -10  -3   2   -1.40    2.80
 -10   3   1    1.10    2.70
 -10  -3   1    2.30    2.30
  10  -3  -1   -1.00    1.90
  10  -3  -1   -7.10    4.00
 -10   3   0    6.00    2.90
  10  -3   0   -0.60    4.10
 -10  -3   0    9.80    3.30
 -10   3  -1   22.20    2.80
  10   3   1   18.50    3.70
 -10  -3  -1   26.70    3.70
  10  -3   1   14.20    4.80
  10   3   2    9.30    4.40
 -10   3  -2    9.50    3.10
  10  -3   2    4.00    3.80
 -10  -3  -2    7.80    3.50
  10   3   3    1.70    4.60
 -10   3  -3   -2.40    2.90
 -10  -3  -3   -5.80    3.30
  10  -3   3    5.30    5.10
 -10   4   5   -0.50    2.90
  10   4  -5    3.70    5.00
 -10   4   5   -5.70    3.60
 -10  -4   5   -5.10    3.10
  10   4  -4   23.60    5.40
 -10   4   4   15.20    3.60
 -10   4   4   30.70    3.30
 -10  -4   4   27.90    3.40
 -10   4   3    1.20    2.80
  10   4  -3    2.20    4.50
 -10   4   3    0.20    3.30
 -10  -4   3    2.70    3.30
 -10   4   2   28.30    3.70
 -10   4   2   33.90    3.50
 -10  -4   2   36.00    3.70
 -10   4   1    2.90    2.90
  10  -4  -1   -3.10    4.10
 -10  -4   1    0.60    3.00
 -10   4   0   99.89    5.30
  10  -4   0   79.39    7.50
 -10  -4   0   94.59    5.50
 -10   4  -1    5.90    3.00
  10  -4   1    2.60    4.40
 -10  -4  -1    5.10    3.40
 -10   4  -2   73.59    5.00
  10   4   2   70.59    6.90
  10  -4   2   62.39    7.80
 -10  -4  -2   70.49    5.50
  10   4   3    1.80    4.40
 -10   4  -3   -1.70    3.10
  10  -4   3   -2.90    5.20
 -10  -4  -3   -6.50    3.40
 -10   5   5   -1.60    3.70
 -10   5   4   13.40    3.10
 -10   5   4    8.20    4.00
  10   5  -4   17.00    5.50
 -10  -5   4   18.20    3.70
 -10   5   3    6.60    3.00
 -10   5   3    2.90    3.40
 -10  -5   3    5.70    3.20
 -10   5   2    4.60    2.90
 -10   5   2    8.10    3.40
 -10  -5   2    7.50    3.30
 -10   5   1    7.60    3.10
  10  -5  -1    1.30    3.40
 -10  -5   1    6.60    3.30
  10  -5  -1   -6.20    4.20
 -10   5   0    4.50    2.30
  10  -5   0    3.70    3.50
  10  -5   0    0.30    4.40
 -10  -5   0    4.50    3.30
 -10   5  -1   18.00    3.40
  10  -5   1   19.70    4.10
  10  -5   1   21.40    4.30
 -10  -5  -1   18.90    3.10
 -10   5  -2   11.10    3.20
  10   5   2    6.90    4.40
 -10  -5  -2    8.40    3.80
  10  -5   2   12.80    5.40
  10   5   3    2.10    4.40
  10  -5   3    0.50    5.60
 -10  -5  -3   -2.80    3.70
 -10   6   4   -0.40    4.20
  10   6  -4   -2.60    5.50
 -10   6   4    4.30    3.00
 -10  -6   4   -4.20    4.10
 -10  -6   4    3.10    3.10
 -10   6   3   37.90    3.80
 -10   6   3   25.80    4.30
 -10  -6   3   32.90    3.80
 -10   6   2    4.60    3.50
 -10   6   2    0.30    3.00
  10  -6  -2    2.30    3.30
 -10  -6   2    4.00    3.30
 -10   6   1   36.40    3.80
 -10  -6   1   21.50    3.60
  10  -6  -1   18.60    5.10
  10  -6  -1   30.00    4.00
 -10  -6   1   29.50    4.00
 -10   6   0    1.30    3.10
  10  -6   0    2.20    3.60
 -10  -6   0    1.20    2.70
  10  -6   0   -4.50    4.40
 -10  -6   0    2.40    2.50
 -10   6  -1   20.40    3.50
  10  -6   1   13.60    5.20
 -10  -6  -1   17.20    3.20
  10  -6   1   18.80    4.10
 -10   6  -2    0.30    3.20
 -10  -6  -2   -0.60    3.70
  10  -6   2    6.30    5.30
  10  -6   2    5.40    4.00
  10   6   3    0.70    4.10
 -10  -6  -3  -10.00    3.60
  10  -6   3    0.90    4.40
 -10   7   4   -3.10    4.30
 -10   7   4    1.30    3.20
  10   7  -4   -3.50    5.90
 -10  -7   4   -3.80    4.70
 -10  -7   4    1.10    3.30
 -10   7   3   11.20    3.20
 -10   7   3    3.40    3.90
 -10  -7   3    7.80    3.40
 -10  -7   3    1.50    3.90
 -10   7   2   -1.60    3.60
 -10   7   2    0.80    3.10
 -10  -7   2   -1.00    3.20
  10  -7  -2   -2.10    3.40
 -10  -7   2   -1.10    3.30
 -10   7   1    0.50    3.10
 -10  -7   1   -0.30    3.50
  10  -7  -1  -14.10    4.20
  10  -7  -1    2.90    3.70
 -10  -7   1   -1.60    3.00
 -10   7   0   -1.60    2.40
 -10  -7   0   -3.00    2.40
 -10  -7   0    0.60    2.70
  10  -7   0   -1.00    3.80
  10  -7   0   -2.40    4.50
 -10   7  -1   11.20    3.40
  10  -7   1   11.70    4.10
 -10  -7  -1    4.20    3.80
  10  -7   1    8.90    5.10
 -10   7  -2   -4.50    3.20
 -10  -7  -2   -0.90    3.90
  10  -7   2    0.90    5.30
  10  -7   2    1.90    4.10
  10  -7   3    1.60    4.50
 -10   8   4    7.20    4.80
 -10   8   4    4.80    3.40
  10   8  -4   -2.20    7.00
 -10  -8   4    8.60    3.60
 -10  -8   4    2.60    5.00
 -10   8   3    3.20    4.20
 -10   8   3    2.70    3.30
 -10  -8   3    4.80    3.40
 -10  -8   3   -1.00    4.40
 -10   8   2   10.50    2.80
 -10   8   2    3.50    4.00
  10  -8  -2   10.40    3.80
 -10  -8   2    4.10    3.50
 -10  -8   2    3.80    3.80
 -10   8   1    5.90    3.40
 -10   8   1    2.00    3.80
 -10  -8   1    5.40    3.80
 -10  -8   1    1.20    3.20
  10  -8  -1   -6.20    4.50
  10  -8  -1    6.10    3.90
 -10   8   0   25.30    3.20
  10  -8   0   24.20    4.40
  10  -8   0   18.90    5.20
 -10  -8   0   21.80    3.40
 -10   8  -1    1.60    3.50
 -10  -8  -1    2.00    4.00
  10  -8   1    2.60    4.20
  10  -8   1    1.80    5.20
 -10   8  -2   21.60    3.70
 -10  -8  -2   25.40    4.50
  10  -8   2   25.80    4.80
  10  -8   2   20.00    5.90
 -10   9   3   -1.30    4.40
 -10   9   3    3.20    3.50
 -10  -9   3    0.30    4.10
 -10  -9   3   -0.20    3.50
 -10   9   2    0.40    4.10
 -10   9   2    4.20    3.40
 -10  -9   2   -1.40    3.90
 -10  -9   2    2.60    3.70
  10  -9  -2    3.80    3.90
 -10   9   1    0.30    3.50
 -10   9   1    0.10    4.20
 -10  -9   1   -4.10    3.20
 -10  -9   1    2.10    3.90
  10  -9  -1    1.70    3.10
 -10   9   0    0.20    3.50
  10  -9   0    1.00    3.20
 -10  -9   0    2.40    3.10
  10  -9   0   -7.00    4.70
 -10   9  -1    1.80    3.60
  10  -9   1    2.70    5.70
 -10  -9  -1    4.70    4.30
  10  -9   1    6.30    4.50
 -10   9  -2    4.30    3.60
  10  -9   2    3.70    4.60
 -10  -9  -2    2.60    4.30
  10  -9   2    2.20    5.70
 -10  10   2    1.20    2.90
 -10  10   2   -0.90    4.40
 -10 -10   2    3.50    3.90
  10 -10  -2    4.40    4.30
 -10 -10   2    3.30    3.90
 -10  10   1    0.00    4.40
 -10  10   1    3.10    3.70
  10 -10  -1  -15.80    4.90
 -10 -10   1    2.50    3.60
  10 -10  -1    1.80    3.40
 -10 -10   1    3.40    4.20
 -10  10   0    0.90    2.90
  10 -10   0   -8.70    4.70
 -10 -10   0    1.90    4.20
  10 -10   0    0.00    3.40
 -10  10  -1    2.90    3.80
 -10 -10  -1    0.90    4.50
  10 -10   1    1.40    4.70
  10 -10   1   -5.10    5.20
 -10  11   1   -2.20    2.90
  10  11  -1    7.00    3.60
 -10  11   1   -5.30    4.60
 -10 -11   1   -0.30    4.30
  10 -11  -1    4.70    4.70
  10  11   0    2.00    3.80
 -10  11   0   -5.00    3.70
  10 -11   0   -1.60    4.70
  10 -11   0  -14.20    5.40
 -10 -11   0   -4.60    4.30
 -11   0   4    8.10    3.20
  11   0  -3    1.30    3.70
 -11   0   3    1.00    3.10
  11   0  -2   18.90    3.70
 -11   0   2   22.70    3.50
 -11   0   1   -3.30    3.10
 -11   0   0   62.69    5.00
  11   0   0   51.09    6.00
 -11   0  -1   -5.20    3.30
  11   0   1   -4.80    4.50
  11   0   2   83.39    8.30
 -11   0  -2   97.39    5.90
  11   0   3   -2.20    4.00
 -11   1   4   40.60    4.50
  11   1  -4   37.00    5.30
 -11  -1   4   32.80    3.80
 -11   1   3   11.80    3.30
  11   1  -3   18.00    4.20
 -11  -1   3   13.50    3.40
  11  -1  -3   13.80    3.70
  11   1  -2   43.10    4.90
 -11   1   2   55.09    4.60
  11  -1  -2   49.80    4.30
 -11  -1   2   47.90    4.60
 -11   1   1   -2.00    3.10
 -11  -1   1   -1.10    3.20
 -11   1   0   32.10    3.90
 -11  -1   0   34.00    3.90
  11  -1   0   25.20    5.30
  11   1   1   -3.00    4.50
 -11   1  -1    1.80    3.30
  11  -1   1   -4.20    4.60
 -11  -1  -1   -2.90    3.40
 -11   1  -2   10.80    3.60
  11   1   2    8.20    4.10
  11  -1   2    3.10    5.00
 -11  -1  -2    6.90    3.70
  11   1   3    2.00    5.20
  11  -1   3    2.60    5.10
 -11   2   4    0.20    3.00
  11   2  -4    6.60    4.30
 -11  -2   4    0.60    3.50
 -11   2   3    7.00    2.90
  11   2  -3    7.90    4.10
 -11   2   3    9.80    3.20
 -11  -2   3   11.10    3.40
 -11   2   2    5.40    3.10
 -11  -2   2    2.70    3.20
  11  -2  -2    3.40    2.80
 -11   2   1    1.90    3.20
 -11  -2   1    4.00    3.40
 -11   2   0    5.50    3.30
  11  -2   0    2.30    4.70
 -11  -2   0    4.10    2.70
 -11   2  -1   13.20    3.50
  11   2   1    5.60    4.60
  11  -2   1    7.50    5.00
 -11  -2  -1   10.80    3.80
  11   2   2    6.60    4.80
 -11   2  -2    6.00    3.40
  11  -2   2    2.00    5.10
 -11  -2  -2    0.20    3.60
  11   2   3    3.30    5.30
  11  -2   3    5.20    4.50
  11   3  -4   17.10    4.90
 -11   3   4   15.80    3.60
 -11   3   4   16.70    3.40
 -11  -3   4   15.70    3.60
 -11   3   3   12.80    3.40
  11   3  -3   16.30    4.70
 -11   3   3   11.90    3.50
 -11  -3   3   12.00    3.80
 -11   3   2   19.70    3.50
 -11  -3   2   21.90    3.80
 -11   3   1    8.30    3.20
 -11  -3   1    4.60    3.50
 -11   3   0   19.90    3.00
  11  -3   0    8.60    5.00
 -11  -3   0   22.00    3.20
 -11   3  -1    5.20    3.50
 -11  -3  -1    5.60    3.80
  11  -3   1   -1.60    4.90
  11   3   2    1.50    4.80
 -11   3  -2    4.40    3.60
 -11  -3  -2    4.30    3.70
  11  -3   2   -1.80    4.90
 -11   4   4    1.10    3.10
  11   4  -4   -0.80    5.40
 -11   4   4   -6.50    3.60
 -11  -4   4   -4.40    3.30
 -11   4   3    0.60    3.50
 -11   4   3   -0.70    3.10
  11   4  -3   -1.20    5.00
 -11  -4   3    4.50    3.40
 -11   4   2   12.20    3.40
 -11  -4   2   13.60    3.80
 -11   4   1    1.30    3.20
 -11  -4   1   -0.20    3.60
  11  -4  -1  -12.40    4.40
 -11   4   0   48.50    4.90
  11  -4   0   28.30    5.60
 -11  -4   0   41.30    4.10
 -11   4  -1   -6.10    3.20
  11  -4   1   -3.50    5.00
 -11  -4  -1    4.50    3.70
 -11   4  -2   59.39    4.40
  11   4   2   66.69    6.10
  11  -4   2   63.79    8.50
 -11  -4  -2   71.39    6.00
  11   5  -4   21.10    6.40
 -11   5   4   25.20    3.70
 -11   5   4   15.40    4.50
 -11  -5   4   17.20    4.10
 -11   5   3    4.10    3.30
 -11   5   3    0.50    3.50
 -11  -5   3    2.60    3.60
 -11   5   2   46.50    4.90
 -11  -5   2   46.20    5.10
 -11   5   1   -3.10    3.30
  11  -5  -1   -9.80    4.40
 -11  -5   1   -1.30    3.70
 -11   5   0   22.50    3.70
 -11  -5   0   27.60    3.60
  11  -5   0   16.40    5.10
 -11   5  -1   -4.00    3.30
  11  -5   1   -1.80    5.00
 -11  -5  -1    2.10    3.00
 -11   5  -2    2.00    3.50
  11  -5   2    0.80    5.80
 -11  -5  -2    1.80    4.10
 -11   6   3    5.40    3.90
 -11   6   3   12.00    3.60
 -11  -6   3    7.00    3.80
 -11   6   2    0.10    3.50
 -11   6   2    2.80    3.50
 -11  -6   2    4.80    3.70
 -11   6   1    5.60    3.50
  11  -6  -1    6.00    3.90
 -11  -6   1    1.70    3.30
 -11  -6   1    5.30    3.90
  11  -6  -1   -9.50    4.80
 -11   6   0    0.90    3.50
  11  -6   0    4.10    4.10
  11  -6   0   -8.20    4.90
 -11  -6   0    2.70    3.00
 -11   6  -1    4.20    2.80
  11  -6   1   -2.00    5.20
 -11  -6  -1    0.10    3.10
 -11   6  -2    2.00    3.50
  11  -6   2   -1.80    5.50
 -11  -6  -2   -0.50    4.20
 -11   7   3    5.40    4.30
 -11   7   3    9.20    3.60
 -11  -7   3    1.50    4.70
 -11  -7   3    7.00    3.90
 -11   7   2    2.70    3.90
 -11   7   2   -1.30    3.60
 -11  -7   2   -4.40    3.50
 -11  -7   2    1.40    3.90
  11  -7  -2    2.90    3.90
 -11   7   1    7.80    2.90
 -11  -7   1    6.80    4.10
  11  -7  -1   -9.20    5.40
 -11  -7   1    2.60    3.50
  11  -7  -1   13.60    4.30
 -11   7   0    1.50    3.60
  11  -7   0    8.30    4.30
 -11  -7   0    4.40    3.20
  11  -7   0   -4.50    4.80
 -11   7  -1   -2.30    3.60
  11  -7   1   -1.50    5.40
 -11  -7  -1    1.80    4.30
  11  -7   1    6.40    4.50
 -11   8   2    7.70    4.40
 -11   8   2   11.10    3.80
  11  -8  -2    5.60    3.90
 -11  -8   2    2.00    4.10
 -11  -8   2    4.30    4.10
 -11   8   1   -5.70    3.50
 -11  -8   1   -7.80    4.10
  11  -8  -1    1.50    4.20
 -11   8   0   15.10    3.30
 -11  -8   0   10.30    4.40
  11  -8   0    7.80    5.50
  11  -8   0   13.40    4.60
 -11   8  -1    1.10    3.80
 -11  -8  -1   -6.40    4.40
  11  -8   1   -3.50    5.60
  11  -8   1    6.10    4.60
 -11   9   2   15.10    4.80
  11  -9  -2   22.80    4.60
 -11  -9   2   11.20    4.50
 -11   9   1   -6.10    3.70
 -11  -9   1   -0.30    4.40
  11  -9  -1    1.80    4.40
 -11   9   0    6.90    3.20
  11  -9   0    7.60    4.60
 -11  -9   0    2.80    4.60
  11  -9   0  -10.00    5.20
 -12   0   3   -1.10    3.50
  12   0  -3    2.70    3.80
  12   0  -2   10.30    3.70
 -12   0   2   15.10    3.80
 -12   0   1    0.00    3.60
 -12   0   0   17.90    4.00
 -12   0  -1   -1.80    3.90
  12   0   1   -5.00    5.00
 -12   0  -2   13.10    4.30
 -12   1   3   11.80    3.80
  12   1  -3   11.80    4.40
 -12  -1   3    8.90    3.80
  12   1  -2   33.80    5.00
 -12   1   2   35.10    4.30
 -12  -1   2   34.20    4.20
 -12   1   1    1.50    3.60
 -12  -1   1    6.20    3.80
 -12   1   0   35.60    4.40
 -12  -1   0   35.60    4.10
  12  -1   0   22.70    5.70
 -12   1  -1   17.90    3.30
  12   1   1    6.30    5.20
 -12  -1  -1    9.60    4.10
  12  -1   1   12.00    5.60
 -12   2   3   22.20    3.90
  12   2  -3   28.10    5.10
 -12  -2   3   18.70    4.10
 -12   2   2    4.50    3.60
 -12  -2   2    2.10    3.60
 -12   2   1    3.40    3.50
 -12  -2   1    3.80    3.80
 -12   2   0    3.00    2.90
  12  -2   0   -7.20    4.90
 -12  -2   0    6.80    3.90
  12   2   1   -0.50    4.80
 -12   2  -1    2.40    3.90
 -12  -2  -1    5.30    3.20
  12  -2   1   -1.30    5.30
  12   3  -3   15.20    4.80
 -12   3   3    7.30    3.60
 -12  -3   3    5.50    3.90
 -12   3   2   30.80    4.00
 -12  -3   2   23.70    3.50
 -12   3   1    9.90    3.80
 -12  -3   1    8.70    3.90
 -12   3   0   22.40    4.10
 -12  -3   0   26.50    4.50
  12  -3   0    9.80    5.30
 -12   3  -1   25.60    4.30
 -12  -3  -1   23.80    4.60
  12  -3   1   25.10    5.20
 -12   4   3    1.90    3.60
  12   4  -3    3.50    5.10
 -12  -4   3   -1.90    3.90
 -12   4   2    6.10    3.80
 -12  -4   2    2.90    3.00
 -12   4   1    0.60    2.80
 -12  -4   1    1.60    3.10
 -12   4   0    5.50    3.00
 -12  -4   0    6.30    4.30
  12  -4   0    0.10    5.30
 -12   4  -1    1.00    3.80
  12  -4   1   -2.00    5.50
 -12  -4  -1   -0.90    4.30
 -12   5   2   17.90    3.90
 -12  -5   2   20.10    4.30
 -12   5   1   -1.00    3.70
 -12  -5   1   -2.90    4.00
 -12   5   0   26.40    4.40
  12  -5   0   15.20    6.00
 -12  -5   0   26.80    4.80
 -12   5  -1   -2.40    3.60
 -12  -5  -1   -1.40    4.40
 -12   6   2    1.40    3.80
 -12  -6   2   -5.30    3.60
 -12  -6   2   -0.80    4.10
 -12   6   1   -3.50    3.70
  12  -6  -1  -17.30    5.20
 -12  -6   1   -6.90    4.10
 -12   6   0    4.40    3.90
  12  -6   0   -7.20    5.00
 -12  -6   0    2.40    4.40
 -13   0   1   -0.40    4.10
_computing_structure_solution     'SHELXT 2014/4 (Sheldrick, 2014)'
;
_shelx_hkl_checksum              49367
_shelx_res_file
;
TITL 4CPSD_a.res in P2(1)/c
    shelx.res
    created by SHELXL-2018/1 at 11:56:41 on 19-Feb-2018
CELL  0.71073  10.3353  14.0058   5.9540   90.000   97.320   90.000
ZERR     4.00   0.0009   0.0012   0.0004    0.000    0.003    0.000
LATT   1
SYMM  - X, 1/2 + Y, 1/2 - Z
SFAC  C    H    N    SE   CL
UNIT  32 20 8 4 4
TEMP    23.00
L.S.  10
ACTA
conf
BOND   $H
htab
EQIV $1 x, y, z+1
HTAB C5 N2_$1
rem SIZE     0.100   0.150   0.150
OMIT    -1   2   1
OMIT     2   0   0
OMIT    -2   1   1
OMIT     0   4   0
rem EXTI    0.000472
WGHT    0.016600    1.353600
FVAR       0.33713
C4    1    0.401572    0.376816    0.308513    11.00000    0.04802    0.03333 =
         0.03054   -0.00079    0.00805   -0.00435
C5    1    0.294546    0.366394    0.415434    11.00000    0.05339    0.05652 =
         0.03913   -0.00145    0.00583   -0.00615
AFIX  43
H5    2    0.297028    0.360609    0.571528    11.00000   -1.20000
AFIX   0
C6    1    0.537841    0.379401    0.405849    11.00000    0.04299    0.03217 =
         0.03221   -0.00279    0.00582   -0.00007
C7    1    0.633377    0.412327    0.280624    11.00000    0.04758    0.05056 =
         0.03543    0.00542    0.00313   -0.00354
AFIX  43
H7    2    0.608413    0.435267    0.134966    11.00000   -1.20000
AFIX   0
C8    1    0.763643    0.412121    0.364919    11.00000    0.03979    0.06026 =
         0.04794    0.00651    0.00658   -0.00453
AFIX  43
H8    2    0.826132    0.434318    0.278261    11.00000   -1.20000
AFIX   0
C9    1    0.799007    0.378183    0.580950    11.00000    0.04316    0.05233 =
         0.04561   -0.00433    0.00019    0.00724
C10   1    0.706993    0.346441    0.710469    11.00000    0.05763    0.05685 =
         0.03757    0.00770   -0.00176    0.01048
AFIX  43
H10   2    0.732189    0.324180    0.856660    11.00000   -1.20000
AFIX   0
C11   1    0.577739    0.347751    0.623048    11.00000    0.04891    0.05400 =
         0.03998    0.00723    0.01128    0.00096
AFIX  43
H11   2    0.515632    0.326863    0.712024    11.00000   -1.20000
AFIX   0
N2    3    0.253385    0.380746   -0.006291    11.00000    0.05033    0.08250 =
         0.04230    0.00506   -0.00053   -0.00755
N3    3    0.372296    0.384647    0.076350    11.00000    0.04360    0.07197 =
         0.03663    0.00650    0.00599   -0.00659
SE1   4    0.147133    0.365061    0.220080    11.00000    0.04585    0.07821 =
         0.05526   -0.00424    0.00855   -0.00811
CL12  5    0.963523    0.375867    0.690729    11.00000    0.04797    0.11038 =
         0.06629    0.00287   -0.00650    0.01611
HKLF 4
REM  4CPSD_a.res in P2(1)/c
REM R1 =  0.0400 for    1282 Fo > 4sig(Fo)  and  0.0702 for all    1787 data
REM    109 parameters refined using      0 restraints
END
WGHT      0.0165      1.3580
REM Instructions for potential hydrogen bonds
HTAB C5 N2_$1
REM Highest difference peak  0.326,  deepest hole -0.393,  1-sigma level  0.069
Q1    1   0.2088  0.3978  0.1400  11.00000  0.05    0.33
Q2    1   0.1446  0.2851  0.1912  11.00000  0.05    0.28
Q3    1   0.2037  0.3325  0.3310  11.00000  0.05    0.26
Q4    1   0.1770  0.4036  0.3517  11.00000  0.05    0.26
Q5    1   0.0188  0.3653  0.2772  11.00000  0.05    0.26
Q6    1   0.1801  0.3638 -0.1280  11.00000  0.05    0.24
Q7    1   0.5990  0.3725  0.3551  11.00000  0.05    0.24
Q8    1   0.2340  0.4378  0.2442  11.00000  0.05    0.23
Q9    1   0.2447  0.3740  0.3273  11.00000  0.05    0.23
Q10   1   0.9790  0.3214  0.8272  11.00000  0.05    0.23
Q11   1   0.3813  0.3971  0.2095  11.00000  0.05    0.23
Q12   1   0.9335  0.3026  0.6904  11.00000  0.05    0.23
Q13   1   1.0206  0.3633  0.4920  11.00000  0.05    0.23
Q14   1   0.1480  0.4444  0.2369  11.00000  0.05    0.23
Q15   1   0.2668  0.3934  0.6023  11.00000  0.05    0.22
Q16   1   0.5730  0.3769  0.5288  11.00000  0.05    0.22
Q17   1   0.6127  0.4065  0.0850  11.00000  0.05    0.22
Q18   1   0.3196  0.3705  0.7590  11.00000  0.05    0.21
Q19   1   0.9861  0.3664  0.9909  11.00000  0.05    0.20
Q20   1   0.0399  0.4320  0.1806  11.00000  0.05    0.20
;
_shelx_res_checksum              50565
loop_
_space_group_symop_operation_xyz
'x, y, z'
'-x, y+1/2, -z+1/2'
'-x, -y, -z'
'x, -y-1/2, z-1/2'
loop_
_atom_site_type_symbol
_atom_site_label
_atom_site_fract_x
_atom_site_fract_y
_atom_site_fract_z
_atom_site_U_iso_or_equiv
_atom_site_adp_type
_atom_site_calc_flag
_atom_site_occupancy
C C4 0.4016(4) 0.3768(2) 0.3085(5) 0.0370(8) Uani d 1
C C5 0.2945(4) 0.3664(3) 0.4154(6) 0.0497(9) Uani d 1
H H5 0.297028 0.360609 0.571528 0.060 Uiso calc 1
C C6 0.5378(3) 0.3794(2) 0.4058(5) 0.0357(8) Uani d 1
C C7 0.6334(4) 0.4123(3) 0.2806(6) 0.0447(9) Uani d 1
H H7 0.608413 0.435267 0.134966 0.054 Uiso calc 1
C C8 0.7636(4) 0.4121(3) 0.3649(6) 0.0492(10) Uani d 1
H H8 0.826132 0.434318 0.278261 0.059 Uiso calc 1
C C9 0.7990(4) 0.3782(3) 0.5809(6) 0.0475(10) Uani d 1
C C10 0.7070(4) 0.3464(3) 0.7105(6) 0.0514(10) Uani d 1
H H10 0.732189 0.324180 0.856660 0.062 Uiso calc 1
C C11 0.5777(4) 0.3478(3) 0.6230(6) 0.0471(10) Uani d 1
H H11 0.515632 0.326863 0.712024 0.057 Uiso calc 1
N N2 0.2534(3) 0.3807(3) -0.0063(5) 0.0589(9) Uani d 1
N N3 0.3723(3) 0.3846(2) 0.0764(5) 0.0507(8) Uani d 1
Se Se1 0.14713(4) 0.36506(3) 0.22008(7) 0.05959(17) Uani d 1
Cl Cl12 0.96352(11) 0.37587(10) 0.6907(2) 0.0761(4) Uani d 1
loop_
_atom_site_aniso_label
_atom_site_aniso_U_11
_atom_site_aniso_U_22
_atom_site_aniso_U_33
_atom_site_aniso_U_12
_atom_site_aniso_U_13
_atom_site_aniso_U_23
C4 0.048(2) 0.033(2) 0.0305(17) -0.0043(16) 0.0080(15) -0.0008(15)
C5 0.053(2) 0.057(2) 0.039(2) -0.006(2) 0.0058(18) -0.0015(19)
C6 0.043(2) 0.0322(19) 0.0322(18) -0.0001(15) 0.0058(15) -0.0028(14)
C7 0.048(2) 0.051(2) 0.035(2) -0.0035(19) 0.0031(17) 0.0054(17)
C8 0.040(2) 0.060(3) 0.048(2) -0.0045(19) 0.0066(18) 0.0065(19)
C9 0.043(2) 0.052(3) 0.046(2) 0.0072(19) 0.0002(18) -0.0043(18)
C10 0.058(3) 0.057(3) 0.038(2) 0.010(2) -0.0018(19) 0.0077(18)
C11 0.049(2) 0.054(3) 0.040(2) 0.0010(18) 0.0113(18) 0.0072(17)
N2 0.050(2) 0.083(3) 0.0423(19) -0.0076(18) -0.0005(16) 0.0051(17)
N3 0.044(2) 0.072(2) 0.0366(17) -0.0066(17) 0.0060(14) 0.0065(15)
Se1 0.0458(3) 0.0782(3) 0.0553(3) -0.0081(2) 0.00855(19) -0.0042(2)
Cl12 0.0480(7) 0.1104(10) 0.0663(7) 0.0161(6) -0.0065(5) 0.0029(7)
loop_
_atom_type_symbol
_atom_type_description
_atom_type_scat_dispersion_real
_atom_type_scat_dispersion_imag
_atom_type_scat_source
C C 0.0033 0.0016 'International Tables Vol C Tables 4.2.6.8 and 6.1.1.4'
H H 0.0000 0.0000 'International Tables Vol C Tables 4.2.6.8 and 6.1.1.4'
N N 0.0061 0.0033 'International Tables Vol C Tables 4.2.6.8 and 6.1.1.4'
Se Se -0.0929 2.2259 'International Tables Vol C Tables 4.2.6.8 and 6.1.1.4'
Cl Cl 0.1484 0.1585 'International Tables Vol C Tables 4.2.6.8 and 6.1.1.4'
loop_
_geom_angle_atom_site_label_1
_geom_angle_atom_site_label_2
_geom_angle_atom_site_label_3
_geom_angle
C5 C4 N3 113.1(3)
C5 C4 C6 128.6(3)
N3 C4 C6 118.3(3)
C4 C5 Se1 111.9(3)
C4 C5 H5 124.0
Se1 C5 H5 124.0
C11 C6 C7 117.5(3)
C11 C6 C4 121.6(3)
C7 C6 C4 120.9(3)
C8 C7 C6 122.2(3)
C8 C7 H7 118.9
C6 C7 H7 118.9
C7 C8 C9 118.2(3)
C7 C8 H8 120.9
C9 C8 H8 120.9
C10 C9 C8 121.1(4)
C10 C9 Cl12 119.7(3)
C8 C9 Cl12 119.2(3)
C11 C10 C9 119.6(4)
C11 C10 H10 120.2
C9 C10 H10 120.2
C10 C11 C6 121.4(4)
C10 C11 H11 119.3
C6 C11 H11 119.3
N3 N2 Se1 111.0(2)
N2 N3 C4 117.6(3)
C5 Se1 N2 86.42(16)
loop_
_geom_bond_atom_site_label_1
_geom_bond_atom_site_label_2
_geom_bond_distance
C4 C5 1.353(5)
C4 N3 1.381(4)
C4 C6 1.454(5)
C5 Se1 1.795(4)
C5 H5 0.9300
C6 C11 1.380(5)
C6 C7 1.390(5)
C7 C8 1.376(5)
C7 H7 0.9300
C8 C9 1.376(5)
C8 H8 0.9300
C9 C10 1.372(5)
C9 Cl12 1.742(4)
C10 C11 1.371(5)
C10 H10 0.9300
C11 H11 0.9300
N2 N3 1.265(4)
N2 Se1 1.857(3)
loop_
_geom_hbond_atom_site_label_D
_geom_hbond_atom_site_label_H
_geom_hbond_atom_site_label_A
_geom_hbond_site_symmetry_A
_geom_hbond_distance_DH
_geom_hbond_distance_HA
_geom_hbond_distance_DA
_geom_hbond_angle_DHA
_geom_hbond_publ_flag
C5 H5 N2 1_556 0.93 2.62 3.528(5) 164.0 yes
loop_
_geom_torsion_atom_site_label_1
_geom_torsion_atom_site_label_2
_geom_torsion_atom_site_label_3
_geom_torsion_atom_site_label_4
_geom_torsion
N3 C4 C5 Se1 0.5(4)
C6 C4 C5 Se1 -178.7(3)
C5 C4 C6 C11 16.3(6)
N3 C4 C6 C11 -162.8(3)
C5 C4 C6 C7 -165.0(4)
N3 C4 C6 C7 15.9(5)
C11 C6 C7 C8 1.4(5)
C4 C6 C7 C8 -177.4(3)
C6 C7 C8 C9 -0.2(6)
C7 C8 C9 C10 -0.8(6)
C7 C8 C9 Cl12 179.3(3)
C8 C9 C10 C11 0.5(6)
Cl12 C9 C10 C11 -179.6(3)
C9 C10 C11 C6 0.7(6)
C7 C6 C11 C10 -1.6(5)
C4 C6 C11 C10 177.1(3)
Se1 N2 N3 C4 0.1(4)
C5 C4 N3 N2 -0.4(5)
C6 C4 N3 N2 178.9(3)
C4 C5 Se1 N2 -0.3(3)
N3 N2 Se1 C5 0.1(3)

_cod_database_fobs_code 1549173
