#------------------------------------------------------------------------------
#$Date: 2018-06-08 18:51:50 +0300 (Fri, 08 Jun 2018) $
#$Revision: 208222 $
#$URL: file:///home/coder/svn-repositories/cod/cif/1/54/95/1549528.cif $
#------------------------------------------------------------------------------
#
# This file is available in the Crystallography Open Database (COD),
# http://www.crystallography.net/. The original data for this entry
# were provided by IUCr Journals, http://journals.iucr.org/.
#
# The file may be used within the scientific community so long as
# proper attribution is given to the journal article from which the
# data were obtained.
#
data_1549528
loop_
_publ_author_name
'Biruntha, K.'
'Reuben Jonathan, D.'
'Mohamooda Sumaya, U.'
'Dravida Thendral, E. R. A.'
'Usha, G.'
_publ_section_title
;
 (3<i>E</i>)-3-[(2<i>E</i>)-3-(4-Methoxyphenyl)prop-2-enylidene]-2,3-dihydro-4<i>H</i>-chromen-4-one
;
_journal_coeditor_code           HB4235
_journal_issue                   6
_journal_name_full               IUCrData
_journal_page_first              x180829
_journal_paper_doi               10.1107/S2414314618008295
_journal_volume                  3
_journal_year                    2018
_chemical_formula_iupac          'C19 H16 O3'
_chemical_formula_moiety         'C19 H16 O3'
_chemical_formula_sum            'C19 H16 O3'
_chemical_formula_weight         292.32
_chemical_name_systematic
(3<i>E</i>)-3-[(2<i>E</i>)-3-(4-Methoxyphenyl)prop-2-enylidene]-2,3-dihydro-4<i>H</i>-chromen-4-one
_space_group_crystal_system      triclinic
_space_group_IT_number           2
_space_group_name_Hall           '-P 1'
_space_group_name_H-M_alt        'P -1'
_symmetry_space_group_name_Hall  '-P 1'
_symmetry_space_group_name_H-M   'P -1'
_atom_sites_solution_hydrogens   geom
_atom_sites_solution_primary     direct
_audit_creation_method           SHELXL-2014/7
_cell_angle_alpha                87.843(6)
_cell_angle_beta                 78.892(5)
_cell_angle_gamma                72.347(5)
_cell_formula_units_Z            2
_cell_length_a                   6.8573(12)
_cell_length_b                   7.4073(14)
_cell_length_c                   15.550(3)
_cell_measurement_reflns_used    7704
_cell_measurement_temperature    296(2)
_cell_measurement_theta_max      26.70
_cell_measurement_theta_min      3.15
_cell_volume                     738.4(2)
_computing_cell_refinement
;
SAINT (Bruker, 2016)
;
_computing_data_collection
;
APEX3 (Bruker, 2016)
;
_computing_data_reduction
;
SAINT (Bruker, 2016)
;
_computing_molecular_graphics
;
ORTEP-3 for Windows (Farrugia, 2012)
;
_computing_publication_material
;
SHELXL2014 (Sheldrick, 2015b)
;
_computing_structure_refinement
;
SHELXL2014 (Sheldrick, 2015b)
;
_computing_structure_solution
;
SHELXT2014 (Sheldrick, 2015a)
;
_diffrn_ambient_temperature      296(2)
_diffrn_measured_fraction_theta_full 0.997
_diffrn_measured_fraction_theta_max 0.997
_diffrn_measurement_device_type  'Bruker APEXIII CMOS'
_diffrn_measurement_method       '\f and \w scans'
_diffrn_radiation_type           MoK\a
_diffrn_radiation_wavelength     0.71073
_diffrn_reflns_av_R_equivalents  0.0919
_diffrn_reflns_limit_h_max       8
_diffrn_reflns_limit_h_min       -8
_diffrn_reflns_limit_k_max       8
_diffrn_reflns_limit_k_min       -8
_diffrn_reflns_limit_l_max       18
_diffrn_reflns_limit_l_min       -18
_diffrn_reflns_number            20521
_diffrn_reflns_theta_full        25.000
_diffrn_reflns_theta_max         25.000
_diffrn_reflns_theta_min         2.887
_exptl_absorpt_coefficient_mu    0.088
_exptl_absorpt_correction_T_max  0.991
_exptl_absorpt_correction_T_min  0.987
_exptl_absorpt_correction_type   multi-scan
_exptl_absorpt_process_details   (SADABS)
_exptl_crystal_colour            colourless
_exptl_crystal_density_diffrn    1.315
_exptl_crystal_description       Block
_exptl_crystal_F_000             308
_exptl_crystal_size_max          0.150
_exptl_crystal_size_mid          0.150
_exptl_crystal_size_min          0.100
_refine_diff_density_max         0.237
_refine_diff_density_min         -0.250
_refine_ls_extinction_coef       0.09(3)
_refine_ls_extinction_expression Fc^*^=kFc[1+0.001xFc^2^\l^3^/sin(2\q)]^-1/4^
_refine_ls_extinction_method
;
SHELXL2014 (Sheldrick, 2015b)
;
_refine_ls_goodness_of_fit_ref   1.122
_refine_ls_hydrogen_treatment    constr
_refine_ls_matrix_type           full
_refine_ls_number_parameters     201
_refine_ls_number_reflns         2580
_refine_ls_number_restraints     0
_refine_ls_restrained_S_all      1.122
_refine_ls_R_factor_all          0.1265
_refine_ls_R_factor_gt           0.0798
_refine_ls_shift/su_max          0.000
_refine_ls_shift/su_mean         0.000
_refine_ls_structure_factor_coef Fsqd
_refine_ls_weighting_details
'w=1/[\s^2^(Fo^2^)+(0.0879P)^2^+0.7561P] where P=(Fo^2^+2Fc^2^)/3'
_refine_ls_weighting_scheme      calc
_refine_ls_wR_factor_gt          0.1987
_refine_ls_wR_factor_ref         0.2513
_reflns_number_gt                1609
_reflns_number_total             2589
_reflns_threshold_expression     'I > 2\s(I)'
_cod_data_source_file            hb4235sup1.cif
_cod_data_source_block           I
_cod_database_code               1549528
_shelx_space_group_comment
;
The symmetry employed for this shelxl refinement is uniquely defined
by the following loop, which should always be used as a source of
symmetry information in preference to the above space-group names.
They are only intended as comments.
;
_shelx_estimated_absorpt_t_min   0.987
_shelx_estimated_absorpt_t_max   0.991
_shelx_hkl_file
;
  -1   0   0 1099.09   95.99
  -2   0   0 1986.50  156.18
  -2   0   0 1876.81  156.08
  -2   0   0 1584.34  156.28
  -2   0   0 1632.84  156.08
  -2   0   0 2059.89  156.08
   2   0   0 1808.22  156.28
   2   0   0 1904.01  156.08
   2   0   0 1564.24  155.98
   2   0   0 1671.03  155.68
  -3   0   0  118.69   10.70
  -3   0   0   98.49   11.20
  -3   0   0  105.09   10.80
  -3   0   0   99.39   10.70
  -3   0   0  115.99   11.00
  -3   0   0  111.89   11.00
   3   0   0   88.89    9.50
   3   0   0  106.79   11.30
   3   0   0  125.59   11.10
   3   0   0  117.19    9.60
  -4   0   0   78.89    8.60
  -4   0   0   87.09    9.00
  -4   0   0   82.59    8.80
  -4   0   0   80.79    9.40
  -4   0   0   60.29    7.60
  -4   0   0   67.89    8.50
  -4   0   0   77.09    8.30
   4   0   0   78.39    6.50
   4   0   0   61.69    7.80
   4   0   0   63.89    6.50
  -5   0   0  203.78   19.50
  -5   0   0  177.88   18.80
  -5   0   0  201.88   19.00
  -5   0   0  178.98   18.80
  -5   0   0  203.18   18.60
  -5   0   0  168.18   18.20
  -5   0   0  175.98   18.30
  -6   0   0   -1.80    6.70
  -6   0   0   -5.30    4.20
  -6   0   0    1.10    6.30
  -6   0   0    3.70    8.10
  -6   0   0  -12.70    7.70
  -6   0   0    3.10    8.50
  -7   0   0    3.70    5.60
  -7   0   0   16.00    9.10
  -7   0   0    0.00    5.60
  -7   0   0  -13.40    9.10
  -7   0   0   -3.50   10.20
  -7   0   0   18.10   10.30
  -7   0   0   -2.10    7.00
  -7   1   0   -3.30    7.70
  -7   1   0   15.90    9.30
  -7   1   0    6.00    6.60
  -6   1   0   12.80    8.50
  -6   1   0    5.40    5.30
  -6   1   0   -3.60    5.90
  -6   1   0   -2.70    8.70
  -6   1   0   -4.50    4.50
  -6   1   0   -2.50    7.50
   5  -1   0  224.68   23.60
   5  -1   0  267.07   23.80
   5  -1   0  225.68   20.50
  -5   1   0  218.28   22.80
  -5   1   0  248.38   23.30
  -5   1   0  191.18   22.70
  -5   1   0  232.98   22.20
  -5   1   0  215.58   23.10
  -5   1   0  267.27   22.20
   4  -1   0   -2.40    6.10
   4  -1   0   -0.90    1.50
   4  -1   0  -10.50    6.10
  -4   1   0   -1.70    1.10
  -4   1   0   -0.50    0.90
  -4   1   0   -5.30    4.30
  -4   1   0    2.40    4.10
  -4   1   0   -0.30    2.80
  -4   1   0   -6.50    6.90
  -4   1   0   -1.90    5.90
  -4   1   0   12.50    5.90
   3  -1   0   -1.20    1.40
   3  -1   0    0.10    2.90
   3  -1   0   -5.30    5.00
  -3   1   0   -2.00    2.00
  -3   1   0    2.10    3.30
  -3   1   0   -1.80    1.30
  -3   1   0   -3.20    2.80
  -3   1   0    1.30    4.90
   2  -1   0  308.17   27.00
   2  -1   0  333.57   27.50
  -2   1   0  333.77   27.00
  -2   1   0  323.87   26.80
  -2   1   0  300.17   27.20
  -2   1   0  324.17   27.50
  -2   1   0  275.77   27.50
  -2   1   0  244.68   26.70
   1  -1   0  125.49   13.20
   1  -1   0  149.59   12.50
   1  -1   0  145.89   13.00
   1  -1   0  128.59   12.50
   1  -1   0  150.48   13.00
   1  -1   0  125.39   12.70
  -1   1   0  158.18   12.70
   0   1   0   -2.90    1.70
  -1  -1   0    1.30    2.30
  -1  -1   0    1.60    0.80
  -1  -1   0    1.40    1.60
  -1  -1   0    4.60    1.20
  -1  -1   0    4.40    1.10
   1   1   0    2.60    1.30
   1   1   0    0.60    0.50
   1   1   0    2.80    1.00
   1   1   0    0.40    1.80
  -2  -1   0  281.87   25.30
  -2  -1   0  294.17   26.10
  -2  -1   0  292.77   26.00
  -2  -1   0  260.27   25.60
  -2  -1   0  291.57   25.30
   2   1   0  312.07   26.30
   2   1   0  286.67   25.30
   2   1   0  291.27   25.70
  -3  -1   0  299.87   27.10
  -3  -1   0  275.37   27.20
  -3  -1   0  314.37   26.60
  -3  -1   0  317.17   26.20
  -3  -1   0  319.77   26.90
   3   1   0  316.57   27.00
   3   1   0  261.77   27.20
   3   1   0  297.07   26.20
   3   1   0  290.97   27.00
   3   1   0  296.37   26.20
  -4  -1   0   -2.00    4.00
  -4  -1   0    0.70    4.40
  -4  -1   0    0.90    2.20
  -4  -1   0   -4.90    3.90
  -4  -1   0   -2.70    4.70
  -4  -1   0   -2.10    3.10
  -4  -1   0   -2.20    3.50
  -4  -1   0    5.30    4.00
   4   1   0    1.40    4.30
   4   1   0    2.40    4.50
   4   1   0    2.30    1.20
   4   1   0    0.10    1.30
  -5  -1   0  681.33   54.89
  -5  -1   0  527.15   54.99
  -5  -1   0  656.93   54.89
  -5  -1   0  618.84   54.89
  -5  -1   0  585.44   55.89
  -5  -1   0  647.84   54.19
  -5  -1   0  604.74   54.79
  -5  -1   0  629.04   54.49
   5   1   0  553.64   53.29
  -6  -1   0    9.40    5.60
  -6  -1   0   14.00    8.20
  -6  -1   0    6.50    3.90
  -6  -1   0    2.30    5.60
  -6  -1   0    2.20    7.30
  -6  -1   0   13.90    7.40
  -6  -1   0   -2.40    8.30
   6   1   0   17.10    6.80
  -7  -1   0   -0.40    6.40
  -7  -1   0    5.30    9.30
  -7  -1   0   -8.10    8.30
  -7  -1   0   16.80    8.70
  -7  -1   0   15.00   10.00
  -7  -1   0    1.70    6.50
  -7  -1   0    0.90    4.60
   6  -2   0    8.20   10.50
  -6   2   0    6.10    7.30
  -6   2   0   -1.30    7.50
  -6   2   0    2.70    9.50
  -6   2   0   -4.00    7.50
  -6   2   0   11.50    8.60
   5  -2   0   82.29    7.50
   5  -2   0   76.99   12.10
   5  -2   0   83.99   10.80
   5  -2   0   55.09    7.50
  -5   2   0   72.29    8.90
  -5   2   0   68.89   13.10
  -5   2   0   64.99    6.60
  -5   2   0   81.29   12.40
  -5   2   0   84.39   11.30
   4  -2   0  119.69   11.70
   4  -2   0  120.69   15.20
   4  -2   0  117.49   13.80
  -4   2   0  129.39   13.10
  -4   2   0  143.69   14.60
  -4   2   0  128.89   13.30
  -4   2   0  117.29   14.00
  -4   2   0  131.19   12.50
  -4   2   0  138.19   11.70
   3  -2   0  108.79   11.10
   3  -2   0   88.09   11.50
   3  -2   0   92.69    9.60
   3  -2   0  113.79   11.70
  -3   2   0  115.09   10.40
  -3   2   0  113.69   11.30
  -3   2   0   98.79   11.40
  -3   2   0  105.69    9.70
  -3   2   0   93.29    9.50
  -3   2   0   96.79    9.40
   2  -2   0  185.08   17.60
   2  -2   0  231.68   19.00
  -2   2   0  185.78   17.60
  -2   2   0  213.58   18.60
  -2   2   0  165.08   18.70
  -2   2   0  196.88   17.70
  -2   2   0  206.68   17.50
   1  -2   0  720.43   64.79
   1  -2   0  653.93   64.69
   1  -2   0  733.83   65.19
   1  -2   0  850.71   65.49
   1  -2   0  815.12   65.39
   1  -2   0  732.43   64.59
  -1   2   0  706.83   64.79
  -1   2   0  693.23   64.79
  -1   2   0  762.62   65.29
  -2  -2   0  973.60   83.39
  -2  -2   0 1025.00   83.89
  -2  -2   0  836.72   83.29
   2   2   0 1011.00   83.39
   2   2   0 1063.69   84.09
   2   2   0  819.62   83.29
  -3  -2   0   -7.20    4.60
  -3  -2   0    3.60    1.60
  -3  -2   0    0.20    2.60
   3   2   0   -0.40    3.90
   3   2   0    1.20    1.40
   3   2   0    7.20    3.50
  -4  -2   0 1020.40   89.09
  -4  -2   0 1012.60   87.99
  -4  -2   0  981.60   88.49
  -4  -2   0 1005.10   89.29
  -4  -2   0 1075.69   87.99
  -4  -2   0  953.00   88.19
   4   2   0 1001.60   88.69
   4   2   0 1013.40   88.59
  -5  -2   0   92.49   11.50
  -5  -2   0   69.29   10.90
  -5  -2   0   79.09    7.80
  -5  -2   0   99.69    7.90
  -5  -2   0   86.89   10.10
  -5  -2   0   83.19   10.90
  -5  -2   0   95.59   11.10
  -5  -2   0   88.29    8.90
   5   2   0   82.19    8.00
   5   2   0   74.69   10.10
  -6  -2   0  -11.00    7.50
  -6  -2   0   12.30    9.30
  -6  -2   0    5.60    5.60
  -6  -2   0   -2.00    8.50
  -6  -2   0    0.70    3.10
   6   2   0    1.90    1.90
   6   2   0    3.30    5.00
   6   2   0   -3.90    1.90
  -7  -2   0    5.10    3.90
  -7  -2   0    8.60    6.20
  -7  -2   0   16.40    9.90
  -7  -2   0   -0.50    7.50
  -7  -2   0   27.00    8.90
  -7  -2   0   21.40    9.20
  -7  -2   0    9.50    6.60
   7   2   0    1.60    7.60
  -8  -2   0   18.10    8.80
  -8  -2   0   16.70    8.90
  -8  -2   0   35.30   10.00
   8   2   0   15.40   10.10
   6  -3   0    7.00   12.40
  -6   3   0   19.90    9.90
   5  -3   0   12.80    3.70
   5  -3   0   17.30    6.20
   5  -3   0   27.80   10.10
   5  -3   0   17.10   10.80
  -5   3   0    8.40    3.10
  -5   3   0    3.60    3.10
  -5   3   0    5.50    6.80
   4  -3   0   64.99   11.70
   4  -3   0   92.69    8.20
   4  -3   0   77.89    8.60
   4  -3   0   67.49   10.60
  -4   3   0   66.39    9.90
  -4   3   0   81.59    8.10
  -4   3   0   71.39   12.50
  -4   3   0   75.79    7.70
  -4   3   0   79.69   16.00
   3  -3   0   14.20    7.90
   3  -3   0   16.90    4.80
   3  -3   0   15.80    3.50
   3  -3   0   11.30    3.10
   3  -3   0   21.50    7.20
  -3   3   0   13.50    5.20
  -3   3   0   14.30    3.40
  -3   3   0   15.50    6.40
  -3   3   0   17.80    3.60
   2  -3   0   -1.00    3.70
   2  -3   0   -2.70    2.20
   2  -3   0   -3.10    6.00
   2  -3   0   -1.50    4.80
  -2   3   0   -3.40    2.20
  -2   3   0    1.90    4.10
   1  -3   0   47.20    6.80
   1  -3   0   53.79    6.40
   1  -3   0   47.00    5.60
   1  -3   0   48.00    6.60
   1  -3   0   43.90    5.30
   1  -3   0   54.29    4.90
  -1   3   0   43.70    5.40
  -1   3   0   34.70    6.50
  -1   3   0   52.59    7.10
  -1   3   0   38.60    5.40
   0  -3   0  620.34   56.39
   0  -3   0  665.73   56.19
   0  -3   0  640.24   56.69
   0  -3   0  591.44   56.09
   0   3   0  613.74   56.49
   0   3   0  683.73   56.69
   0   3   0  647.94   56.19
   0   3   0  655.53   56.19
  -1  -3   0  207.48   16.80
  -1  -3   0  158.08   16.90
  -1  -3   0  190.28   17.50
   1   3   0  172.68   16.60
   1   3   0  187.68   16.80
   1   3   0  191.38   17.20
   1   3   0  188.88   16.80
  -2  -3   0   32.00    4.50
  -2  -3   0   34.60    4.40
  -2  -3   0   35.10    5.60
   2   3   0   31.00    4.40
   2   3   0   32.20    6.10
  -3  -3   0  259.77   25.10
  -3  -3   0  243.18   23.90
  -3  -3   0  296.67   25.10
  -3  -3   0  286.87   24.00
   3   3   0  280.47   24.00
   3   3   0  291.67   24.00
   3   3   0  227.48   24.80
  -4  -3   0  139.59   12.20
  -4  -3   0  130.79   13.90
  -4  -3   0  119.49   13.50
  -4  -3   0  133.79   12.10
   4   3   0  138.49   14.70
   4   3   0  135.29   13.10
   4   3   0  117.79   12.10
   4   3   0  141.19   12.20
  -5  -3   0  405.16   36.40
  -5  -3   0  348.77   34.40
  -5  -3   0  399.76   35.10
  -5  -3   0  418.16   34.50
  -5  -3   0  400.66   34.50
  -5  -3   0  403.86   36.50
   5   3   0  320.47   36.10
   5   3   0  377.16   34.50
   5   3   0  444.76   34.70
  -6  -3   0   42.70    5.70
  -6  -3   0   34.40    9.90
  -6  -3   0   56.69    5.30
  -6  -3   0   49.00   10.00
  -6  -3   0   53.59    9.70
  -6  -3   0   45.60    5.10
   6   3   0   52.19    8.50
   6   3   0   46.10    6.20
  -7  -3   0    2.10    6.60
  -7  -3   0   13.50    6.80
  -7  -3   0   24.10    9.20
  -7  -3   0   28.30    9.30
  -7  -3   0    6.50    9.70
   7   3   0    8.20    2.80
   7   3   0   11.50    2.90
   7   3   0    7.10    7.60
  -8  -3   0    5.50    8.20
  -8  -3   0    6.80    8.10
   8   3   0   11.40    9.50
   5  -4   0   -9.60    5.60
   5  -4   0    1.10    4.60
   5  -4   0   21.20   11.90
  -5   4   0   -3.00    3.80
  -5   4   0   -9.30    7.80
  -5   4   0   -4.60    3.60
   4  -4   0  231.08   25.40
   4  -4   0  248.28   26.60
   4  -4   0  295.37   23.90
   4  -4   0  284.07   23.60
  -4   4   0  233.68   25.90
   3  -4   0   -2.30    3.30
   3  -4   0   -3.10    5.10
   3  -4   0    5.20    8.90
   3  -4   0   -2.00    4.20
   3  -4   0    3.10    7.00
  -3   4   0   -8.10    3.70
  -3   4   0    0.50    3.40
  -3   4   0   -3.20    7.10
  -3   4   0   -2.60    6.00
   2  -4   0    4.90    2.60
   2  -4   0    7.60    4.90
   2  -4   0    9.20    3.10
   2  -4   0   12.60    6.10
   2  -4   0    5.90    3.70
   2  -4   0   14.50    7.60
  -2   4   0    7.60    3.80
  -2   4   0   10.60    5.60
  -2   4   0    9.90    3.30
  -2   4   0    8.00    6.20
   1  -4   0  448.96   38.60
   1  -4   0  485.95   38.80
   1  -4   0  412.86   38.80
   1  -4   0  441.06   39.60
   1  -4   0  437.36   39.70
   1  -4   0  395.86   39.50
  -1   4   0  455.65   38.80
  -1   4   0  488.65   38.90
  -1   4   0  393.46   39.50
  -1   4   0  418.76   39.70
   0  -4   0 3288.07  267.37
   0  -4   0 3076.69  267.37
   0  -4   0 3023.60  267.67
   0  -4   0 2833.82  267.87
   0   4   0 2928.71  267.87
   0   4   0 3129.69  267.37
   0   4   0 2986.10  267.67
   0   4   0 3252.37  267.37
  -1  -4   0 5035.40  442.76
  -1  -4   0 5461.35  442.86
  -1  -4   0 5099.29  443.06
   1   4   0 4823.52  443.16
   1   4   0 5029.60  442.76
   1   4   0 5231.18  442.76
   1   4   0 4880.81  442.76
  -2  -4   0    0.90    3.00
  -2  -4   0   -2.20    3.00
  -2  -4   0   -3.50    2.90
  -2  -4   0    2.20    3.10
   2   4   0    1.90    3.20
   2   4   0    0.00    4.90
   2   4   0    4.80    3.50
   2   4   0   -7.40    3.00
  -3  -4   0    7.80    3.20
  -3  -4   0    6.20    4.00
  -3  -4   0   10.20    3.70
  -3  -4   0   13.60    5.90
   3   4   0    4.80    3.40
   3   4   0    3.10    5.90
   3   4   0    8.80    3.20
  -4  -4   0  967.40   79.59
  -4  -4   0  810.02   78.29
  -4  -4   0  976.30   78.39
  -4  -4   0  871.81   79.59
   4   4   0  850.41   79.79
   4   4   0  846.02   79.19
   4   4   0  954.40   78.39
   4   4   0  873.01   78.39
  -5  -4   0    1.90    6.80
  -5  -4   0   11.70    3.40
  -5  -4   0    5.50    3.10
   5   4   0    3.20    9.70
   5   4   0   -5.70    5.60
   5   4   0   -2.40    3.40
  -6  -4   0   -5.00    5.90
  -6  -4   0    6.70    3.50
  -6  -4   0   10.50    3.00
   6   4   0   13.30    9.50
   6   4   0    6.50    3.90
   6   4   0    8.10    6.70
  -7  -4   0   10.40    3.10
  -7  -4   0    6.70    7.00
  -7  -4   0   11.70    2.90
  -7  -4   0   20.10    9.70
  -7  -4   0   13.40   10.30
   7   4   0   24.20    8.40
   7   4   0    8.30    4.10
   4  -5   0  100.69   11.10
   4  -5   0   91.99   10.40
   4  -5   0   66.19   15.10
  -4   5   0  101.19   10.60
  -4   5   0  111.39   10.30
  -4   5   0   97.29   14.90
  -4   5   0   76.09   13.10
   3  -5   0   -7.10    5.70
   3  -5   0   -2.60    7.50
   3  -5   0   -3.90    5.00
   3  -5   0    4.70    3.60
   3  -5   0    0.70    7.80
  -3   5   0   -1.50    4.20
  -3   5   0    1.90    4.10
  -3   5   0    8.10    7.90
  -3   5   0   -5.50    6.80
   2  -5   0    3.00    4.60
   2  -5   0   10.10    7.20
   2  -5   0    4.80    3.70
   2  -5   0    8.70    2.60
   2  -5   0    0.30    5.90
   2  -5   0   17.50    7.40
  -2   5   0    5.40    4.30
  -2   5   0    6.90    7.20
  -2   5   0   13.40    6.70
  -2   5   0    7.70    4.60
   1  -5   0   26.30    6.30
   1  -5   0   16.80    5.80
   1  -5   0   18.00    4.10
   1  -5   0   18.20    4.90
  -1   5   0   36.60    8.60
  -1   5   0   16.80    7.00
  -1   5   0   15.70    4.60
  -1   5   0   18.50    4.60
   0  -5   0  353.46   34.50
   0  -5   0  411.66   34.70
   0  -5   0  402.86   34.60
   0   5   0  414.26   34.70
   0   5   0  333.77   35.20
   0   5   0  387.66   35.30
   0   5   0  404.96   34.60
  -1  -5   0    9.40    5.80
  -1  -5   0    6.10    3.20
  -1  -5   0    3.60    3.40
  -1  -5   0   10.10    4.00
   1   5   0    2.20    4.40
   1   5   0   14.90    6.10
   1   5   0    1.10    4.00
   1   5   0    5.70    3.30
  -2  -5   0    3.60    3.80
  -2  -5   0    3.50    3.90
  -2  -5   0    0.60    3.60
  -2  -5   0    3.20    4.80
   2   5   0   -2.60    4.60
   2   5   0    4.70    4.00
   2   5   0    1.60    5.70
   2   5   0    5.60    4.70
  -3  -5   0   18.00    4.20
  -3  -5   0   13.80    5.10
  -3  -5   0   16.20    4.30
  -3  -5   0    7.30    4.40
   3   5   0   25.20    7.00
   3   5   0   10.10    6.90
   3   5   0   15.60    4.50
   3   5   0   17.90    4.10
  -4  -5   0   95.79   10.10
  -4  -5   0  115.99   12.30
  -4  -5   0   76.99    9.90
  -4  -5   0   92.79   12.40
   4   5   0   97.09   12.70
   4   5   0   96.99   10.60
   4   5   0  108.19   10.20
   4   5   0   92.09   10.20
  -5  -5   0   12.90    4.10
  -5  -5   0    4.90    5.20
  -5  -5   0   11.70    8.50
  -5  -5   0    6.40    4.00
   5   5   0    6.20    2.70
   5   5   0   12.50    9.10
   5   5   0   10.90    4.50
   5   5   0   -1.20    4.70
  -6  -5   0   37.20    6.00
  -6  -5   0   24.50    5.10
   6   5   0   34.50   11.40
   6   5   0   33.10    8.00
   6   5   0   25.40    5.60
  -7  -5   0   14.70    4.40
  -7  -5   0    8.50    7.50
  -7  -5   0    6.10    3.60
   7   5   0   15.60    4.70
   7   5   0   12.60    8.30
   3  -6   0   10.30    6.00
   3  -6   0    6.60   10.60
   3  -6   0   15.20    5.20
   3  -6   0   16.10   11.20
  -3   6   0   -4.40    8.20
  -3   6   0   16.70   10.80
  -3   6   0   11.30    4.90
  -3   6   0   18.00    5.40
   2  -6   0   -1.20    6.10
   2  -6   0    1.60   10.10
   2  -6   0   -3.30    6.20
  -2   6   0   -1.20    4.90
  -2   6   0   11.20    8.20
  -2   6   0   10.30    5.20
  -2   6   0    1.10    7.70
   1  -6   0   12.30    5.60
   1  -6   0   15.70    4.70
   1  -6   0   16.70    6.30
   1  -6   0   18.40    4.00
   1  -6   0   24.70   10.00
   1  -6   0   10.40    3.10
  -1   6   0   19.50    5.50
  -1   6   0    5.30    6.20
  -1   6   0   15.90    5.20
  -1   6   0   18.20    8.20
   0  -6   0    1.80    3.30
   0  -6   0    3.90    6.00
   0  -6   0    8.90    5.30
   0  -6   0    4.50    3.40
   0   6   0    4.10    4.90
   0   6   0    4.80    6.90
   0   6   0   16.30    4.80
   0   6   0   -0.60    6.80
  -1  -6   0  444.96   42.20
  -1  -6   0  500.95   42.00
  -1  -6   0  463.45   42.00
   1   6   0  483.15   42.00
   1   6   0  443.16   42.10
   1   6   0  471.65   42.80
   1   6   0  472.45   42.00
  -2  -6   0   35.60   10.00
  -2  -6   0   63.89    8.00
  -2  -6   0   47.20    8.50
   2   6   0   61.09    7.90
   2   6   0   54.49    8.30
   2   6   0   48.70   10.30
   2   6   0   75.19   12.50
  -3  -6   0   -7.80    5.70
  -3  -6   0   -3.50    4.60
  -3  -6   0   -3.70    4.50
  -3  -6   0   -5.00    5.90
   3   6   0   -6.00    4.50
   3   6   0   -0.90    4.60
  -4  -6   0  272.37   23.80
  -4  -6   0  225.18   22.00
  -4  -6   0  232.98   21.90
  -4  -6   0  218.28   23.70
   4   6   0  228.18   24.40
   4   6   0  238.98   22.70
   4   6   0  235.08   22.10
  -5  -6   0    6.40    4.90
  -5  -6   0   10.50    6.00
  -5  -6   0    0.50    6.50
  -5  -6   0    3.10    4.50
   5   6   0   28.70    9.90
   5   6   0    1.30    3.60
   5   6   0   18.30    5.80
  -6  -6   0   29.20    5.60
  -6  -6   0   22.00   10.00
  -6  -6   0   10.50    6.70
  -6  -6   0   16.40    5.50
   6   6   0   12.50    6.10
   6   6   0    2.90    5.70
   6   6   0   11.70    7.40
   6   6   0   26.10   11.40
  -7  -6   0   -3.00    7.30
  -7  -6   0    2.40    5.50
  -7  -6   0    0.10    5.50
   7   6   0   21.90   13.00
   7   6   0    2.90    5.90
   7   6   0    1.00    8.80
   7   6   0   -2.60    5.50
   2  -7   0   -5.60    7.10
   2  -7   0  -14.00    7.60
   2  -7   0    0.00   11.00
  -2   7   0  -13.10    7.90
  -2   7   0  -14.30    9.80
  -2   7   0   -7.40    5.60
  -2   7   0   -2.10    5.30
   1  -7   0    0.20   10.40
   1  -7   0    0.80    7.20
   1  -7   0    1.30    2.20
   1  -7   0   -0.50    6.90
   1  -7   0    2.30    3.60
  -1   7   0   -4.90    8.80
  -1   7   0    8.30    5.50
  -1   7   0   -4.20    7.70
  -1   7   0   -4.70    5.70
   0  -7   0  132.49   14.50
   0  -7   0  131.19   14.50
   0  -7   0  169.98   15.20
   0   7   0  144.09   14.70
   0   7   0  133.79   15.60
   0   7   0  149.79   17.40
   0   7   0  134.99   16.40
   0   7   0  135.69   14.10
  -1  -7   0    6.50    4.50
  -1  -7   0   12.70    5.50
  -1  -7   0    6.30    4.60
   1   7   0    8.60    7.60
   1   7   0    4.20    5.70
   1   7   0   13.50    5.80
   1   7   0   -1.20    6.70
  -2  -7   0   15.30    5.60
  -2  -7   0    0.60    5.20
  -2  -7   0    8.80    5.50
   2   7   0   11.00    7.80
   2   7   0    7.10    5.90
   2   7   0    6.10    5.80
   2   7   0    7.00    6.90
  -3  -7   0    8.20    4.20
  -3  -7   0    1.60    5.20
  -3  -7   0    5.20    5.00
   3   7   0   -1.00    5.30
   3   7   0    7.10    6.60
   3   7   0   16.10    8.50
   3   7   0    8.90    4.60
  -4  -7   0    5.50    5.60
  -4  -7   0    6.70    5.50
  -4  -7   0    9.80    5.80
   4   7   0    2.10    5.70
   4   7   0   12.20    9.10
   4   7   0   -4.30    5.70
  -5  -7   0    6.20    6.30
  -5  -7   0   -8.30    7.30
  -5  -7   0   13.90    6.30
  -5  -7   0   18.00    5.40
   5   7   0    6.60    4.80
   5   7   0   24.20   10.70
   5   7   0    2.90    6.20
  -6  -7   0   -2.30    6.00
  -6  -7   0    4.00    7.20
  -6  -7   0    9.30    5.50
   6   7   0   -1.40    6.90
   6   7   0  -15.00    8.50
   6   7   0   15.30   12.20
   6   7   0    0.80    3.30
   1  -8   0   -8.00    7.80
   1  -8   0  -18.90   12.10
  -1   8   0    5.90    6.90
  -1   8   0   -0.10    6.60
   0  -8   0   11.60    7.20
   0  -8   0    4.50    4.10
   0   8   0  -15.80   10.80
   0   8   0    6.40    6.80
   0   8   0   10.00    6.50
  -1  -8   0   17.50    7.20
  -1  -8   0    6.10    5.20
  -1  -8   0   16.50    6.30
   1   8   0   11.60    6.80
   1   8   0    1.40    8.50
   1   8   0   11.80    7.00
   1   8   0  -10.50    9.00
  -2  -8   0    9.70    6.10
  -2  -8   0   28.00    6.90
  -2  -8   0   18.20    7.10
   2   8   0   16.70    7.30
   2   8   0   18.60    7.10
   2   8   0   31.80   10.20
  -3  -8   0    2.30    5.60
  -3  -8   0   11.80    6.30
  -3  -8   0    2.80    6.00
   3   8   0   11.20   10.30
   3   8   0   13.30    6.90
   3   8   0    0.90    6.60
  -4  -8   0   23.00    7.20
  -4  -8   0   18.40    6.60
  -4  -8   0   12.40    6.90
   4   8   0   45.00   11.80
   4   8   0   25.10    7.70
  -5  -8   0    2.50    7.30
  -5  -8   0   21.90    6.50
  -5  -8   0   13.10    7.40
   5   8   0   30.90   12.50
   5   8   0   11.60    8.40
   5   8  -1    2.00    7.50
   5   8  -1   18.00   12.40
  -5  -8   1   -2.20    6.10
  -5  -8   1    4.90    7.50
  -5  -8   1   -5.80    6.00
   4   8  -1    2.00    5.60
   4   8  -1   14.30   11.50
  -4  -8   1   -4.30    6.00
  -4  -8   1    0.80    6.30
  -4  -8   1    4.30    6.40
   3   8  -1   -7.70    7.70
   3   8  -1   19.90    7.30
   3   8  -1   16.50    9.40
   3   8  -1    7.30    6.80
  -3  -8   1    8.70    6.40
  -3  -8   1   10.70    6.40
  -3  -8   1   12.20    6.30
   2   8  -1  -11.40    6.70
   2   8  -1    7.70    8.40
   2   8  -1    1.60    6.80
  -2  -8   1    5.30    6.30
  -2  -8   1   -4.00    5.40
  -2  -8   1   -0.10    6.50
   1   8  -1    4.90    8.60
   1   8  -1    0.20    6.60
   1   8  -1   -3.10    6.80
  -1  -8   1   -3.20    6.80
  -1  -8   1   -6.50    4.70
  -1  -8   1    7.10    6.10
   0   8  -1   12.70    6.70
   0   8  -1    8.30    6.90
   0   8  -1  -11.10    8.80
   0  -8   1  -17.20   12.00
   0  -8   1    2.90    7.20
   0  -8   1    2.00    3.80
  -1   8  -1    2.20    6.80
  -1   8  -1   -7.80    6.80
  -1   8  -1  -15.00   14.10
   1  -8   1    8.60    8.10
   1  -8   1  -17.40   11.80
   6   7  -1   -1.80    6.50
   6   7  -1   15.80   12.90
   6   7  -1  -11.60    8.60
  -6  -7   1   -7.10    5.60
  -6  -7   1   -1.40    7.20
  -6  -7   1   -1.90    5.40
   5   7  -1    5.50    5.00
   5   7  -1   12.10   11.10
   5   7  -1   -6.30    6.00
  -5  -7   1   -8.10    5.50
  -5  -7   1   -5.90    5.30
  -5  -7   1   -1.70    6.40
   4   7  -1   13.10    9.10
   4   7  -1    5.90    6.60
  -4  -7   1    9.80    5.90
  -4  -7   1    9.20    5.40
  -4  -7   1    3.60    5.40
   3   7  -1    2.70    5.40
   3   7  -1   -6.00    5.80
   3   7  -1   -2.30    6.20
  -3  -7   1   -1.10    5.40
  -3  -7   1    4.70    5.50
  -3  -7   1    3.70    5.20
   2   7  -1   -0.40    5.50
   2   7  -1    2.80    6.50
   2   7  -1   -7.50    6.90
   2   7  -1    2.00    4.40
  -2  -7   1    3.30    5.70
  -2  -7   1   -2.00    4.90
  -2  -7   1    1.90    4.10
   1   7  -1   30.40    9.00
   1   7  -1   25.00    7.30
   1   7  -1   25.80    6.80
   1   7  -1   38.20    7.80
  -1  -7   1   33.20    6.00
  -1  -7   1   29.60    7.70
  -1  -7   1   42.90    7.80
   0   7  -1   36.20   10.20
   0   7  -1   43.60    8.50
   0   7  -1   47.30    8.00
   0   7  -1   30.90    8.90
   0  -7   1   41.70    8.40
   0  -7   1   33.80    7.40
   0  -7   1   33.30   11.60
   0  -7   1   52.59    7.90
  -1   7  -1   67.99   12.50
   1  -7   1   58.69   12.00
   1  -7   1   42.80    7.60
   1  -7   1   34.40    5.40
   1  -7   1   44.10    5.20
   1  -7   1   72.69   10.50
  -2   7  -1   -0.70    6.00
  -2   7  -1   -1.90    5.90
  -2   7  -1   -2.70   10.40
   2  -7   1   -8.00    6.90
   2  -7   1    1.00    8.80
   7   6  -1    8.00    8.40
   7   6  -1   15.30    6.30
  -7  -6   1   -2.70    7.30
  -7  -6   1   10.30    5.40
   6   6  -1    1.10    7.90
   6   6  -1    9.50   11.20
   6   6  -1    0.00    5.00
   6   6  -1   -3.10    5.90
  -6  -6   1    1.90    6.70
  -6  -6   1    2.70    4.80
  -6  -6   1    4.40    4.60
   5   6  -1   26.60    9.70
   5   6  -1   20.90    5.70
  -5  -6   1   19.00    5.20
  -5  -6   1   18.20    6.50
  -5  -6   1   21.20    5.10
   4   6  -1   12.10   11.30
   4   6  -1    4.80    4.30
   4   6  -1    4.00    5.30
  -4  -6   1    4.20    4.80
  -4  -6   1    6.40    5.50
  -4  -6   1    8.90    4.90
   3   6  -1    0.90    5.00
   3   6  -1   -4.00    7.30
   3   6  -1   -3.30    4.80
   3   6  -1   -8.70    4.60
  -3  -6   1    0.40    4.70
  -3  -6   1   -5.50    5.90
  -3  -6   1    1.00    4.60
  -3  -6   1   -5.00    5.60
   2   6  -1    3.90    5.50
   2   6  -1   -8.80    4.90
   2   6  -1    5.20    3.70
   2   6  -1    2.80    4.90
   2   6  -1   -6.70    6.40
  -2  -6   1    2.80    4.60
  -2  -6   1   -2.80    5.70
  -2  -6   1   -3.80    4.10
  -2  -6   1   10.20    5.40
   1   6  -1    6.20    6.10
   1   6  -1   10.20    5.10
   1   6  -1   10.40    5.10
  -1  -6   1    8.10    4.80
  -1  -6   1   10.30    5.10
  -1  -6   1   14.00    6.00
   0   6  -1   24.30    5.60
   0   6  -1   23.40    4.90
   0   6  -1   40.60    8.10
   0   6  -1   22.90    7.30
   0  -6   1   30.90    5.40
   0  -6   1   24.30    5.90
   0  -6   1   12.90    6.60
   0  -6   1   36.00    6.90
  -1   6  -1    8.80    5.20
  -1   6  -1   22.20    8.00
  -1   6  -1    9.90    6.90
  -1   6  -1   11.00    5.30
   1  -6   1    4.10    6.20
   1  -6   1   18.50    9.20
   1  -6   1    6.00    2.20
   1  -6   1    9.40    5.30
  -2   6  -1    1.90    4.90
  -2   6  -1    1.70    6.90
  -2   6  -1    4.40    4.60
  -2   6  -1   15.90    8.40
   2  -6   1    0.80    5.50
   2  -6   1    0.20    9.80
   2  -6   1   -4.90    6.50
  -3   6  -1   -3.10    5.80
  -3   6  -1    4.80   10.00
  -3   6  -1   -0.60    5.10
   3  -6   1   16.10   11.60
   3  -6   1    0.80    6.50
   3  -6   1    2.00    4.30
  -4   6  -1   11.90    6.30
   4  -6   1   21.00    7.30
   7   5  -1   19.10    8.60
   7   5  -1    5.10    5.00
   7   5  -1    9.40    4.90
  -7  -5   1    8.80    7.60
  -7  -5   1   23.00    4.60
   6   5  -1   -0.90   10.40
   6   5  -1   -3.30    4.70
   6   5  -1   -1.50    6.60
   6   5  -1   -7.60    4.70
  -6  -5   1   -7.00    9.40
  -6  -5   1   -3.40    4.00
  -6  -5   1    0.40    3.80
  -6  -5   1    1.30    6.20
   5   5  -1    4.30    4.20
   5   5  -1    9.90    9.00
   5   5  -1    2.00    4.30
   5   5  -1   -5.70    5.10
  -5  -5   1   -3.00    7.60
  -5  -5   1    3.30    4.20
  -5  -5   1   10.80    4.30
  -5  -5   1    4.60    5.50
   4   5  -1    8.20    3.20
   4   5  -1   14.70    8.40
   4   5  -1   12.10    4.40
  -4  -5   1    6.40    4.20
  -4  -5   1   13.40    7.50
  -4  -5   1    4.70    4.00
  -4  -5   1    4.10    4.90
   3   5  -1   61.89    7.80
   3   5  -1   37.20    6.10
   3   5  -1   43.40    8.80
   3   5  -1   65.09    7.10
  -3  -5   1   46.50    8.50
  -3  -5   1   58.89    7.00
  -3  -5   1   61.19    8.90
  -3  -5   1   51.99    6.80
   2   5  -1    2.00    4.20
   2   5  -1   -0.50    5.50
   2   5  -1    4.70    4.70
  -2  -5   1    8.00    4.10
  -2  -5   1    9.20    4.90
  -2  -5   1    6.00    3.90
  -2  -5   1    0.30    3.70
   1   5  -1  148.19   15.00
   1   5  -1  144.69   15.00
   1   5  -1  164.78   15.90
   1   5  -1  160.48   15.20
  -1  -5   1  159.68   15.40
  -1  -5   1  150.38   15.00
  -1  -5   1  169.18   15.00
   0   5  -1  265.67   21.70
   0   5  -1  261.27   21.70
   0   5  -1  244.08   22.50
   0  -5   1  235.88   21.60
   0  -5   1  196.08   21.30
   0  -5   1  209.98   21.20
  -1   5  -1  496.95   41.10
  -1   5  -1  495.55   40.00
  -1   5  -1  465.05   41.00
  -1   5  -1  419.26   39.80
   1  -5   1  379.96   40.70
   1  -5   1  484.05   40.00
   1  -5   1  413.46   40.90
   1  -5   1  414.76   39.40
   1  -5   1  461.95   39.80
  -2   5  -1    0.50    6.30
  -2   5  -1   -5.10    6.70
  -2   5  -1   -4.90    3.80
  -2   5  -1   -5.70    4.20
   2  -5   1    0.70    8.40
   2  -5   1    2.90    3.70
   2  -5   1   -8.10    5.10
   2  -5   1    0.90    5.40
  -3   5  -1    0.20    4.20
  -3   5  -1    4.30    6.90
  -3   5  -1   -2.80    3.90
   3  -5   1    0.10    3.80
   3  -5   1   -3.00    4.50
   3  -5   1   -1.00    9.30
  -4   5  -1    4.80    8.40
  -4   5  -1   16.70    5.40
  -4   5  -1   38.00    5.90
  -4   5  -1   29.50   10.60
   4  -5   1   24.60    7.30
   4  -5   1   23.00    5.90
   4  -5   1   19.20    6.00
   4  -5   1   27.60   12.40
  -5   5  -1    6.00    5.10
   5  -5   1    9.40    5.30
   7   4  -1    2.20    4.10
   7   4  -1    3.10    7.50
   7   4  -1   -4.10    4.10
  -7  -4   1    6.40   11.70
  -7  -4   1    0.10    3.10
  -7  -4   1   20.50    8.90
  -7  -4   1   11.60    8.70
  -7  -4   1    1.60    6.90
   6   4  -1   -2.20    3.70
   6   4  -1    2.80    6.60
  -6  -4   1   -2.00    4.50
  -6  -4   1   -5.60    2.70
  -6  -4   1    4.10    3.50
   5   4  -1   38.40    7.70
   5   4  -1   51.29    6.10
   5   4  -1   32.40   14.00
  -5  -4   1   53.09    9.40
  -5  -4   1   48.00    9.40
  -5  -4   1   53.49    6.20
  -5  -4   1   54.39    6.20
   4   4  -1   -0.40    5.50
   4   4  -1    2.60    1.70
   4   4  -1   -0.70    3.90
  -4  -4   1    0.80    3.50
  -4  -4   1    3.90    6.00
  -4  -4   1    2.80    3.50
  -4  -4   1    2.90    3.20
   3   4  -1  242.38   22.40
   3   4  -1  219.08   23.20
   3   4  -1  282.07   22.40
  -3  -4   1  257.47   23.50
  -3  -4   1  255.27   22.30
  -3  -4   1  252.87   23.40
  -3  -4   1  224.78   22.30
   2   4  -1   34.40    6.20
   2   4  -1   43.70    5.00
   2   4  -1   27.70    3.10
  -2  -4   1   26.40    4.10
  -2  -4   1   38.20    4.80
  -2  -4   1   24.50    6.60
  -2  -4   1   31.50    5.70
   1   4  -1   43.60    6.50
  -1  -4   1   55.19    7.80
  -1  -4   1   39.90    5.30
  -1  -4   1   51.49    6.20
   0   4  -1  417.16   36.90
   0   4  -1  432.16   37.00
   0   4  -1  428.46   37.70
   0   4  -1  384.66   37.30
   0  -4   1  411.26   36.90
   0  -4   1  398.26   37.60
   0  -4   1  440.56   36.90
  -1   4  -1   34.00    6.80
  -1   4  -1   50.49    5.60
  -1   4  -1   38.00    5.50
   1  -4   1   37.40    4.30
   1  -4   1   41.10    5.70
  -2   4  -1   30.70    7.30
  -2   4  -1   28.30    4.90
  -2   4  -1   46.10    7.90
  -2   4  -1   32.80    5.50
   2  -4   1   25.20    4.80
   2  -4   1   29.70    5.20
   2  -4   1   22.00    4.50
   2  -4   1   33.00    8.30
   2  -4   1   29.20    7.30
  -3   4  -1    1.70    3.30
  -3   4  -1   -1.40    2.90
  -3   4  -1   -4.30    5.20
  -3   4  -1    3.20    5.90
   3  -4   1    1.70    5.00
   3  -4   1   -0.10    3.50
   3  -4   1    6.50    3.30
   3  -4   1   -0.20    3.70
   3  -4   1    6.10   11.20
  -4   4  -1   17.20    8.80
  -4   4  -1    2.70    3.20
  -4   4  -1   -0.10    7.00
   4  -4   1    6.20    5.40
   4  -4   1   -3.40    4.40
   4  -4   1    5.20    3.60
   4  -4   1   20.20   10.60
  -5   4  -1   40.50    9.80
  -5   4  -1   28.30    5.30
  -5   4  -1    4.50    8.60
   5  -4   1   23.30    5.30
   5  -4   1   28.80   12.40
   5  -4   1   47.30   11.70
   5  -4   1   14.40    4.70
   7   3  -1    1.90    2.80
   7   3  -1    2.40    7.90
   7   3  -1    6.30    3.10
  -7  -3   1    1.60    6.30
  -7  -3   1   11.30    8.90
  -7  -3   1   11.10    6.70
  -7  -3   1   17.90    9.30
  -7  -3   1   23.40    8.20
   6   3  -1   -0.60    6.50
  -6  -3   1   -9.00    5.50
  -6  -3   1    2.40    7.10
  -6  -3   1   -1.30    2.30
   5   3  -1    6.10    4.70
   5   3  -1   15.60    3.60
   5   3  -1   24.10    4.60
  -5  -3   1   15.70    3.10
  -5  -3   1   15.80    2.90
  -5  -3   1    6.60    4.10
  -5  -3   1   21.80    7.50
   4   3  -1   -0.60    6.80
   4   3  -1   -0.50    2.90
   4   3  -1   -0.90    3.00
   4   3  -1   10.10    4.70
   4   3  -1   -1.30    3.20
  -4  -3   1    4.70    6.20
  -4  -3   1   -3.60    4.00
  -4  -3   1    1.50    2.70
  -4  -3   1    0.30    2.60
   3   3  -1   24.90    3.10
   3   3  -1   23.00    4.20
   3   3  -1   28.00    4.00
   3   3  -1   25.20    6.60
  -3  -3   1   27.40    3.80
  -3  -3   1   22.00    4.90
  -3  -3   1   27.40    6.00
  -3  -3   1   33.00    4.30
   2   3  -1   48.20    7.30
   2   3  -1   59.99    6.00
   2   3  -1   54.39    6.10
  -2  -3   1   58.39    6.00
  -2  -3   1   61.79    6.10
  -2  -3   1   60.59    7.10
  -2  -3   1   44.20    6.90
   1   3  -1  321.17   27.90
   1   3  -1  304.97   27.50
   1   3  -1  328.97   27.60
  -1  -3   1  329.77   27.60
  -1  -3   1  311.57   28.10
  -1  -3   1  266.17   27.80
   0   3  -1  767.72   68.19
   0   3  -1  830.22   68.69
   0   3  -1  740.93   68.49
   0  -3   1  754.82   68.59
   0  -3   1  793.42   68.19
   0  -3   1  810.62   68.19
   0  -3   1  747.73   68.19
  -1   3  -1 1626.64  133.99
  -1   3  -1 1706.63  134.49
  -1   3  -1 1454.55  134.49
  -1   3  -1 1578.24  133.89
   1  -3   1 1349.77  133.69
   1  -3   1 1596.84  134.69
   1  -3   1 1590.24  134.49
   1  -3   1 1385.56  133.89
   1  -3   1 1517.95  134.39
  -2   3  -1    3.10    4.20
  -2   3  -1   -5.70    3.70
   2  -3   1    2.50    4.90
   2  -3   1   -4.00    4.60
   2  -3   1   -2.50    3.00
   2  -3   1    2.10    3.50
  -3   3  -1   -4.10    4.50
  -3   3  -1    2.40    5.00
  -3   3  -1   -1.30    2.50
  -3   3  -1    0.40    2.80
   3  -3   1   -1.90    7.50
   3  -3   1    2.90    3.10
   3  -3   1   -0.70    2.60
   3  -3   1   -1.70    3.50
   3  -3   1   -3.30    6.10
   3  -3   1    3.00    4.00
  -4   3  -1   17.10    3.50
  -4   3  -1   11.50    3.40
  -4   3  -1   10.50    6.00
  -4   3  -1   22.10    6.80
  -4   3  -1   26.80    8.50
   4  -3   1   13.60    3.40
   4  -3   1   16.20    5.80
   4  -3   1   19.00    9.50
   4  -3   1   13.30    3.80
  -5   3  -1   39.00   10.10
  -5   3  -1   29.60    4.90
  -5   3  -1   41.90    4.80
  -5   3  -1   27.20   10.40
   5  -3   1   57.79    9.30
   5  -3   1   35.90   11.90
   5  -3   1   33.70    5.50
  -6   3  -1   -6.00    8.20
  -6   3  -1   24.90    9.70
   6  -3   1    5.70    3.10
   6  -3   1    9.70    3.40
   6  -3   1   22.20   13.20
   7   2  -1   -6.80    7.60
  -7  -2   1    7.50    6.70
  -7  -2   1   17.40    8.20
  -7  -2   1    7.10    8.50
  -7  -2   1   -4.10    6.10
  -7  -2   1   17.10    9.20
   6   2  -1    3.60    7.00
   6   2  -1    5.00    2.20
   6   2  -1   -0.80    6.00
  -6  -2   1   -7.10    7.50
  -6  -2   1    4.30    7.30
  -6  -2   1   -3.20    6.80
  -6  -2   1   -5.30    7.50
  -6  -2   1    3.40    2.60
   5   2  -1    1.90    2.60
   5   2  -1    4.20    5.20
   5   2  -1   -4.00    5.40
  -5  -2   1    0.50    1.90
  -5  -2   1    4.70    4.30
  -5  -2   1   -4.10    5.20
  -5  -2   1   -1.40    6.30
  -5  -2   1    0.20    5.90
  -5  -2   1    3.50    2.00
  -5  -2   1   -6.80    6.00
   4   2  -1   -1.90    2.20
   4   2  -1   -3.80    4.00
   4   2  -1    4.90    4.40
   4   2  -1   -3.70    2.30
  -4  -2   1   -0.70    4.20
  -4  -2   1   -3.00    3.70
  -4  -2   1   -1.60    3.80
  -4  -2   1   -2.70    2.00
  -4  -2   1    2.10    1.40
  -4  -2   1   -1.10    1.80
   3   2  -1 1235.48  113.69
   3   2  -1 1326.67  113.99
   3   2  -1 1267.57  114.79
   3   2  -1 1295.67  113.69
   3   2  -1 1437.16  114.59
  -3  -2   1 1311.57  113.69
  -3  -2   1 1270.07  113.69
  -3  -2   1 1329.27  114.49
  -3  -2   1 1253.37  114.59
   2   2  -1   38.60    4.70
   2   2  -1   30.10    6.10
   2   2  -1   45.00    5.90
   2   2  -1   39.80    4.60
  -2  -2   1   50.49    4.80
  -2  -2   1   42.50    6.10
  -2  -2   1   45.30    6.10
  -2  -2   1   38.80    4.40
   1   2  -1   20.70    4.10
   1   2  -1   20.90    2.80
  -1  -2   1   23.30    4.30
   0   2  -1 2092.19  182.08
   0   2  -1 2260.07  182.08
   0   2  -1 2063.59  181.88
   0   2  -1 1937.31  181.78
   0  -2   1 2125.69  181.88
   0  -2   1 2184.48  181.88
   0  -2   1 1934.41  181.98
  -1   2  -1  334.47   30.20
  -1   2  -1  318.37   29.50
  -1   2  -1  290.27   29.50
  -1   2  -1  389.36   30.10
   1  -2   1  364.76   30.10
   1  -2   1  347.77   29.50
   1  -2   1  302.47   29.50
   2  -2   1    1.10    3.50
   2  -2   1    6.00    2.90
   2  -2   1    9.20    5.30
  -3   2  -1  149.49   12.80
  -3   2  -1  171.58   14.50
  -3   2  -1  121.09   14.50
  -3   2  -1  128.09   12.80
  -3   2  -1  118.39   13.40
  -3   2  -1  125.69   14.50
  -3   2  -1  141.29   12.80
   3  -2   1  157.88   14.90
   3  -2   1  165.38   14.90
   3  -2   1  118.39   13.30
   3  -2   1  148.29   12.80
   3  -2   1  161.28   14.00
  -4   2  -1    4.30    2.30
  -4   2  -1    0.20    5.00
  -4   2  -1    1.00    2.40
  -4   2  -1   -2.70    6.60
  -4   2  -1    6.40    4.30
  -4   2  -1    1.00    2.10
  -4   2  -1    7.00    5.50
  -4   2  -1   10.60    8.00
   4  -2   1   10.50    8.00
   4  -2   1    4.60    2.30
   4  -2   1   11.30    7.20
   4  -2   1    7.10    4.40
  -5   2  -1  127.09   14.30
  -5   2  -1  111.09   11.40
  -5   2  -1  103.19   13.30
  -5   2  -1  115.29   12.80
   5  -2   1  104.69   10.10
   5  -2   1  106.19   12.60
   5  -2   1   90.29   10.00
   5  -2   1   97.19   17.40
  -6   2  -1   -3.80    7.20
  -6   2  -1    7.20    9.50
  -6   2  -1    7.70    6.10
  -6   2  -1   19.10    8.60
  -6   2  -1   12.30    7.50
  -6   2  -1   -6.20    7.90
   6  -2   1    6.70   10.50
  -7   2  -1   48.30   11.80
   7   1  -1   -4.10    8.20
  -7  -1   1   14.10    9.10
  -7  -1   1   -7.00    5.90
  -7  -1   1    6.10    4.40
  -7  -1   1   -0.20    6.80
  -7  -1   1    1.20    8.80
   6   1  -1   -6.40    7.90
   6   1  -1    3.80    5.20
   6   1  -1    3.20    1.00
  -6  -1   1    3.80    6.40
  -6  -1   1    0.80    3.40
  -6  -1   1   -2.00    7.10
  -6  -1   1   -2.60    5.00
  -6  -1   1    9.50    8.50
  -6  -1   1   -6.20    7.20
  -6  -1   1   -2.30    8.30
   5   1  -1    6.90    2.00
   5   1  -1    3.70    6.10
   5   1  -1    9.40    4.60
   5   1  -1    5.10    1.70
  -5  -1   1   -5.60    5.90
  -5  -1   1    5.30    6.80
  -5  -1   1    3.90    4.90
  -5  -1   1    7.70    5.70
  -5  -1   1   -0.20    2.90
  -5  -1   1   -0.70    4.20
  -5  -1   1    2.80    5.30
  -5  -1   1   -9.00    6.70
   4   1  -1   47.80    7.10
   4   1  -1   44.40    4.60
   4   1  -1   44.10    4.50
   4   1  -1   36.90    6.40
   4   1  -1   55.49    7.40
  -4  -1   1   48.30    6.20
  -4  -1   1   42.10    6.30
  -4  -1   1   45.10    4.40
  -4  -1   1   47.30    7.00
  -4  -1   1   47.00    4.40
  -4  -1   1   41.90    7.40
  -4  -1   1   44.90    6.70
  -4  -1   1   43.90    5.60
  -4  -1   1   46.30    7.60
   3   1  -1   87.09    8.20
   3   1  -1   87.09    9.60
   3   1  -1   99.59    9.30
   3   1  -1   84.49    9.70
  -3  -1   1   82.29    9.50
  -3  -1   1   94.29    8.60
  -3  -1   1   85.99    9.10
  -3  -1   1   90.39   10.10
  -3  -1   1   99.19    8.20
  -3  -1   1   83.89    8.10
   2   1  -1   16.50    4.40
   2   1  -1   23.80    2.70
   2   1  -1   28.60    3.60
   2   1  -1   16.80    3.80
   2   1  -1   22.90    2.70
   2   1  -1   14.60    3.60
  -2  -1   1   21.90    4.40
  -2  -1   1   22.70    3.30
  -2  -1   1   17.20    4.70
  -2  -1   1   23.10    2.60
  -2  -1   1   20.20    2.50
   1   1  -1  164.48   14.40
   1   1  -1  148.99   14.70
   1   1  -1  181.58   14.90
  -1  -1   1  155.68   14.40
  -1  -1   1  162.68   14.40
   0  -1   1   -0.40    0.80
   0  -1   1   -0.30    0.70
  -1   1  -1 1959.60  153.08
  -1   1  -1 1613.04  152.58
  -1   1  -1 1950.70  152.88
   1  -1   1 1614.94  152.78
   1  -1   1 1701.03  152.78
   1  -1   1 1671.83  152.58
  -2   1  -1   85.89    8.00
  -2   1  -1   70.79    8.90
  -2   1  -1   87.09    7.70
  -2   1  -1   83.09    7.70
  -2   1  -1   89.89    8.70
   2  -1   1   88.29    7.70
   2  -1   1   87.19    8.40
   2  -1   1   81.89    9.00
  -3   1  -1   -2.30    4.70
  -3   1  -1    8.40    4.60
  -3   1  -1    3.20    2.00
  -3   1  -1   11.00    3.40
  -3   1  -1    5.80    3.70
  -3   1  -1    3.10    1.20
  -3   1  -1    2.10    1.20
  -3   1  -1    8.40    5.40
  -3   1  -1   10.60    4.00
   3  -1   1    0.50    3.80
   3  -1   1    6.10    3.40
   3  -1   1    9.70    5.50
   3  -1   1    2.30    1.50
   3  -1   1    1.30    1.30
  -4   1  -1   54.79    6.30
  -4   1  -1   58.09    7.30
  -4   1  -1   41.70    8.00
  -4   1  -1   42.60    7.80
  -4   1  -1   37.10    5.60
  -4   1  -1   50.09    7.40
   4  -1   1   50.09    7.90
   4  -1   1   44.50    4.50
   4  -1   1   40.60    4.40
   4  -1   1   41.00    7.90
  -5   1  -1  240.58   20.60
  -5   1  -1  217.18   19.30
  -5   1  -1  192.38   20.30
  -5   1  -1  217.58   20.50
  -5   1  -1  166.08   20.30
  -5   1  -1  193.48   19.30
  -5   1  -1  194.38   19.60
   5  -1   1  165.98   20.40
  -6   1  -1    6.10    8.20
  -6   1  -1    2.20    5.80
  -6   1  -1  -11.40    9.10
  -6   1  -1   -1.70    7.60
  -6   1  -1   -2.70    7.80
  -6   1  -1    3.10    5.60
  -7   1  -1  -11.80   11.20
  -7   1  -1   -0.10    8.00
  -7   1  -1    2.40   14.00
  -7   1  -1    1.70    6.70
  -7   1  -1   22.80   10.20
  -7   0   1   20.10    8.90
  -7   0   1    4.80    5.40
  -7   0   1   -9.50    7.30
  -7   0   1    3.00    7.30
  -7   0   1  -14.70    9.90
   6   0  -1    9.10    8.40
  -6   0   1   11.00    8.50
  -6   0   1    2.20    6.40
  -6   0   1   -2.70    5.10
  -6   0   1   14.80    8.70
  -6   0   1    5.30    7.30
  -6   0   1    2.80    8.40
  -6   0   1    5.90    4.40
   5   0  -1   20.10    2.70
   5   0  -1   25.20    7.80
   5   0  -1   32.80    6.80
   5   0  -1   20.10    2.80
  -5   0   1   23.30    6.00
  -5   0   1   18.30    7.10
  -5   0   1   24.40    6.50
  -5   0   1   18.20    5.70
  -5   0   1   15.20    7.60
  -5   0   1   20.80    7.60
  -5   0   1   15.50    5.20
   4   0  -1   45.50    6.60
   4   0  -1   52.69    4.70
   4   0  -1   52.89    7.00
   4   0  -1   47.10    4.70
  -4   0   1   44.70    6.70
  -4   0   1   44.80    7.70
  -4   0   1   57.89    7.30
  -4   0   1   34.10    6.20
  -4   0   1   46.30    4.30
  -4   0   1   54.59    7.60
  -4   0   1   50.69    6.70
  -4   0   1   54.69    7.30
  -4   0   1   43.90    4.40
   3   0  -1  776.92   76.19
   3   0  -1  970.10   76.19
   3   0  -1  891.71   76.89
   3   0  -1  806.92   76.79
   3   0  -1  958.50   77.19
  -3   0   1  856.51   76.99
  -3   0   1  847.92   76.09
  -3   0   1  853.51   76.89
  -3   0   1  775.92   76.69
  -3   0   1  858.61   76.89
  -3   0   1  868.21   77.29
  -3   0   1  916.71   77.09
  -3   0   1  972.70   76.79
   2   0  -1   -0.90    3.00
   2   0  -1    1.20    1.20
   2   0  -1   -2.40    2.00
  -2   0   1   -1.40    2.70
  -2   0   1   -0.70    1.10
  -2   0   1   -0.60    2.80
  -2   0   1    0.60    2.10
  -2   0   1   -5.40    3.40
  -2   0   1   -1.00    1.10
   1   0  -1  182.68   15.50
  -1   0   1  163.28   15.50
  -1   0  -1  258.67   21.40
  -1   0  -1  223.38   21.30
  -2   0  -1  483.05   42.20
  -2   0  -1  450.45   42.40
  -2   0  -1  439.86   42.30
   2   0   1  553.04   42.30
   2   0   1  468.35   42.40
  -3   0  -1  402.66   35.80
  -3   0  -1  399.96   36.00
  -3   0  -1  349.37   35.90
  -3   0  -1  442.46   36.00
  -3   0  -1  406.26   35.80
  -3   0  -1  385.56   36.00
  -3   0  -1  363.96   36.10
   3   0   1  407.96   36.10
   3   0   1  444.66   36.20
   3   0   1  413.16   35.90
  -4   0  -1   -0.70    5.10
  -4   0  -1   -6.00    4.30
  -4   0  -1   -5.20    2.80
  -4   0  -1    0.40    5.20
  -4   0  -1    1.00    3.20
  -4   0  -1   -0.60    3.90
  -4   0  -1   -0.90    3.00
   4   0   1    2.30    5.20
  -5   0  -1  161.98   16.00
  -5   0  -1  141.59   15.50
  -5   0  -1  130.19   16.00
  -5   0  -1  140.49   16.00
  -5   0  -1  151.28   15.70
  -5   0  -1  183.78   16.70
  -5   0  -1  144.89   15.20
  -6   0  -1   33.20    9.80
  -6   0  -1   39.40    9.50
  -6   0  -1   46.70    9.10
  -6   0  -1   37.20    9.10
  -6   0  -1   37.20    9.40
  -7   0  -1   -3.00    9.60
  -7   0  -1   14.80    9.30
  -7   0  -1   18.90    9.70
  -7   0  -1    5.60    7.40
  -7   0  -1   -3.10   10.40
  -7   0  -1    1.40    5.40
  -7   0  -1   -5.60    5.70
  -7   1   1    6.10    9.10
  -7   1   1   35.60    9.70
  -7   1   1   19.50    6.70
   6  -1  -1   -0.70    1.70
   6  -1  -1   -2.40    1.40
   6  -1  -1    5.10    7.00
  -6   1   1   -0.40    6.80
  -6   1   1   -2.70    4.90
  -6   1   1   -9.60    7.40
  -6   1   1    7.80    8.10
  -6   1   1   -3.90    8.40
  -6   1   1   -5.90    6.10
   5  -1  -1   55.89    6.80
   5  -1  -1   81.09   11.50
  -5   1   1   76.39    9.70
  -5   1   1   75.09   11.20
  -5   1   1   72.19    9.30
  -5   1   1   60.69   13.30
  -5   1   1   82.39    9.30
  -5   1   1   73.09   10.80
  -5   1   1   58.99   10.70
   4  -1  -1  331.27   30.20
   4  -1  -1  343.47   31.80
   4  -1  -1  315.37   31.60
  -4   1   1  335.57   32.90
  -4   1   1  399.36   31.20
  -4   1   1  297.27   31.40
  -4   1   1  315.57   30.10
  -4   1   1  336.57   31.70
  -4   1   1  402.76   31.40
  -4   1   1  356.06   31.30
  -4   1   1  346.97   30.10
   3  -1  -1  208.98   21.10
   3  -1  -1  205.68   21.60
   3  -1  -1  236.38   20.50
   3  -1  -1  266.47   21.80
  -3   1   1  225.78   21.70
  -3   1   1  266.07   21.40
  -3   1   1  235.58   21.60
  -3   1   1  224.08   20.50
  -3   1   1  213.88   21.80
  -3   1   1  227.48   20.50
  -3   1   1  252.07   21.40
  -3   1   1  227.88   21.10
   2  -1  -1   -3.80    4.10
   2  -1  -1   -1.00    1.70
   2  -1  -1   -1.50    4.00
   2  -1  -1   -0.10    1.40
   2  -1  -1   -1.00    2.80
   2  -1  -1   -0.70    1.50
  -2   1   1    2.70    1.90
  -2   1   1    1.20    2.90
  -2   1   1   -0.20    1.50
  -2   1   1   -0.10    1.60
  -2   1   1   -1.30    3.00
   1  -1  -1    5.70    2.60
   1  -1  -1    2.10    1.50
  -1   1   1    1.30    1.60
  -1   1   1    1.80    1.60
   0  -1  -1  554.34   48.60
  -1  -1  -1  167.08   14.90
  -1  -1  -1  163.68   14.60
  -2  -1  -1  657.53   58.89
  -2  -1  -1  654.83   59.19
  -2  -1  -1  705.53   59.59
  -2  -1  -1  700.53   59.49
  -2  -1  -1  680.33   58.89
   2   1   1  598.74   58.89
   2   1   1  729.83   59.59
  -3  -1  -1    0.30    4.30
  -3  -1  -1    0.40    2.00
  -3  -1  -1   -3.90    3.30
  -3  -1  -1    2.00    3.00
   3   1   1    0.60    3.50
   3   1   1    1.80    1.10
   3   1   1   -3.50    4.10
  -4  -1  -1   90.29   10.10
  -4  -1  -1   91.59    9.80
  -4  -1  -1  103.79   10.50
  -4  -1  -1   82.69    9.90
  -4  -1  -1   91.69   10.00
  -4  -1  -1   98.09   10.30
  -4  -1  -1   79.69    9.10
  -4  -1  -1   98.99    9.50
   4   1   1   91.19    8.10
   4   1   1   90.79    9.80
  -5  -1  -1   78.49    9.70
  -5  -1  -1   84.19   11.40
  -5  -1  -1   85.19   10.40
  -5  -1  -1  101.49   10.10
  -5  -1  -1   85.39   11.20
  -5  -1  -1   80.99   10.50
   5   1   1   84.59   10.30
  -6  -1  -1   18.80    7.90
  -6  -1  -1    3.00    4.30
  -6  -1  -1   11.90    8.80
  -6  -1  -1    7.90    7.00
  -6  -1  -1   -2.70    5.50
  -6  -1  -1    9.00    6.10
  -6  -1  -1    4.70    8.70
   6   1   1   23.90    7.10
  -7  -1  -1    1.50    4.70
  -7  -1  -1    5.80    9.20
  -7  -1  -1   13.50    8.70
  -7  -1  -1   -2.90    6.10
  -7  -1  -1   -2.70    5.40
  -7  -1  -1   13.10   10.20
  -7  -1  -1    4.50    8.90
   6  -2  -1    4.60   10.00
   6  -2  -1   -3.00    2.80
   6  -2  -1    5.80   10.50
   6  -2  -1    0.70    2.60
  -6   2   1   -7.10    6.90
  -6   2   1   12.80    8.90
  -6   2   1   -0.50    7.30
  -6   2   1   -6.90    9.80
   5  -2  -1   20.80    9.30
   5  -2  -1   12.30    5.60
   5  -2  -1    9.90    3.10
   5  -2  -1   21.50    9.30
   5  -2  -1    7.80    3.10
  -5   2   1   10.60    2.30
  -5   2   1   17.80    5.50
  -5   2   1    7.20    9.20
  -5   2   1   27.90    9.40
  -5   2   1   18.80    6.40
  -5   2   1    8.50    4.00
  -5   2   1    7.10    2.30
  -5   2   1    5.20    8.20
   4  -2  -1  146.49   18.30
   4  -2  -1  174.88   15.20
   4  -2  -1  162.18   17.50
  -4   2   1  179.88   17.70
  -4   2   1  151.98   17.30
  -4   2   1  155.88   15.00
  -4   2   1  176.28   15.10
  -4   2   1  155.28   15.80
  -4   2   1  170.18   16.50
  -4   2   1  185.78   16.30
   3  -2  -1  312.07   27.30
   3  -2  -1  302.57   25.80
   3  -2  -1  263.67   27.00
   3  -2  -1  330.97   25.90
   3  -2  -1  247.08   26.00
   3  -2  -1  314.97   27.50
  -3   2   1  296.17   26.20
  -3   2   1  271.47   26.00
  -3   2   1  294.37   26.60
  -3   2   1  304.77   25.80
  -3   2   1  307.67   25.80
  -3   2   1  272.07   27.00
  -3   2   1  273.27   27.20
   2  -2  -1    7.60    2.30
   2  -2  -1    5.30    3.90
   2  -2  -1   22.00    5.20
   2  -2  -1   10.10    3.60
   2  -2  -1    6.60    2.30
  -2   2   1   14.00    3.80
  -2   2   1   12.40    4.90
  -2   2   1   14.30    2.80
  -2   2   1   10.90    2.50
   1  -2  -1  407.36   36.70
   1  -2  -1  434.26   36.10
   1  -2  -1  391.06   36.10
   1  -2  -1  445.06   36.80
  -1   2   1  423.36   36.10
  -1   2   1  363.26   36.10
   0  -2  -1  324.77   30.00
   0  -2  -1  368.16   30.50
   0  -2  -1  352.16   30.00
   0  -2  -1  314.17   30.20
   0   2   1  344.57   30.00
   0   2   1  341.17   30.00
  -1  -2  -1 5486.25  459.15
  -1  -2  -1 5176.18  459.35
   1   2   1 5225.28  459.05
   1   2   1 5194.58  459.15
  -2  -2  -1  301.37   27.20
  -2  -2  -1  342.67   27.30
  -2  -2  -1  323.17   27.30
  -2  -2  -1  285.67   27.80
   2   2   1  301.87   27.30
   2   2   1  303.57   27.30
  -3  -2  -1   16.50    2.90
  -3  -2  -1   23.80    5.30
  -3  -2  -1   18.20    3.40
  -3  -2  -1   19.40    3.10
  -3  -2  -1   23.20    4.40
  -3  -2  -1   19.40    5.30
   3   2   1   21.70    5.50
   3   2   1   16.70    3.40
   3   2   1   20.30    3.10
  -4  -2  -1    3.00    5.30
  -4  -2  -1   -1.00    1.70
  -4  -2  -1   -4.30    3.50
  -4  -2  -1    5.60    2.40
  -4  -2  -1    2.80    5.70
  -4  -2  -1    3.50    1.70
   4   2   1    8.80    3.40
  -5  -2  -1    1.50    5.10
  -5  -2  -1   11.00    3.20
  -5  -2  -1    6.40    4.70
  -5  -2  -1   11.80    6.80
  -5  -2  -1    9.40    1.60
  -5  -2  -1   19.50    6.90
   5   2   1    8.20    5.80
   5   2   1   16.30    7.60
  -6  -2  -1  116.79   14.70
  -6  -2  -1  114.19   15.20
  -6  -2  -1  121.39   14.80
  -6  -2  -1  132.99   12.80
  -6  -2  -1  146.09   14.00
  -6  -2  -1  130.79   14.90
   6   2   1  108.99   10.60
   6   2   1  109.59   10.60
   6   2   1  113.19   13.40
  -7  -2  -1   18.70    7.70
  -7  -2  -1   21.30    8.90
  -7  -2  -1   11.60    6.40
  -7  -2  -1   23.10    9.90
  -7  -2  -1   18.50    6.70
  -7  -2  -1   37.90    9.80
   7   2   1   13.10    6.40
  -8  -2  -1    3.10    7.40
  -8  -2  -1    7.80    7.80
  -8  -2  -1   -3.80    4.90
   8   2   1    2.80    9.20
   6  -3  -1   -0.30   10.80
   6  -3  -1    1.60    3.80
   6  -3  -1   24.00   12.70
  -6   3   1    2.00    1.40
  -6   3   1    2.50    1.50
  -6   3   1  -11.70    8.20
  -6   3   1   15.20    9.60
   5  -3  -1   34.50   10.40
   5  -3  -1   21.70    4.10
   5  -3  -1   24.80    7.40
   5  -3  -1   36.00   11.80
  -5   3   1   18.70    7.60
  -5   3   1   22.40    4.40
   4  -3  -1  467.95   45.00
   4  -3  -1  421.46   44.20
   4  -3  -1  524.95   42.80
   4  -3  -1  453.35   42.80
  -4   3   1  455.25   44.40
  -4   3   1  496.45   43.90
  -4   3   1  512.05   42.70
  -4   3   1  533.05   42.70
   3  -3  -1   45.10    8.40
   3  -3  -1   41.10    8.50
   3  -3  -1   37.60    8.30
   3  -3  -1   35.40    4.60
   3  -3  -1   46.00    6.10
  -3   3   1   36.70    8.40
  -3   3   1   40.10    6.80
  -3   3   1   40.10    5.30
  -3   3   1   37.90    7.90
  -3   3   1   47.00    5.10
   2  -3  -1   26.40    4.20
   2  -3  -1   25.10    3.10
   2  -3  -1   32.30    6.80
   2  -3  -1   23.60    6.20
   2  -3  -1   20.50    6.30
  -2   3   1   23.90    3.80
  -2   3   1   27.50    6.70
  -2   3   1   22.10    6.30
  -2   3   1   15.80    3.70
   1  -3  -1   -1.70    2.30
   1  -3  -1    2.90    2.60
   1  -3  -1   -1.80    4.20
   1  -3  -1    1.90    3.70
  -1   3   1   -3.20    2.50
  -1   3   1   -1.90    4.30
  -1   3   1    6.80    4.10
  -1   3   1   -1.10    2.40
   0  -3  -1 1771.92  144.29
   0  -3  -1 1450.65  143.89
   0  -3  -1 1659.23  144.49
   0   3   1 1770.42  144.29
   0   3   1 1779.42  143.99
   0   3   1 1460.05  143.89
  -1  -3  -1    7.70    2.80
  -1  -3  -1   17.50    3.50
  -1  -3  -1   14.90    4.00
   1   3   1    4.00    2.30
   1   3   1    7.90    3.40
   1   3   1    1.20    2.80
   1   3   1   20.60    5.20
  -2  -3  -1  350.16   28.60
  -2  -3  -1  311.27   28.60
  -2  -3  -1  332.47   29.20
   2   3   1  305.07   28.60
   2   3   1  354.56   29.00
   2   3   1  325.97   28.60
   2   3   1  277.57   29.30
  -3  -3  -1   14.90    2.90
  -3  -3  -1   10.40    3.80
  -3  -3  -1   25.60    5.90
  -3  -3  -1   12.70    3.20
  -3  -3  -1   17.20    2.00
   3   3   1   20.90    5.70
   3   3   1   17.60    3.40
   3   3   1   15.50    2.90
  -4  -3  -1   77.79    9.70
  -4  -3  -1   79.29   10.00
  -4  -3  -1   73.49    7.70
  -4  -3  -1   86.99    8.30
  -4  -3  -1   86.09    9.80
  -4  -3  -1   75.69    7.70
  -4  -3  -1   70.59    7.80
   4   3   1   73.19    7.90
   4   3   1   71.19    7.80
   4   3   1   85.59    8.70
   4   3   1   81.69    8.10
   4   3   1   79.99   10.40
  -5  -3  -1    6.10    2.90
  -5  -3  -1    3.00    4.50
   5   3   1    0.40    4.20
  -6  -3  -1   10.50    8.40
  -6  -3  -1    5.60    8.30
  -6  -3  -1   21.00    8.30
  -6  -3  -1    6.00    5.60
  -6  -3  -1    6.50    3.20
  -6  -3  -1   -5.00    5.80
   6   3   1    0.00    6.70
   6   3   1   19.00    9.20
   6   3   1    4.50    3.60
  -7  -3  -1   19.20    8.90
  -7  -3  -1   -3.50    7.60
  -7  -3  -1    0.50    3.40
  -7  -3  -1   13.90    9.50
  -7  -3  -1    4.00    6.30
  -7  -3  -1    5.70    6.40
  -7  -3  -1   21.70    8.50
   7   3   1    9.00    2.40
   7   3   1    8.60    6.00
  -8  -3  -1   53.99   12.10
  -8  -3  -1   28.40    9.00
   8   3   1   10.10    9.70
   5  -4  -1    1.70    9.80
   5  -4  -1    9.10    9.60
   5  -4  -1    6.10   12.30
   5  -4  -1   -6.10    4.80
  -5   4   1  -10.50    8.20
  -5   4   1   -6.50    3.40
  -5   4   1   -4.80    4.00
  -5   4   1   -2.20   13.90
   4  -4  -1  130.99   13.60
   4  -4  -1  136.29   18.10
   4  -4  -1  125.29   16.20
   4  -4  -1  165.88   17.30
   4  -4  -1  143.19   14.00
  -4   4   1  144.99   13.80
  -4   4   1  131.79   15.20
  -4   4   1  149.09   13.60
   3  -4  -1   91.69   11.60
   3  -4  -1   69.89   10.90
   3  -4  -1   66.49    8.30
   3  -4  -1   64.09   11.50
   3  -4  -1   67.89    8.20
  -3   4   1   72.29   11.20
  -3   4   1   86.99    8.30
  -3   4   1   81.59    8.50
  -3   4   1   56.89   11.70
   2  -4  -1    2.90    4.10
   2  -4  -1   -2.10    4.70
   2  -4  -1    3.30    1.30
   2  -4  -1   13.20    7.60
   2  -4  -1    0.30    5.10
   2  -4  -1    3.40    3.20
  -2   4   1    0.50    5.90
  -2   4   1   -3.00    3.30
  -2   4   1    1.30    5.70
  -2   4   1    2.70    3.40
   1  -4  -1   33.40    7.10
   1  -4  -1   22.70    3.00
   1  -4  -1   22.20    4.40
   1  -4  -1   19.70    4.30
   1  -4  -1   19.00    5.70
   1  -4  -1   30.80    4.30
  -1   4   1   16.00    5.80
  -1   4   1   33.80    7.50
  -1   4   1   21.60    4.00
  -1   4   1   17.70    4.00
   0  -4  -1  591.74   59.49
   0  -4  -1  651.43   59.09
   0  -4  -1  689.33   58.79
   0   4   1  676.63   58.79
   0   4   1  708.03   58.79
   0   4   1  717.63   59.59
   0   4   1  642.24   59.19
  -1  -4  -1 3558.54  325.47
  -1  -4  -1 3578.94  324.97
  -1  -4  -1 3749.82  324.97
  -1  -4  -1 3939.11  324.97
   1   4   1 4007.90  325.57
   1   4   1 3787.72  324.97
   1   4   1 3804.32  324.97
   1   4   1 3388.96  324.97
  -2  -4  -1    9.00    3.30
  -2  -4  -1    8.10    3.10
  -2  -4  -1    5.50    4.00
   2   4   1    9.80    3.30
   2   4   1   10.40    5.10
   2   4   1    5.50    3.40
   2   4   1    5.20    3.20
  -3  -4  -1    4.50    3.70
  -3  -4  -1    1.20    3.10
  -3  -4  -1    5.90    4.30
  -3  -4  -1    0.30    3.00
   3   4   1    3.70    3.20
   3   4   1   -2.40    3.40
   3   4   1    1.90    5.80
   3   4   1    8.80    3.10
  -4  -4  -1   77.39    8.10
  -4  -4  -1   81.59   10.40
  -4  -4  -1   99.09   10.90
  -4  -4  -1   69.79    8.00
   4   4   1   52.99    9.60
   4   4   1   82.69    8.70
   4   4   1   85.59   11.10
   4   4   1   70.69    8.10
  -5  -4  -1   12.80    3.20
  -5  -4  -1   10.00    7.20
  -5  -4  -1    9.40    7.00
  -5  -4  -1    3.00    6.10
  -5  -4  -1   10.70    3.50
   5   4   1    3.50    5.60
   5   4   1    9.40    9.10
   5   4   1    0.70    3.50
   5   4   1    6.30    2.70
   5   4   1    9.90    3.50
  -6  -4  -1   55.49   10.60
  -6  -4  -1   49.60    6.20
  -6  -4  -1   60.59    6.40
   6   4   1   53.89    6.90
   6   4   1   45.70    8.90
  -7  -4  -1   21.70   11.00
  -7  -4  -1   25.50    4.40
  -7  -4  -1   52.89   10.60
  -7  -4  -1   32.80    4.50
  -7  -4  -1   35.50   10.70
   7   4   1   32.40    5.80
   7   4   1   38.10    8.90
  -8  -4  -1   37.50   10.60
  -8  -4  -1   14.50    8.40
  -8  -4  -1   -3.90    7.50
   4  -5  -1  224.08   21.90
   4  -5  -1  177.18   18.00
   4  -5  -1  161.18   21.50
  -4   5   1  148.89   19.70
  -4   5   1  211.88   18.00
  -4   5   1  203.98   18.10
   3  -5  -1   -0.40    6.00
   3  -5  -1    5.10    4.70
   3  -5  -1    6.70    8.60
   3  -5  -1    6.40    4.30
   3  -5  -1   -6.50    9.50
  -3   5   1   -1.00    4.20
  -3   5   1   -9.00    6.90
  -3   5   1   -1.90    4.20
   2  -5  -1    4.10    8.70
   2  -5  -1    0.30    5.70
   2  -5  -1  -11.90    5.00
   2  -5  -1   -5.00    3.40
   2  -5  -1    8.70    8.20
  -2   5   1   -3.30    3.90
  -2   5   1    4.60    7.70
  -2   5   1   -0.80    4.40
   1  -5  -1   -2.80    5.80
   1  -5  -1    4.70    5.20
   1  -5  -1   -9.40    4.20
   1  -5  -1    0.30    2.80
   1  -5  -1   -3.70    3.40
   1  -5  -1    1.70    2.30
   1  -5  -1   13.70    8.20
  -1   5   1   -9.10    3.90
  -1   5   1   10.00    5.90
  -1   5   1   -4.00    3.70
   0  -5  -1  651.73   60.79
   0  -5  -1  675.53   60.39
   0  -5  -1  687.93   60.39
   0   5   1  657.73   60.39
   0   5   1  673.53   60.99
   0   5   1  739.83   61.49
   0   5   1  706.73   60.49
  -1  -5  -1   31.90    5.80
  -1  -5  -1   44.10    6.30
  -1  -5  -1   24.60    5.40
  -1  -5  -1   46.10    6.20
  -1  -5  -1   33.70    8.80
   1   5   1   36.80    9.00
   1   5   1   31.60    5.20
   1   5   1   44.90    6.30
   1   5   1   41.00    6.40
   1   5   1   51.79    8.50
  -2  -5  -1    9.70    3.80
  -2  -5  -1   11.60    4.20
  -2  -5  -1    4.20    3.80
  -2  -5  -1    5.70    4.80
   2   5   1   10.20    3.30
   2   5   1   14.00    4.80
   2   5   1   14.30    6.20
  -3  -5  -1    4.40    3.80
  -3  -5  -1    8.50    5.20
  -3  -5  -1   -2.20    4.10
  -3  -5  -1    1.20    3.70
   3   5   1    6.70    4.30
   3   5   1    3.10    3.90
   3   5   1    3.80    3.70
   3   5   1   -3.50    6.50
  -4  -5  -1    0.50    3.60
  -4  -5  -1   15.30    8.00
  -4  -5  -1   -1.40    3.80
  -4  -5  -1    4.40    5.00
  -4  -5  -1    1.90    4.40
   4   5   1   -3.40    4.00
   4   5   1   -1.40    3.70
   4   5   1   -0.10    7.40
   4   5   1    5.30    3.60
  -5  -5  -1   23.20    9.10
  -5  -5  -1   42.30    8.80
  -5  -5  -1   23.50    6.30
  -5  -5  -1   31.40    6.30
  -5  -5  -1   36.10    5.40
   5   5   1   28.20    5.60
   5   5   1   11.90    7.90
   5   5   1   30.60    6.10
   5   5   1   26.00    5.10
   5   5   1   35.20    9.80
  -6  -5  -1   54.39    7.00
  -6  -5  -1   55.19    6.80
  -6  -5  -1   52.79   11.10
   6   5   1   62.09    7.60
   6   5   1   40.70    9.00
   6   5   1   42.90    7.70
   6   5   1   73.09   12.50
  -7  -5  -1   12.70    4.20
  -7  -5  -1   -3.00    7.00
  -7  -5  -1    6.30    3.50
   7   5   1    9.00    7.30
   7   5   1   13.90   11.90
   7   5   1    4.00    4.60
   3  -6  -1    8.70    7.60
   3  -6  -1   12.70    6.80
   3  -6  -1    6.40   11.40
   3  -6  -1   22.90    5.50
  -3   6   1   17.40    5.40
  -3   6   1   11.40    6.30
  -3   6   1  -10.10    8.00
  -3   6   1    7.50   11.00
   2  -6  -1    0.70    7.70
   2  -6  -1    4.20    3.80
   2  -6  -1   -6.50    5.40
   2  -6  -1   -6.00   10.30
  -2   6   1  -10.00    8.40
  -2   6   1   -3.20    4.90
  -2   6   1   -4.80    4.40
  -2   6   1   -9.10    7.20
   1  -6  -1   -1.60    2.40
   1  -6  -1   -1.40    6.50
   1  -6  -1    1.80    3.40
   1  -6  -1   -2.00    9.30
   1  -6  -1  -11.10    6.10
   1  -6  -1   -4.10    3.00
   1  -6  -1   -4.90    5.20
  -1   6   1   -2.90    6.70
  -1   6   1   -6.10    4.70
  -1   6   1   -2.00    5.30
  -1   6   1   -1.60    7.40
   0  -6  -1  198.48   18.70
   0  -6  -1  193.88   18.70
   0  -6  -1  189.08   19.30
   0  -6  -1  194.18   18.90
   0   6   1  201.08   18.70
   0   6   1  198.28   20.00
   0   6   1  198.68   18.80
  -1  -6  -1  761.32   71.69
  -1  -6  -1  826.42   71.49
  -1  -6  -1  865.91   71.49
   1   6   1  890.81   71.59
   1   6   1  761.92   72.69
   1   6   1  776.32   72.19
   1   6   1  826.02   71.39
   1   6   1  766.02   71.59
  -2  -6  -1   81.39    8.80
  -2  -6  -1   65.69   10.10
  -2  -6  -1   59.49    8.70
  -2  -6  -1   61.99   11.30
   2   6   1   45.80    8.90
   2   6   1   71.19   13.30
   2   6   1   71.79   10.50
   2   6   1   80.19    8.90
  -3  -6  -1   -7.50    4.50
  -3  -6  -1   -6.40    5.10
  -3  -6  -1   -1.00    5.90
  -3  -6  -1    1.50    4.60
   3   6   1   -6.30    4.70
   3   6   1   -3.50    3.40
   3   6   1    5.70    5.00
  -4  -6  -1   54.29    9.60
  -4  -6  -1   42.30   10.80
  -4  -6  -1   60.49    7.70
  -4  -6  -1   47.00    7.40
   4   6   1   39.20    9.40
   4   6   1   59.29   10.50
   4   6   1   41.40    7.60
  -5  -6  -1    9.30    5.00
  -5  -6  -1   -3.10    5.90
  -5  -6  -1    4.40    5.60
  -5  -6  -1   12.00    5.30
   5   6   1    7.40    5.60
   5   6   1    9.00    9.50
  -6  -6  -1    6.30    5.00
  -6  -6  -1    0.60    6.10
  -6  -6  -1   22.20    9.40
  -6  -6  -1   -2.20    4.40
   6   6   1   28.70   11.10
   6   6   1    9.30    5.60
   6   6   1   -0.80    5.30
   6   6   1    2.30    3.30
   6   6   1    1.60    7.50
  -7  -6  -1    5.60    5.50
  -7  -6  -1   -4.00    7.20
  -7  -6  -1   13.70    6.00
   7   6   1   28.20   12.90
   7   6   1    6.20    5.70
   7   6   1   11.70    6.00
   7   6   1   13.90    8.80
   2  -7  -1    0.50   12.20
   2  -7  -1  -10.10   11.60
   2  -7  -1   -8.80    7.80
  -2   7   1   -7.30    6.60
  -2   7   1    6.80    5.50
   1  -7  -1   -4.40    6.10
   1  -7  -1    1.80    2.50
   1  -7  -1  -11.30   10.20
  -1   7   1  -11.80    6.70
  -1   7   1   -6.80    5.20
  -1   7   1  -12.30    5.70
   0  -7  -1  194.48   17.80
   0  -7  -1  190.58   18.10
   0  -7  -1  176.98   17.70
   0   7   1  210.58   18.30
   0   7   1  187.08   17.90
   0   7   1  151.48   18.80
   0   7   1  159.18   20.10
  -1  -7  -1   21.30    5.80
  -1  -7  -1   19.50    6.20
   1   7   1   17.20    6.10
   1   7   1   13.30    8.10
   1   7   1   17.90    8.90
   1   7   1   21.70    6.10
  -2  -7  -1    0.90    4.90
  -2  -7  -1   17.30    5.50
  -2  -7  -1   12.00    5.70
   2   7   1    8.70    5.90
   2   7   1    9.60    7.70
   2   7   1   -0.90    6.70
   2   7   1    9.60    5.80
  -3  -7  -1    0.00    5.40
  -3  -7  -1   -2.70    4.80
  -3  -7  -1    6.40    5.30
   3   7   1   -9.40    5.10
   3   7   1   -1.50    8.60
   3   7   1  -13.20    5.60
  -4  -7  -1   -5.90    5.10
  -4  -7  -1    9.40    5.40
  -4  -7  -1   -5.30    5.30
  -4  -7  -1   -0.60    5.50
   4   7   1   -2.60    8.80
   4   7   1   -8.10    9.10
   4   7   1   -8.40    5.80
  -5  -7  -1   17.10    5.90
  -5  -7  -1   22.20    5.50
  -5  -7  -1   27.80   10.20
  -5  -7  -1   11.70    6.70
   5   7   1   11.20    6.20
   5   7   1   10.80    4.70
   5   7   1   28.10   10.80
  -6  -7  -1   26.50    5.80
  -6  -7  -1   36.40    7.00
  -6  -7  -1   45.10   12.00
   6   7   1   18.10    9.30
   6   7   1   31.90    7.00
   1  -8  -1  -11.30    7.80
  -1   8   1   -0.60    6.70
  -1   8   1   -5.90    6.60
   0  -8  -1   47.00    8.60
   0  -8  -1   34.00    8.90
   0  -8  -1   61.59    7.20
   0   8   1   37.20    8.40
   0   8   1   54.99    9.70
  -1  -8  -1  107.79   12.90
  -1  -8  -1  120.69   13.40
  -1  -8  -1  118.99   13.60
  -1  -8  -1  105.49   13.30
   1   8   1  128.99   14.20
   1   8   1  121.69   13.60
   1   8   1   94.99   16.00
  -2  -8  -1   15.70    7.00
  -2  -8  -1   10.40    6.00
  -2  -8  -1    3.00    6.40
   2   8   1   17.90    9.40
   2   8   1   10.80    6.90
   2   8   1    0.60    7.00
  -3  -8  -1    2.00    4.90
  -3  -8  -1    2.10    5.80
  -3  -8  -1   -6.60    5.90
   3   8   1   -3.90    6.50
   3   8   1    0.80    6.40
   3   8   1   -6.50    9.30
  -4  -8  -1   -5.30    6.80
  -4  -8  -1    9.50    6.40
  -4  -8  -1    5.40    6.20
   4   8   1   11.30   10.70
   4   8   1   -1.70    6.90
  -5  -8  -1   -9.50    5.80
  -5  -8  -1   25.40   10.20
  -5  -8  -1   -2.90    6.30
  -5  -8  -1    6.70    7.10
   5   8   1   27.70   12.50
   5   8   1   -8.70    7.20
   5   8  -2   27.80   12.90
   5   8  -2   -2.70    8.00
  -5  -8   2   -0.50    6.40
  -5  -8   2    7.50    7.60
  -5  -8   2   -4.40    7.00
   4   8  -2    8.40    7.60
   4   8  -2   31.00   11.20
  -4  -8   2   11.60    6.70
  -4  -8   2   15.70    6.80
  -4  -8   2   15.50    6.80
   3   8  -2   -2.60    7.20
   3   8  -2   -9.60    7.80
   3   8  -2    7.10    9.20
   3   8  -2   18.20   10.40
  -3  -8   2    5.10    6.40
  -3  -8   2    5.50    5.90
  -3  -8   2    1.30    6.00
   2   8  -2    8.60    7.30
   2   8  -2   -2.10    8.00
   2   8  -2   -4.90    7.00
  -2  -8   2   18.10    6.60
  -2  -8   2    6.30    5.70
  -2  -8   2   16.90    6.90
   1   8  -2  -19.50   11.80
   1   8  -2    0.10    5.30
   1   8  -2   14.70    7.10
  -1  -8   2   -5.90    4.90
  -1  -8   2    6.00    6.90
  -1  -8   2   -0.60    6.50
   0   8  -2   -5.10    6.70
   0   8  -2    2.20    6.70
   0   8  -2   -4.10    8.10
   0  -8   2   -2.60    7.20
  -1   8  -2   -0.30    6.70
  -1   8  -2   -1.20    7.00
  -1   8  -2   -3.30   13.20
   1  -8   2    8.90    8.10
   6   7  -2   16.80   13.10
   6   7  -2   10.00    7.80
  -6  -7   2    3.10    7.60
  -6  -7   2    1.90    6.80
  -6  -7   2    7.00    6.50
   5   7  -2   -1.50    5.80
   5   7  -2    4.00    6.70
   5   7  -2   11.60   10.90
  -5  -7   2   -1.00    6.50
  -5  -7   2   -6.10    8.70
  -5  -7   2    0.20    5.80
  -5  -7   2   -4.00    5.50
   4   7  -2   66.49   11.80
   4   7  -2   49.99   10.40
   4   7  -2   38.40   10.80
  -4  -7   2   48.10    8.70
  -4  -7   2   66.69   11.00
  -4  -7   2   57.19    8.60
   3   7  -2   -1.70    7.70
   3   7  -2    1.20    4.30
   3   7  -2    0.80    8.90
   3   7  -2   -1.00    5.80
  -3  -7   2   -3.50    5.50
  -3  -7   2    0.80    5.40
  -3  -7   2    0.20    5.10
   2   7  -2  100.69   11.10
   2   7  -2   94.89   11.50
   2   7  -2   71.39    9.30
  -2  -7   2   76.79   10.90
  -2  -7   2   62.69    9.10
  -2  -7   2  105.89   10.60
   1   7  -2    4.70    7.30
   1   7  -2    2.00    6.10
   1   7  -2    7.20    5.80
   1   7  -2   -5.00    5.80
  -1  -7   2    9.20    5.90
  -1  -7   2   -1.20    4.30
  -1  -7   2    1.80    5.30
   0   7  -2    2.80    5.80
   0   7  -2    4.30    5.80
   0   7  -2   -2.40    7.00
   0   7  -2   -3.60    6.90
   0  -7   2   -2.40    9.40
   0  -7   2    4.00    5.00
   0  -7   2   -5.90    5.60
   0  -7   2   -6.20    3.30
  -1   7  -2   28.70    7.10
  -1   7  -2   42.10    9.70
  -1   7  -2   30.20    9.50
  -1   7  -2   55.09    8.60
   1  -7   2   35.80    8.00
   1  -7   2   28.20   11.10
  -2   7  -2    8.30   10.10
  -2   7  -2    1.00    5.90
  -2   7  -2    0.70    5.40
   2  -7   2   -7.30    7.80
   2  -7   2   -2.20    8.70
   2  -7   2   -4.50    6.90
   7   6  -2   14.70   10.20
  -7  -6   2    9.70    8.00
  -7  -6   2   22.60    5.90
   6   6  -2   -5.00    5.70
   6   6  -2   -1.40    6.10
   6   6  -2    4.10    5.50
   6   6  -2   11.90   11.50
  -6  -6   2    2.30    5.40
  -6  -6   2   -3.00    6.80
  -6  -6   2    8.90    4.90
   5   6  -2   -0.70    1.80
   5   6  -2   -4.00    9.70
   5   6  -2   -6.50    5.40
  -5  -6   2    3.00    5.10
  -5  -6   2   -2.50    5.50
  -5  -6   2   -1.10    4.50
   4   6  -2   93.29   16.20
   4   6  -2   91.89   10.30
   4   6  -2   75.69    9.80
  -4  -6   2   76.69    9.60
  -4  -6   2   64.19   11.90
  -4  -6   2   77.79    9.40
  -4  -6   2   78.39   11.60
   3   6  -2   51.19    7.70
   3   6  -2   51.59    8.90
   3   6  -2   32.80    9.20
   3   6  -2   47.60    7.60
  -3  -6   2   54.49    7.20
  -3  -6   2   51.69    9.00
  -3  -6   2   31.70    5.90
   2   6  -2   45.30    6.10
   2   6  -2   42.30    8.30
   2   6  -2   37.30    6.20
  -2  -6   2   45.00    9.00
  -2  -6   2   58.39    7.40
  -2  -6   2   43.00    9.90
   1   6  -2   42.30    6.40
   1   6  -2   28.90    6.50
   1   6  -2   47.30    8.10
   1   6  -2   30.60    6.80
  -1  -6   2   32.60    5.80
  -1  -6   2   44.70    7.10
  -1  -6   2   35.80    9.20
   0   6  -2    1.10    5.00
   0   6  -2   -2.60    6.60
   0   6  -2   -3.20    5.80
   0   6  -2    0.30    4.80
   0  -6   2    3.20    4.50
   0  -6   2   -1.70    6.00
   0  -6   2    3.20    4.00
   0  -6   2    1.20    3.20
   0  -6   2    8.20    9.10
  -1   6  -2   81.19   11.50
  -1   6  -2   83.29   11.40
  -1   6  -2   70.99   10.70
  -1   6  -2   75.89    9.10
   1  -6   2   62.39   11.30
   1  -6   2   68.89   11.80
   1  -6   2   60.69    7.10
   1  -6   2   86.29    9.60
  -2   6  -2   -8.30    6.50
  -2   6  -2   -5.00    4.40
  -2   6  -2   -2.60    8.20
  -2   6  -2   -8.10    4.90
   2  -6   2    1.70    4.70
   2  -6   2   -6.70    5.40
   2  -6   2   -0.90   10.00
  -3   6  -2    6.80    9.50
  -3   6  -2   -1.50    5.00
  -3   6  -2    2.60    5.10
   3  -6   2    3.60    5.70
   3  -6   2   -1.00   10.80
   3  -6   2    0.40    7.20
   3  -6   2    2.50    4.80
  -4   6  -2   28.00    6.90
   4  -6   2   50.09   13.90
   4  -6   2   30.30    7.60
   7   5  -2   13.00    5.50
   7   5  -2   14.70    8.70
   7   5  -2   11.00    5.30
  -7  -5   2   10.90    4.80
  -7  -5   2   14.00    7.80
   6   5  -2    2.00    7.10
   6   5  -2   -3.80    4.80
  -6  -5   2   -3.60    3.90
  -6  -5   2   -0.40    4.40
  -6  -5   2   -7.70    6.10
  -6  -5   2   -4.90    6.40
   5   5  -2    0.40    4.40
   5   5  -2    2.00    8.70
  -5  -5   2   -1.50    4.30
  -5  -5   2   -1.70    4.20
  -5  -5   2   -2.30    4.10
  -5  -5   2    0.60    7.50
   4   5  -2  343.87   31.50
   4   5  -2  359.46   33.40
   4   5  -2  353.76   31.20
  -4  -5   2  345.37   32.90
  -4  -5   2  319.87   31.80
  -4  -5   2  357.86   31.40
  -4  -5   2  370.56   35.90
   3   5  -2   91.49   10.10
   3   5  -2   85.09   12.40
   3   5  -2   75.89   10.00
   3   5  -2  107.29   10.70
  -3  -5   2  100.09    9.90
  -3  -5   2   98.79    9.90
  -3  -5   2  102.79   11.60
  -3  -5   2   89.59   11.30
   2   5  -2  345.17   33.40
  -2  -5   2  393.66   32.70
  -2  -5   2  397.16   33.40
  -2  -5   2  319.87   33.40
   1   5  -2    6.20    4.40
   1   5  -2   12.10    5.60
   1   5  -2   15.10    4.60
  -1  -5   2   16.90    4.40
  -1  -5   2   15.10    4.50
  -1  -5   2    7.20    3.70
   0   5  -2  114.99   11.90
   0   5  -2  120.09   12.00
   0   5  -2  129.99   13.30
   0  -5   2  101.29   16.20
   0  -5   2  131.69   12.40
   0  -5   2  119.89   11.80
   0  -5   2  138.79   12.60
  -1   5  -2  215.58   18.20
  -1   5  -2  178.78   19.40
  -1   5  -2  204.48   18.10
  -1   5  -2  199.88   19.30
   1  -5   2  208.58   18.30
   1  -5   2  186.68   19.50
   1  -5   2  165.68   17.30
   1  -5   2  187.48   19.90
   1  -5   2  196.38   18.00
  -2   5  -2    2.10    6.30
  -2   5  -2   -8.20    4.20
  -2   5  -2   -9.20    3.90
  -2   5  -2   -9.70    6.70
   2  -5   2   -0.10    5.30
   2  -5   2    3.50    4.70
   2  -5   2    1.80    8.90
   2  -5   2   -3.00    4.00
   2  -5   2  -11.70    5.00
  -3   5  -2    4.70    4.30
  -3   5  -2    3.20    6.90
  -3   5  -2    5.70    4.10
   3  -5   2    1.40    9.20
   3  -5   2    5.80    4.00
   3  -5   2   11.80    4.80
   3  -5   2   12.60    4.50
   3  -5   2   -2.40    5.60
  -4   5  -2   12.00    9.90
  -4   5  -2  -11.60    7.00
  -4   5  -2    4.80    4.10
  -4   5  -2   -1.70    4.70
   4  -5   2    1.90    6.60
   4  -5   2    6.70    5.20
   4  -5   2    4.50   10.80
  -5   5  -2   21.10    5.70
   5  -5   2   22.40    5.60
   5  -5   2   38.90   14.20
   7   4  -2   -1.70    4.50
   7   4  -2    5.40    5.10
   7   4  -2    5.90    8.30
  -7  -4   2    1.40    7.20
  -7  -4   2    2.30    3.30
  -7  -4   2   15.70    8.00
  -7  -4   2   18.90   12.40
   6   4  -2   10.60    5.60
   6   4  -2    7.60    4.10
  -6  -4   2    7.60    4.90
  -6  -4   2    7.30    3.10
  -6  -4   2    5.00    6.20
   5   4  -2   -7.90    8.60
   5   4  -2   -1.00    6.60
   5   4  -2   -5.60    3.90
   5   4  -2    1.30    4.10
  -5  -4   2   -3.70    3.50
  -5  -4   2   -2.90    5.10
  -5  -4   2    1.00    7.30
  -5  -4   2   -1.00    3.40
   4   4  -2  190.68   19.00
   4   4  -2  204.98   21.10
  -4  -4   2  198.08   20.50
  -4  -4   2  226.08   19.00
  -4  -4   2  212.88   18.90
   3   4  -2  591.74   48.60
   3   4  -2  526.35   49.80
   3   4  -2  546.45   48.60
  -3  -4   2  577.84   48.70
  -3  -4   2  466.95   49.30
  -3  -4   2  550.04   48.60
  -3  -4   2  598.64   49.60
   2   4  -2   40.70    5.50
   2   4  -2   31.70    3.90
   2   4  -2   28.30    7.10
  -2  -4   2   45.00    6.10
  -2  -4   2   29.80    4.40
  -2  -4   2   38.30    6.30
  -2  -4   2   36.40    5.00
   1   4  -2  142.29   13.70
   1   4  -2  118.99   13.40
   1   4  -2  166.28   13.60
   1   4  -2  150.28   13.40
  -1  -4   2  143.49   13.90
  -1  -4   2  137.09   14.20
  -1  -4   2  136.79   13.30
   0   4  -2   16.00    4.00
   0  -4   2   29.50    6.20
   0  -4   2   13.40    3.30
   0  -4   2   17.40    3.70
  -1   4  -2  617.54   53.09
  -1   4  -2  677.93   53.19
  -1   4  -2  552.14   53.79
   1  -4   2  567.44   53.09
   1  -4   2  547.25   52.79
   1  -4   2  620.24   53.89
   1  -4   2  664.93   53.19
   1  -4   2  579.34   54.29
  -2   4  -2   42.20    5.50
  -2   4  -2   36.70    6.00
  -2   4  -2   44.30    8.10
  -2   4  -2   34.10    7.60
   2  -4   2   37.50    7.30
   2  -4   2   35.20    5.30
   2  -4   2   38.70    5.70
   2  -4   2   38.20    6.20
   2  -4   2   42.70    7.60
  -3   4  -2   21.30    8.00
  -3   4  -2   26.10    5.20
  -3   4  -2   30.90    5.20
  -3   4  -2   22.50    6.40
   3  -4   2   22.30    6.90
   3  -4   2   23.20    5.60
   3  -4   2   27.50   13.80
   3  -4   2   27.80    5.10
   3  -4   2   25.50    4.60
  -4   4  -2   81.49   13.30
  -4   4  -2   61.29   10.10
  -4   4  -2   92.69    8.80
   4  -4   2   67.39   11.90
   4  -4   2   96.69    9.00
   4  -4   2   76.29   12.90
  -5   4  -2  293.47   23.30
  -5   4  -2  260.67   23.00
  -5   4  -2  288.37   27.80
  -5   4  -2  213.38   26.50
  -5   4  -2  228.88   25.20
   5  -4   2  241.08   25.90
   5  -4   2  219.68   27.00
   5  -4   2  278.37   23.20
   7   3  -2    1.90    2.90
   7   3  -2    6.00    6.30
  -7  -3   2    8.90    9.70
  -7  -3   2   17.10    7.50
  -7  -3   2    1.30    1.80
  -7  -3   2    4.30    1.90
  -7  -3   2   -5.10    6.60
  -7  -3   2    6.50    7.10
  -7  -3   2   17.30    8.80
   6   3  -2   -6.00    6.40
   6   3  -2    1.90    4.70
   6   3  -2    3.70    5.10
   6   3  -2   -4.30    3.50
  -6  -3   2    1.90    6.80
  -6  -3   2   -7.00    5.30
  -6  -3   2   -1.20    2.60
  -6  -3   2   -1.70    2.90
   5   3  -2   12.00    3.50
   5   3  -2   15.90    5.40
   5   3  -2   14.40    5.90
   5   3  -2    9.20    3.60
  -5  -3   2   15.30    7.20
  -5  -3   2   10.30    3.20
  -5  -3   2   14.20    2.80
  -5  -3   2    7.60    5.00
   4   3  -2  559.44   49.30
   4   3  -2  579.64   49.10
   4   3  -2  566.14   49.00
   4   3  -2  527.45   50.59
   4   3  -2  547.85   49.60
  -4  -3   2  590.44   49.00
  -4  -3   2  579.94   49.00
  -4  -3   2  500.45   49.99
   3   3  -2 1377.66  115.89
   3   3  -2 1135.59  114.39
   3   3  -2 1235.08  115.59
   3   3  -2 1338.07  114.69
   3   3  -2 1247.18  114.69
   3   3  -2 1416.26  114.79
  -3  -3   2 1283.87  114.69
  -3  -3   2 1326.77  115.59
  -3  -3   2 1456.45  114.69
   2   3  -2  160.08   16.80
   2   3  -2  167.28   16.70
   2   3  -2  194.48   17.70
  -2  -3   2  171.28   17.40
  -2  -3   2  215.58   17.60
  -2  -3   2  199.78   16.80
   1   3  -2  351.36   35.20
   1   3  -2  385.16   35.50
   1   3  -2  402.96   35.50
  -1  -3   2  412.06   35.10
  -1  -3   2  423.96   35.20
  -1  -3   2  413.56   35.50
  -1  -3   2  375.96   35.60
  -1  -3   2  414.56   35.40
   0   3  -2 1862.01  160.28
   0   3  -2 1746.23  159.98
   0   3  -2 1873.51  159.98
   0  -3   2 1850.11  159.88
   0  -3   2 1937.71  159.98
   0  -3   2 1837.32  159.98
   0  -3   2 1719.83  160.18
  -1   3  -2   77.49    7.70
   1  -3   2   91.29    8.80
   1  -3   2   89.69    9.60
   1  -3   2   65.19    7.00
   1  -3   2   78.39    7.70
   1  -3   2   68.99    7.50
  -2   3  -2   14.80    3.90
  -2   3  -2    2.80    2.80
  -2   3  -2    8.40    2.90
   2  -3   2   16.60    4.50
   2  -3   2    4.60    2.60
   2  -3   2    2.60    3.30
   2  -3   2   12.20    6.70
   2  -3   2   12.00    3.90
  -3   3  -2   37.20    4.90
  -3   3  -2   42.80    7.50
  -3   3  -2   38.30    4.90
   3  -3   2   34.80    5.00
   3  -3   2   44.30    5.30
   3  -3   2   31.80    8.60
   3  -3   2   38.80    6.60
  -4   3  -2    0.90    2.40
  -4   3  -2  -11.00    5.80
  -4   3  -2   -0.20    7.20
  -4   3  -2   -0.90    2.90
   4  -3   2   -2.00    3.30
   4  -3   2    3.20   11.70
   4  -3   2   -1.60    4.50
   4  -3   2    3.80    5.10
   4  -3   2   -3.80    2.80
  -5   3  -2  183.48   19.40
  -5   3  -2  174.18   19.70
  -5   3  -2  191.08   16.90
  -5   3  -2  186.88   16.90
   5  -3   2  194.48   19.80
   5  -3   2  177.58   21.30
   5  -3   2  200.38   17.20
  -6   3  -2   15.10    7.60
  -6   3  -2   -9.40    7.80
   6  -3   2    7.40    3.20
   6  -3   2    3.80   12.40
   6  -3   2    3.70    3.00
   7   2  -2    3.00    6.40
   7   2  -2    5.00    8.20
   7   2  -2    3.00    2.40
  -7  -2   2    9.00    7.20
  -7  -2   2    3.30    7.60
  -7  -2   2   -4.00    6.50
  -7  -2   2   13.30    8.70
  -7  -2   2   21.60   10.10
   6   2  -2   -0.50    7.20
   6   2  -2    1.10    2.30
   6   2  -2    1.60    6.70
  -6  -2   2   -1.20    5.50
  -6  -2   2   -1.50   10.10
  -6  -2   2   -0.70    1.70
  -6  -2   2   -7.60    7.30
  -6  -2   2    2.80    1.70
  -6  -2   2    2.20    6.50
  -6  -2   2   -1.80    2.10
  -6  -2   2   -6.10    5.30
   5   2  -2    7.40    2.90
   5   2  -2   -0.70    5.70
   5   2  -2    1.40    2.50
   5   2  -2    7.90    5.90
  -5  -2   2    3.30    2.20
  -5  -2   2    4.00    1.60
  -5  -2   2   -2.90    6.50
  -5  -2   2    3.00    2.10
  -5  -2   2    0.70    4.40
  -5  -2   2   -0.90    5.50
  -5  -2   2    2.30    4.90
   4   2  -2  182.98   16.10
   4   2  -2  162.48   16.10
   4   2  -2  178.78   15.20
   4   2  -2  155.18   15.00
  -4  -2   2  157.78   15.00
  -4  -2   2  151.68   16.80
  -4  -2   2  179.98   16.00
  -4  -2   2  165.58   15.00
  -4  -2   2  165.58   16.70
   3   2  -2 2460.85  207.28
   3   2  -2 2349.36  206.48
   3   2  -2 2478.55  206.78
   3   2  -2 2131.39  206.38
  -3  -2   2 2154.38  206.38
  -3  -2   2 2529.85  207.18
  -3  -2   2 2326.87  207.28
  -3  -2   2 2510.55  206.38
   2   2  -2    0.30    4.50
   2   2  -2    3.30    2.90
   2   2  -2    4.90    2.20
   2   2  -2    7.60    2.40
  -2  -2   2    5.90    2.30
  -2  -2   2    3.70    4.00
  -2  -2   2    7.20    2.30
  -2  -2   2    6.40    3.00
   1   2  -2   24.40    3.60
   1   2  -2   29.10    4.00
   1   2  -2   24.30    4.50
  -1  -2   2   26.80    4.10
  -1  -2   2   18.00    4.40
  -1  -2   2   27.50    3.50
  -1  -2   2   24.20    3.60
   0   2  -2 1346.87  123.69
   0   2  -2 1431.06  123.69
   0   2  -2 1428.56  123.59
   0   2  -2 1504.15  123.69
   0  -2   2 1403.76  123.69
   0  -2   2 1333.57  123.79
   0  -2   2 1470.05  123.69
  -1   2  -2  337.87   30.60
  -1   2  -2  384.76   30.80
  -1   2  -2  321.97   31.00
   1  -2   2  305.77   30.70
   1  -2   2  360.76   30.60
   1  -2   2  376.76   30.70
  -2   2  -2 1598.84  130.49
  -2   2  -2 1368.06  131.29
   2  -2   2 1530.25  131.39
   2  -2   2 1639.04  130.99
   2  -2   2 1375.76  130.39
   2  -2   2 1460.25  130.49
  -3   2  -2  209.38   16.70
  -3   2  -2  167.38   16.50
  -3   2  -2  183.78   18.50
  -3   2  -2  199.38   18.60
  -3   2  -2  181.38   16.60
  -3   2  -2  183.18   17.60
   3  -2   2  161.78   17.40
   3  -2   2  190.48   16.70
   3  -2   2  192.58   18.60
   3  -2   2  199.68   17.70
  -4   2  -2   34.80    7.00
  -4   2  -2   29.20    3.60
  -4   2  -2   25.60    6.20
  -4   2  -2   30.10    4.40
  -4   2  -2   18.20    5.50
  -4   2  -2   31.00    3.70
  -4   2  -2   27.20    7.70
  -4   2  -2   28.70    8.30
  -4   2  -2   27.30    7.00
   4  -2   2   28.20    3.80
   4  -2   2   34.40    7.00
   4  -2   2   19.80    8.80
   4  -2   2   27.20    6.10
  -5   2  -2 1040.00   82.89
  -5   2  -2  885.01   82.19
  -5   2  -2  945.91   81.89
  -5   2  -2  886.31   81.89
  -5   2  -2  805.22   80.69
  -5   2  -2  932.41   82.89
   5  -2   2  936.81   80.39
   5  -2   2  817.22   83.09
   5  -2   2 1033.40   80.49
  -6   2  -2   30.40    9.90
  -6   2  -2   -0.90   11.30
  -6   2  -2    5.10    8.60
  -6   2  -2   11.60    8.70
   6  -2   2   23.40   11.30
  -7   2  -2    9.50    8.80
  -7   2  -2   35.90   11.10
   7   1  -2    4.10    9.30
   7   1  -2    0.40    8.40
  -7  -1   2   16.20    8.10
  -7  -1   2    0.00    8.40
  -7  -1   2    0.50    7.80
  -7  -1   2    1.30    3.90
  -7  -1   2   -8.70    6.60
  -7  -1   2   19.00    9.10
   6   1  -2   -1.80    2.00
   6   1  -2   -5.90    6.80
   6   1  -2   -6.10    7.50
   6   1  -2    2.00    2.30
  -6  -1   2   -0.20    5.20
  -6  -1   2   -1.60    3.30
  -6  -1   2    0.70    6.20
  -6  -1   2   -0.50    6.80
  -6  -1   2   -6.90    6.90
  -6  -1   2   -0.60    5.50
   5   1  -2   80.59    7.40
   5   1  -2   72.59    7.20
   5   1  -2   58.09    8.50
  -5  -1   2   57.99    9.70
  -5  -1   2   64.39    9.80
  -5  -1   2   82.09    6.90
  -5  -1   2   85.69    9.60
  -5  -1   2   82.29   10.60
  -5  -1   2   76.99   10.80
  -5  -1   2   77.99    8.30
  -5  -1   2   75.29    6.90
  -5  -1   2   73.99   10.00
   4   1  -2    8.40    2.10
   4   1  -2    4.40    4.50
   4   1  -2    3.20    3.40
   4   1  -2    7.40    5.30
  -4  -1   2    7.30    5.60
  -4  -1   2    6.90    1.70
  -4  -1   2   10.70    4.80
  -4  -1   2    2.70    1.90
  -4  -1   2    6.00    4.30
  -4  -1   2    7.30    1.80
  -4  -1   2    2.80    4.30
  -4  -1   2    3.60    3.70
   3   1  -2 3394.56  294.67
   3   1  -2 3486.25  294.87
   3   1  -2 2927.31  294.07
   3   1  -2 3523.65  294.07
   3   1  -2 3485.75  294.57
  -3  -1   2 3213.18  293.97
  -3  -1   2 2982.90  294.47
  -3  -1   2 3474.55  294.77
  -3  -1   2 3314.07  294.97
  -3  -1   2 3906.71  294.57
  -3  -1   2 3419.16  294.07
   2   1  -2  458.05   39.60
   2   1  -2  373.86   39.10
   2   1  -2  407.36   39.20
   2   1  -2  471.95   39.90
  -2  -1   2  478.75   40.00
  -2  -1   2  456.45   39.80
  -2  -1   2  451.85   39.20
  -2  -1   2  483.55   39.20
   1   1  -2  828.12   64.09
  -1  -1   2  703.13   64.09
  -1  -1   2  625.34   63.99
  -1  -1   2  682.03   64.09
  -1  -1   2  771.92   64.49
  -1  -1   2  796.92   64.49
  -1   1  -2  820.72   69.19
  -1   1  -2  835.62   69.39
  -1   1  -2  807.72   69.19
  -1   1  -2  820.92   69.69
   1  -1   2  682.03   69.49
   1  -1   2  796.52   69.19
   1  -1   2  833.62   69.29
   1  -1   2  746.13   69.19
  -2   1  -2  143.29   12.80
  -2   1  -2  119.69   13.40
  -2   1  -2  132.59   12.20
   2  -1   2  139.99   12.70
   2  -1   2  148.69   13.60
  -3   1  -2   48.10    6.60
  -3   1  -2   53.79    6.40
  -3   1  -2   49.90    4.50
  -3   1  -2   40.50    4.50
  -3   1  -2   53.89    6.30
  -3   1  -2   41.10    7.10
  -3   1  -2   42.70    5.50
  -3   1  -2   51.59    7.30
   3  -1   2   46.80    4.60
   3  -1   2   58.19    6.30
   3  -1   2   46.90    6.30
   3  -1   2   45.80    4.70
   3  -1   2   57.59    6.60
  -4   1  -2   18.30    5.60
  -4   1  -2   16.10    4.50
  -4   1  -2   24.70    5.10
  -4   1  -2   16.50    4.60
  -4   1  -2   20.10    6.50
  -4   1  -2   22.90    7.10
  -4   1  -2   30.50    6.20
   4  -1   2   16.50    2.30
   4  -1   2   20.70    7.50
   4  -1   2   11.40    2.10
  -5   1  -2  574.34   50.29
  -5   1  -2  511.75   49.40
  -5   1  -2  591.34   48.90
  -5   1  -2  533.95   49.60
  -5   1  -2  613.14   50.29
   5  -1   2  459.95   49.90
  -6   1  -2   -1.30    4.30
  -6   1  -2    3.80    5.60
  -6   1  -2   11.80    8.60
  -6   1  -2   11.80    8.50
  -6   1  -2    3.70    8.60
  -6   1  -2    1.60    9.90
  -6   1  -2    4.30    6.20
  -7   1  -2  -15.70   11.40
  -7   1  -2   -4.70    5.10
  -7   1  -2   -3.70    9.60
  -7   1  -2   19.70   11.60
  -7   1  -2   -1.00    7.50
  -7   1  -2    4.10    7.00
   7   0  -2    3.30   10.40
  -7   0   2   31.90   17.00
  -7   0   2    6.60    7.90
  -7   0   2   -6.30    6.60
  -7   0   2    1.10    5.00
  -7   0   2   18.40    8.00
   6   0  -2    5.20    1.90
   6   0  -2    1.50    8.60
   6   0  -2    7.80    2.00
  -6   0   2   -0.70    6.60
  -6   0   2    7.80    4.30
  -6   0   2   14.30    7.70
  -6   0   2   -1.80    8.60
  -6   0   2    8.80    8.00
  -6   0   2    2.80    5.70
  -6   0   2   14.70    8.30
   5   0  -2    0.50    4.40
   5   0  -2    1.20    4.60
   5   0  -2   -0.10    2.00
   5   0  -2   -3.70    2.20
  -5   0   2    0.60    6.40
  -5   0   2   -3.40    5.20
  -5   0   2   -3.50    4.60
  -5   0   2   -3.80    7.10
  -5   0   2    2.70    5.20
  -5   0   2   -9.70    6.70
   4   0  -2    1.20    5.50
   4   0  -2   -1.70    1.90
   4   0  -2    2.00    4.90
   4   0  -2   -1.90    3.20
   4   0  -2    1.00    2.30
  -4   0   2    3.80    5.40
  -4   0   2   -0.70    4.40
  -4   0   2   -2.20    4.60
  -4   0   2   -0.10    4.20
  -4   0   2    0.10    4.10
  -4   0   2    0.60    3.30
  -4   0   2    3.10    5.80
  -4   0   2    2.10    1.80
  -4   0   2    0.50    1.50
   3   0  -2 1957.90  160.98
   3   0  -2 2025.80  160.68
   3   0  -2 1720.33  160.68
   3   0  -2 1808.82  160.08
   3   0  -2 1902.61  160.68
  -3   0   2 1738.53  160.88
  -3   0   2 1909.71  160.58
  -3   0   2 1889.71  160.58
  -3   0   2 1720.53  160.68
  -3   0   2 1740.43  160.08
  -3   0   2 1820.12  160.98
  -3   0   2 1805.92  160.08
   2   0  -2   79.59    7.00
   2   0  -2   69.79    7.90
   2   0  -2   63.09    8.00
   2   0  -2   90.19    7.80
   2   0  -2   76.09    7.10
  -2   0   2   75.79    7.00
  -2   0   2   77.29    7.00
  -2   0   2   87.69    7.60
  -2   0   2   74.49    8.00
  -2   0   2   74.09    7.60
  -2   0   2   64.79    7.90
  -2   0   2   79.89    8.20
   1   0  -2  369.26   30.60
   1   0  -2  359.86   30.60
   1   0  -2  356.46   30.50
   1   0  -2  379.86   30.50
  -1   0   2  282.97   30.50
  -1   0   2  324.27   30.50
  -1   0   2  364.46   30.50
  -2   0  -2 5048.40  427.96
  -2   0  -2 5050.99  428.06
  -2   0  -2 4740.33  427.96
  -2   0  -2 4244.78  427.86
  -2   0  -2 5460.95  428.16
  -3   0  -2   36.70    5.80
  -3   0  -2   24.80    5.10
  -3   0  -2   35.20    5.40
  -3   0  -2   33.30    5.60
  -3   0  -2   35.90    6.20
  -3   0  -2   41.70    5.20
   3   0   2   31.80    5.50
   3   0   2   47.20    6.20
  -4   0  -2   35.00    5.90
  -4   0  -2   38.20    5.40
  -4   0  -2   29.70    5.70
  -4   0  -2   25.60    6.00
  -4   0  -2   33.50    6.10
  -4   0  -2   27.80    6.50
  -4   0  -2   34.50    6.50
  -4   0  -2   34.30    6.30
  -5   0  -2 1003.50   95.29
  -5   0  -2 1028.30   95.19
  -5   0  -2 1219.48   97.09
  -5   0  -2 1101.19   95.99
  -5   0  -2 1120.79   95.19
  -5   0  -2 1033.10   95.29
  -5   0  -2 1054.09   95.69
  -6   0  -2  293.57   31.30
  -6   0  -2  375.96   31.40
  -6   0  -2  345.77   32.50
  -6   0  -2  308.67   31.70
  -6   0  -2  354.86   32.10
  -7   0  -2   14.50    9.30
  -7   0  -2    7.80    5.90
  -7   0  -2   -4.10    6.10
  -7   0  -2    9.00   10.30
  -7   0  -2    0.80    6.00
  -7   0  -2   15.70   10.00
  -7   0  -2   19.50   10.60
   7  -1  -2    4.70   11.30
  -7   1   2    4.90    6.20
  -7   1   2   -3.50    8.40
   6  -1  -2    7.10    8.60
  -6   1   2    9.30    6.70
  -6   1   2    9.10    7.50
  -6   1   2    2.50    6.80
  -6   1   2   14.00    9.30
  -6   1   2    2.50    5.40
  -6   1   2  -13.90    9.70
   5  -1  -2   66.79   10.20
   5  -1  -2   40.90    5.50
   5  -1  -2   62.59   10.10
   5  -1  -2   60.49    5.40
  -5   1   2   50.89    8.50
  -5   1   2   50.39    8.60
  -5   1   2   57.39    9.80
  -5   1   2   65.99   10.20
  -5   1   2   33.10    8.20
  -5   1   2   32.80    6.40
  -5   1   2   45.00   10.20
  -5   1   2   47.80    4.80
  -5   1   2   44.40    4.80
   4  -1  -2  182.08   18.90
   4  -1  -2  176.88   17.10
   4  -1  -2  206.68   18.30
   4  -1  -2  171.68   18.90
  -4   1   2  180.68   17.40
  -4   1   2  157.78   18.30
  -4   1   2  211.68   18.20
  -4   1   2  201.88   18.20
  -4   1   2  205.98   17.10
  -4   1   2  192.48   19.20
  -4   1   2  210.88   18.40
   3  -1  -2 1390.86  120.49
   3  -1  -2 1217.18  120.79
   3  -1  -2 1366.66  119.99
   3  -1  -2 1544.45  120.89
   3  -1  -2 1548.05  121.19
  -3   1   2 1415.16  120.69
  -3   1   2 1306.37  120.39
  -3   1   2 1400.36  120.99
  -3   1   2 1494.95  120.49
  -3   1   2 1210.68  120.39
  -3   1   2 1283.37  120.79
  -3   1   2 1342.27  119.89
  -3   1   2 1354.36  119.89
   2  -1  -2 1087.49   90.59
   2  -1  -2 1095.09   90.89
   2  -1  -2  977.10   90.59
   2  -1  -2 1021.20   91.29
  -2   1   2 1028.20   90.59
  -2   1   2 1107.09   90.99
  -2   1   2 1115.19   90.59
  -2   1   2  880.11   91.19
  -2   1   2 1028.20   90.89
   1  -1  -2    6.10    1.90
   1  -1  -2    3.40    1.70
   1  -1  -2    2.60    1.70
   1  -1  -2    3.10    2.20
   1  -1  -2    2.70    3.60
  -1   1   2    6.30    2.30
  -1   1   2    3.90    1.90
  -1   1   2    2.20    1.60
  -1   1   2    4.20    2.20
   0  -1  -2 1140.29   98.79
   0   1   2  967.00   98.99
   0   1   2 1189.68   98.79
   0   1   2 1235.28   98.99
  -1  -1  -2 2426.96  221.68
  -1  -1  -2 2533.15  221.48
  -1  -1  -2 2381.66  221.58
   1   1   2 2601.74  221.48
   1   1   2 2493.45  221.58
   1   1   2 2558.54  221.48
   1   1   2 2799.82  221.78
  -2  -1  -2  384.56   39.30
  -2  -1  -2  518.35   39.60
  -2  -1  -2  386.26   39.30
  -2  -1  -2  523.65   39.80
  -2  -1  -2  476.65   40.00
  -2  -1  -2  476.35   40.00
   2   1   2  429.96   39.90
   2   1   2  388.76   39.30
   2   1   2  469.05   39.60
  -3  -1  -2    2.30    2.20
  -3  -1  -2    0.30    4.80
  -3  -1  -2   -0.30    0.90
  -3  -1  -2    3.20    3.00
  -3  -1  -2   -1.40    4.30
  -3  -1  -2   -0.60    0.90
  -3  -1  -2   -3.50    3.10
   3   1   2   -4.70    4.10
   3   1   2    2.20    1.10
   3   1   2    0.10    2.50
   3   1   2   -0.40    1.00
   3   1   2   -3.00    2.20
  -4  -1  -2   66.99    8.50
  -4  -1  -2   76.99    9.10
  -4  -1  -2   74.89    8.40
  -4  -1  -2   91.19    9.50
  -4  -1  -2   81.19    8.40
  -4  -1  -2   87.59    8.30
  -4  -1  -2   76.19    9.10
   4   1   2   64.89    6.60
   4   1   2   61.89    7.70
   4   1   2   85.19    9.50
   4   1   2   69.79    6.60
  -5  -1  -2  350.66   33.10
  -5  -1  -2  415.96   34.00
  -5  -1  -2  344.37   33.20
  -5  -1  -2  310.07   33.40
  -5  -1  -2  336.67   32.80
  -5  -1  -2  400.16   33.90
  -5  -1  -2  346.77   33.20
  -5  -1  -2  368.76   32.90
   5   1   2  381.06   33.20
  -6  -1  -2   21.30    7.30
  -6  -1  -2    6.40    6.60
  -6  -1  -2   18.90    9.30
  -6  -1  -2   23.00    8.70
  -6  -1  -2   13.60    5.60
  -6  -1  -2    6.40    9.10
   6   1   2   32.90    7.80
  -7  -1  -2   14.70    9.50
  -7  -1  -2   11.10    9.40
  -7  -1  -2    4.20    9.40
  -7  -1  -2  -12.20    7.20
  -7  -1  -2    7.20    7.70
  -7  -1  -2    2.70    5.80
  -7  -1  -2    0.50    5.90
  -7  -1  -2    1.40    5.20
  -8  -1  -2   15.00    7.80
  -8  -1  -2   20.50   12.00
  -8  -1  -2   14.90   10.80
   6  -2  -2   -1.50    3.10
   6  -2  -2    5.20   10.90
   6  -2  -2    2.30    9.50
   6  -2  -2    1.30    3.10
  -6   2   2   19.50    9.90
  -6   2   2    0.80    7.70
  -6   2   2    5.40    7.60
  -6   2   2   -0.90    8.40
  -6   2   2  -17.00   10.50
   5  -2  -2    4.00    5.50
   5  -2  -2   14.80    9.70
   5  -2  -2   -1.60    8.60
   5  -2  -2   -4.90    2.90
  -5   2   2   -2.50    4.10
  -5   2   2   -2.20    2.50
  -5   2   2    5.00    6.30
  -5   2   2   -9.30    8.30
  -5   2   2    7.00    5.60
  -5   2   2   -3.90    6.20
  -5   2   2   -4.50    2.30
   4  -2  -2   26.50    5.80
   4  -2  -2   31.80    5.80
   4  -2  -2   26.00    4.40
   4  -2  -2   28.10    8.60
   4  -2  -2   23.90    8.10
   4  -2  -2   16.70    5.40
  -4   2   2   25.90    3.60
  -4   2   2   29.90    6.20
  -4   2   2   25.70    4.00
  -4   2   2   26.10    8.30
  -4   2   2   17.20    6.30
  -4   2   2   19.40    5.50
  -4   2   2   28.20    5.90
   3  -2  -2   75.89   10.10
   3  -2  -2   76.79    8.10
   3  -2  -2   82.99   10.50
   3  -2  -2   69.29    8.20
   3  -2  -2   86.49   10.10
   3  -2  -2   83.39    8.70
  -3   2   2   92.29    8.30
  -3   2   2   89.29    8.90
  -3   2   2   86.99   10.50
  -3   2   2   83.19    8.50
  -3   2   2   90.19    9.20
  -3   2   2   83.79    8.00
   2  -2  -2   89.09    7.80
   2  -2  -2   60.89    7.30
   2  -2  -2   92.99    8.90
   2  -2  -2   78.89    7.60
   2  -2  -2   77.69    9.00
   2  -2  -2   66.79    9.00
  -2   2   2   69.89    9.10
  -2   2   2   81.89    7.60
  -2   2   2   74.99    8.10
  -2   2   2   75.69    9.30
  -2   2   2   86.49    7.90
  -2   2   2   65.99    7.20
  -2   2   2   76.89    7.30
   1  -2  -2  123.89   10.40
   1  -2  -2  109.69   10.20
   1  -2  -2  118.59   11.40
   1  -2  -2  102.89   10.10
  -1   2   2  115.49   11.30
  -1   2   2  105.39   11.10
  -1   2   2   92.59   10.10
  -1   2   2  113.49   10.20
   0  -2  -2 1053.99   92.19
   0  -2  -2 1168.38   92.39
   0  -2  -2 1045.80   91.89
   0  -2  -2  986.80   91.79
   0  -2  -2 1060.99   91.89
   0   2   2 1094.49   91.89
   0   2   2  915.21   92.29
   0   2   2 1073.19   92.29
   0   2   2 1059.19   91.89
   0   2   2 1066.09   92.19
  -2  -2  -2  950.10   85.29
  -2  -2  -2 1036.80   84.79
  -2  -2  -2  850.61   84.69
   2   2   2 1041.40   85.49
   2   2   2  886.31   84.79
   2   2   2 1059.59   84.79
  -3  -2  -2  442.66   34.60
  -3  -2  -2  366.36   34.10
  -3  -2  -2  352.66   34.00
  -3  -2  -2  394.86   35.10
  -3  -2  -2  339.87   34.30
   3   2   2  395.26   34.50
   3   2   2  381.06   34.10
   3   2   2  379.46   34.20
   3   2   2  434.06   34.50
   3   2   2  397.86   35.20
  -4  -2  -2   68.59    8.60
  -4  -2  -2   75.39    7.50
  -4  -2  -2   87.89    8.90
  -4  -2  -2   99.29   10.10
  -4  -2  -2   97.49   10.30
  -4  -2  -2   70.69    7.50
  -4  -2  -2   74.29    9.50
   4   2   2   90.99    8.80
   4   2   2   79.99   10.10
   4   2   2   68.29    7.70
   4   2   2   90.39    8.40
  -5  -2  -2  202.78   21.70
  -5  -2  -2  191.68   21.30
  -5  -2  -2  194.88   21.50
  -5  -2  -2  202.88   20.80
  -5  -2  -2  240.88   21.70
  -5  -2  -2  235.18   21.00
   5   2   2  250.87   19.80
   5   2   2  226.68   19.70
   5   2   2  238.98   21.30
   5   2   2  243.68   22.60
  -6  -2  -2  571.44   52.59
  -6  -2  -2  611.34   52.09
  -6  -2  -2  561.44   53.29
  -7  -2  -2   13.10    7.10
  -7  -2  -2   21.40    9.40
  -7  -2  -2    4.00    4.70
  -7  -2  -2   14.60    9.00
  -7  -2  -2    6.30    5.80
  -7  -2  -2   17.60    9.30
  -7  -2  -2   11.20    6.50
   7   2   2   12.50    6.20
  -8  -2  -2    4.10    7.40
  -8  -2  -2   -4.80    9.10
  -8  -2  -2   -7.00    5.40
  -8  -2  -2    4.60    7.90
  -8  -2  -2   24.30   10.80
   6  -3  -2    9.20   11.00
   6  -3  -2   17.10   12.60
   6  -3  -2    1.20    4.40
  -6   3   2    9.50   10.00
  -6   3   2    1.70    2.30
   5  -3  -2   20.20    7.50
   5  -3  -2   21.80   10.10
   5  -3  -2    8.00    4.30
   5  -3  -2    7.90    3.80
  -5   3   2    7.80    3.70
  -5   3   2    9.80   11.80
  -5   3   2   11.90    3.80
  -5   3   2    1.20    3.70
  -5   3   2   10.10    7.50
   4  -3  -2  161.88   16.80
   4  -3  -2  136.69   13.90
   4  -3  -2  134.09   16.30
   4  -3  -2  150.78   13.80
  -4   3   2  139.39   13.70
  -4   3   2  156.48   13.70
  -4   3   2  146.19   15.10
   3  -3  -2  196.48   17.30
   3  -3  -2  203.18   19.20
   3  -3  -2  178.08   17.10
   3  -3  -2  164.78   18.70
   3  -3  -2  187.18   19.20
  -3   3   2  205.98   17.20
  -3   3   2  203.78   17.10
  -3   3   2  177.58   19.10
  -3   3   2  181.18   19.10
  -3   3   2  172.18   17.90
   2  -3  -2  126.69   12.70
   2  -3  -2  149.69   12.80
   2  -3  -2  141.29   14.40
   2  -3  -2  131.49   12.80
  -2   3   2  121.69   14.20
  -2   3   2  165.78   12.90
  -2   3   2  144.39   14.60
  -2   3   2  115.69   12.70
   1  -3  -2  125.29   11.50
   1  -3  -2  108.89   12.60
   1  -3  -2  113.09   11.20
   1  -3  -2  123.49   12.20
   1  -3  -2  125.49   11.40
  -1   3   2  115.59   12.40
  -1   3   2  124.29   11.30
  -1   3   2  136.09   13.00
  -1   3   2  110.59   11.30
   0  -3  -2  116.49   10.60
   0  -3  -2  108.09   11.10
   0  -3  -2  107.59   10.50
   0  -3  -2  108.49   10.10
   0  -3  -2  119.49   11.80
   0   3   2  115.49   11.30
   0   3   2  109.59   10.60
   0   3   2  102.59   10.50
  -1  -3  -2 1267.87  117.69
   1   3   2 1199.18  117.69
   1   3   2 1578.34  118.29
  -2  -3  -2   27.50    5.50
  -2  -3  -2   17.10    3.60
  -2  -3  -2   14.90    4.60
   2   3   2   13.60    3.10
   2   3   2   15.30    3.10
   2   3   2   22.70    5.30
  -3  -3  -2   11.90    3.10
  -3  -3  -2   16.60    2.50
  -3  -3  -2   11.80    2.70
  -3  -3  -2   18.00    5.30
   3   3   2   14.70    2.80
   3   3   2   15.50    2.90
   3   3   2   14.70    4.20
  -4  -3  -2   17.30    6.10
  -4  -3  -2    7.20    3.20
  -4  -3  -2   20.20    6.60
  -4  -3  -2   12.70    2.70
  -4  -3  -2   10.00    2.90
  -4  -3  -2    9.30    3.90
   4   3   2   10.30    2.90
   4   3   2   21.70    6.50
   4   3   2   10.50    2.90
   4   3   2   19.50    4.50
  -5  -3  -2  136.19   13.80
  -5  -3  -2  155.38   15.20
  -5  -3  -2  150.98   15.20
  -5  -3  -2  135.09   15.40
  -5  -3  -2  130.49   13.40
  -5  -3  -2  140.59   12.60
  -5  -3  -2  134.69   12.60
   5   3   2  143.89   14.20
   5   3   2  143.09   13.50
   5   3   2  151.68   16.00
   5   3   2  116.59   12.70
   5   3   2  124.99   13.00
  -6  -3  -2    7.70    5.70
  -6  -3  -2    7.30    1.90
  -6  -3  -2  -12.10    8.60
  -6  -3  -2    8.70    8.20
  -6  -3  -2    1.80    3.80
  -6  -3  -2   17.30    8.60
  -6  -3  -2   13.70    2.60
   6   3   2    3.40    2.80
   6   3   2   -5.00    6.90
   6   3   2   18.50    8.80
   6   3   2   11.90    2.70
  -7  -3  -2   -1.20    5.80
  -7  -3  -2   10.70    9.00
  -7  -3  -2   -5.20    9.00
  -7  -3  -2   -5.10    7.20
  -7  -3  -2   19.50    8.90
  -7  -3  -2   -2.70    4.10
   7   3   2    2.40    2.60
   7   3   2    3.30    2.00
   7   3   2    2.60    7.00
  -8  -3  -2   15.40    8.00
  -8  -3  -2   20.50    8.30
  -8  -3  -2   39.70   11.00
   8   3   2   11.30    8.90
   5  -4  -2   -1.70    5.00
   5  -4  -2   -4.10    6.60
   5  -4  -2    7.00   10.60
   5  -4  -2   19.70   11.70
   5  -4  -2   14.00    7.80
  -5   4   2  -14.00    8.50
  -5   4   2    5.80    3.60
  -5   4   2   -2.30    4.30
   4  -4  -2   16.90   10.40
   4  -4  -2    3.90    4.70
   4  -4  -2    6.70    6.10
   4  -4  -2   11.30    9.60
   4  -4  -2    8.60    4.10
  -4   4   2   26.40    7.00
  -4   4   2   10.30    4.10
  -4   4   2    4.30    7.70
  -4   4   2    7.60    4.20
   3  -4  -2  105.19    9.40
   3  -4  -2   86.09   12.70
   3  -4  -2   71.59    8.40
   3  -4  -2   82.39   12.10
   3  -4  -2   86.49   12.20
  -3   4   2   87.49   10.60
  -3   4   2   84.29   12.50
  -3   4   2   89.69    9.50
  -3   4   2  106.59    9.50
   2  -4  -2    1.70    2.10
   2  -4  -2    1.70    2.90
   2  -4  -2   -3.50    6.20
   2  -4  -2    7.60    7.90
   2  -4  -2    5.00    5.10
  -2   4   2   -2.40    3.90
  -2   4   2    4.00    3.10
  -2   4   2    9.10    5.90
  -2   4   2    2.90    5.10
   1  -4  -2   -2.40    3.40
   1  -4  -2    1.80    2.60
   1  -4  -2   -2.40    4.40
   1  -4  -2   -5.90    4.90
   1  -4  -2   -6.60    2.80
  -1   4   2   -2.90    3.20
  -1   4   2   -1.90    5.40
  -1   4   2    1.20    5.10
  -1   4   2   -5.70    3.00
   0  -4  -2    7.40    2.70
   0  -4  -2    2.70    4.60
   0  -4  -2    0.40    4.10
   0  -4  -2   -1.00    3.10
   0   4   2    6.00    3.60
   0   4   2    0.10    2.50
   0   4   2   -4.40    4.60
   0   4   2   -5.40    3.20
  -1  -4  -2 8688.53  820.22
  -1  -4  -2 9066.29  819.82
  -1  -4  -2 9892.01  819.72
   1   4   2 9942.61  819.72
   1   4   2 9999.00  819.72
   1   4   2 8866.11  820.22
  -2  -4  -2  388.46   31.70
  -2  -4  -2  316.57   31.30
  -2  -4  -2  362.46   31.70
  -2  -4  -2  345.77   32.50
   2   4   2  307.77   31.50
   2   4   2  387.96   32.40
   2   4   2  385.36   31.70
  -3  -4  -2  273.87   27.00
  -3  -4  -2  320.87   27.10
  -3  -4  -2  320.37   28.10
  -3  -4  -2  307.77   28.10
   3   4   2  317.77   27.60
   3   4   2  320.37   27.10
   3   4   2  254.67   27.00
   3   4   2  304.47   28.40
  -4  -4  -2   -4.90    5.40
  -4  -4  -2    4.80    6.50
  -4  -4  -2    4.30    3.50
   4   4   2   -8.30    6.40
   4   4   2    2.20    3.00
   4   4   2    7.50    4.60
  -5  -4  -2   15.70    8.00
  -5  -4  -2   11.80    3.10
  -5  -4  -2    8.30    5.60
  -5  -4  -2   15.40    7.00
  -5  -4  -2   12.60    3.80
  -5  -4  -2   11.00    3.30
  -5  -4  -2   13.40    3.60
   5   4   2    2.90    3.60
   5   4   2    7.80    3.40
   5   4   2    9.30    3.70
   5   4   2    7.20    8.60
   5   4   2    8.90    5.70
  -6  -4  -2  404.36   34.00
  -6  -4  -2  402.76   34.00
  -6  -4  -2  370.36   34.50
  -6  -4  -2  416.16   36.40
  -6  -4  -2  342.77   34.50
   6   4   2  384.16   34.20
   6   4   2  364.36   36.90
   6   4   2  422.36   34.20
   6   4   2  345.87   35.30
  -7  -4  -2   18.90    3.50
  -7  -4  -2   27.90   10.10
  -7  -4  -2   21.10    3.80
  -7  -4  -2   21.00    7.30
  -7  -4  -2   18.60    8.80
   7   4   2   15.30    5.20
   7   4   2   21.70    8.00
   7   4   2   12.90    4.00
   7   4   2   30.50    9.10
  -8  -4  -2   23.20   11.00
  -8  -4  -2   -1.00    7.50
   8   4   2    7.90    9.10
   8   4   2    0.10    2.70
   4  -5  -2   46.60    8.20
   4  -5  -2   45.20   12.30
   4  -5  -2   45.30   11.80
   4  -5  -2   22.80   11.60
   4  -5  -2   35.00    7.10
  -4   5   2   24.90    9.20
  -4   5   2   26.10    5.70
  -4   5   2   33.90    7.20
   3  -5  -2   60.49    8.60
   3  -5  -2   75.99   11.70
   3  -5  -2   53.89   12.20
   3  -5  -2   57.29   11.70
  -3   5   2   73.59    8.50
  -3   5   2   63.09    8.00
   2  -5  -2   -3.50    3.50
   2  -5  -2   -2.40    4.50
   2  -5  -2    3.80    9.00
   2  -5  -2    3.10    8.70
   2  -5  -2   -2.00    5.70
   2  -5  -2   -3.50    2.00
  -2   5   2   -7.20    4.20
  -2   5   2    1.80    7.80
  -2   5   2   -0.80    4.20
  -2   5   2    7.40    6.60
   1  -5  -2   17.10    6.10
   1  -5  -2   23.50    6.60
   1  -5  -2   23.10    5.20
   1  -5  -2   13.90    4.00
   1  -5  -2   14.20    5.00
  -1   5   2   20.20    7.80
  -1   5   2   12.20    4.60
  -1   5   2   21.50    6.80
  -1   5   2   17.30    4.40
   0  -5  -2   -4.00    5.30
   0  -5  -2    6.80    5.10
   0  -5  -2    3.60    3.00
   0  -5  -2    1.40    3.60
   0  -5  -2   -0.70    4.30
   0   5   2    1.70    6.20
   0   5   2   14.00    5.90
   0   5   2   -3.90    3.80
   0   5   2   -0.40    4.10
  -1  -5  -2  512.35   46.60
  -1  -5  -2  551.34   46.50
  -1  -5  -2  437.76   47.30
   1   5   2  583.64   46.60
   1   5   2  541.85   46.50
   1   5   2  549.05   47.50
   1   5   2  491.45   47.60
  -2  -5  -2   27.10    5.60
  -2  -5  -2   19.70    4.00
  -2  -5  -2   37.80    5.70
  -2  -5  -2   36.60    8.00
   2   5   2   27.30    5.60
   2   5   2   28.90    7.30
   2   5   2   34.90    7.60
   2   5   2   19.20    5.60
  -3  -5  -2   40.50    8.70
  -3  -5  -2   45.80    7.80
  -3  -5  -2   38.30    6.10
  -3  -5  -2   48.80    6.20
   3   5   2   44.90    8.40
   3   5   2   52.09    6.30
   3   5   2   30.70    6.90
   3   5   2   30.00    5.90
  -4  -5  -2   -2.30    5.10
  -4  -5  -2   -5.70    3.70
  -4  -5  -2   -5.70    6.00
   4   5   2   -8.90    4.30
   4   5   2   -8.20    3.40
   4   5   2   -8.40    6.90
   4   5   2   -0.50    3.80
  -5  -5  -2   52.09   10.30
  -5  -5  -2   79.89    8.00
  -5  -5  -2   73.79   10.40
  -5  -5  -2   64.89   10.40
   5   5   2   57.99    8.50
   5   5   2   63.09    7.60
   5   5   2   56.49    9.50
   5   5   2   50.39    8.80
   5   5   2   79.69    8.20
  -6  -5  -2   10.60    6.50
  -6  -5  -2   16.70    4.10
   6   5   2    5.30    7.00
   6   5   2   29.50    5.50
   6   5   2    7.70    3.60
   6   5   2   35.40   10.60
   6   5   2    4.70    4.60
  -7  -5  -2    1.20    3.90
  -7  -5  -2    5.30    3.40
  -7  -5  -2    0.20    7.00
   7   5   2   19.90   11.40
   7   5   2    0.70    7.70
   7   5   2    2.20    4.30
   3  -6  -2  143.29   13.90
   3  -6  -2  146.19   14.30
   3  -6  -2  116.59   17.40
   3  -6  -2  126.49   18.20
   3  -6  -2  149.39   17.20
  -3   6   2  136.49   13.80
  -3   6   2  112.89   18.10
  -3   6   2  102.29   19.50
   2  -6  -2   -2.70    3.00
   2  -6  -2   10.20    8.40
   2  -6  -2    1.90    1.20
   2  -6  -2    2.60   10.70
   2  -6  -2    2.50    5.50
  -2   6   2   -9.40    7.40
  -2   6   2    6.70    4.90
  -2   6   2    8.60    4.70
   1  -6  -2    1.20    9.70
   1  -6  -2   -2.80    5.20
   1  -6  -2   -2.20    3.40
   1  -6  -2   -2.30    4.80
   1  -6  -2   13.80    7.60
  -1   6   2    5.30    7.40
  -1   6   2   -0.50    7.70
  -1   6   2   -5.30    4.90
  -1   6   2    5.40    7.10
   0  -6  -2   16.00    4.90
   0  -6  -2   19.80    5.60
   0  -6  -2   21.60    6.80
   0  -6  -2    8.10    6.70
   0  -6  -2   21.60    4.30
   0   6   2   18.10    5.30
   0   6   2   18.50    7.20
   0   6   2   25.00    5.40
   0   6   2   17.40    7.40
   0   6   2   19.30    7.90
  -1  -6  -2  874.41   81.19
  -1  -6  -2  887.01   81.39
  -1  -6  -2  917.01   81.19
   1   6   2  912.41   81.29
   1   6   2 1025.20   81.39
   1   6   2 1029.50   82.69
   1   6   2  812.32   82.49
  -2  -6  -2  483.85   42.80
  -2  -6  -2  477.15   42.50
   2   6   2  502.65   42.40
   2   6   2  424.06   43.40
  -3  -6  -2   13.70    4.80
  -3  -6  -2    9.20    4.80
  -3  -6  -2   13.40    7.00
  -3  -6  -2    6.00    6.40
   3   6   2   11.80    5.40
   3   6   2    4.70    8.20
   3   6   2   13.00    5.10
   3   6   2    9.40    4.80
  -4  -6  -2    1.70    6.10
  -4  -6  -2    2.00    4.60
  -4  -6  -2   15.50    7.40
  -4  -6  -2    0.70    5.10
  -4  -6  -2    7.80    4.70
   4   6   2   10.00    5.00
   4   6   2    8.70    8.40
   4   6   2   13.70    5.60
  -5  -6  -2   74.99   13.60
  -5  -6  -2   95.99   10.30
  -5  -6  -2  108.09   12.90
  -5  -6  -2  108.79   10.90
  -5  -6  -2   98.29   13.20
   5   6   2   79.79   10.40
   5   6   2   92.79   13.40
   5   6   2   73.79   11.60
   5   6   2  115.29   14.40
  -6  -6  -2   72.49    8.50
  -6  -6  -2   75.99   12.40
  -6  -6  -2   54.59   12.90
  -6  -6  -2   74.39    8.70
  -6  -6  -2   82.79   12.10
   6   6   2   53.99    8.90
   6   6   2   45.00    9.90
   6   6   2   46.10    8.30
   6   6   2   59.79    8.30
   6   6   2   62.09   10.90
  -7  -6  -2   17.40    8.00
  -7  -6  -2    9.80    5.20
  -7  -6  -2   10.30    7.40
   7   6   2   -0.40    5.50
   7   6   2   28.50   10.30
   7   6   2   18.60    5.70
   7   6   2   12.00    8.20
   2  -7  -2   -7.00   11.90
   2  -7  -2   -5.00   10.00
  -2   7   2   -4.90    6.70
  -2   7   2   -7.60    6.10
   1  -7  -2   -8.90    7.30
   1  -7  -2    0.90    8.60
   1  -7  -2   -7.60    5.90
   1  -7  -2   -5.80    6.40
   1  -7  -2    1.60    3.00
  -1   7   2    0.20    5.50
  -1   7   2  -11.90    5.70
  -1   7   2   -8.50    8.00
   0  -7  -2    4.80    9.10
   0  -7  -2    7.40    3.60
   0  -7  -2   -3.60    3.90
   0  -7  -2    1.30    4.60
   0  -7  -2    2.80    7.10
   0   7   2    8.40    5.60
   0   7   2   -7.90    7.30
   0   7   2   -3.30    5.50
  -1  -7  -2  174.58   16.40
  -1  -7  -2  168.58   17.20
  -1  -7  -2  175.28   16.60
  -1  -7  -2  128.79   15.60
   1   7   2  147.99   20.10
   1   7   2  177.78   16.50
  -2  -7  -2    7.40    4.80
  -2  -7  -2   12.60    6.50
  -2  -7  -2   18.40    5.90
  -2  -7  -2    6.60    4.20
   2   7   2    6.30    9.50
   2   7   2    0.30    6.70
   2   7   2    6.80    4.50
   2   7   2   11.80    5.70
  -3  -7  -2    7.20    5.30
  -3  -7  -2    5.10    5.20
  -3  -7  -2   20.40    7.60
  -3  -7  -2    7.10    5.50
   3   7   2    2.90    4.20
   3   7   2    6.90    5.80
   3   7   2   12.30    8.70
   3   7   2    0.60    6.20
  -4  -7  -2   -5.30    5.20
  -4  -7  -2   12.20    7.60
  -4  -7  -2   -1.60    5.20
  -4  -7  -2    0.10    4.90
   4   7   2   -5.30    5.90
   4   7   2   -6.40    5.50
   4   7   2    3.90    9.00
  -5  -7  -2   16.50    6.80
  -5  -7  -2   23.30    6.00
  -5  -7  -2   18.60    5.70
  -5  -7  -2   -0.90    7.50
   5   7   2   10.30    6.20
   5   7   2   32.10   10.60
   5   7   2    8.70    5.00
  -6  -7  -2   24.00    5.90
  -6  -7  -2   19.30    6.00
  -6  -7  -2   19.80    7.80
   6   7   2   25.00    6.30
   6   7   2   22.30    9.60
   6   7   2    4.20    8.30
   0  -8  -2    6.00    7.20
   0  -8  -2   -1.10    4.50
   0   8   2  -13.90    8.10
   0   8   2    1.40    6.60
   0   8   2    9.20    6.60
  -1  -8  -2   15.70    5.70
  -1  -8  -2   28.10    6.70
  -1  -8  -2   11.30    6.50
  -1  -8  -2   19.50    7.30
   1   8   2   27.80    7.00
   1   8   2   -3.90   10.60
   1   8   2   19.30    7.00
  -2  -8  -2   82.19   13.20
  -2  -8  -2   75.89   11.80
  -2  -8  -2   94.79   12.50
  -2  -8  -2  113.59   12.20
   2   8   2   89.99   11.90
   2   8   2   83.59   13.90
   2   8   2   83.79   12.60
  -3  -8  -2   12.90    8.40
  -3  -8  -2    5.50    5.00
  -3  -8  -2    5.40    6.20
  -3  -8  -2   -3.90    5.80
   3   8   2    2.40    9.90
   3   8   2    6.70    6.70
   3   8   2   -3.20    6.40
  -4  -8  -2   -6.90    6.00
  -4  -8  -2   -6.80    5.90
  -4  -8  -2   -0.20    6.70
   4   8   2    1.30    7.00
   4   8   2    6.20   10.60
  -5  -8  -2   31.00    6.90
  -5  -8  -2   12.70    7.70
  -5  -8  -2   31.40    7.30
   5   8   2   46.30    9.30
   5   8   2   54.19   13.50
   4   8  -3    6.40    8.00
  -4  -8   3    4.10    7.10
  -4  -8   3   11.10    6.80
  -4  -8   3    7.20    7.00
   3   8  -3    9.30    7.60
   3   8  -3   -9.30    7.60
   3   8  -3    9.80   10.20
  -3  -8   3   -2.50    6.60
  -3  -8   3   -1.10    6.40
  -3  -8   3    5.70    6.60
   2   8  -3    5.50    7.40
   2   8  -3    3.90    7.50
   2   8  -3   19.60    8.80
  -2  -8   3    1.80    5.30
  -2  -8   3   10.70    6.80
  -2  -8   3   12.30    6.90
   1   8  -3   12.70    7.20
   1   8  -3    1.10    7.00
   1   8  -3   31.50    9.00
  -1  -8   3   15.90   11.50
  -1  -8   3   -3.30    7.00
   0   8  -3    0.10    6.90
   0   8  -3   -6.70    6.70
   0   8  -3   -7.80    9.00
   0   8  -3    9.90    7.70
   0  -8   3   -1.70    7.40
   0  -8   3  -12.10   11.70
   6   7  -3   13.10    7.30
   6   7  -3   20.20   13.70
  -6  -7   3   10.70    7.60
  -6  -7   3   10.70    6.70
   5   7  -3   12.90    8.30
   5   7  -3   17.20   11.90
  -5  -7   3    7.80    5.70
  -5  -7   3   10.00    6.70
  -5  -7   3   13.70    6.30
   4   7  -3   -2.40    6.80
   4   7  -3   17.10    9.90
   4   7  -3   -8.80    5.10
  -4  -7   3    0.30    5.90
  -4  -7   3    0.50    5.30
  -4  -7   3   -2.30    5.50
   3   7  -3   -7.30    7.50
   3   7  -3    4.50    6.20
   3   7  -3    2.50    5.40
   3   7  -3    6.60    8.80
  -3  -7   3    3.90    5.30
  -3  -7   3    2.30    5.60
  -3  -7   3    6.70    5.50
   2   7  -3  100.59   11.80
   2   7  -3   73.79   10.10
   2   7  -3   80.59   10.10
   2   7  -3  110.29   13.00
  -2  -7   3   99.99   11.30
  -2  -7   3   96.69   11.70
  -2  -7   3   94.69   11.10
   1   7  -3    0.20    5.90
   1   7  -3    4.10    6.60
   1   7  -3    3.80    6.20
   1   7  -3    3.90    5.90
  -1  -7   3    2.80    5.30
  -1  -7   3   -5.70    4.30
  -1  -7   3   -5.00    4.20
   0   7  -3   -0.30    5.80
   0   7  -3   -8.10    5.80
   0   7  -3    3.70    6.20
   0   7  -3   -2.30    7.30
   0  -7   3   -5.00    3.50
   0  -7   3   -9.20    5.90
   0  -7   3   -1.90    5.10
   0  -7   3  -11.00   10.00
  -1   7  -3    0.50    5.50
  -1   7  -3   -8.60    6.00
  -1   7  -3    5.90    9.00
  -1   7  -3   -9.00    6.60
   1  -7   3    4.70   10.60
   1  -7   3   -6.60    6.30
  -2   7  -3    3.00    5.70
  -2   7  -3  -12.80    6.70
  -2   7  -3  -11.50    7.60
  -2   7  -3    7.80    9.20
   2  -7   3   -7.40    9.80
   2  -7   3    2.30    8.80
   2  -7   3    9.10    6.00
   6   6  -3   31.20    9.50
  -6  -6   3   24.20   11.20
  -6  -6   3   27.90    7.90
  -6  -6   3   45.60    6.70
   5   6  -3   17.80   10.50
   5   6  -3    8.40    5.50
  -5  -6   3   -0.90    4.50
  -5  -6   3   -6.00    6.00
  -5  -6   3    0.20    4.70
   4   6  -3    2.30    6.40
   4   6  -3   24.60   11.90
   4   6  -3    7.70    4.00
  -4  -6   3   15.10    5.60
  -4  -6   3   16.10    5.90
  -4  -6   3   14.30    5.10
  -4  -6   3   -1.80    7.50
   3   6  -3    6.00    7.60
   3   6  -3    6.60    5.60
   3   6  -3    4.50    5.20
  -3  -6   3   12.80    5.00
  -3  -6   3    1.60    4.60
  -3  -6   3    8.90    5.30
   2   6  -3   96.79   10.00
   2   6  -3  112.79   11.10
   2   6  -3  103.49   11.80
  -2  -6   3   92.49   10.60
  -2  -6   3   72.99   12.40
  -2  -6   3  106.99   10.90
  -2  -6   3   82.79   11.40
   1   6  -3   39.70    7.50
   1   6  -3   23.20    7.20
   1   6  -3   20.40    6.20
  -1  -6   3   35.50    9.20
  -1  -6   3   29.70    5.70
  -1  -6   3   39.90    7.00
  -1  -6   3   28.30    7.40
   0   6  -3   97.59   12.10
   0   6  -3   94.49   11.50
   0   6  -3  120.39   11.80
   0   6  -3  120.49   12.10
   0  -6   3  108.49   11.30
   0  -6   3   87.59   11.00
   0  -6   3  101.99   13.60
   0  -6   3  109.09   11.60
  -1   6  -3   -7.60    4.90
  -1   6  -3    7.50    7.10
  -1   6  -3    2.20    5.60
   1  -6   3   -5.80    5.40
   1  -6   3   -4.80    6.10
   1  -6   3   -1.20    9.40
   1  -6   3   -1.30    1.90
  -2   6  -3   14.70    8.20
  -2   6  -3   -4.40    5.60
  -2   6  -3    7.70    5.30
  -2   6  -3   -3.10    6.80
   2  -6   3    4.40   10.20
   2  -6   3    7.00    6.00
   2  -6   3   -2.00    6.30
   2  -6   3    5.00    5.10
   2  -6   3   -7.40    6.40
  -3   6  -3    4.40    9.20
  -3   6  -3   -9.70    5.00
  -3   6  -3   -1.20    5.80
   3  -6   3   12.50   11.50
   3  -6   3    6.50    5.10
   3  -6   3    2.30    6.40
   3  -6   3   -8.10    6.30
   3  -6   3   -7.40    4.20
  -4   6  -3   15.70    6.40
   4  -6   3   13.30    7.10
   4  -6   3   34.70   13.70
   7   5  -3    5.40    5.30
   7   5  -3    5.30    8.30
  -7  -5   3    1.00    5.20
  -7  -5   3    2.00    4.80
  -7  -5   3   18.60    8.70
  -7  -5   3    2.00    7.70
   6   5  -3   -1.60    7.40
   6   5  -3    1.30    5.30
  -6  -5   3    9.90    8.90
  -6  -5   3    2.80    4.20
  -6  -5   3   -3.80    4.80
   5   5  -3   -0.50    4.70
   5   5  -3   -8.00    5.00
   5   5  -3    6.10    9.50
  -5  -5   3   -5.70    4.20
  -5  -5   3    0.50    4.00
  -5  -5   3    2.00    5.80
  -5  -5   3   -6.70    7.30
   4   5  -3   13.20    3.20
   4   5  -3   13.60    8.80
   4   5  -3   17.50    3.60
   4   5  -3   -0.20    5.20
  -4  -5   3    2.50    4.40
  -4  -5   3   11.30    5.70
  -4  -5   3   -0.30    5.00
  -4  -5   3   13.70    7.50
   3   5  -3   -0.10    3.70
   3   5  -3   -1.40    6.70
   3   5  -3    1.70    4.10
   3   5  -3    3.80    4.60
  -3  -5   3    4.70    6.10
  -3  -5   3   -2.00    3.90
  -3  -5   3   -1.40    4.30
  -3  -5   3    1.50    3.80
   2   5  -3   84.89    9.60
   2   5  -3   92.79   11.00
   2   5  -3   94.69    9.60
   2   5  -3   77.09    8.60
  -2  -5   3   94.79    9.30
  -2  -5   3   68.09    8.60
  -2  -5   3   92.29   10.40
  -2  -5   3   84.99   11.00
   1   5  -3   41.70    6.40
   1   5  -3   53.09    7.70
   1   5  -3   49.30    7.00
   1   5  -3   45.70    7.30
  -1  -5   3   45.30    8.90
  -1  -5   3   48.40    6.90
  -1  -5   3   44.90   11.70
  -1  -5   3   49.99    7.00
   0   5  -3   21.30    6.00
   0   5  -3   30.50    5.70
   0  -5   3   22.90    4.20
   0  -5   3   21.90    5.20
   0  -5   3   34.30    6.10
   0  -5   3   35.90    8.60
  -1   5  -3   -6.10    4.00
  -1   5  -3   -0.40    6.80
  -1   5  -3    4.30    5.00
  -1   5  -3   -7.70    4.30
   1  -5   3   -2.60    3.70
   1  -5   3    5.70    8.10
   1  -5   3   -8.30    4.50
   1  -5   3   -2.60    1.90
  -2   5  -3  111.99   12.90
  -2   5  -3   96.39   12.70
  -2   5  -3  103.89   10.70
  -2   5  -3  113.99   10.80
   2  -5   3   91.69   13.80
   2  -5   3  107.39   10.90
   2  -5   3   92.79   11.40
   2  -5   3  103.29   10.80
   2  -5   3   83.19   12.10
  -3   5  -3  -11.60    6.50
  -3   5  -3   -3.90    4.10
  -3   5  -3   14.80    7.60
  -3   5  -3   -1.90    4.50
   3  -5   3    0.80    4.60
   3  -5   3    3.90    5.10
   3  -5   3    3.90    7.70
   3  -5   3   -4.10    3.90
  -4   5  -3   31.00    5.80
  -4   5  -3   21.00    5.50
  -4   5  -3   36.20   11.00
   4  -5   3    9.90    6.90
   4  -5   3   25.20    5.70
   4  -5   3   28.50    6.80
   4  -5   3   21.80    6.90
   4  -5   3   22.70    9.50
  -5   5  -3   56.79    8.50
   5  -5   3   58.79   14.90
   5  -5   3   61.09    8.60
   7   4  -3    4.60    6.60
   7   4  -3    1.10    4.50
  -7  -4   3   -0.90    7.30
  -7  -4   3    1.90    3.30
  -7  -4   3    1.20    3.70
  -7  -4   3   17.20    7.60
   6   4  -3   48.00    6.70
   6   4  -3   32.70    6.80
   6   4  -3   43.50    8.80
  -6  -4   3   44.40    6.40
  -6  -4   3   40.40    6.00
   5   4  -3    6.30    4.50
   5   4  -3    8.70    4.40
   5   4  -3    4.70    3.90
   5   4  -3   -6.60    6.00
  -5  -4   3    2.50    5.40
  -5  -4   3    8.20    7.40
  -5  -4   3    2.10    3.40
  -5  -4   3    2.30    3.50
   4   4  -3    8.70    3.30
   4   4  -3    1.80    7.60
   4   4  -3    8.90    4.30
   4   4  -3    7.70    4.00
  -4  -4   3    5.90    4.60
  -4  -4   3    2.90    5.90
  -4  -4   3   10.20    3.70
  -4  -4   3   14.40    3.90
   3   4  -3   67.89    7.20
   3   4  -3   85.69    9.70
   3   4  -3   71.79    7.60
   3   4  -3   63.49    9.50
   3   4  -3   55.79    6.50
  -3  -4   3   67.59    7.30
  -3  -4   3   67.99    8.80
  -3  -4   3   66.69    9.20
  -3  -4   3   63.39    7.20
   2   4  -3  231.58   18.80
   2   4  -3  197.78   18.80
   2   4  -3  183.58   19.50
  -2  -4   3  191.58   19.40
  -2  -4   3  219.28   18.80
  -2  -4   3  204.58   19.50
  -2  -4   3  207.38   18.70
   1   4  -3   -5.20    3.50
   1   4  -3   -5.70    3.60
   1   4  -3   -3.80    2.80
  -1  -4   3   -4.70    3.10
  -1  -4   3    0.70    3.80
  -1  -4   3   -6.60    3.30
   0   4  -3  592.84   52.59
   0   4  -3  587.14   53.09
   0   4  -3  621.44   52.69
   0   4  -3  675.23   52.69
   0  -4   3  592.74   52.49
   0  -4   3  563.54   53.09
   0  -4   3  608.34   52.59
   0  -4   3  524.05   53.19
  -1   4  -3    8.00    4.10
  -1   4  -3    2.00    5.30
  -1   4  -3    8.40    3.60
   1  -4   3    2.40    2.90
   1  -4   3    2.50    3.50
   1  -4   3    4.20    7.10
   1  -4   3    1.40    1.70
   1  -4   3   11.80    4.20
  -2   4  -3   56.19    6.80
  -2   4  -3   48.50    6.70
  -2   4  -3   68.69    8.70
  -2   4  -3   41.50    8.50
   2  -4   3   76.69    9.30
   2  -4   3   46.70    9.80
   2  -4   3   73.99    7.70
   2  -4   3   57.19    7.70
   2  -4   3   58.39    6.60
  -3   4  -3   -3.40    5.00
  -3   4  -3    0.60    6.80
  -3   4  -3   -2.50    3.40
  -3   4  -3    1.50    3.90
   3  -4   3    2.60    5.00
   3  -4   3    2.40    6.90
   3  -4   3    2.20    2.90
   3  -4   3   -0.30    4.10
   3  -4   3    0.40    5.00
  -4   4  -3   35.20    5.10
  -4   4  -3   19.90    5.10
  -4   4  -3    7.80    6.30
   4  -4   3   35.40   10.20
   4  -4   3   22.80    4.70
   4  -4   3   25.20    6.40
   4  -4   3   14.50    5.40
  -5   4  -3  107.39   16.40
   7   3  -3   10.50    8.70
   7   3  -3    5.30    8.30
  -7  -3   3    5.80    2.60
  -7  -3   3    1.10    7.30
  -7  -3   3    5.00    2.70
  -7  -3   3   13.80    7.70
  -7  -3   3   12.90    9.20
   6   3  -3   12.30    4.00
   6   3  -3   14.10    7.40
   6   3  -3   17.60    4.30
   6   3  -3   21.90    7.40
  -6  -3   3    9.00    3.40
  -6  -3   3   11.30    6.50
  -6  -3   3   15.30    6.80
  -6  -3   3   22.00    3.90
   5   3  -3   -0.30    5.70
   5   3  -3   -2.10    3.30
   5   3  -3   -0.40    3.50
   5   3  -3   -5.00    5.30
  -5  -3   3   -2.10    5.10
  -5  -3   3   -1.20    2.80
  -5  -3   3   -2.90    3.00
   4   3  -3   -2.20    3.00
   4   3  -3   -3.50    4.30
   4   3  -3    4.60    4.80
   4   3  -3   -6.40    3.50
   4   3  -3   -2.50    3.80
  -4  -3   3   -3.30    2.90
  -4  -3   3   -0.80    4.40
  -4  -3   3   -2.40    3.00
   3   3  -3    2.70    3.90
   3   3  -3    1.40    5.50
   3   3  -3    3.60    3.20
   3   3  -3    1.40    3.00
   3   3  -3    9.70    3.20
  -3  -3   3    5.70    3.00
  -3  -3   3    5.90    3.90
  -3  -3   3    5.70    5.20
  -3  -3   3    3.40    2.90
   2   3  -3   22.20    3.90
   2   3  -3   13.10    3.50
   2   3  -3   13.90    5.10
  -2  -3   3   15.60    3.30
  -2  -3   3   18.50    4.90
  -2  -3   3   21.60    5.20
  -2  -3   3   20.30    3.60
   1   3  -3   11.10    3.40
   1   3  -3    5.90    3.50
   1   3  -3    7.10    2.80
   1   3  -3    6.70    2.60
  -1  -3   3    8.40    2.90
  -1  -3   3   13.80    3.80
  -1  -3   3   12.40    3.20
  -1  -3   3    8.50    2.30
   0   3  -3  547.75   51.69
   0   3  -3  610.34   51.79
   0   3  -3  540.45   51.79
   0   3  -3  619.54   51.79
   0  -3   3  612.54   51.89
   0  -3   3  600.04   51.79
  -1   3  -3   92.79    8.90
  -1   3  -3   88.29   10.00
  -1   3  -3   97.49    9.00
   1  -3   3   89.49    8.50
   1  -3   3   86.79    8.80
   1  -3   3   88.99    9.80
   1  -3   3   95.69    9.00
  -2   3  -3 1145.99   88.59
  -2   3  -3  927.31   87.89
  -2   3  -3  981.70   88.99
   2  -3   3 1120.39   88.09
   2  -3   3 1057.59   87.99
   2  -3   3 1034.60   88.49
   2  -3   3  884.91   88.39
   2  -3   3  890.11   88.99
  -3   3  -3    7.90    5.20
  -3   3  -3   24.30    3.90
  -3   3  -3   30.10    6.40
  -3   3  -3   18.90    3.80
  -3   3  -3   29.90    8.20
   3  -3   3   23.10    4.40
   3  -3   3   14.20    4.10
   3  -3   3   11.20    4.90
   3  -3   3   15.00    3.30
   3  -3   3   20.10    8.00
  -4   3  -3   22.20    6.50
  -4   3  -3   38.30    4.80
  -4   3  -3   34.30    7.70
  -4   3  -3   41.10    4.50
  -4   3  -3   23.60    6.40
  -4   3  -3   30.70   10.00
   4  -3   3   25.00    6.70
   4  -3   3   28.40    6.50
   4  -3   3   40.40    5.00
   4  -3   3   34.50   10.90
  -5   3  -3  192.28   16.80
  -5   3  -3  214.18   20.80
  -5   3  -3  188.48   16.70
   5  -3   3  154.08   20.80
   5  -3   3  176.08   19.20
  -6   3  -3   46.10   12.00
   6  -3   3   28.50   13.50
   6  -3   3   23.40    4.70
   6  -3   3   23.00    4.40
   7   2  -3    3.30    2.80
   7   2  -3    3.80    8.50
   7   2  -3   11.10    9.50
  -7  -2   3    7.90    7.60
  -7  -2   3   17.50   14.00
  -7  -2   3   12.10    8.80
  -7  -2   3   -0.10    6.70
   6   2  -3   47.70    6.30
   6   2  -3   59.39    9.40
   6   2  -3   53.99    9.20
  -6  -2   3   49.10    5.30
  -6  -2   3   47.50   10.20
  -6  -2   3   46.60    5.50
  -6  -2   3   45.40   10.40
  -6  -2   3   46.50    8.40
   5   2  -3    9.80    6.40
   5   2  -3   12.10    6.00
   5   2  -3    7.00    3.60
   5   2  -3   12.50    3.70
  -5  -2   3    1.00    6.70
  -5  -2   3   12.10    5.40
  -5  -2   3    9.70    2.70
  -5  -2   3    9.10    2.40
  -5  -2   3    2.30    3.90
  -5  -2   3    4.90    5.30
   4   2  -3    8.30    4.90
   4   2  -3    8.30    2.80
   4   2  -3    8.40    4.20
   4   2  -3   10.80    4.80
   4   2  -3    9.90    3.00
  -4  -2   3    8.30    4.30
  -4  -2   3   11.70    4.30
  -4  -2   3    9.70    2.40
  -4  -2   3   10.70    2.60
   3   2  -3   78.89    8.30
   3   2  -3   91.89    8.00
   3   2  -3   67.19    7.70
   3   2  -3   82.99    8.60
   3   2  -3   85.79    9.60
  -3  -2   3   87.99    7.90
  -3  -2   3   71.29    9.40
  -3  -2   3   71.59    7.50
   2   2  -3    6.30    2.40
   2   2  -3    2.10    2.30
   2   2  -3   -1.00    2.30
   2   2  -3    2.20    1.40
  -2  -2   3   -1.60    3.60
  -2  -2   3    3.60    2.30
  -2  -2   3    1.80    2.10
  -2  -2   3    1.40    2.90
   1   2  -3  712.03   61.89
   1   2  -3  695.03   61.49
   1   2  -3  651.13   61.59
  -1  -2   3  736.53   61.49
  -1  -2   3  697.53   61.49
  -1  -2   3  730.93   61.79
  -1  -2   3  695.23   61.89
   0   2  -3  818.42   72.09
   0   2  -3  886.21   72.29
   0   2  -3  741.93   72.09
   0   2  -3  763.62   72.09
   0  -2   3  898.11   72.09
   0  -2   3  742.13   71.99
   0  -2   3  823.62   72.49
   0  -2   3  800.02   72.19
   0  -2   3  889.91   72.29
   0  -2   3  881.51   72.09
  -1   2  -3   28.20    4.00
  -1   2  -3   25.50    3.80
  -1   2  -3   26.50    3.50
  -1   2  -3   34.00    4.80
  -1   2  -3   30.30    4.70
   1  -2   3   27.50    3.90
   1  -2   3   30.50    4.60
   1  -2   3   28.80    5.90
   1  -2   3   26.50    3.70
   1  -2   3   34.20    3.70
  -2   2  -3  253.17   23.10
  -2   2  -3  255.87   23.20
  -2   2  -3  260.37   24.20
  -2   2  -3  281.87   23.60
  -2   2  -3  229.68   24.30
   2  -2   3  242.88   24.40
   2  -2   3  290.37   23.60
   2  -2   3  267.37   23.10
  -3   2  -3    8.60    5.90
  -3   2  -3   16.80    2.50
  -3   2  -3    8.00    2.40
  -3   2  -3   14.10    4.40
  -3   2  -3   13.80    2.60
  -3   2  -3   24.20    6.90
  -3   2  -3   12.70    2.40
   3  -2   3   19.50    7.10
   3  -2   3    6.00    4.30
   3  -2   3   23.00    4.80
   3  -2   3   19.50    3.70
   3  -2   3   12.80    2.60
  -4   2  -3    1.70    5.30
  -4   2  -3   18.10    5.80
  -4   2  -3   13.90    8.30
  -4   2  -3   13.30    6.20
  -4   2  -3    6.40    4.30
  -4   2  -3    6.80    2.20
  -4   2  -3    4.30    2.90
  -4   2  -3    8.00    4.80
  -4   2  -3    5.30    6.50
  -4   2  -3    6.60    2.10
   4  -2   3    7.20    4.90
   4  -2   3    9.90    3.80
   4  -2   3    9.60    8.30
   4  -2   3    6.60    2.30
  -5   2  -3  107.79   10.80
  -5   2  -3  104.69   13.40
  -5   2  -3  124.09   14.10
  -5   2  -3  117.09   17.90
  -5   2  -3   87.29   14.70
   5  -2   3  108.69   14.70
  -6   2  -3   17.60   12.30
  -6   2  -3   18.70    9.80
  -6   2  -3    9.80    3.80
  -6   2  -3   16.00    6.80
   6  -2   3   27.70   12.10
  -7   2  -3   53.99   13.70
   7   1  -3    8.40    9.90
   7   1  -3    3.30    8.90
   7   1  -3    4.20    2.30
  -7  -1   3    3.20    3.90
  -7  -1   3   -5.00    7.40
  -7  -1   3    1.10    7.50
   6   1  -3   19.80    4.20
   6   1  -3   17.60    3.60
   6   1  -3   15.90    7.60
  -6  -1   3   19.50    2.30
  -6  -1   3   20.60    2.40
  -6  -1   3   10.50    7.10
  -6  -1   3   17.10    6.90
  -6  -1   3   11.50    3.70
  -6  -1   3   11.50    7.10
  -6  -1   3   27.80    7.70
  -6  -1   3    9.30    4.20
  -6  -1   3   25.50    9.00
   5   1  -3   -4.30    6.30
   5   1  -3   -2.60    2.70
   5   1  -3   -0.70    4.50
   5   1  -3   -7.50    5.70
  -5  -1   3   -5.30    5.20
  -5  -1   3    0.70    2.10
  -5  -1   3   -4.70    3.20
  -5  -1   3   -3.70    2.40
  -5  -1   3   -2.30    5.20
  -5  -1   3   -4.90    4.60
  -5  -1   3   -2.50    6.90
   4   1  -3   86.19    8.30
   4   1  -3   92.09   10.00
   4   1  -3   85.89    9.60
  -4  -1   3   79.99   10.10
  -4  -1   3   84.49    8.00
  -4  -1   3   78.39    7.90
  -4  -1   3   80.89   10.60
  -4  -1   3   84.09    9.20
  -4  -1   3   92.69    8.80
   3   1  -3  184.18   16.30
   3   1  -3  154.78   17.30
   3   1  -3  193.58   17.30
   3   1  -3  175.08   17.00
  -3  -1   3  168.88   17.70
  -3  -1   3  159.88   17.20
  -3  -1   3  179.78   16.20
  -3  -1   3  194.18   16.40
  -3  -1   3  183.08   17.50
  -3  -1   3  187.18   16.30
  -3  -1   3  212.68   16.70
   2   1  -3   19.70    3.30
   2   1  -3   24.30    3.80
   2   1  -3   18.50    3.00
   2   1  -3   13.70    3.80
   2   1  -3   20.60    3.80
  -2  -1   3   22.40    3.10
  -2  -1   3   19.30    3.00
  -2  -1   3   21.30    4.90
  -2  -1   3   25.50    2.80
  -2  -1   3   15.30    4.70
   1   1  -3  421.06   42.70
   1   1  -3  486.95   42.30
  -1  -1   3  451.85   42.30
  -1  -1   3  532.95   42.30
  -1  -1   3  517.25   42.30
  -1  -1   3  483.95   42.70
   0   1  -3  765.52   71.79
   0   1  -3  881.81   71.59
   0   1  -3  700.53   71.69
   0   1  -3  823.12   71.69
   0   1  -3  764.02   71.49
   0  -1   3  846.02   71.79
   0  -1   3  911.11   71.79
   0  -1   3  892.51   71.59
   0  -1   3  792.92   71.69
   0  -1   3  814.12   71.49
  -1   1  -3 2754.02  251.97
  -1   1  -3 3108.29  251.57
  -1   1  -3 3095.09  251.47
  -1   1  -3 3220.98  252.07
  -1   1  -3 2605.04  251.47
   1  -1   3 3032.80  251.57
   1  -1   3 2903.01  251.97
   1  -1   3 2720.13  251.47
   1  -1   3 2542.65  251.47
  -2   1  -3 1561.24  134.09
  -2   1  -3 1496.75  133.59
  -2   1  -3 1547.25  134.19
  -2   1  -3 1557.64  133.39
  -2   1  -3 1533.45  133.39
  -2   1  -3 1553.84  133.99
  -2   1  -3 1275.67  133.99
   2  -1   3 1712.23  133.59
   2  -1   3 1688.33  133.39
   2  -1   3 1571.04  134.19
   2  -1   3 1290.27  133.89
   2  -1   3 1570.94  133.39
  -3   1  -3  361.56   29.40
  -3   1  -3  314.67   30.00
  -3   1  -3  343.17   29.80
  -3   1  -3  298.47   30.10
  -3   1  -3  314.07   30.00
  -3   1  -3  334.47   28.70
  -3   1  -3  309.27   29.60
  -3   1  -3  291.37   29.40
   3  -1   3  315.67   28.70
   3  -1   3  369.76   29.40
   3  -1   3  352.06   30.30
  -4   1  -3   13.20    6.10
  -4   1  -3    7.60    3.60
  -4   1  -3   -1.10    2.50
  -4   1  -3    7.20    4.60
  -4   1  -3    7.30    5.50
  -4   1  -3    5.00    6.40
  -4   1  -3    4.30    4.00
  -4   1  -3    1.20    6.10
   4  -1   3    2.50    1.40
   4  -1   3    3.80    5.20
   4  -1   3    0.60    7.00
   4  -1   3    3.80    1.50
  -5   1  -3  278.87   27.50
  -5   1  -3  246.58   28.30
  -5   1  -3  329.47   28.90
  -5   1  -3  314.77   27.00
  -5   1  -3  291.17   27.50
  -5   1  -3  344.17   28.60
  -5   1  -3  295.87   28.20
   5  -1   3  245.88   28.30
  -6   1  -3   18.00    9.30
  -6   1  -3    8.20    4.30
  -6   1  -3   15.90    8.60
  -6   1  -3    9.60    7.40
  -6   1  -3    4.80    5.90
  -6   1  -3   20.50    9.10
  -6   1  -3   10.90   10.60
  -7   1  -3   -6.30    6.90
  -7   1  -3    9.30    7.40
  -7   1  -3    2.40    5.10
  -7   1  -3    7.30   12.60
  -7   1  -3   20.20   11.00
  -7   1  -3    8.00    9.90
   7   0  -3   13.30   10.90
  -7   0   3   -6.70    8.10
  -7   0   3    7.70    5.10
  -7   0   3    4.50    8.50
   6   0  -3   33.50    5.30
   6   0  -3   37.20    4.60
  -6   0   3   52.49    9.00
  -6   0   3   25.00    8.90
  -6   0   3   27.20   10.20
  -6   0   3   45.00   10.40
  -6   0   3   35.60    8.90
  -6   0   3   22.30    7.60
   5   0  -3    7.20    6.30
   5   0  -3    7.50    3.40
   5   0  -3    0.60    7.40
   5   0  -3    7.80    2.90
   5   0  -3    8.60    5.10
  -5   0   3    9.90    6.00
  -5   0   3    8.80    5.30
  -5   0   3   -1.80    8.10
  -5   0   3    9.10    6.40
  -5   0   3    8.90    5.40
  -5   0   3   10.90    5.30
  -5   0   3    8.50    2.10
  -5   0   3   10.00    2.10
  -5   0   3   -1.70    5.70
   4   0  -3   50.09    7.30
   4   0  -3   48.40    5.60
   4   0  -3   53.09    7.70
   4   0  -3   54.49    8.20
  -4   0   3   62.39    8.50
  -4   0   3   51.29    5.40
  -4   0   3   58.09    7.50
  -4   0   3   48.60    5.30
  -4   0   3   59.19    8.50
  -4   0   3   54.99    8.50
   3   0  -3   83.79    8.90
   3   0  -3  102.09   10.50
   3   0  -3   90.09    9.90
   3   0  -3  102.79    9.70
   3   0  -3   92.79   10.10
   3   0  -3   94.49    8.90
  -3   0   3   94.79    8.80
  -3   0   3   98.59    9.70
  -3   0   3   99.89   10.50
  -3   0   3  104.09    8.90
  -3   0   3   92.29   10.70
  -3   0   3   91.99    9.70
  -3   0   3   99.39   10.20
   2   0  -3  832.12   76.69
   2   0  -3  887.91   76.19
   2   0  -3  807.42   76.49
   2   0  -3  866.41   76.79
   2   0  -3  959.60   76.39
   2   0  -3  921.41   76.19
  -2   0   3  883.61   76.89
  -2   0   3  888.91   76.19
  -2   0   3  886.71   76.29
  -2   0   3  900.81   76.69
  -2   0   3  921.81   76.19
  -2   0   3  784.32   76.39
  -2   0   3  795.42   76.39
   1   0  -3 1290.67  108.39
   1   0  -3 1314.57  107.99
   1   0  -3 1346.57  107.99
   1   0  -3 1318.07  108.49
  -1   0   3 1194.48  108.39
  -1   0   3 1071.19  107.99
  -1   0   3 1141.79  108.19
  -1   0   3 1196.78  108.29
  -1   0   3 1272.27  107.99
   0   0  -3  154.28   14.60
   0   0  -3  166.58   14.50
   0   0  -3  167.78   14.50
   0   0  -3  148.29   14.80
   0   0   3  168.48   14.80
   0   0   3  171.88   14.40
   0   0   3  154.48   14.60
   0   0   3  168.48   14.80
   0   0   3  163.78   14.40
  -1   0  -3 1518.85  128.19
  -1   0  -3 1416.16  128.59
  -1   0  -3 1537.25  128.19
  -1   0  -3 1465.15  128.59
  -1   0  -3 1503.55  128.59
   1   0   3 1263.97  128.49
   1   0   3 1473.15  128.19
   1   0   3 1616.64  128.59
   1   0   3 1443.86  128.19
  -2   0  -3  952.30   83.69
  -2   0  -3  957.50   83.89
  -2   0  -3  914.61   83.69
  -2   0  -3  865.91   84.39
  -2   0  -3 1004.50   84.39
  -2   0  -3  983.80   84.39
   2   0   3 1038.00   84.49
   2   0   3  950.50   83.69
   2   0   3  853.61   84.29
   2   0   3 1085.39   84.39
  -3   0  -3    1.20    3.90
  -3   0  -3    5.10    0.80
  -3   0  -3    1.40    2.90
  -3   0  -3    4.20    4.60
  -3   0  -3    8.70    3.60
  -3   0  -3    3.40    5.30
  -3   0  -3    1.90    4.30
  -3   0  -3    5.40    2.30
   3   0   3    2.70    3.90
   3   0   3   -0.60    3.10
  -4   0  -3   39.40    7.40
  -4   0  -3   44.40    7.50
  -4   0  -3   46.80    6.50
  -4   0  -3   42.10    6.90
  -4   0  -3   40.30    6.40
  -4   0  -3   48.00    7.20
  -4   0  -3   46.70    6.20
  -4   0  -3   41.10    7.00
   4   0   3   45.60    6.90
  -5   0  -3  312.27   27.80
  -5   0  -3  277.47   27.20
  -5   0  -3  332.57   27.50
  -5   0  -3  282.17   28.20
  -5   0  -3  272.57   27.00
  -6   0  -3  254.07   26.20
  -6   0  -3  283.87   26.80
  -6   0  -3  281.17   26.10
  -7   0  -3   57.29   11.40
  -7   0  -3   41.70   12.10
  -7   0  -3   50.59   10.00
  -7   0  -3   46.50   12.60
  -7   0  -3   38.20   11.10
  -7   0  -3   63.09   11.70
  -7   0  -3   58.19   13.00
   7  -1  -3   12.90   11.60
  -7   1   3    5.50    6.10
   6  -1  -3    2.90    2.80
   6  -1  -3    4.30    3.00
   6  -1  -3   11.30    9.30
  -6   1   3   -6.70    5.40
  -6   1   3   19.20    9.60
  -6   1   3    1.60    7.10
  -6   1   3   12.80    6.50
  -6   1   3  -14.50    9.40
  -6   1   3   -5.60    6.80
   5  -1  -3    6.70    4.50
   5  -1  -3   -1.10    7.70
   5  -1  -3    5.40    7.70
   5  -1  -3   -4.40    3.30
  -5   1   3   -1.50    2.10
  -5   1   3   -1.80    4.70
  -5   1   3   -5.50    8.20
  -5   1   3   -7.70    7.10
  -5   1   3   -2.40    5.60
  -5   1   3    3.40    2.30
  -5   1   3   -0.50    5.70
  -5   1   3    2.70    6.00
   4  -1  -3   37.70    6.70
   4  -1  -3   36.80    7.30
   4  -1  -3   18.50    5.50
   4  -1  -3   30.90    7.90
   4  -1  -3   27.10    5.50
   4  -1  -3   32.20    4.30
  -4   1   3   29.80    8.00
  -4   1   3   29.00    3.70
  -4   1   3   31.20    5.80
  -4   1   3   36.90    7.10
  -4   1   3   26.70    7.90
  -4   1   3   27.20    6.20
  -4   1   3   34.10    4.20
   3  -1  -3  237.18   21.20
   3  -1  -3  186.28   19.60
   3  -1  -3  210.98   19.60
   3  -1  -3  227.78   20.40
  -3   1   3  217.88   21.10
  -3   1   3  225.88   20.30
  -3   1   3  260.07   20.60
  -3   1   3  199.88   19.60
  -3   1   3  223.58   21.20
  -3   1   3  219.88   19.60
   2  -1  -3  248.18   21.20
   2  -1  -3  195.38   21.50
   2  -1  -3  217.78   20.60
   2  -1  -3  255.07   21.20
   2  -1  -3  234.78   20.70
  -2   1   3  221.98   20.60
  -2   1   3  257.97   21.30
  -2   1   3  210.98   20.60
  -2   1   3  243.88   21.80
  -2   1   3  238.28   21.00
   1  -1  -3  840.22   83.49
   1  -1  -3  918.01   82.99
   1  -1  -3  943.01   82.99
   1  -1  -3  989.90   83.59
   1  -1  -3 1080.69   83.39
  -1   1   3  977.60   83.09
  -1   1   3  924.71   83.49
  -1   1   3  926.31   82.99
  -1   1   3  979.60   83.29
  -1   1   3  923.41   82.99
   0  -1  -3  192.48   16.80
   0  -1  -3  195.18   16.20
   0  -1  -3  169.78   16.60
   0  -1  -3  175.98   16.70
   0   1   3  159.78   16.10
   0   1   3  188.48   16.20
   0   1   3  188.58   16.00
   0   1   3  181.88   16.30
   0   1   3  186.58   16.80
  -1  -1  -3 6300.17  489.95
   1   1   3 4942.21  489.45
  -2  -1  -3   32.70    5.60
  -2  -1  -3   37.70    4.00
  -2  -1  -3   53.79    5.70
   2   1   3   37.00    4.30
   2   1   3   45.20    5.30
   2   1   3   44.30    4.50
   2   1   3   40.70    4.10
   2   1   3   32.10    5.40
   2   1   3   34.30    5.60
  -3  -1  -3  213.48   20.50
  -3  -1  -3  241.08   21.80
  -3  -1  -3  242.58   21.10
  -3  -1  -3  259.07   21.60
  -3  -1  -3  230.68   21.70
  -3  -1  -3  220.68   21.80
  -3  -1  -3  207.38   20.50
   3   1   3  237.48   21.20
   3   1   3  229.78   20.80
   3   1   3  221.58   21.60
   3   1   3  236.98   21.70
   3   1   3  263.77   20.50
  -4  -1  -3   16.30    4.90
  -4  -1  -3    9.50    3.60
  -4  -1  -3   18.20    5.80
  -4  -1  -3   22.90    5.50
  -4  -1  -3   19.70    6.00
  -4  -1  -3   17.90    3.40
  -4  -1  -3   16.00    6.50
   4   1   3   19.50    2.00
   4   1   3   20.10    5.90
   4   1   3   15.60    2.00
   4   1   3   19.30    3.70
  -5  -1  -3  208.78   21.40
  -5  -1  -3  232.18   21.90
  -5  -1  -3  207.88   21.70
  -5  -1  -3  258.27   21.60
   5   1   3  236.78   21.80
  -6  -1  -3   49.60   10.80
  -6  -1  -3   54.69    8.90
  -6  -1  -3   61.69   10.70
  -6  -1  -3   60.09    9.90
  -6  -1  -3   42.30   10.30
  -7  -1  -3   -5.40    5.40
  -7  -1  -3    0.70    7.60
  -7  -1  -3    5.20    9.60
  -7  -1  -3  -11.00    7.30
  -7  -1  -3   14.20    9.70
  -7  -1  -3   -5.50    6.10
  -7  -1  -3    5.30    7.70
  -7  -1  -3   14.50   10.60
  -8  -1  -3   19.90   11.20
  -8  -1  -3    3.10    7.30
  -8  -1  -3   -1.30    8.60
  -8  -1  -3    5.10    7.50
  -8  -1  -3   22.60   12.60
   6  -2  -3    5.20    3.70
   6  -2  -3   13.90   11.90
   6  -2  -3   24.10   10.70
  -6   2   3    5.70    2.10
  -6   2   3   -7.20    5.30
  -6   2   3   20.60   10.00
  -6   2   3    4.90    1.80
  -6   2   3    1.50    8.10
   5  -2  -3    8.40    4.20
   5  -2  -3    7.00    9.60
   5  -2  -3   13.70    9.10
   5  -2  -3    0.90    3.30
   5  -2  -3    7.40    6.10
   5  -2  -3   -0.10    3.20
  -5   2   3   -6.10    9.30
  -5   2   3   -2.40    2.90
  -5   2   3    2.30    6.60
  -5   2   3    3.90    6.40
  -5   2   3    8.90    5.40
  -5   2   3   -0.70    4.50
   4  -2  -3   67.49    7.10
   4  -2  -3   61.29    8.00
   4  -2  -3   53.79    6.60
   4  -2  -3   49.60    9.80
   4  -2  -3   66.09   14.50
   4  -2  -3   61.19    9.10
  -4   2   3   45.00    8.40
  -4   2   3   62.89    7.50
  -4   2   3   61.09    8.10
  -4   2   3   57.39    6.30
  -4   2   3   75.19    6.70
  -4   2   3   53.69    8.20
  -4   2   3   72.49   10.60
   3  -2  -3  169.68   19.60
   3  -2  -3  196.28   19.80
   3  -2  -3  191.88   18.10
   3  -2  -3  191.88   18.10
   3  -2  -3  230.38   19.60
  -3   2   3  212.08   18.90
  -3   2   3  220.58   19.00
  -3   2   3  212.68   18.00
  -3   2   3  193.08   18.20
  -3   2   3  195.48   19.90
  -3   2   3  192.68   18.10
  -3   2   3  197.48   20.30
   2  -2  -3  817.72   64.09
   2  -2  -3  655.83   64.59
   2  -2  -3  698.53   64.59
   2  -2  -3  650.73   63.69
   2  -2  -3  739.33   63.79
  -2   2   3  771.92   64.09
  -2   2   3  855.91   63.79
  -2   2   3  656.83   64.49
  -2   2   3  636.84   64.59
  -2   2   3  800.02   64.09
  -2   2   3  715.23   63.59
   1  -2  -3   32.50    4.60
   1  -2  -3   24.00    3.70
   1  -2  -3   22.60    3.50
   1  -2  -3   21.40    5.00
  -1   2   3   17.90    4.10
  -1   2   3   24.70    3.50
  -1   2   3   22.00    5.90
  -1   2   3   22.30    3.50
  -1   2   3   30.10    5.70
   0  -2  -3  435.86   38.50
   0  -2  -3  412.66   39.10
   0  -2  -3  472.15   38.60
   0  -2  -3  424.66   38.50
   0  -2  -3  458.55   38.90
   0   2   3  474.35   38.60
   0   2   3  433.46   38.40
   0   2   3  394.96   38.50
  -1  -2  -3 4335.27  370.16
  -1  -2  -3 4321.57  370.06
  -1  -2  -3 4448.25  370.26
   1   2   3 4423.76  370.26
   1   2   3 4066.19  370.16
   1   2   3 4537.95  369.86
   1   2   3 3583.84  369.86
  -2  -2  -3  431.76   35.90
  -2  -2  -3  400.96   35.30
  -2  -2  -3  378.66   35.70
  -2  -2  -3  356.16   35.90
  -2  -2  -3  418.76   35.30
   2   2   3  429.86   35.90
   2   2   3  371.46   35.30
   2   2   3  427.86   35.80
   2   2   3  426.16   35.40
   2   2   3  379.46   35.30
   2   2   3  395.26   36.00
  -3  -2  -3   63.69    7.40
  -3  -2  -3   52.49    6.00
  -3  -2  -3   53.19    7.20
   3   2   3   71.79    8.10
   3   2   3   66.99    6.20
   3   2   3   56.29    6.10
   3   2   3   75.99    6.80
  -4  -2  -3  246.38   23.40
  -4  -2  -3  260.67   24.20
  -4  -2  -3  268.17   24.30
  -4  -2  -3  243.68   22.60
  -4  -2  -3  230.38   22.60
  -4  -2  -3  250.67   23.50
   4   2   3  252.37   22.60
   4   2   3  271.37   23.50
   4   2   3  276.37   23.50
   4   2   3  266.47   24.40
  -5  -2  -3  286.87   28.40
  -5  -2  -3  259.37   27.00
  -5  -2  -3  343.47   28.70
  -5  -2  -3  328.67   29.40
  -5  -2  -3  353.66   29.70
  -5  -2  -3  285.57   28.90
   5   2   3  296.77   28.50
   5   2   3  335.57   27.30
   5   2   3  308.67   27.30
  -6  -2  -3  865.31   69.79
  -6  -2  -3  874.31   69.09
  -6  -2  -3  743.63   68.59
  -6  -2  -3  650.43   68.59
   6   2   3  715.33   68.99
  -7  -2  -3    9.70    6.90
  -7  -2  -3    1.40    9.80
  -7  -2  -3    5.30    6.90
  -7  -2  -3    8.90    9.70
  -7  -2  -3    0.00    5.00
  -7  -2  -3   16.80    9.40
  -7  -2  -3    4.90    5.90
   7   2   3    5.70    6.00
  -8  -2  -3    5.80    6.20
  -8  -2  -3   13.10    7.40
  -8  -2  -3   10.60    7.50
  -8  -2  -3   13.50   10.30
   6  -3  -3    8.50   11.40
   6  -3  -3   15.40   13.30
  -6   3   3   -5.60    8.90
  -6   3   3    0.50    3.20
   5  -3  -3   19.30   10.10
   5  -3  -3    0.10    3.80
   5  -3  -3    3.00    7.60
  -5   3   3   -2.90    7.40
  -5   3   3   -1.70    3.10
  -5   3   3   -4.20    3.60
  -5   3   3  -15.70   10.20
   4  -3  -3   -2.40    3.60
   4  -3  -3   -8.20    8.10
   4  -3  -3   15.20    9.50
   4  -3  -3    2.90    5.40
   4  -3  -3    1.70    3.10
   4  -3  -3    4.20    3.90
  -4   3   3   -1.80    3.70
  -4   3   3    2.80    6.30
  -4   3   3   -4.60    3.30
  -4   3   3   -3.90    3.00
  -4   3   3   -4.10    3.70
  -4   3   3   -6.30    5.50
   3  -3  -3    3.60    4.50
   3  -3  -3   -1.90    7.40
   3  -3  -3    3.10    3.50
   3  -3  -3    1.50    3.20
   3  -3  -3    0.40    2.80
   3  -3  -3   -0.10    7.00
  -3   3   3    0.70    7.00
  -3   3   3    5.70    3.30
  -3   3   3    3.70    5.50
  -3   3   3    6.90    4.80
  -3   3   3    5.60    2.80
   2  -3  -3  393.26   37.30
   2  -3  -3  375.26   38.40
   2  -3  -3  420.46   37.50
   2  -3  -3  371.66   37.30
   2  -3  -3  477.55   38.70
  -2   3   3  457.05   38.70
  -2   3   3  463.55   37.40
  -2   3   3  416.16   37.30
   1  -3  -3  161.98   17.00
   1  -3  -3  200.58   17.50
   1  -3  -3  180.98   17.10
   1  -3  -3  179.98   18.30
   1  -3  -3  182.28   18.00
  -1   3   3  214.08   18.50
  -1   3   3  217.98   18.30
  -1   3   3  171.88   17.10
  -1   3   3  185.88   17.10
   0  -3  -3   -3.70    2.70
   0  -3  -3    2.80    3.80
   0  -3  -3   -1.40    3.50
   0  -3  -3   -1.40    1.80
   0   3   3    3.10    3.10
   0   3   3   -5.40    2.70
   0   3   3    4.80    3.20
   0   3   3   -1.50    2.00
  -1  -3  -3 1274.57  121.09
  -1  -3  -3 1386.86  121.19
  -1  -3  -3 1431.36  120.99
  -1  -3  -3 1472.05  120.99
   1   3   3 1299.67  121.49
   1   3   3 1468.15  120.99
   1   3   3 1360.26  120.99
  -2  -3  -3  565.94   46.30
  -2  -3  -3  546.75   46.90
  -2  -3  -3  485.65   46.80
  -2  -3  -3  537.35   46.80
  -2  -3  -3  449.66   46.20
   2   3   3  585.24   47.20
   2   3   3  514.35   46.30
   2   3   3  544.35   46.30
   2   3   3  509.65   46.80
  -3  -3  -3    6.40    3.80
  -3  -3  -3   17.70    4.40
  -3  -3  -3   11.00    3.60
  -3  -3  -3    2.70    2.70
   3   3   3    7.20    2.80
   3   3   3    8.70    3.60
   3   3   3    9.10    2.70
   3   3   3    1.10    2.40
   3   3   3   10.10    5.20
  -4  -3  -3   11.30    3.50
  -4  -3  -3    6.40    2.70
  -4  -3  -3    5.40    2.50
  -4  -3  -3   10.50    3.30
  -4  -3  -3   10.10    5.60
  -4  -3  -3   11.90    6.50
   4   3   3   11.10    3.20
   4   3   3   14.20    4.20
   4   3   3    8.80    6.10
  -5  -3  -3   96.19   10.50
  -5  -3  -3  113.59   13.00
  -5  -3  -3  103.69    9.60
  -5  -3  -3   97.89    9.40
  -5  -3  -3  111.99   12.50
  -5  -3  -3   82.99   11.30
  -5  -3  -3   96.89   12.10
   5   3   3   98.69   11.00
   5   3   3  115.99   12.90
   5   3   3  110.79   10.60
   5   3   3   91.69    9.80
   5   3   3   91.19   10.50
  -6  -3  -3   94.29   12.40
  -6  -3  -3   52.79   13.50
  -6  -3  -3   84.89   10.50
  -6  -3  -3   81.29   13.00
  -6  -3  -3   88.89    7.70
  -6  -3  -3   79.19    7.60
  -6  -3  -3   76.29   10.50
   6   3   3   76.89   11.20
   6   3   3   86.59    8.20
   6   3   3   83.79    8.00
   6   3   3   64.29   12.10
  -7  -3  -3    5.00    6.30
  -7  -3  -3    7.80    6.40
  -7  -3  -3    4.30   10.30
  -7  -3  -3   22.90    9.60
  -7  -3  -3   -2.90    4.60
   7   3   3   10.00    6.20
   7   3   3    7.00    2.00
   7   3   3    8.60    2.00
  -8  -3  -3   18.80    7.30
  -8  -3  -3    2.20    7.50
  -8  -3  -3   25.60   11.40
   5  -4  -3   11.30    7.90
   5  -4  -3   10.10   10.90
   5  -4  -3   -2.30    4.60
   5  -4  -3   12.10   11.80
   5  -4  -3   -1.60    5.30
  -5   4   3   14.30   14.00
  -5   4   3   -5.40    4.70
  -5   4   3  -10.90    8.80
   4  -4  -3   29.70    5.50
   4  -4  -3   24.60    5.50
   4  -4  -3   48.00   12.10
   4  -4  -3   34.80   10.80
  -4   4   3   43.10    9.00
  -4   4   3   33.40    6.00
  -4   4   3   25.80    5.00
   3  -4  -3  155.48   17.80
   3  -4  -3  143.59   15.20
   3  -4  -3  161.58   15.30
   3  -4  -3  170.28   18.10
  -3   4   3  133.59   18.00
  -3   4   3  197.68   18.50
  -3   4   3  158.98   16.30
  -3   4   3  181.88   15.70
   2  -4  -3  225.58   20.90
   2  -4  -3  274.67   22.90
   2  -4  -3  209.18   22.60
   2  -4  -3  220.08   20.80
  -2   4   3  202.78   22.80
  -2   4   3  223.28   20.90
  -2   4   3  275.37   21.10
  -2   4   3  199.38   22.40
   1  -4  -3   25.30    5.50
   1  -4  -3   19.70    4.30
   1  -4  -3   16.30    5.80
   1  -4  -3   14.30    4.90
  -1   4   3   20.30    5.90
  -1   4   3   18.10    3.80
  -1   4   3   30.80    6.80
  -1   4   3   16.10    4.00
   0  -4  -3   -0.60    3.40
   0  -4  -3   -2.00    4.30
   0  -4  -3   -3.30    4.50
   0  -4  -3   -0.40    2.10
   0   4   3    2.80    4.50
   0   4   3   -6.20    3.10
   0   4   3   -3.80    3.40
   0   4   3    1.10    4.60
  -1  -4  -3 1155.58   98.79
  -1  -4  -3 1097.19   99.29
  -1  -4  -3 1080.79   98.79
  -1  -4  -3 1189.08   98.69
  -1  -4  -3 1146.79   98.59
   1   4   3 1203.18   98.69
   1   4   3 1009.30   99.29
  -2  -4  -3   -1.90    2.60
  -2  -4  -3    3.50    2.40
  -2  -4  -3    8.30    3.40
  -2  -4  -3   -2.40    4.10
   2   4   3    1.20    3.80
   2   4   3    7.00    3.40
   2   4   3    2.50    2.50
  -3  -4  -3  150.38   14.80
  -3  -4  -3  143.89   14.50
  -3  -4  -3  123.59   13.30
  -3  -4  -3  141.69   13.30
  -3  -4  -3  171.88   14.90
   3   4   3  147.49   15.00
   3   4   3  144.19   14.10
   3   4   3  144.39   13.40
   3   4   3  114.19   13.30
  -4  -4  -3   88.39   11.10
  -4  -4  -3   95.09   10.40
  -4  -4  -3  111.29   11.80
  -4  -4  -3   81.39    9.20
  -4  -4  -3   93.89    9.20
  -4  -4  -3   76.69    8.30
  -4  -4  -3   93.49   11.00
   4   4   3   73.99    8.90
   4   4   3   93.99    9.90
   4   4   3   95.09   10.10
   4   4   3   93.59   11.70
  -5  -4  -3  146.69   12.90
  -5  -4  -3  142.29   16.00
  -5  -4  -3  143.19   14.40
  -5  -4  -3  147.79   15.50
  -5  -4  -3  138.69   15.80
  -5  -4  -3  143.79   13.00
  -5  -4  -3  125.69   12.90
   5   4   3  143.49   13.20
   5   4   3  136.19   14.10
   5   4   3  147.59   13.10
   5   4   3  132.09   14.00
   5   4   3  110.19   15.30
  -6  -4  -3  452.75   45.70
  -6  -4  -3  528.85   44.80
  -6  -4  -3  512.15   48.90
  -6  -4  -3  557.84   45.40
  -6  -4  -3  570.24   44.90
   6   4   3  458.35   46.00
   6   4   3  572.44   44.90
   6   4   3  444.66   46.90
   6   4   3  475.85   45.50
  -7  -4  -3  112.09   15.80
  -7  -4  -3   92.59   12.20
  -7  -4  -3  103.99    9.50
  -7  -4  -3   90.99    9.40
  -7  -4  -3  107.09   13.00
  -7  -4  -3   86.79   15.50
  -7  -4  -3   91.79   11.40
   7   4   3  119.49   13.00
   7   4   3  107.19   15.80
   7   4   3   95.29   10.20
   7   4   3  110.89   10.30
  -8  -4  -3    2.80    7.50
   8   4   3   -2.10    9.10
   4  -5  -3   18.70   11.70
   4  -5  -3    3.90    7.80
   4  -5  -3    5.90    5.20
   4  -5  -3    5.90   10.90
   4  -5  -3    9.20    5.50
  -4   5   3    7.40    8.30
  -4   5   3    2.70    5.20
  -4   5   3   11.20    4.90
   3  -5  -3   43.80    5.70
   3  -5  -3   65.89   12.00
  -3   5   3   74.69   10.30
  -3   5   3   32.50    9.60
  -3   5   3   67.19    7.10
   2  -5  -3  133.69   13.80
   2  -5  -3   93.79   13.50
   2  -5  -3  110.99   14.20
   2  -5  -3   97.39   10.80
   2  -5  -3  109.49   11.00
  -2   5   3  100.59   14.30
  -2   5   3  105.29   11.20
  -2   5   3  111.19   13.80
   1  -5  -3   -1.40    3.50
   1  -5  -3   -0.30    5.60
   1  -5  -3    0.80    3.50
   1  -5  -3   -4.40    6.30
  -1   5   3   -8.70    6.20
  -1   5   3    0.30    6.70
  -1   5   3    3.30    6.60
  -1   5   3   -3.80    3.80
   0  -5  -3    0.10    2.50
   0  -5  -3    0.30    2.80
   0  -5  -3   -0.40    5.50
   0  -5  -3    1.00    5.10
   0   5   3    2.70    3.10
   0   5   3   -2.10    4.10
   0   5   3    3.20    4.50
   0   5   3    1.90    5.50
  -1  -5  -3    1.20    4.40
  -1  -5  -3   10.90    6.00
  -1  -5  -3    8.40    5.20
  -1  -5  -3    3.20    4.00
   1   5   3   10.80    5.40
   1   5   3   11.00    8.50
   1   5   3    4.50    4.10
   1   5   3    6.90    4.20
  -2  -5  -3  375.66   32.80
  -2  -5  -3  412.76   33.00
  -2  -5  -3  366.26   34.10
   2   5   3  357.26   34.00
   2   5   3  325.27   32.70
  -3  -5  -3   87.99   11.70
  -3  -5  -3   94.79    9.60
  -3  -5  -3   83.89   10.70
  -3  -5  -3   78.19    9.50
   3   5   3   97.19   11.90
   3   5   3   86.09   11.50
   3   5   3   97.39    9.70
  -4  -5  -3   -1.50    6.10
  -4  -5  -3   -6.10    3.60
  -4  -5  -3   -1.30    5.50
  -4  -5  -3   -2.30    4.40
  -4  -5  -3   -4.30    3.80
   4   5   3   -0.20    4.10
   4   5   3   -2.00    3.50
   4   5   3   -6.50    3.90
   4   5   3   -7.20    7.30
  -5  -5  -3   29.90    5.40
  -5  -5  -3   23.10    5.90
  -5  -5  -3   38.60    9.50
  -5  -5  -3   36.70    8.80
  -5  -5  -3   43.30    8.90
   5   5   3   47.70    6.50
   5   5   3   27.00    6.80
   5   5   3   40.60    6.50
   5   5   3   21.50    7.70
  -6  -5  -3   38.20    6.00
  -6  -5  -3   46.40    6.50
  -6  -5  -3   51.79   10.30
   6   5   3   41.90    8.10
   6   5   3   56.79   11.80
   6   5   3   28.20    8.30
   6   5   3   35.80    6.60
  -7  -5  -3    8.80    7.30
  -7  -5  -3   11.90    4.30
  -7  -5  -3    8.20    3.50
   7   5   3   19.40    8.30
   7   5   3   10.80    4.30
   7   5   3   20.60   11.00
   7   5   3   13.40    7.50
   3  -6  -3  117.09   13.70
   3  -6  -3  140.39   16.70
   3  -6  -3  117.69   18.80
   3  -6  -3   97.99   17.20
  -3   6   3  126.59   13.50
  -3   6   3  139.09   13.40
  -3   6   3   94.09   14.40
   2  -6  -3   49.10    9.20
   2  -6  -3   18.50    4.80
   2  -6  -3   21.80    8.30
   2  -6  -3   35.60   11.70
  -2   6   3   42.80    8.00
  -2   6   3   13.70    8.60
   1  -6  -3    2.10    5.20
   1  -6  -3    2.70    6.90
   1  -6  -3    2.30    3.80
  -1   6   3    8.10    4.70
  -1   6   3    7.50    5.10
  -1   6   3    0.40    7.00
  -1   6   3   -7.90    8.00
   0  -6  -3   18.70    5.50
   0  -6  -3   25.20    6.80
   0  -6  -3   19.40    3.50
   0  -6  -3   17.10    4.90
   0  -6  -3    9.20    5.00
   0   6   3   17.20    7.40
   0   6   3   17.00    7.60
   0   6   3   24.10    5.50
   0   6   3   26.20    5.40
  -1  -6  -3   35.00    7.20
  -1  -6  -3   36.80    6.60
  -1  -6  -3   56.09    7.40
  -1  -6  -3   43.40    7.70
  -1  -6  -3   52.89   10.70
   1   6   3   27.40    6.10
   1   6   3   43.20    8.30
   1   6   3   42.00   11.00
   1   6   3   43.10   10.10
  -2  -6  -3   78.99   12.90
  -2  -6  -3   99.99   10.20
  -2  -6  -3   57.99   10.90
  -2  -6  -3   79.09    9.40
  -2  -6  -3   81.69   10.70
   2   6   3  100.79   10.50
   2   6   3   82.19   12.70
   2   6   3  103.19   10.30
  -3  -6  -3    9.40    4.80
  -3  -6  -3   16.10    9.00
  -3  -6  -3   -0.20    6.50
  -3  -6  -3   14.60    7.70
   3   6   3    9.80    6.10
   3   6   3    7.20    8.60
   3   6   3   14.00    4.10
   3   6   3   14.80    5.00
  -4  -6  -3   -5.90    4.60
  -4  -6  -3   -6.20    6.10
  -4  -6  -3    1.70    7.40
  -4  -6  -3   -5.30    5.00
  -4  -6  -3   -9.30    4.10
   4   6   3    0.00    5.20
   4   6   3   -6.40    4.70
   4   6   3   -4.60    8.10
  -5  -6  -3  103.89   10.40
  -5  -6  -3  104.89   10.40
  -5  -6  -3   95.39   12.70
  -5  -6  -3   69.69   13.60
  -5  -6  -3  101.99   13.10
   5   6   3  103.89   10.60
   5   6   3   70.09   11.70
   5   6   3   98.79   14.00
  -6  -6  -3  155.68   13.30
  -6  -6  -3  133.49   16.30
  -6  -6  -3  145.39   16.50
  -6  -6  -3  121.69   12.90
   6   6   3  103.69   14.30
   6   6   3  144.09   17.50
   6   6   3  113.89   13.30
   6   6   3  110.99   14.50
   6   6   3  131.19   13.10
  -7  -6  -3  111.19   12.50
  -7  -6  -3  121.09   16.90
   7   6   3  146.39   18.60
   7   6   3  117.09   13.20
   7   6   3  124.89   13.00
   7   6   3  114.79   13.20
   7   6   3  120.19   15.70
   2  -7  -3   21.80   10.90
   2  -7  -3  -13.70   11.90
   2  -7  -3   24.60    8.20
  -2   7   3    9.70    7.10
  -2   7   3   21.50    6.50
   1  -7  -3    1.30    8.20
   1  -7  -3   -9.00    7.20
   1  -7  -3   -9.10    6.00
   1  -7  -3    0.90    3.30
   1  -7  -3    7.40    5.30
  -1   7   3  -10.30    5.00
  -1   7   3   -2.00    6.00
  -1   7   3  -11.20    6.50
   0  -7  -3   -5.00    3.60
   0  -7  -3    3.10    2.60
   0  -7  -3  -12.70    5.80
   0  -7  -3    7.50    7.00
   0   7   3   -7.40    5.60
   0   7   3  -11.10    5.30
   0   7   3   -8.80    8.10
   0   7   3  -11.20    7.00
  -1  -7  -3   50.39    8.50
  -1  -7  -3   49.30    8.70
  -1  -7  -3   41.30    8.00
  -1  -7  -3   53.79    7.60
   1   7   3   51.79    8.50
   1   7   3   49.70   11.80
   1   7   3   33.80   10.50
   1   7   3   60.19    9.00
  -2  -7  -3   59.99    9.50
  -2  -7  -3   76.39    9.70
  -2  -7  -3   71.19    9.90
  -2  -7  -3   80.69   10.20
   2   7   3   49.40    8.10
   2   7   3   72.89   10.10
   2   7   3   62.19   13.10
  -3  -7  -3   20.30    5.60
  -3  -7  -3   13.20    5.60
  -3  -7  -3   24.20    7.20
  -3  -7  -3   18.70    5.90
   3   7   3   16.70    5.70
   3   7   3   11.70    9.00
   3   7   3    1.70    7.10
   3   7   3   21.00    5.90
  -4  -7  -3    9.40    7.80
  -4  -7  -3    5.10    5.60
  -4  -7  -3   -2.70    5.10
  -4  -7  -3    2.00    5.70
   4   7   3   -0.70    5.60
   4   7   3    7.20    9.40
   4   7   3   -6.00    5.90
  -5  -7  -3    6.50    5.00
  -5  -7  -3   10.10    5.50
  -5  -7  -3    4.50    6.40
  -5  -7  -3  -10.50    7.50
   5   7   3   12.70    6.10
   5   7   3    3.50    4.30
   5   7   3   12.50    9.40
  -6  -7  -3   15.60    6.60
  -6  -7  -3  -16.90   10.50
  -6  -7  -3    6.90    7.20
  -6  -7  -3   14.70    5.10
   6   7   3   27.70   11.70
   6   7   3   -0.70    5.70
   6   7   3   13.80    6.70
   6   7   3    0.80    8.70
   0  -8  -3    8.90    5.00
   0  -8  -3    0.50    7.50
   0   8   3    0.40    6.70
   0   8   3   -9.90    8.80
   0   8   3    1.10    6.80
  -1  -8  -3    7.80    5.40
  -1  -8  -3    7.60    7.10
  -1  -8  -3    3.90    7.90
   1   8   3    5.80    6.40
   1   8   3   18.70    7.10
  -2  -8  -3   67.19   11.80
  -2  -8  -3   57.19   10.20
  -2  -8  -3   63.19   10.30
  -2  -8  -3   56.99   11.60
   2   8   3   58.49   10.90
   2   8   3   39.50   12.70
   2   8   3   69.89   10.20
  -3  -8  -3    5.40    6.10
  -3  -8  -3    3.20    5.90
  -3  -8  -3   -3.90    4.80
  -3  -8  -3   18.80    8.50
   3   8   3   -2.20    6.50
   3   8   3   -4.90   10.10
   3   8   3    9.00    6.60
  -4  -8  -3   17.80    8.40
  -4  -8  -3   -7.50    5.90
  -4  -8  -3   -9.10    6.10
  -4  -8  -3   -7.90    6.00
   4   8   3   -4.40    9.90
   4   8   3   -4.20    6.90
  -5  -8  -3   25.80    8.00
  -5  -8  -3   31.80    7.50
   5   8   3   49.99    9.60
   4   8  -4   15.70   11.60
   4   8  -4  -11.10    8.30
  -4  -8   4   -4.40    7.50
  -4  -8   4   -5.40    6.60
  -4  -8   4   -6.30    6.80
   3   8  -4   21.90   10.90
   3   8  -4    4.20    7.70
  -3  -8   4   -3.60    6.20
  -3  -8   4   -2.80    6.60
  -3  -8   4  -10.00    6.50
   2   8  -4   19.70    9.50
   2   8  -4   -3.10    7.20
   2   8  -4   13.40    7.70
   2   8  -4   -3.40    6.30
  -2  -8   4   -7.50    5.60
  -2  -8   4    0.50    6.40
  -2  -8   4    4.70    5.30
   1   8  -4    3.50    9.40
   1   8  -4    8.00    7.40
   1   8  -4    4.80    7.30
  -1  -8   4   -5.30    5.20
  -1  -8   4    6.50    7.00
   0   8  -4    1.00    7.20
   0   8  -4   11.40    9.40
   0   8  -4    5.40    7.30
   0  -8   4   -2.60    7.60
   0  -8   4   -9.30   11.50
   5   7  -4   27.20   10.70
  -5  -7   4   18.40    6.40
  -5  -7   4   20.40    7.40
  -5  -7   4   30.70    6.80
   4   7  -4    6.80   10.70
   4   7  -4  -10.10    6.70
  -4  -7   4   -1.00    5.60
  -4  -7   4    1.10    6.00
  -4  -7   4   -5.20    6.50
  -4  -7   4   -5.70    6.10
   3   7  -4   -8.60    6.10
   3   7  -4    4.20    6.50
   3   7  -4   11.90    9.30
  -3  -7   4    2.50    5.70
  -3  -7   4   -5.50    5.40
  -3  -7   4   -8.70    6.40
  -3  -7   4   -4.00    5.10
   2   7  -4   46.40    7.40
   2   7  -4   60.89   10.10
   2   7  -4   56.49    8.90
  -2  -7   4   32.00    7.10
  -2  -7   4   43.20    9.00
  -2  -7   4   44.30    8.30
   1   7  -4   -2.80    6.10
   1   7  -4    0.90    6.40
   1   7  -4    5.10    6.70
   1   7  -4   -1.80    5.90
  -1  -7   4   -1.40    4.50
  -1  -7   4    1.30    5.30
  -1  -7   4   -0.50    6.00
   0   7  -4    8.60    6.40
   0   7  -4    7.70    6.20
   0   7  -4   14.20    7.80
   0  -7   4    6.50    3.80
   0  -7   4    3.80    8.10
   0  -7   4   16.00    5.40
   0  -7   4   -7.20    7.40
   0  -7   4    7.10    6.20
  -1   7  -4   20.10    6.20
  -1   7  -4    9.20    6.50
  -1   7  -4   12.50    6.80
  -1   7  -4   23.60    9.00
   1  -7   4    3.40    5.70
   1  -7   4    2.70    6.60
   1  -7   4    6.90   11.30
  -2   7  -4   11.80    6.00
  -2   7  -4   26.60   10.20
  -2   7  -4   -1.50    6.30
   2  -7   4    0.60    7.00
   2  -7   4   19.50   11.60
   6   6  -4   18.20    6.50
   6   6  -4   10.40    9.20
  -6  -6   4   19.40    5.50
  -6  -6   4   12.80    7.40
  -6  -6   4    6.30   10.60
  -6  -6   4   29.50    6.40
   5   6  -4   80.99   10.40
   5   6  -4   75.19   10.90
  -5  -6   4   77.99   12.90
  -5  -6   4   79.49    9.60
  -5  -6   4   84.09    9.70
   4   6  -4   -2.80    3.40
   4   6  -4    4.10    3.00
   4   6  -4    6.50   10.10
   4   6  -4  -13.50    5.80
  -4  -6   4  -11.40    4.60
  -4  -6   4    0.10    5.50
  -4  -6   4   -5.60    4.90
   3   6  -4   -3.90    5.40
   3   6  -4    3.20    8.30
   3   6  -4   -0.30    5.60
   3   6  -4    2.20    2.40
  -3  -6   4   -0.40    6.30
  -3  -6   4    3.50    4.80
  -3  -6   4   -8.70    6.80
   2   6  -4   -1.50    4.30
   2   6  -4   -3.00    4.30
   2   6  -4   -1.10    6.10
   2   6  -4    1.90    5.60
  -2  -6   4    1.20    4.70
  -2  -6   4   -3.80    4.40
  -2  -6   4    1.60    3.80
  -2  -6   4   -1.00    5.60
   1   6  -4   26.20    6.60
   1   6  -4   28.20    6.40
   1   6  -4   29.80    7.10
  -1  -6   4   24.00    6.60
  -1  -6   4   38.70    7.50
  -1  -6   4   39.10    6.60
  -1  -6   4   22.40   10.80
  -1  -6   4   27.60    7.50
   0   6  -4   -1.30    4.90
   0   6  -4    4.10    5.20
   0   6  -4    1.60    5.20
   0   6  -4   -4.70    6.60
   0  -6   4   -1.60    5.70
   0  -6   4   -0.30    5.30
   0  -6   4    0.50    3.50
   0  -6   4   -1.30    3.40
   0  -6   4    6.10    8.40
  -1   6  -4    2.30    5.60
  -1   6  -4    1.40    4.70
  -1   6  -4    2.60    7.00
  -1   6  -4   -1.70    5.30
   1  -6   4   -0.30    7.30
   1  -6   4    0.70    5.30
   1  -6   4   -7.00    5.60
   1  -6   4   -1.60    2.20
  -2   6  -4   11.90    8.20
  -2   6  -4   -5.30    4.70
  -2   6  -4   -2.00    6.20
  -2   6  -4   -7.10    5.10
   2  -6   4    1.40    9.70
   2  -6   4   -0.40    6.70
   2  -6   4   -6.50    6.20
   2  -6   4    0.40    3.30
   2  -6   4   -7.50    5.60
  -3   6  -4   37.40   11.20
  -3   6  -4   43.80    8.20
  -3   6  -4   41.30    8.50
   3  -6   4   39.00    7.80
   3  -6   4   37.80   12.70
   3  -6   4   37.60    8.20
   3  -6   4   30.60    6.90
  -4   6  -4   14.10    6.30
   7   5  -4   11.90    8.60
   7   5  -4    9.90    9.30
  -7  -5   4    2.70    5.20
  -7  -5   4    0.70    7.90
   6   5  -4   64.99   11.30
   6   5  -4   92.39   10.40
   6   5  -4   64.89    9.40
  -6  -5   4   70.29   13.40
  -6  -5   4   94.19    9.20
  -6  -5   4   77.69    9.40
  -6  -5   4   82.99   12.90
   5   5  -4   11.10    5.20
   5   5  -4   10.50    5.40
  -5  -5   4    2.60    5.70
  -5  -5   4    7.60    4.40
  -5  -5   4   14.90    4.30
  -5  -5   4   14.10    7.80
   4   5  -4    6.50    5.10
   4   5  -4    7.40    5.50
   4   5  -4   16.90    2.90
   4   5  -4   22.60    9.00
  -4  -5   4   17.30    7.30
  -4  -5   4    5.50    5.00
  -4  -5   4   13.40    5.80
  -4  -5   4   11.40    4.70
   3   5  -4   12.20    5.20
   3   5  -4   14.20    5.00
   3   5  -4   18.00    8.20
  -3  -5   4   18.80    4.40
  -3  -5   4   13.40    5.10
  -3  -5   4   22.30    6.70
  -3  -5   4   15.50    4.60
   2   5  -4   -4.70    6.00
   2   5  -4    5.50    4.70
   2   5  -4    2.40    3.60
   2   5  -4    1.30    4.60
  -2  -5   4   -1.40    3.80
  -2  -5   4   11.70    5.80
  -2  -5   4    1.10    4.00
  -2  -5   4    4.30    3.00
  -2  -5   4    0.70    4.60
   1   5  -4   25.60    5.70
   1   5  -4   25.10    4.80
   1   5  -4   22.00    6.10
   1   5  -4   34.60    6.90
  -1  -5   4   32.30    6.10
  -1  -5   4   27.20    4.70
  -1  -5   4   19.40    5.70
   0   5  -4   69.99    8.60
   0   5  -4   69.19    9.60
   0   5  -4   72.89    8.30
   0   5  -4   59.99    8.00
   0  -5   4   86.49   10.70
   0  -5   4   82.99    8.70
   0  -5   4   68.49    8.60
   0  -5   4   76.79   10.30
   0  -5   4   65.09    8.20
  -1   5  -4   58.39    8.30
  -1   5  -4   55.49   11.90
   1  -5   4   66.39   10.20
   1  -5   4   50.79    7.70
   1  -5   4   61.69    6.50
   1  -5   4   51.49    8.40
   1  -5   4   53.09    7.10
  -2   5  -4  257.07   26.40
  -2   5  -4  266.87   24.90
  -2   5  -4  287.27   25.00
  -2   5  -4  278.97   26.10
   2  -5   4  287.27   25.00
   2  -5   4  283.47   26.40
   2  -5   4  236.08   25.70
   2  -5   4  286.47   25.00
  -3   5  -4   -5.70    3.70
  -3   5  -4    6.50    4.90
  -3   5  -4  -10.20    6.20
  -3   5  -4   15.80    7.60
   3  -5   4   -1.20    9.40
   3  -5   4    1.40    4.50
   3  -5   4   -0.10    5.80
   3  -5   4    1.30    4.70
  -4   5  -4   17.80   10.30
  -4   5  -4    4.60    4.40
  -4   5  -4  -10.80    8.80
  -4   5  -4    6.20    5.00
   4  -5   4   12.10    6.10
   4  -5   4    4.00    5.00
   4  -5   4    0.90    5.60
   4  -5   4    3.50    4.40
   4  -5   4   14.20   10.70
   5  -5   4   12.60    5.20
   7   4  -4   -1.30    8.40
   7   4  -4   -2.20    5.20
   7   4  -4   -1.60    4.80
  -7  -4   4    7.40    8.10
  -7  -4   4   -1.40    7.20
  -7  -4   4   -1.30    4.10
   6   4  -4   45.40    8.30
   6   4  -4   44.60    7.00
   6   4  -4   29.70    8.60
   6   4  -4   39.00    7.30
  -6  -4   4   43.10    8.30
  -6  -4   4   41.60    6.20
  -6  -4   4   46.10   10.40
  -6  -4   4   39.20    5.90
   5   4  -4   27.10    7.10
   5   4  -4   23.40    6.30
   5   4  -4   15.30    4.60
   5   4  -4   18.80    5.10
  -5  -4   4   28.40    5.20
  -5  -4   4   15.20    4.60
  -5  -4   4   27.80    8.10
   4   4  -4    0.10    4.60
   4   4  -4    1.10    4.20
   4   4  -4    6.50    3.90
   4   4  -4   -6.50    3.90
  -4  -4   4    3.60    3.40
  -4  -4   4    2.70    6.10
  -4  -4   4    1.80    3.80
  -4  -4   4   -3.20    3.70
   3   4  -4    6.80    4.70
   3   4  -4   12.80    3.90
   3   4  -4    4.10    2.10
   3   4  -4    4.40    6.50
   3   4  -4    3.60    3.90
  -3  -4   4    6.80    3.30
  -3  -4   4   11.30    3.60
  -3  -4   4   13.60    4.60
  -3  -4   4    6.70    5.50
   2   4  -4    5.00    4.00
   2   4  -4    0.40    3.80
   2   4  -4    3.90    3.90
   2   4  -4    0.80    5.10
  -2  -4   4    8.00    3.60
  -2  -4   4    6.90    4.90
  -2  -4   4    6.00    3.80
  -2  -4   4    5.80    3.30
   1   4  -4  299.67   29.00
   1   4  -4  332.27   28.80
   1   4  -4  320.37   29.20
  -1  -4   4  323.97   28.60
  -1  -4   4  322.27   28.70
  -1  -4   4  350.36   29.30
  -1  -4   4  293.07   29.20
   0   4  -4   -7.50    3.60
   0   4  -4   -0.50    3.30
   0   4  -4   -0.40    2.60
   0  -4   4   -4.90    2.90
   0  -4   4   -0.80    2.60
   0  -4   4   10.40    6.30
   0  -4   4   -2.60    3.70
   0  -4   4    3.70    3.70
  -1   4  -4  139.89   11.90
  -1   4  -4  119.19   13.40
  -1   4  -4  141.49   12.50
  -1   4  -4  127.99   12.30
   1  -4   4  133.89   12.30
   1  -4   4  122.59   14.10
   1  -4   4  108.49   11.80
   1  -4   4  117.69   13.10
  -2   4  -4   41.90    7.90
  -2   4  -4   30.60    5.20
  -2   4  -4   17.10    7.00
   2  -4   4   25.10    5.10
   2  -4   4   23.00    8.70
   2  -4   4   32.70    6.90
   2  -4   4   27.60    4.70
   2  -4   4   32.70    6.50
  -3   4  -4   -0.20    4.00
  -3   4  -4   -6.00    3.50
  -3   4  -4   -1.10    4.80
  -3   4  -4   -0.40    6.80
   3  -4   4   -3.30    4.60
   3  -4   4   -4.60    5.60
   3  -4   4    0.60    3.50
   3  -4   4    1.50    4.30
   3  -4   4    0.30    8.70
  -4   4  -4   44.30    7.40
  -4   4  -4   63.89    8.50
  -4   4  -4   37.70   10.50
  -4   4  -4   66.89    7.10
   4  -4   4   56.29    8.90
   4  -4   4   65.99    7.50
   4  -4   4   56.19   11.60
   4  -4   4   39.70   11.10
   4  -4   4   52.69    6.90
  -5   4  -4   44.70   12.10
  -5   4  -4   17.70    4.40
  -5   4  -4   40.60   14.20
  -5   4  -4   14.80    4.00
  -5   4  -4    1.90    7.20
   5  -4   4   20.60    6.50
   5  -4   4   16.20    4.30
   5  -4   4   18.50    4.90
   5  -4   4   25.90   12.30
   7   3  -4    0.60    4.80
   7   3  -4    5.60    8.50
   7   3  -4    9.20    9.10
  -7  -3   4   -1.90    7.50
  -7  -3   4    4.90    3.40
  -7  -3   4    3.10    3.10
  -7  -3   4   15.90    8.20
   6   3  -4  113.39   12.20
   6   3  -4  110.59   14.10
   6   3  -4  106.29   12.00
   6   3  -4  146.59   14.50
  -6  -3   4  127.49   11.70
  -6  -3   4  116.19   15.50
  -6  -3   4  120.29   15.50
  -6  -3   4  131.49   13.60
   5   3  -4    5.00    3.70
   5   3  -4    6.20    6.60
   5   3  -4   10.10    4.10
   5   3  -4    2.50    5.60
   5   3  -4   -5.30    5.40
  -5  -3   4    6.40    5.60
  -5  -3   4    8.90    5.40
  -5  -3   4    6.30    7.30
  -5  -3   4    8.10    3.60
  -5  -3   4    9.00    3.10
   4   3  -4  129.69   12.90
   4   3  -4  129.59   12.50
   4   3  -4  125.59   12.00
   4   3  -4  125.99   13.90
   4   3  -4  119.39   12.10
  -4  -3   4  121.09   11.80
  -4  -3   4  113.59   13.60
  -4  -3   4  108.49   13.80
  -4  -3   4  129.19   11.80
   3   3  -4  284.77   25.70
   3   3  -4  302.67   25.70
   3   3  -4  297.77   25.90
  -3  -3   4  268.67   26.80
  -3  -3   4  272.27   25.60
  -3  -3   4  314.77   25.80
  -3  -3   4  267.07   26.60
   2   3  -4   35.10    6.80
   2   3  -4   40.50    5.60
   2   3  -4   46.10    5.30
  -2  -3   4   53.59    6.90
  -2  -3   4   40.90    6.10
  -2  -3   4   45.30    5.50
  -2  -3   4   47.90    5.20
   1   3  -4  435.56   42.80
   1   3  -4  522.35   42.60
  -1  -3   4  446.86   42.90
  -1  -3   4  482.45   42.70
  -1  -3   4  501.25   42.60
  -1  -3   4  507.75   42.50
   0   3  -4   31.50    4.30
   0   3  -4   32.90    5.00
   0   3  -4   35.70    5.00
   0   3  -4   27.50    4.30
   0  -3   4   29.50    4.50
   0  -3   4   36.40    4.80
   0  -3   4   41.60    5.20
   0  -3   4   39.10    5.40
  -1   3  -4   30.30    4.30
  -1   3  -4   27.70    5.80
  -1   3  -4   38.90    4.80
  -1   3  -4   35.60    4.90
   1  -3   4   29.60    4.40
   1  -3   4   32.50    4.40
   1  -3   4   46.20    6.10
   1  -3   4   38.10    6.80
   1  -3   4   35.80    4.70
  -2   3  -4 1510.35  154.48
  -2   3  -4 2020.50  154.08
  -2   3  -4 1842.22  153.68
  -2   3  -4 1803.42  153.68
   2  -3   4 1514.05  154.08
   2  -3   4 1762.32  153.58
   2  -3   4 1965.00  153.68
   2  -3   4 1659.83  154.68
  -3   3  -4   12.70    8.00
  -3   3  -4    3.70    4.00
  -3   3  -4    4.60    3.00
  -3   3  -4    9.60    4.30
  -3   3  -4    3.50    6.10
  -3   3  -4    3.20    2.80
   3  -3   4    2.60    7.90
   3  -3   4    6.90    3.10
   3  -3   4    1.60    5.20
   3  -3   4    6.50    3.30
   3  -3   4    6.30    3.60
  -4   3  -4    4.50    5.30
  -4   3  -4    9.70    5.90
  -4   3  -4   17.30    8.50
  -4   3  -4    8.80    3.10
  -4   3  -4    9.70    9.30
  -4   3  -4    9.20    2.90
  -4   3  -4   12.90    5.60
   4  -3   4    4.80    5.90
   4  -3   4    7.50    3.20
   4  -3   4    5.00    9.10
   4  -3   4    8.30    4.40
   4  -3   4    8.90    3.60
  -5   3  -4   21.40    3.70
  -5   3  -4   -0.90   11.20
  -5   3  -4   19.00    7.20
   5  -3   4   19.80    6.00
   5  -3   4   17.80   10.70
  -6   3  -4   15.90    8.20
   6  -3   4    7.20    3.00
   6  -3   4    4.90    3.20
   6  -3   4    1.40   12.70
   7   2  -4   10.20    8.60
   7   2  -4   -2.00    3.20
   7   2  -4   -0.10    4.00
   7   2  -4   15.30   10.20
  -7  -2   4   17.70    8.60
  -7  -2   4    1.60    7.10
  -7  -2   4    4.10    7.20
  -7  -2   4    0.60    1.90
  -7  -2   4   -0.70    1.90
  -7  -2   4   -2.90    7.90
   6   2  -4   16.10    8.70
   6   2  -4    6.50    3.80
   6   2  -4    9.20    7.40
   6   2  -4   18.50    6.00
  -6  -2   4    0.20    6.60
  -6  -2   4    6.30    6.10
  -6  -2   4    7.80    3.00
  -6  -2   4    5.00    6.10
   5   2  -4   -2.20    3.40
   5   2  -4   -1.80    5.80
   5   2  -4   -5.60    3.20
  -5  -2   4    2.00    2.40
  -5  -2   4   -0.60    6.10
  -5  -2   4   -5.00    5.10
  -5  -2   4    7.30    6.10
  -5  -2   4    3.10    4.70
  -5  -2   4    1.60    2.90
   4   2  -4   -0.80    4.70
   4   2  -4    2.40    4.80
   4   2  -4   -0.90    5.00
   4   2  -4    2.00    3.10
   4   2  -4    0.30    3.00
  -4  -2   4   -6.20    5.40
  -4  -2   4    1.30    4.30
  -4  -2   4   -0.80    2.70
  -4  -2   4    3.10    2.50
  -4  -2   4   -1.20    3.70
   3   2  -4    2.50    3.00
   3   2  -4    4.30    2.60
   3   2  -4    1.80    3.70
   3   2  -4    0.80    3.70
  -3  -2   4   -0.30    3.80
  -3  -2   4    2.10    3.70
  -3  -2   4    0.90    2.40
  -3  -2   4    2.40    2.50
   2   2  -4   37.50    4.60
   2   2  -4   41.00    4.10
   2   2  -4   35.60    4.70
   2   2  -4   34.30    6.20
  -2  -2   4   38.30    4.60
  -2  -2   4   39.80    4.40
  -2  -2   4   28.40    5.50
  -2  -2   4   40.50    6.40
   1   2  -4  535.15   42.50
   1   2  -4  480.75   42.30
   1   2  -4  458.95   42.30
  -1  -2   4  406.36   42.20
  -1  -2   4  538.55   42.70
  -1  -2   4  462.55   42.70
  -1  -2   4  481.15   42.20
   0   2  -4    9.10    3.00
   0   2  -4   11.70    3.00
   0   2  -4   18.40    3.60
   0   2  -4   16.50    4.10
   0  -2   4   12.70    2.30
   0  -2   4   18.70    4.20
   0  -2   4   12.20    2.90
   0  -2   4    9.50    2.50
  -1   2  -4  849.02   81.59
  -1   2  -4  888.61   80.99
  -1   2  -4  998.60   81.09
  -1   2  -4  898.81   81.09
   1  -2   4  843.32   81.09
   1  -2   4 1041.80   81.09
   1  -2   4  989.90   81.09
   1  -2   4  902.71   80.99
  -2   2  -4  242.88   19.60
  -2   2  -4  199.78   20.50
  -2   2  -4  224.78   20.40
  -2   2  -4  222.88   20.60
  -2   2  -4  199.88   19.00
  -2   2  -4  238.98   19.30
  -2   2  -4  231.28   19.20
   2  -2   4  200.78   19.40
   2  -2   4  195.18   20.40
   2  -2   4  248.18   19.20
   2  -2   4  182.68   19.00
   2  -2   4  186.48   19.90
  -3   2  -4    0.80    3.60
  -3   2  -4    8.10    3.30
  -3   2  -4    4.10    4.20
  -3   2  -4    5.60    6.70
  -3   2  -4    2.20    2.30
  -3   2  -4    5.50    1.80
  -3   2  -4   -2.60    4.20
   3  -2   4    4.20    2.10
   3  -2   4    2.80    2.70
   3  -2   4    2.70    2.50
   3  -2   4   -5.40    4.90
   3  -2   4    4.00    6.40
  -4   2  -4   16.80    4.00
  -4   2  -4   32.80    7.00
  -4   2  -4   33.20    7.20
  -4   2  -4   19.40    7.20
  -4   2  -4    9.40    6.20
  -4   2  -4   18.50    5.70
  -4   2  -4   26.60    6.50
  -4   2  -4   23.50    3.50
  -4   2  -4   26.60    8.80
   4  -2   4   26.20    5.60
   4  -2   4   23.70    6.60
   4  -2   4   27.70    9.10
   4  -2   4   22.60    3.50
  -5   2  -4  108.79   13.30
  -5   2  -4   99.49   14.50
  -5   2  -4   84.09   14.40
  -5   2  -4  104.69   10.80
  -5   2  -4  120.29   14.20
  -5   2  -4  121.39   14.30
   5  -2   4  108.09   10.10
   5  -2   4  121.59   10.10
   5  -2   4  101.39   12.30
   5  -2   4   97.79   14.50
  -6   2  -4   34.10   11.90
  -6   2  -4   44.40    6.90
  -6   2  -4   57.39   10.40
  -6   2  -4   44.10   13.20
   6  -2   4   40.10   12.10
  -7   2  -4   15.10    8.20
  -7   2  -4   31.40    9.80
   7   1  -4    7.50    9.20
   7   1  -4    0.90    3.50
   7   1  -4   12.20   10.10
   7   1  -4    3.20    2.90
  -7  -1   4    1.10    7.90
  -7  -1   4    2.20    3.50
  -7  -1   4   13.60    8.80
  -7  -1   4   -5.40    7.10
   6   1  -4   81.69    8.30
   6   1  -4   91.99   11.90
   6   1  -4   86.59   11.30
  -6  -1   4   77.99    7.50
  -6  -1   4   77.99   12.40
  -6  -1   4   66.59   11.80
  -6  -1   4   60.39   10.30
  -6  -1   4   85.39   12.60
  -6  -1   4   78.39    9.30
  -6  -1   4   77.39    7.60
  -6  -1   4   72.79    9.00
   5   1  -4    7.00    3.30
   5   1  -4    5.40    6.00
   5   1  -4    9.70    7.20
   5   1  -4   -1.50    4.90
  -5  -1   4    7.30    7.20
  -5  -1   4   12.90    5.40
  -5  -1   4    2.70    3.30
  -5  -1   4   10.90    2.70
  -5  -1   4    2.00    7.00
  -5  -1   4    7.30    2.30
  -5  -1   4    6.30    5.70
   4   1  -4   60.69    6.90
   4   1  -4   65.99    9.30
   4   1  -4   68.29    8.40
   4   1  -4   68.89    8.90
   4   1  -4   63.59    7.10
  -4  -1   4   68.09    6.80
  -4  -1   4   70.99    9.80
  -4  -1   4   56.39    9.20
  -4  -1   4   79.19    7.60
  -4  -1   4   73.19    9.40
  -4  -1   4   64.69    6.60
  -4  -1   4   67.39    7.60
   3   1  -4  766.72   64.99
   3   1  -4  650.23   64.49
   3   1  -4  747.83   64.49
   3   1  -4  758.02   65.19
  -3  -1   4  675.03   65.49
  -3  -1   4  747.83   64.49
  -3  -1   4  713.23   65.29
  -3  -1   4  758.22   64.49
  -3  -1   4  807.92   64.59
  -3  -1   4  706.43   65.49
  -3  -1   4  766.52   64.59
   2   1  -4  108.09   11.50
   2   1  -4  101.89   12.50
   2   1  -4  121.59   11.60
   2   1  -4  126.89   11.60
  -2  -1   4  137.89   11.60
  -2  -1   4  121.49   11.40
  -2  -1   4  141.49   12.80
  -2  -1   4  137.19   11.20
  -2  -1   4  134.89   11.60
   1   1  -4  613.44   59.99
   1   1  -4  646.64   60.49
   1   1  -4  725.23   59.99
  -1  -1   4  715.63   59.99
  -1  -1   4  733.63   60.19
  -1  -1   4  630.64   60.09
  -1  -1   4  734.33   60.49
   0   1  -4  411.56   34.90
   0   1  -4  436.56   34.90
   0   1  -4  397.16   35.10
   0   1  -4  426.66   35.20
   0   1  -4  346.07   35.10
   0  -1   4  346.57   34.80
   0  -1   4  390.16   34.80
   0  -1   4  410.66   35.10
   0  -1   4  402.96   35.20
  -1   1  -4   26.60    5.10
  -1   1  -4   22.90    3.30
  -1   1  -4   30.40    3.50
  -1   1  -4   25.50    5.20
   1  -1   4   26.50    4.80
   1  -1   4   29.10    3.30
   1  -1   4   19.50    3.00
   1  -1   4   18.80    4.70
  -2   1  -4 2945.11  284.97
  -2   1  -4 3333.97  285.07
  -2   1  -4 2905.61  284.27
  -2   1  -4 3473.85  284.27
  -2   1  -4 3022.30  284.27
  -2   1  -4 2885.41  284.37
   2  -1   4 3447.05  284.27
   2  -1   4 2957.50  284.87
   2  -1   4 3765.32  284.27
   2  -1   4 3329.57  285.07
   2  -1   4 3823.62  284.37
  -3   1  -4   41.10    6.20
  -3   1  -4   55.89    4.90
  -3   1  -4   36.40    7.30
  -3   1  -4   53.99    7.50
  -3   1  -4   45.80    5.00
  -3   1  -4   49.80    8.00
   3  -1   4   59.49    5.70
   3  -1   4   50.09    4.90
   3  -1   4   41.40    6.60
   3  -1   4   54.79    8.00
  -4   1  -4   33.40    5.80
  -4   1  -4   18.80    5.00
  -4   1  -4   24.70    2.80
  -4   1  -4   33.90    7.00
  -4   1  -4   31.40    2.90
  -4   1  -4   26.30    7.30
  -4   1  -4   36.60    6.00
  -4   1  -4   25.70    6.20
   4  -1   4   32.00    3.30
   4  -1   4   18.70    5.80
   4  -1   4   29.70    3.40
   4  -1   4   25.70    8.20
  -5   1  -4   78.89   11.10
  -5   1  -4   71.89    9.50
  -5   1  -4   64.39   11.60
  -5   1  -4   53.79    8.90
  -5   1  -4   74.49   10.00
  -5   1  -4   91.09   12.20
   5  -1   4   65.69   11.50
   5  -1   4   91.19   10.20
  -6   1  -4  275.27   24.60
  -6   1  -4  241.38   26.20
  -6   1  -4  283.47   26.80
  -6   1  -4  279.67   26.60
  -6   1  -4  260.87   26.20
  -6   1  -4  227.68   25.40
  -7   1  -4   27.60    9.80
  -7   1  -4    8.40    7.10
  -7   1  -4    2.10    6.60
  -7   1  -4   -0.30   12.70
  -7   1  -4   32.80   13.30
  -7   1  -4    0.30   11.80
  -7   1  -4   -2.40    4.80
   7   0  -4   17.00   12.00
   7   0  -4   -1.90    3.00
  -7   0   4    6.70    4.80
  -7   0   4    5.70    8.70
   6   0  -4    0.70    3.30
   6   0  -4    8.80    9.10
   6   0  -4    8.80    5.90
   6   0  -4    0.90    2.80
  -6   0   4   -4.30    4.90
  -6   0   4    0.60    1.80
  -6   0   4   13.80    7.40
  -6   0   4    3.60    8.50
  -6   0   4   -0.60    7.00
  -6   0   4    2.50    2.00
  -6   0   4   -1.10    8.50
   5   0  -4   -2.30    4.40
   5   0  -4   -6.50    7.40
   5   0  -4   -6.20    6.50
   5   0  -4   -0.30    2.30
   5   0  -4   -0.70    3.00
  -5   0   4   -9.10    4.90
  -5   0   4    0.20    2.40
  -5   0   4    2.20    5.70
  -5   0   4   -2.10    7.50
  -5   0   4   -4.20    6.00
  -5   0   4   -1.60    3.20
   4   0  -4    8.10    6.20
   4   0  -4    8.70    3.00
   4   0  -4   15.70    5.30
   4   0  -4   11.10    3.00
   4   0  -4    7.40    4.10
  -4   0   4    9.30    5.10
  -4   0   4    8.70    4.70
  -4   0   4    8.10    4.60
  -4   0   4   12.20    2.30
  -4   0   4   10.40    2.40
  -4   0   4    8.70    3.90
   3   0  -4   -0.80    2.20
   3   0  -4    2.50    3.00
   3   0  -4   -1.40    2.30
   3   0  -4   -0.20    4.80
   3   0  -4    1.70    3.80
  -3   0   4    3.90    3.70
  -3   0   4    0.40    2.00
  -3   0   4    2.40    3.40
  -3   0   4    5.50    3.00
  -3   0   4   -0.10    2.10
  -3   0   4   -0.50    3.80
   2   0  -4 1058.89  105.09
   2   0  -4 1035.50  105.09
   2   0  -4 1329.07  104.69
   2   0  -4 1232.68  104.89
   2   0  -4 1193.88  104.59
   2   0  -4 1140.19  104.59
  -2   0   4 1172.78  104.89
  -2   0   4 1201.08  105.19
  -2   0   4 1293.67  104.59
  -2   0   4 1320.77  104.59
   1   0  -4  142.69   12.20
   1   0  -4  118.29   12.10
   1   0  -4  148.19   12.10
  -1   0   4  112.69   12.40
  -1   0   4  147.59   12.90
  -1   0   4  136.79   12.00
  -1   0   4  125.29   12.00
  -1   0   4  137.09   12.90
   0   0  -4   -0.70    1.60
   0   0  -4    3.70    2.40
   0   0  -4    0.50    1.60
   0   0   4    3.80    2.30
   0   0   4   -1.30    1.90
   0   0   4   -1.50    2.00
   0   0   4   -0.40    1.80
  -1   0  -4 1148.69   95.19
  -1   0  -4  933.21   94.89
  -1   0  -4 1145.19   95.09
  -1   0  -4 1138.29   94.59
  -1   0  -4 1145.59   94.59
  -1   0  -4 1064.79   94.49
   1   0   4 1036.80   94.59
   1   0   4  972.40   94.49
   1   0   4 1175.08   94.59
  -2   0  -4  469.95   41.70
  -2   0  -4  463.45   42.20
  -2   0  -4  523.85   42.40
  -2   0  -4  535.05   42.20
  -2   0  -4  486.85   41.30
  -2   0  -4  421.26   41.30
  -2   0  -4  426.96   41.70
   2   0   4  476.15   42.10
   2   0   4  445.06   41.70
   2   0   4  507.25   41.30
   2   0   4  445.76   41.50
  -3   0  -4   39.70    4.80
  -3   0  -4   47.40    4.00
  -3   0  -4   33.60    5.70
  -3   0  -4   27.10    6.80
  -3   0  -4   44.60    6.80
  -3   0  -4   47.90    5.40
  -3   0  -4   42.40    6.60
   3   0   4   46.10    4.00
   3   0   4   33.60    6.10
   3   0   4   40.40    4.50
   3   0   4   35.40    5.60
  -4   0  -4    9.90    4.50
  -4   0  -4   10.10    5.40
  -4   0  -4    9.10    6.40
  -4   0  -4   12.40    5.90
  -4   0  -4   12.20    5.60
  -4   0  -4    5.70    3.90
  -4   0  -4    8.80    2.80
   4   0   4   11.70    1.60
   4   0   4   11.20    1.50
   4   0   4    5.20    5.00
  -5   0  -4  109.19   15.00
  -5   0  -4  119.19   14.00
  -5   0  -4  158.58   15.40
  -5   0  -4  142.59   14.80
  -5   0  -4  142.49   13.80
  -5   0  -4  132.49   14.60
  -5   0  -4  136.59   14.00
  -6   0  -4  323.57   30.10
  -6   0  -4  288.37   28.80
  -6   0  -4  295.07   28.90
  -6   0  -4  320.87   30.00
  -7   0  -4   20.40   12.10
  -7   0  -4   39.00    9.90
  -7   0  -4   39.60   11.10
  -7   0  -4   21.80    7.40
   6  -1  -4   18.40    6.00
   6  -1  -4   20.40    4.00
   6  -1  -4   24.90    4.20
  -6   1   4    8.30    8.10
  -6   1   4   14.50    3.00
  -6   1   4   35.00   10.60
  -6   1   4   10.00    6.20
  -6   1   4   11.50    6.60
  -6   1   4   18.30    8.10
  -6   1   4   23.80    3.20
   5  -1  -4   12.50    6.80
   5  -1  -4   16.40    5.60
   5  -1  -4   15.00    3.70
   5  -1  -4   19.70    7.90
   5  -1  -4   15.30    3.40
  -5   1   4   13.00    5.90
  -5   1   4   12.90    6.20
  -5   1   4    2.90    4.90
  -5   1   4    6.10    6.50
  -5   1   4    6.90    9.50
  -5   1   4   11.00    3.10
  -5   1   4   10.40    3.00
   4  -1  -4    3.90    3.00
   4  -1  -4    3.80    3.60
   4  -1  -4    0.70    2.90
   4  -1  -4    0.60    6.30
   4  -1  -4    0.30    5.90
  -4   1   4   -1.80    4.00
  -4   1   4    9.30    5.40
  -4   1   4    3.90    7.50
  -4   1   4    0.60    2.20
  -4   1   4    3.30    2.60
  -4   1   4   -4.50    4.20
  -4   1   4   -3.80    4.40
   3  -1  -4  120.49   12.50
   3  -1  -4  150.68   13.50
   3  -1  -4  151.78   14.40
   3  -1  -4  131.59   13.40
   3  -1  -4  118.49   14.30
   3  -1  -4  123.89   12.60
  -3   1   4  135.39   14.40
  -3   1   4  150.38   13.80
  -3   1   4  147.59   13.20
  -3   1   4  135.59   12.50
  -3   1   4  132.49   12.40
   2  -1  -4  821.42   75.29
   2  -1  -4  887.01   75.89
   2  -1  -4  835.22   74.99
   2  -1  -4  789.22   75.79
   2  -1  -4  969.60   75.39
   2  -1  -4  820.82   74.99
   2  -1  -4  806.52   75.49
  -2   1   4  966.30   74.99
  -2   1   4  913.61   75.29
  -2   1   4  872.21   75.89
  -2   1   4  752.52   74.99
   1  -1  -4    3.50    3.20
   1  -1  -4    6.60    2.30
   1  -1  -4    7.30    2.40
   1  -1  -4    7.40    2.80
   1  -1  -4    3.90    2.20
   1  -1  -4    8.10    3.30
  -1   1   4    5.10    2.20
  -1   1   4    8.20    3.30
  -1   1   4    4.50    2.20
  -1   1   4   10.40    3.30
  -1   1   4    7.20    2.20
   0  -1  -4  720.93   62.39
   0  -1  -4  707.63   62.39
   0   1   4  735.53   62.69
   0   1   4  664.03   62.79
   0   1   4  737.03   62.39
  -1  -1  -4   19.00    3.90
  -1  -1  -4   21.60    4.60
  -1  -1  -4   20.30    2.20
   1   1   4   23.50    4.70
  -2  -1  -4 1107.59  109.29
  -2  -1  -4 1350.26  109.89
  -2  -1  -4 1250.77  109.39
  -2  -1  -4 1231.08  109.29
   2   1   4 1180.48  109.69
   2   1   4 1334.47  109.89
   2   1   4 1311.07  109.79
   2   1   4 1228.98  109.19
   2   1   4 1279.27  109.29
  -3  -1  -4   65.59    6.20
  -3  -1  -4   61.59    8.30
  -3  -1  -4   73.29    8.30
  -3  -1  -4   62.29    6.20
  -3  -1  -4   71.39    7.10
  -3  -1  -4   56.69    7.70
  -3  -1  -4   69.99    7.90
   3   1   4   62.79    8.00
   3   1   4   75.69    8.10
   3   1   4   65.89    7.10
   3   1   4   78.39    6.30
   3   1   4   52.89    7.70
  -4  -1  -4   45.80    6.30
  -4  -1  -4   54.29    7.40
  -4  -1  -4   42.30    4.50
  -4  -1  -4   42.80    7.90
  -4  -1  -4   49.50    6.70
  -4  -1  -4   58.29    7.80
  -4  -1  -4   49.00    7.70
   4   1   4   53.09    6.60
   4   1   4   48.60    4.70
   4   1   4   56.89    6.70
   4   1   4   47.70    7.40
   4   1   4   51.19    7.40
   4   1   4   53.09    4.70
  -5  -1  -4   64.69    9.80
  -5  -1  -4   59.59    9.40
  -5  -1  -4   73.09    8.00
  -5  -1  -4   55.09    8.00
  -5  -1  -4   49.40    8.20
  -6  -1  -4  900.41   74.39
  -6  -1  -4  790.52   73.99
  -6  -1  -4  810.82   74.39
  -6  -1  -4  809.62   74.09
  -6  -1  -4  855.11   75.09
  -7  -1  -4    3.60    7.50
  -7  -1  -4   -0.80    7.80
  -7  -1  -4    7.50   10.10
  -7  -1  -4   10.90    8.70
  -7  -1  -4    0.50    5.60
  -7  -1  -4   11.90   10.20
  -7  -1  -4   13.70   10.20
  -7  -1  -4    4.00    5.90
  -8  -1  -4   -4.80    7.50
  -8  -1  -4    1.30    7.30
  -8  -1  -4    9.80    9.70
  -8  -1  -4    7.90   14.50
  -8  -1  -4   -3.00    7.20
   6  -2  -4    7.50   12.60
   6  -2  -4    1.50    4.10
   6  -2  -4    2.20   10.60
  -6   2   4   -3.10    7.90
  -6   2   4   12.80   11.60
  -6   2   4   -0.40    2.50
   5  -2  -4   22.00    9.60
   5  -2  -4   15.50    4.80
   5  -2  -4   13.40    3.90
   5  -2  -4   33.20   10.20
   5  -2  -4   15.20    8.30
   5  -2  -4   16.50    4.10
  -5   2   4   29.80    6.70
  -5   2   4   13.10    3.50
  -5   2   4    2.80    6.70
  -5   2   4   -0.50    9.40
  -5   2   4   11.50    5.20
  -5   2   4   11.00    3.10
   4  -2  -4   -4.90    7.40
   4  -2  -4    2.30    3.50
   4  -2  -4    2.60    7.70
   4  -2  -4   -3.40    3.90
   4  -2  -4   -2.60    3.70
  -4   2   4   -0.40    4.40
  -4   2   4   -4.30    5.10
  -4   2   4   -5.30    2.70
  -4   2   4   -3.10    3.00
  -4   2   4   -6.40    8.40
  -4   2   4   -5.20    4.00
   3  -2  -4   24.60    7.30
   3  -2  -4   27.00    4.70
   3  -2  -4   23.90    4.00
   3  -2  -4   32.40    7.00
   3  -2  -4   26.80    7.40
   3  -2  -4   30.70    6.20
  -3   2   4   23.40    5.10
  -3   2   4   29.40    4.20
  -3   2   4   22.60    3.90
  -3   2   4   29.80    6.20
  -3   2   4   17.90    4.10
  -3   2   4   34.10    7.60
   2  -2  -4  938.11   85.49
   2  -2  -4 1047.40   85.39
   2  -2  -4  882.11   85.79
   2  -2  -4  966.50   84.89
   2  -2  -4  823.92   84.89
  -2   2   4  920.71   85.79
  -2   2   4 1022.90   84.89
  -2   2   4 1092.39   85.39
  -2   2   4  893.51   85.79
  -2   2   4 1012.70   84.89
  -2   2   4 1071.19   85.19
   1  -2  -4  259.67   25.00
   1  -2  -4  271.47   25.60
   1  -2  -4  297.27   25.50
   1  -2  -4  294.77   24.70
   1  -2  -4  232.48   24.50
  -1   2   4  279.47   25.70
  -1   2   4  299.77   24.70
  -1   2   4  259.77   25.40
  -1   2   4  311.27   24.70
  -1   2   4  299.17   25.00
  -1   2   4  237.78   24.50
   0  -2  -4   29.90    4.20
   0  -2  -4   24.40    4.10
   0  -2  -4   34.40    5.50
   0  -2  -4   23.40    4.80
   0  -2  -4   36.80    5.30
   0   2   4   40.10    5.60
   0   2   4   25.20    3.70
   0   2   4   27.10    4.10
   0   2   4   31.20    4.10
  -1  -2  -4  150.68   15.70
  -1  -2  -4  187.98   15.20
  -1  -2  -4  168.38   15.60
  -1  -2  -4  190.28   16.30
  -1  -2  -4  143.09   15.10
   1   2   4  149.88   15.10
   1   2   4  183.18   15.10
   1   2   4  151.48   15.60
   1   2   4  190.18   15.80
   1   2   4  158.48   15.30
  -2  -2  -4  383.66   30.60
  -2  -2  -4  380.26   31.40
  -2  -2  -4  323.37   31.30
  -2  -2  -4  381.96   31.10
  -2  -2  -4  299.97   30.60
   2   2   4  311.37   31.10
   2   2   4  331.27   30.60
   2   2   4  361.76   30.60
   2   2   4  361.76   31.30
   2   2   4  359.36   31.40
   2   2   4  328.67   30.60
  -3  -2  -4  496.25   43.50
  -3  -2  -4  499.75   42.80
  -3  -2  -4  448.76   42.80
  -3  -2  -4  491.75   43.90
  -3  -2  -4  488.25   43.80
   3   2   4  445.36   42.80
   3   2   4  466.75   43.70
   3   2   4  497.85   43.80
   3   2   4  485.75   42.80
   3   2   4  526.25   43.20
   3   2   4  523.05   43.60
  -4  -2  -4   40.90    6.50
  -4  -2  -4   35.50    6.80
  -4  -2  -4   18.10    5.10
  -4  -2  -4   27.10    5.30
  -4  -2  -4   25.20    3.50
   4   2   4   31.00    6.70
   4   2   4   33.40    5.30
   4   2   4   38.40    5.60
   4   2   4   26.70    3.70
  -5  -2  -4    6.60    5.80
  -5  -2  -4   11.80    7.90
  -5  -2  -4    0.30    5.00
  -5  -2  -4    2.30    4.00
  -5  -2  -4   15.80    5.20
  -5  -2  -4   20.70    7.50
   5   2   4   20.80    7.10
   5   2   4   10.80    3.70
   5   2   4   10.80    5.00
  -6  -2  -4  382.96   34.50
  -6  -2  -4  374.36   34.20
  -6  -2  -4  336.77   34.20
   6   2   4  393.76   32.40
   6   2   4  367.36   32.40
  -7  -2  -4   16.60    6.30
  -7  -2  -4   25.70    7.80
  -7  -2  -4   17.20    6.30
  -7  -2  -4   34.10   10.40
  -7  -2  -4   28.90   10.60
  -7  -2  -4   22.40   10.00
  -7  -2  -4    9.50    5.90
  -8  -2  -4   16.20    8.10
  -8  -2  -4    1.20    6.50
  -8  -2  -4   16.10    6.80
   5  -3  -4   28.50   10.50
   5  -3  -4    4.90    4.50
   5  -3  -4   15.50    4.50
   5  -3  -4   14.20    4.60
   5  -3  -4    7.70    6.50
  -5   3   4   11.70    4.00
  -5   3   4   -2.40    4.80
  -5   3   4    2.00    7.90
  -5   3   4  -12.60   10.40
  -5   3   4    5.80    3.50
  -5   3   4   -3.30    4.80
   4  -3  -4   -3.00    3.60
   4  -3  -4    0.80    4.20
   4  -3  -4    2.10    3.60
   4  -3  -4    1.10    5.90
   4  -3  -4   -5.30    8.50
   4  -3  -4   -0.20    8.20
  -4   3   4   -5.70    6.50
  -4   3   4   -7.70    4.10
  -4   3   4    1.20    5.50
  -4   3   4   -0.40    3.20
  -4   3   4    2.30    3.30
  -4   3   4    7.40    5.70
   3  -3  -4    5.30    3.20
   3  -3  -4    6.40    3.60
   3  -3  -4    6.00    5.10
   3  -3  -4   11.30    7.40
   3  -3  -4   12.60    7.70
   3  -3  -4    4.90    3.40
  -3   3   4    8.70    3.20
  -3   3   4    4.90    5.00
  -3   3   4   13.90    7.70
  -3   3   4    4.90    3.80
  -3   3   4   12.40    5.60
  -3   3   4   10.20    3.70
   2  -3  -4  479.85   38.90
   2  -3  -4  423.66   39.70
   2  -3  -4  434.36   38.50
  -2   3   4  421.06   38.80
  -2   3   4  435.56   38.40
  -2   3   4  417.16   40.00
  -2   3   4  426.96   38.50
   1  -3  -4  138.09   11.70
   1  -3  -4  130.09   12.80
   1  -3  -4  103.79   11.50
   1  -3  -4  113.19   13.10
   1  -3  -4  129.19   12.30
  -1   3   4  126.39   13.80
  -1   3   4  118.99   11.50
  -1   3   4  116.09   13.10
  -1   3   4  125.69   11.60
   0  -3  -4    7.40    4.10
   0  -3  -4    4.80    2.40
   0  -3  -4    5.40    3.90
   0  -3  -4    2.40    2.80
   0  -3  -4    7.80    3.50
   0   3   4    6.90    4.30
   0   3   4    4.80    2.90
   0   3   4    9.50    3.40
   0   3   4    3.80    2.80
  -1  -3  -4   11.20    4.10
  -1  -3  -4    3.90    3.60
  -1  -3  -4    6.50    2.90
  -1  -3  -4   13.00    3.20
  -1  -3  -4   12.10    3.80
   1   3   4   21.50    5.90
   1   3   4    9.50    3.10
   1   3   4    8.20    2.90
  -2  -3  -4   95.49    9.60
  -2  -3  -4   78.89    9.20
  -2  -3  -4   78.49    8.10
  -2  -3  -4   65.79    8.60
  -2  -3  -4   75.99    8.00
   2   3   4   94.19    9.10
   2   3   4   90.49    8.10
   2   3   4   84.89    9.80
   2   3   4   67.59    8.00
  -3  -3  -4    0.70    4.80
  -3  -3  -4    3.60    3.50
  -3  -3  -4   10.10    3.80
  -3  -3  -4    2.40    2.70
  -3  -3  -4   -2.00    2.70
   3   3   4    0.60    2.70
   3   3   4    1.20    2.90
   3   3   4    5.10    4.10
   3   3   4    0.60    2.50
   3   3   4    6.80    3.30
  -4  -3  -4   26.10    6.20
  -4  -3  -4   11.10    3.20
  -4  -3  -4   19.40    6.20
  -4  -3  -4   13.50    2.90
   4   3   4   14.20    3.10
   4   3   4   18.30    6.70
   4   3   4   21.80    5.60
   4   3   4   16.50    4.70
   4   3   4   14.00    3.20
  -5  -3  -4   12.10    2.50
  -5  -3  -4   10.30    5.60
  -5  -3  -4    6.00    4.50
  -5  -3  -4    7.60    4.40
  -5  -3  -4   15.80    8.00
  -5  -3  -4    9.30    2.80
   5   3   4    9.00    7.20
   5   3   4   16.90    5.50
   5   3   4    9.40    3.90
  -6  -3  -4 1098.99   92.29
  -6  -3  -4 1048.70   92.29
  -6  -3  -4  995.70   89.79
  -6  -3  -4 1081.59   90.89
  -6  -3  -4  889.21   90.89
  -6  -3  -4 1156.18   91.89
  -6  -3  -4  850.51   89.79
   6   3   4 1009.50   92.19
   6   3   4 1150.68   90.19
   6   3   4 1026.00   89.89
  -7  -3  -4    8.00    6.60
  -7  -3  -4   11.60   11.30
  -7  -3  -4   33.40   10.20
  -7  -3  -4   27.20    7.30
  -7  -3  -4   28.50   10.90
   7   3   4   18.60    3.20
   7   3   4   13.30    7.80
   7   3   4   32.40   10.70
   7   3   4   19.20    3.10
  -8  -3  -4   17.30    7.40
  -8  -3  -4    7.90    8.10
  -8  -3  -4   18.70    8.30
  -8  -3  -4   32.80   12.90
   8   3   4   12.10    8.80
   5  -4  -4   21.80    5.50
   5  -4  -4   20.50   12.30
   5  -4  -4   25.60   11.70
  -5   4   4   18.50    5.30
  -5   4   4   -1.10    9.70
  -5   4   4   24.50    6.90
   4  -4  -4    5.60    3.40
   4  -4  -4   -4.10    9.60
   4  -4  -4   -1.80    4.80
   4  -4  -4    2.40    9.30
   4  -4  -4   12.70   10.00
  -4   4   4    2.60    7.10
  -4   4   4   -4.80    3.90
  -4   4   4    8.40    4.50
  -4   4   4   -5.30    7.60
   3  -4  -4   29.60    5.60
   3  -4  -4   37.80    9.30
   3  -4  -4   42.10    6.30
   3  -4  -4   39.70    7.10
   3  -4  -4   35.00   10.30
  -3   4   4   35.50    6.90
  -3   4   4   30.10    5.70
  -3   4   4   42.60    6.40
  -3   4   4   19.60    7.70
   2  -4  -4   83.09   11.40
   2  -4  -4   83.39   11.20
   2  -4  -4   75.29    9.10
   2  -4  -4   89.09   11.00
   2  -4  -4   82.39    8.90
   2  -4  -4   71.19    8.40
  -2   4   4   68.49   11.80
  -2   4   4   69.29    8.50
  -2   4   4   70.99   12.80
  -2   4   4   87.89    8.50
   1  -4  -4  122.59   14.20
   1  -4  -4  114.49   13.40
   1  -4  -4  128.79   13.10
   1  -4  -4  138.49   12.50
   1  -4  -4  116.99   12.20
  -1   4   4  114.89   12.30
  -1   4   4  144.59   12.30
  -1   4   4  131.79   14.60
   0  -4  -4   -5.20    3.10
   0  -4  -4    4.80    2.20
   0  -4  -4    1.50    4.50
   0  -4  -4   -2.80    3.60
   0  -4  -4    1.10    4.50
   0   4   4    3.90    3.80
   0   4   4   -0.10    2.50
   0   4   4   -2.70    3.40
   0   4   4    2.20    4.60
  -1  -4  -4   12.10    4.70
  -1  -4  -4    2.20    3.40
  -1  -4  -4    6.10    4.20
  -1  -4  -4    3.50    3.50
  -1  -4  -4    3.70    3.60
   1   4   4   -7.00    3.40
   1   4   4   11.80    4.80
   1   4   4    1.10    3.60
  -2  -4  -4 1867.81  170.58
  -2  -4  -4 1904.91  171.08
  -2  -4  -4 1938.81  170.68
   2   4   4 1748.33  170.58
   2   4   4 1932.91  171.28
   2   4   4 2085.29  171.18
   2   4   4 2278.07  171.68
   2   4   4 1870.91  170.58
  -3  -4  -4   71.99    9.40
  -3  -4  -4   75.59    9.00
  -3  -4  -4   68.09    8.90
  -3  -4  -4   70.79    7.50
   3   4   4   61.79    7.50
   3   4   4   64.69    9.50
   3   4   4   76.59    9.50
   3   4   4   67.39    7.50
  -4  -4  -4    8.40    4.70
  -4  -4  -4   -0.20    3.30
  -4  -4  -4    9.00    6.20
  -4  -4  -4   14.80    4.50
  -4  -4  -4    8.10    3.60
   4   4   4   16.20    5.80
   4   4   4   12.10    4.10
   4   4   4    2.30    3.10
   4   4   4    5.50    3.30
   4   4   4   16.40    4.40
  -5  -4  -4    5.20    4.60
  -5  -4  -4    2.60    3.40
  -5  -4  -4   15.50    8.50
  -5  -4  -4    6.30    6.60
   5   4   4    7.40    5.30
   5   4   4    7.70    4.10
  -6  -4  -4  208.88   17.40
  -6  -4  -4  186.78   21.10
  -6  -4  -4  194.38   17.20
   6   4   4  157.38   19.70
  -7  -4  -4  114.29   15.80
  -7  -4  -4  116.39   17.40
  -7  -4  -4  139.69   12.80
  -7  -4  -4  132.99   12.80
  -7  -4  -4  119.39   15.80
  -7  -4  -4  163.68   14.60
  -7  -4  -4  135.99   18.50
   7   4   4  165.28   13.50
   7   4   4  161.38   14.30
   7   4   4  150.08   16.00
  -8  -4  -4    5.20    7.40
  -8  -4  -4   23.80   12.00
   8   4   4   15.60   11.50
   8   4   4   13.20    9.50
   4  -5  -4   -5.70    6.00
   4  -5  -4   20.80   12.10
   4  -5  -4    1.20    8.40
   4  -5  -4    7.00    2.60
  -4   5   4    6.90    6.20
  -4   5   4   -2.10    5.50
  -4   5   4   20.60    8.30
  -4   5   4  -11.10    9.00
   3  -5  -4   47.60   10.90
   3  -5  -4   33.90    6.10
   3  -5  -4   29.20    6.80
   3  -5  -4   30.10    9.30
   3  -5  -4   54.69   11.40
  -3   5   4   43.20    9.10
  -3   5   4   44.00    7.30
  -3   5   4   51.19   14.20
  -3   5   4   34.80    6.80
   2  -5  -4   44.80   10.90
   2  -5  -4   52.69    7.60
   2  -5  -4   48.60   10.90
   2  -5  -4   67.69   10.30
   2  -5  -4   44.80    8.00
  -2   5   4   56.29    7.50
  -2   5   4   45.30   12.60
  -2   5   4   61.89    7.40
  -2   5   4   53.09   11.20
   1  -5  -4   31.20    7.70
   1  -5  -4   31.70    7.30
   1  -5  -4   34.80    7.40
   1  -5  -4   20.90    4.90
   1  -5  -4   47.90    6.60
  -1   5   4   44.70    6.30
  -1   5   4   27.40    8.00
  -1   5   4   37.90    6.20
  -1   5   4   19.10    7.50
   0  -5  -4   29.40    5.80
   0  -5  -4   19.00    4.40
   0  -5  -4   15.90    6.10
   0  -5  -4   20.30    3.20
   0  -5  -4   23.70    6.00
   0   5   4   25.70    4.90
   0   5   4   41.10    9.30
   0   5   4   21.60    4.60
   0   5   4   16.10    6.60
  -1  -5  -4   14.10    5.10
  -1  -5  -4   17.60    4.70
  -1  -5  -4   17.40    5.90
  -1  -5  -4   12.70    4.50
  -1  -5  -4   13.60    4.30
   1   5   4   18.40    5.80
   1   5   4   19.50    6.20
   1   5   4    6.40    6.40
   1   5   4   11.10    3.60
  -2  -5  -4    8.60    5.60
  -2  -5  -4    1.70    5.00
  -2  -5  -4    3.00    3.80
  -2  -5  -4    7.90    3.90
   2   5   4    9.60    5.30
   2   5   4   14.50    5.60
   2   5   4    7.70    3.90
   2   5   4   10.80    4.20
  -3  -5  -4    2.30    5.50
  -3  -5  -4   -0.30    3.80
  -3  -5  -4    0.20    3.60
  -3  -5  -4   -1.20    2.60
  -3  -5  -4    3.90    5.20
   3   5   4    0.30    3.90
   3   5   4   -0.90    3.60
   3   5   4    2.50    4.60
   3   5   4    4.80    7.20
  -4  -5  -4   -7.50    4.20
  -4  -5  -4    4.00    2.10
  -4  -5  -4    6.60    5.30
  -4  -5  -4   -0.10    3.60
  -4  -5  -4    5.80    6.50
   4   5   4   -1.10    7.60
   4   5   4    0.90    3.60
   4   5   4    4.90    4.70
   4   5   4   -5.70    4.00
  -5  -5  -4    2.80    3.90
  -5  -5  -4    1.70    4.40
  -5  -5  -4   -0.80    1.60
  -5  -5  -4   -3.00    5.40
  -5  -5  -4   -0.10    5.10
  -5  -5  -4   -6.30    5.70
   5   5   4   -2.30    3.60
   5   5   4    2.30    3.90
   5   5   4   -1.60    6.10
   5   5   4   -4.40    5.60
  -6  -5  -4  502.25   40.50
  -6  -5  -4  469.35   42.30
  -6  -5  -4  431.76   41.40
  -6  -5  -4  412.66   40.10
   6   5   4  486.25   40.60
   6   5   4  429.56   41.40
   6   5   4  380.66   42.30
   6   5   4  458.65   41.40
   6   5   4  527.65   40.70
  -7  -5  -4   26.90    5.50
  -7  -5  -4   24.10    7.80
  -7  -5  -4   14.90    5.70
  -7  -5  -4   20.00    4.30
   7   5   4   35.30    7.60
   7   5   4   49.40   12.60
   7   5   4   28.10    9.00
   7   5   4   31.00    6.20
   3  -6  -4   14.80   13.00
   3  -6  -4   15.40    6.70
   3  -6  -4   22.10   11.60
  -3   6   4    5.70    5.20
  -3   6   4   15.90    6.60
  -3   6   4   20.00    9.60
   2  -6  -4    8.50    7.00
   2  -6  -4   27.80    9.80
   2  -6  -4   -3.80   10.90
   2  -6  -4    3.60    3.50
   2  -6  -4    2.20    3.40
  -2   6   4   11.70    5.40
  -2   6   4    1.00    8.50
  -2   6   4    5.90    8.40
  -2   6   4   14.20    5.90
   1  -6  -4   22.50    8.50
   1  -6  -4    5.60    4.40
  -1   6   4   15.60    4.80
  -1   6   4    1.70    5.70
  -1   6   4    7.60    5.10
   0  -6  -4    0.50    4.70
   0  -6  -4    0.70    6.30
   0  -6  -4   -1.80    4.00
   0   6   4   -6.60    4.80
   0   6   4    0.10    3.60
  -1  -6  -4    1.20    4.80
  -1  -6  -4    7.10    4.60
  -1  -6  -4    4.20    7.00
  -1  -6  -4    7.60    5.70
   1   6   4    4.20    6.80
   1   6   4    5.10    6.70
   1   6   4    4.40    5.40
   1   6   4   -1.50    5.00
  -2  -6  -4 1363.56  112.89
  -2  -6  -4 1483.75  112.69
  -2  -6  -4 1101.69  112.39
  -2  -6  -4 1369.86  112.99
   2   6   4 1100.29  112.39
  -3  -6  -4   29.10    8.30
  -3  -6  -4   59.09    7.60
  -3  -6  -4   43.60    5.60
  -3  -6  -4   56.19    7.50
   3   6   4   42.50   11.10
   3   6   4   49.70    7.80
   3   6   4   43.80   10.90
   3   6   4   67.79    7.80
  -4  -6  -4    5.20    4.90
  -4  -6  -4    9.10    5.20
  -4  -6  -4   22.60    7.90
  -4  -6  -4    7.10    6.70
   4   6   4    8.30    6.40
   4   6   4   15.60    8.80
   4   6   4    3.50    5.10
  -5  -6  -4    8.50    4.40
  -5  -6  -4   -3.90    5.30
  -5  -6  -4   -8.50    6.40
  -5  -6  -4   19.80    8.60
  -5  -6  -4    5.00    4.60
   5   6   4    3.10    8.60
   5   6   4    3.80    6.40
   5   6   4   -1.00    5.10
   5   6   4   10.60    4.90
  -6  -6  -4   44.60   11.90
  -6  -6  -4   70.49    8.60
  -6  -6  -4   74.59   12.20
  -6  -6  -4   60.29    8.80
   6   6   4   62.89   13.30
   6   6   4   80.69    9.20
   6   6   4   74.29    9.20
   6   6   4   43.00    9.60
  -7  -6  -4  140.29   17.90
  -7  -6  -4  116.89   13.40
  -7  -6  -4  113.29   14.80
   7   6   4  147.49   13.90
   7   6   4  162.98   19.30
   7   6   4  121.69   16.50
   7   6   4  140.69   14.10
   7   6   4  120.79   15.00
   2  -7  -4  -10.90   13.10
   2  -7  -4   11.50    7.30
   2  -7  -4   24.20   11.40
  -2   7   4   16.40    7.20
  -2   7   4   17.90    6.30
   1  -7  -4    0.70    6.40
   1  -7  -4   -7.00    9.70
   1  -7  -4    0.80    8.90
  -1   7   4   -5.50    5.80
  -1   7   4    5.70    5.60
   0  -7  -4    4.60    4.70
   0  -7  -4   -1.10    5.40
   0  -7  -4   10.70    5.20
   0   7   4   16.50    5.90
   0   7   4    9.90    5.90
   0   7   4    2.70    6.20
   0   7   4   -9.10    8.20
  -1  -7  -4   10.60    6.80
  -1  -7  -4   15.40    5.40
  -1  -7  -4   11.20    5.20
  -1  -7  -4   11.00    6.00
   1   7   4    3.80    5.70
   1   7   4    6.50    7.40
   1   7   4    5.10    5.90
  -2  -7  -4   15.30    5.60
  -2  -7  -4   22.70    6.60
  -2  -7  -4   16.20    5.90
  -2  -7  -4   16.70    5.50
   2   7   4   16.50    5.90
   2   7   4   -2.70    7.60
   2   7   4    9.60    4.70
   2   7   4    9.50    9.10
  -3  -7  -4    9.90    7.40
  -3  -7  -4   14.50    5.60
  -3  -7  -4   14.80    5.50
  -3  -7  -4   -9.30    6.80
   3   7   4    3.60    8.30
   3   7   4    5.30    5.40
   3   7   4   -6.50    6.50
   3   7   4    4.20    4.40
  -4  -7  -4   -7.70    5.30
  -4  -7  -4   -3.80    5.40
  -4  -7  -4   10.00    7.60
  -4  -7  -4   -5.80    4.90
   4   7   4    7.60    9.30
   4   7   4   -5.30    6.00
   4   7   4   -9.60    5.90
  -5  -7  -4   -5.30    5.50
  -5  -7  -4   -4.00    6.10
  -5  -7  -4    0.00    5.60
   5   7   4   15.70   10.30
   5   7   4   -1.00    4.10
   5   7   4   -4.70    5.60
  -6  -7  -4  130.99   16.30
  -6  -7  -4  124.79   20.00
  -6  -7  -4  106.49   12.60
  -6  -7  -4  140.59   13.10
   6   7   4  127.79   17.40
   6   7   4   81.19   13.50
   6   7   4  105.49   12.80
   0  -8  -4   -1.50    7.60
   0  -8  -4    5.80    9.30
   0  -8  -4    3.60    4.90
   0   8   4    3.10    6.90
   0   8   4  -16.00    8.90
   0   8   4  -11.80    6.70
  -1  -8  -4   13.80    7.70
  -1  -8  -4    9.20    6.00
  -1  -8  -4    5.20    6.70
   1   8   4   -1.50    8.30
   1   8   4    4.40    6.80
   1   8   4    5.90    6.80
  -2  -8  -4  256.57   23.90
  -2  -8  -4  224.08   24.30
  -2  -8  -4  261.47   24.10
  -2  -8  -4  212.18   23.80
   2   8   4  230.48   27.10
   2   8   4  289.37   24.50
   2   8   4  249.38   23.90
  -3  -8  -4  110.99   12.40
  -3  -8  -4   81.39   11.90
  -3  -8  -4   98.19   13.30
   3   8   4   92.59   14.40
   3   8   4   79.19   14.80
   3   8   4  100.89   12.20
  -4  -8  -4   -5.60    6.10
  -4  -8  -4    9.60    6.60
  -4  -8  -4   -3.00    6.20
   4   8   4   -6.00   10.50
   4   8   4   -9.10    6.70
  -5  -8  -4    0.30    6.50
  -5  -8  -4   12.20    7.20
  -5  -8  -4    5.50    6.10
   5   8   4   27.00   12.10
   5   8   4   12.60    7.50
   4   8  -5    1.50    8.90
   4   8  -5   24.10   11.90
  -4  -8   5   -2.80    6.80
  -4  -8   5    3.70    7.20
  -4  -8   5   -2.80    6.90
   3   8  -5   -8.20    7.60
   3   8  -5    1.70   10.60
   3   8  -5    0.50    8.10
  -3  -8   5    4.20    6.50
  -3  -8   5   -8.00    6.80
  -3  -8   5   -0.40    6.90
   2   8  -5    8.30    6.60
   2   8  -5    5.70    8.00
   2   8  -5   -6.80   12.60
  -2  -8   5    3.70    7.20
  -2  -8   5   -5.00    6.10
  -2  -8   5    3.00    6.70
   1   8  -5   35.50    8.70
   1   8  -5   41.90    9.90
   1   8  -5   32.80    8.40
  -1  -8   5   15.60   13.30
  -1  -8   5   25.30    7.60
   0   8  -5   10.50    9.80
   0   8  -5   10.90    7.80
   0   8  -5    2.40    7.80
   0  -8   5    6.70    7.80
   0  -8   5    3.70   13.00
   5   7  -5   39.00    8.50
  -5  -7   5   23.00    6.70
  -5  -7   5   17.00    8.00
  -5  -7   5   39.70    7.80
   4   7  -5  -11.60    7.20
   4   7  -5   -6.90    6.80
   4   7  -5   14.40   11.50
   4   7  -5    2.30    4.30
  -4  -7   5   -1.60    6.30
  -4  -7   5   -9.30    5.50
  -4  -7   5   -5.20    6.00
   3   7  -5   16.60    3.90
   3   7  -5    8.90    6.60
   3   7  -5   29.40    9.00
   3   7  -5    8.90    6.90
  -3  -7   5   12.70    5.80
  -3  -7   5   13.80    5.00
  -3  -7   5   18.40    6.60
   2   7  -5   10.20    5.70
   2   7  -5    6.60    6.80
   2   7  -5   13.70    8.10
  -2  -7   5    3.90    5.70
  -2  -7   5    7.40    5.70
   1   7  -5   49.90    7.80
   1   7  -5   55.49    9.80
   1   7  -5   67.19    9.60
  -1  -7   5   62.09    9.00
  -1  -7   5   44.70    9.50
  -1  -7   5   64.69    8.90
  -1  -7   5   34.20   12.00
   0   7  -5    5.60    6.50
   0   7  -5    6.90    6.30
   0   7  -5   13.40    8.10
   0   7  -5   17.10    6.10
   0  -7   5   10.10    6.10
   0  -7   5    5.40    5.30
   0  -7   5    1.60   10.80
  -1   7  -5   -3.00    6.50
  -1   7  -5   -3.30    6.60
  -1   7  -5    3.40    9.20
   1  -7   5   -6.10    8.60
   1  -7   5  -13.90    7.10
   1  -7   5   -6.50    6.50
  -2   7  -5    6.30    6.80
  -2   7  -5   15.00    4.60
  -2   7  -5   17.70   10.00
  -2   7  -5    1.80    5.80
   2  -7   5   -4.70    7.50
   2  -7   5    8.20   12.00
   2  -7   5   -7.00    7.90
   6   6  -5    0.40    7.30
   6   6  -5   -4.60    9.00
  -6  -6   5    2.00    5.90
  -6  -6   5   -6.10    5.10
  -6  -6   5    6.70    6.10
   5   6  -5  120.49   14.00
   5   6  -5  125.59   13.60
  -5  -6   5  111.39   15.80
  -5  -6   5  130.49   14.40
  -5  -6   5  114.89   12.70
   4   6  -5    4.50    2.90
   4   6  -5    2.00    3.30
   4   6  -5    0.60    6.10
  -4  -6   5    0.80    5.70
  -4  -6   5    1.80    5.60
  -4  -6   5   -2.10    4.80
  -4  -6   5   -9.50    7.50
   3   6  -5    5.50    3.60
   3   6  -5    4.80    7.80
   3   6  -5   -0.90    5.60
   3   6  -5    0.60    4.00
   3   6  -5   -1.60    5.90
  -3  -6   5   -5.90    3.70
  -3  -6   5   -5.40    4.10
  -3  -6   5    1.00    5.10
  -3  -6   5   -5.20    4.80
   2   6  -5    2.40    4.80
   2   6  -5   -2.40    4.30
   2   6  -5    5.50    7.10
  -2  -6   5    4.40    4.70
  -2  -6   5    2.10    5.10
  -2  -6   5    0.30    4.80
  -2  -6   5   -2.40    5.60
   1   6  -5    4.60    6.10
   1   6  -5   13.90    5.70
   1   6  -5    7.60    6.00
   1   6  -5    5.50    6.10
  -1  -6   5   -0.30   12.90
  -1  -6   5   -2.50    5.40
  -1  -6   5   -0.40    4.20
  -1  -6   5    8.20    5.10
  -1  -6   5   12.20    4.90
   0   6  -5   19.50   11.70
   0   6  -5   19.80    5.80
   0   6  -5   17.30    5.80
   0  -6   5    7.30    5.90
   0  -6   5   23.00    9.10
   0  -6   5   11.40    4.50
   0  -6   5   13.80    4.70
   0  -6   5    7.80    3.90
  -1   6  -5   76.09    7.80
  -1   6  -5   64.09   11.50
  -1   6  -5   67.69    9.20
  -1   6  -5   54.09    9.00
   1  -6   5   51.69   10.80
   1  -6   5   62.99   11.90
   1  -6   5   58.99    9.20
  -2   6  -5   41.20    7.00
  -2   6  -5   21.60    6.30
  -2   6  -5   30.60    4.70
   2  -6   5   26.60    6.40
   2  -6   5   32.00   11.20
   2  -6   5   18.80    8.10
   2  -6   5   13.50    7.10
  -3   6  -5   27.10   10.50
  -3   6  -5   17.10    6.50
  -3   6  -5   12.70    5.70
   3  -6   5   32.20   12.30
   3  -6   5   28.00    8.30
   3  -6   5    9.40    6.00
   3  -6   5   13.20    5.00
   6   5  -5   -3.50    5.90
   6   5  -5    3.00    5.20
   6   5  -5    5.60    6.30
   6   5  -5    4.50    6.00
  -6  -5   5    1.50    7.20
  -6  -5   5    5.60    5.10
  -6  -5   5    3.00    4.50
  -6  -5   5   10.90    9.20
   5   5  -5    4.90    4.30
   5   5  -5    0.20    5.90
  -5  -5   5   14.20    7.10
  -5  -5   5   -3.30    6.10
  -5  -5   5    3.20    5.10
  -5  -5   5    2.50    4.20
   4   5  -5   -5.70    5.40
   4   5  -5   -7.70    4.80
   4   5  -5   -2.40    5.70
  -4  -5   5   -1.60    5.00
  -4  -5   5   -4.50    4.20
  -4  -5   5   -2.80    4.50
   3   5  -5    5.80    5.10
   3   5  -5    6.80    3.40
   3   5  -5   16.70    5.50
   3   5  -5    5.80    7.60
   3   5  -5    6.90    5.40
  -3  -5   5   11.60    7.00
  -3  -5   5    8.20    4.30
  -3  -5   5    8.80    5.00
  -3  -5   5   11.70    5.00
   2   5  -5   75.59   10.10
   2   5  -5  101.19   12.00
   2   5  -5  115.99   11.10
   2   5  -5   94.99   13.30
   2   5  -5   93.69   11.10
  -2  -5   5  107.19   11.40
  -2  -5   5   92.59    9.90
  -2  -5   5  113.49   11.90
  -2  -5   5  100.69   12.10
   1   5  -5  362.76   32.10
   1   5  -5  311.87   31.70
   1   5  -5  343.67   31.90
  -1  -5   5  385.76   32.20
  -1  -5   5  364.06   31.40
  -1  -5   5  354.56   32.50
  -1  -5   5  326.07   32.20
   0   5  -5   -0.40    4.80
   0   5  -5   -6.60    5.60
   0   5  -5   -0.80    5.00
   0   5  -5   -2.50    3.80
   0  -5   5    8.60    7.90
   0  -5   5    0.00    4.60
   0  -5   5    0.50    3.70
   0  -5   5   -2.70    3.10
   0  -5   5   -2.70    4.90
  -1   5  -5   -1.70    3.10
  -1   5  -5   -0.30    6.50
  -1   5  -5  -14.10    5.70
   1  -5   5    0.30    5.50
   1  -5   5    0.60    2.50
   1  -5   5   -0.30    9.50
   1  -5   5   -7.40    3.60
  -2   5  -5    3.40    4.30
  -2   5  -5    1.90    4.80
  -2   5  -5    5.40    3.00
  -2   5  -5   15.80    7.80
   2  -5   5    9.00    9.30
   2  -5   5    4.70    7.70
   2  -5   5    6.70    7.00
   2  -5   5    4.50    4.90
   2  -5   5    6.50    4.00
  -3   5  -5    3.30    3.80
  -3   5  -5   -2.70    4.90
  -3   5  -5   -2.40    4.40
   3  -5   5   -5.40    5.00
   3  -5   5   -6.90    4.60
   3  -5   5    3.80    9.90
   3  -5   5    4.40    6.50
  -4   5  -5   11.10   10.20
  -4   5  -5    2.60    4.90
  -4   5  -5    5.70    7.60
  -4   5  -5    1.60    4.40
   4  -5   5   -3.30    5.80
   4  -5   5    8.70   10.70
   4  -5   5    1.40    4.20
   4  -5   5    0.50    5.00
   4  -5   5    5.90    6.60
   7   4  -5    0.40    5.60
   7   4  -5    1.20    8.40
   7   4  -5    2.30    9.30
  -7  -4   5   -5.20    7.40
  -7  -4   5   13.80    8.40
  -7  -4   5    0.20    4.40
   6   4  -5    9.00    7.60
   6   4  -5   17.80    7.10
   6   4  -5   14.20    5.30
  -6  -4   5    6.40    4.20
  -6  -4   5    4.30    7.10
  -6  -4   5   21.90    8.70
  -6  -4   5   11.30    4.50
   5   4  -5   61.39    8.10
   5   4  -5   49.99    7.20
   5   4  -5   53.39    8.20
   5   4  -5   40.80    8.70
  -5  -4   5   53.59    8.30
  -5  -4   5   50.99    6.60
  -5  -4   5   53.49    7.10
  -5  -4   5   53.79   10.90
   4   4  -5    2.40    4.40
   4   4  -5   -9.10    4.90
  -4  -4   5    3.00    5.70
  -4  -4   5   -5.30    6.40
   3   4  -5    4.90    4.00
   3   4  -5   -1.30    4.20
   3   4  -5    1.50    2.10
   3   4  -5   -0.40    4.50
  -3  -4   5    0.40    3.40
  -3  -4   5    2.80    5.40
  -3  -4   5   -3.70    3.50
  -3  -4   5    2.80    3.50
   2   4  -5    2.60    3.80
   2   4  -5    7.10    5.00
   2   4  -5    8.40    4.20
   2   4  -5    4.80    3.00
  -2  -4   5    0.40    4.80
  -2  -4   5    4.00    3.60
  -2  -4   5    2.80    3.70
  -2  -4   5    0.90    2.60
   1   4  -5    9.20    4.70
   1   4  -5    4.50    3.50
   1   4  -5   10.90    4.30
   1   4  -5    8.70    4.20
   1   4  -5    4.10    3.90
  -1  -4   5   11.20    3.20
  -1  -4   5    9.80    4.10
  -1  -4   5   10.60    3.60
  -1  -4   5   11.60    3.60
  -1  -4   5   14.50    6.00
   0   4  -5  253.27   22.30
   0   4  -5  258.07   22.20
   0   4  -5  211.18   21.70
   0  -4   5  249.28   22.20
   0  -4   5  244.78   23.10
   0  -4   5  249.18   22.70
   0  -4   5  251.07   22.00
   0  -4   5  219.08   21.80
  -1   4  -5    3.10    3.80
  -1   4  -5   -0.30    5.50
  -1   4  -5    4.50    4.00
  -1   4  -5    0.30    2.30
   1  -4   5    6.80    4.00
   1  -4   5    2.90    7.20
   1  -4   5    2.20    3.90
   1  -4   5    2.90    3.10
   1  -4   5    4.40    2.50
  -2   4  -5  187.48   18.00
  -2   4  -5  184.78   19.30
  -2   4  -5  201.68   17.90
   2  -4   5  199.88   17.80
   2  -4   5  211.78   18.80
   2  -4   5  197.08   17.80
   2  -4   5  160.88   18.60
  -3   4  -5   10.10    4.30
  -3   4  -5    7.40    3.50
  -3   4  -5    2.50    3.70
  -3   4  -5    8.40    7.50
  -3   4  -5    2.80    5.10
   3  -4   5    6.80    6.40
   3  -4   5   -7.60    8.80
   3  -4   5    4.60    3.10
   3  -4   5    8.20    4.50
   3  -4   5    5.50    3.90
  -4   4  -5   -5.20    5.50
  -4   4  -5    6.80    5.40
  -4   4  -5   -4.70    3.70
   4  -4   5    4.60    9.80
   4  -4   5    1.70    4.80
   4  -4   5   -3.40    4.00
   4  -4   5   -6.20    3.40
   4  -4   5    4.10    6.50
  -5   4  -5   15.10    4.40
  -5   4  -5   13.90    7.90
  -5   4  -5   14.50    4.00
   5  -4   5   29.60    8.00
   5  -4   5   15.70    5.60
   5  -4   5   13.10    4.70
   5  -4   5   20.80   12.50
   5  -4   5   19.10    6.10
   7   3  -5   18.30   10.10
   7   3  -5    1.90    7.90
   7   3  -5   -0.10    5.40
  -7  -3   5    6.80    6.50
  -7  -3   5    2.10    3.60
  -7  -3   5    6.40    8.20
  -7  -3   5  -11.90    7.60
   6   3  -5   13.50    7.20
   6   3  -5   10.80    5.00
   6   3  -5    6.10    4.50
   6   3  -5   20.20    7.90
  -6  -3   5    3.20    6.50
  -6  -3   5   10.90    3.50
  -6  -3   5    7.50    3.90
  -6  -3   5    7.90    5.50
   5   3  -5   29.50    5.80
   5   3  -5   22.30    7.30
   5   3  -5   27.60    5.80
   5   3  -5   23.40    7.00
   5   3  -5   25.80    6.90
  -5  -3   5   34.20    5.80
  -5  -3   5   31.80    8.30
  -5  -3   5   28.70    4.80
  -5  -3   5   18.20    4.70
   4   3  -5   16.60    5.50
   4   3  -5   19.60    4.30
   4   3  -5   33.90    6.40
   4   3  -5   29.50    5.80
   4   3  -5   21.50    4.90
  -4  -3   5   23.60    7.00
  -4  -3   5   29.60    7.90
  -4  -3   5   21.30    4.20
  -4  -3   5   22.30    4.40
   3   3  -5    4.50    3.70
   3   3  -5    3.30    3.40
   3   3  -5   -0.50    5.30
  -3  -3   5    2.70    4.30
  -3  -3   5    3.80    3.20
  -3  -3   5    0.90    3.20
  -3  -3   5   -4.90    4.70
   2   3  -5  119.09   13.10
   2   3  -5  140.09   13.00
   2   3  -5  162.08   13.20
  -2  -3   5  149.29   14.20
  -2  -3   5  147.29   12.90
  -2  -3   5  144.49   13.90
  -2  -3   5  113.99   12.70
   1   3  -5 1049.79   97.99
   1   3  -5 1014.30   97.79
   1   3  -5 1216.98   97.59
  -1  -3   5 1094.09   97.99
  -1  -3   5 1164.98   97.89
  -1  -3   5 1121.39   97.69
  -1  -3   5 1134.29   97.49
  -1  -3   5 1118.49   97.49
   0   3  -5  149.59   15.20
   0   3  -5  173.68   14.90
   0   3  -5  132.29   14.20
   0  -3   5  174.88   15.30
   0  -3   5  142.69   14.70
   0  -3   5  172.98   14.50
   0  -3   5  144.29   14.50
  -1   3  -5   16.40    3.80
  -1   3  -5   26.50    4.30
  -1   3  -5    7.70    4.20
  -1   3  -5   14.30    3.50
   1  -3   5   17.20    3.50
   1  -3   5   14.50    6.10
   1  -3   5   14.50    3.10
   1  -3   5   18.90    4.00
   1  -3   5   24.10    5.00
  -2   3  -5  182.88   18.60
  -2   3  -5  174.38   18.60
  -2   3  -5  173.28   16.90
  -2   3  -5  191.48   17.30
  -2   3  -5  188.78   16.90
   2  -3   5  207.68   18.30
   2  -3   5  174.28   16.70
   2  -3   5  153.28   18.40
   2  -3   5  201.18   17.00
  -3   3  -5   59.69   10.60
  -3   3  -5   75.69   10.20
  -3   3  -5   74.59    9.00
  -3   3  -5   67.39   11.00
  -3   3  -5   70.59    7.70
   3  -3   5   83.69    7.90
   3  -3   5   77.09    7.80
   3  -3   5   66.29    9.80
   3  -3   5   77.79    8.70
  -4   3  -5   18.50    6.70
  -4   3  -5   21.60    5.80
  -4   3  -5   17.10    3.90
  -4   3  -5   14.40    5.20
  -4   3  -5   27.80    4.20
  -4   3  -5   18.30    9.70
   4  -3   5   29.50    5.10
   4  -3   5   25.70    4.20
   4  -3   5   25.60    6.20
   4  -3   5   24.80   10.10
   4  -3   5   23.40    7.30
  -5   3  -5   15.40    6.60
  -5   3  -5    5.60    6.90
  -5   3  -5   -6.20    5.40
   5  -3   5    5.20    6.50
   5  -3   5    8.60    4.70
   5  -3   5    6.40   10.70
  -6   3  -5   11.60    8.40
   6  -3   5    8.50   12.10
   6  -3   5    2.60    3.10
   6  -3   5    0.10    3.10
   7   2  -5    6.00    8.50
   7   2  -5    7.20    4.80
   7   2  -5   18.70   10.70
  -7  -2   5    9.90    8.80
  -7  -2   5   -1.10    8.10
   6   2  -5    4.90    4.20
   6   2  -5   14.50    8.60
   6   2  -5    0.80    4.00
   6   2  -5   -0.50    7.20
  -6  -2   5   -1.40    2.70
  -6  -2   5   -0.70    6.90
  -6  -2   5   -2.10    5.30
  -6  -2   5   -3.80    4.70
  -6  -2   5    7.00    6.70
   5   2  -5    1.70    3.70
   5   2  -5   -1.50    4.80
   5   2  -5   -3.90    3.60
   5   2  -5    3.10    6.50
   5   2  -5    6.00    5.80
  -5  -2   5   -0.80    5.60
  -5  -2   5    3.90    3.30
  -5  -2   5   -0.30    5.90
  -5  -2   5    2.70    2.70
  -5  -2   5   -4.20    4.30
   4   2  -5    5.20    3.60
   4   2  -5    2.80    5.40
   4   2  -5    2.90    4.60
   4   2  -5    3.50    3.10
   4   2  -5    0.60    4.50
  -4  -2   5    0.70    4.70
  -4  -2   5   -0.20    2.80
  -4  -2   5    0.50    2.90
  -4  -2   5   -0.40    3.20
  -4  -2   5   -1.80    5.80
  -4  -2   5    4.20    4.80
   3   2  -5   99.39   10.50
   3   2  -5   93.79    9.70
  -3  -2   5  114.79    9.90
  -3  -2   5  104.69    9.60
  -3  -2   5   92.39   11.20
   2   2  -5  117.19   11.00
   2   2  -5   84.39    9.70
   2   2  -5   96.49    9.70
   2   2  -5  116.79    9.60
  -2  -2   5   94.19    9.60
  -2  -2   5   96.79   11.00
  -2  -2   5   99.69   10.50
  -2  -2   5   98.09    9.50
   1   2  -5  109.29   10.60
   1   2  -5   97.19   10.60
   1   2  -5  124.79   11.10
  -1  -2   5   91.69   10.30
  -1  -2   5  125.19   10.90
  -1  -2   5  112.39   10.50
  -1  -2   5  121.19   11.50
  -1  -2   5  113.49   11.00
   0   2  -5  874.41   76.69
   0   2  -5  881.91   77.19
   0   2  -5  980.50   76.79
   0  -2   5  873.11   76.69
   0  -2   5  770.32   76.59
   0  -2   5  789.12   76.89
   0  -2   5  914.31   76.59
   0  -2   5  924.81   77.09
  -1   2  -5  289.77   27.20
  -1   2  -5  307.37   28.00
  -1   2  -5  315.37   27.90
  -1   2  -5  268.97   26.90
  -1   2  -5  332.37   27.00
   1  -2   5  303.97   27.10
   1  -2   5  263.67   26.90
   1  -2   5  348.47   28.00
   1  -2   5  309.27   27.00
  -2   2  -5  297.17   31.80
  -2   2  -5  344.37   31.00
  -2   2  -5  314.57   31.00
  -2   2  -5  356.96   31.10
  -2   2  -5  333.17   32.30
   2  -2   5  369.26   32.30
   2  -2   5  354.66   31.10
   2  -2   5  369.86   31.00
   2  -2   5  408.16   31.10
   2  -2   5  357.86   31.90
  -3   2  -5  115.19   10.90
  -3   2  -5  104.09   10.30
  -3   2  -5  118.59   10.50
  -3   2  -5  108.69   12.40
  -3   2  -5   95.59   12.70
  -3   2  -5  107.89   12.60
  -3   2  -5   96.29   10.60
   3  -2   5  127.59   10.40
   3  -2   5   89.59   11.50
   3  -2   5  116.29   10.70
   3  -2   5  115.19   10.20
  -4   2  -5    3.50    2.60
  -4   2  -5   -0.30    2.10
  -4   2  -5    5.40    7.00
  -4   2  -5    5.90    3.80
  -4   2  -5   -0.40    2.30
  -4   2  -5    4.40    2.20
  -4   2  -5    3.80    8.30
  -4   2  -5   -2.00    5.00
  -4   2  -5    0.40    4.90
   4  -2   5    3.60    2.30
   4  -2   5   -2.30    6.00
   4  -2   5    0.10    2.50
   4  -2   5    5.60    8.40
   4  -2   5    0.90    3.00
  -5   2  -5   36.60   10.20
  -5   2  -5   30.40    8.50
  -5   2  -5   38.60    8.50
  -5   2  -5   39.30    4.00
  -5   2  -5   35.30    3.80
  -5   2  -5   36.30   11.10
   5  -2   5   40.70    4.70
   5  -2   5   36.60    7.70
   5  -2   5   35.60   10.40
  -6   2  -5   -1.00    7.10
  -6   2  -5   19.90    8.20
  -6   2  -5  -10.40   11.80
  -6   2  -5    6.20    5.90
  -6   2  -5   21.90    7.60
   6  -2   5    1.50   11.50
  -7   2  -5   69.99   12.90
   7   1  -5   20.90   11.80
   7   1  -5   -4.30    4.10
   7   1  -5   -6.90    9.10
  -7  -1   5    5.00    3.40
  -7  -1   5   -0.50    1.60
  -7  -1   5  -13.70    7.60
  -7  -1   5   -2.30    8.10
  -7  -1   5   -0.90    1.50
  -7  -1   5   14.20    8.30
   6   1  -5   16.40    6.40
   6   1  -5   16.60    4.10
   6   1  -5   15.00    7.50
   6   1  -5   10.30    4.80
  -6  -1   5   10.50    3.20
  -6  -1   5   11.50    6.60
  -6  -1   5   15.30    3.20
  -6  -1   5    6.20    3.80
  -6  -1   5   17.40    7.40
   5   1  -5   85.99    8.40
   5   1  -5   92.09   11.60
   5   1  -5   96.39   11.30
   5   1  -5   79.39    8.40
   5   1  -5   64.89   12.00
  -5  -1   5   69.79   10.20
  -5  -1   5   77.29    7.90
  -5  -1   5   92.39    8.20
  -5  -1   5   72.79   11.60
  -5  -1   5   72.49    9.00
  -5  -1   5   77.19    9.10
   4   1  -5    9.60    4.90
   4   1  -5    6.60    3.10
   4   1  -5   13.40    6.50
   4   1  -5   10.10    3.20
   4   1  -5    8.20    5.10
  -4  -1   5   10.50    6.30
  -4  -1   5    2.90    4.70
  -4  -1   5    6.40    5.30
  -4  -1   5   11.80    3.00
  -4  -1   5    9.00    2.60
  -4  -1   5   13.10    3.80
  -4  -1   5    7.70    2.80
   3   1  -5    9.80    4.00
   3   1  -5    5.80    3.10
   3   1  -5   14.70    5.00
   3   1  -5   10.40    2.90
   3   1  -5    9.00    3.90
  -3  -1   5   15.10    3.50
  -3  -1   5    5.20    4.20
  -3  -1   5   12.00    2.10
  -3  -1   5   13.60    2.80
  -3  -1   5    8.40    4.20
  -3  -1   5    8.30    2.50
   2   1  -5    5.70    2.60
   2   1  -5   13.40    3.70
   2   1  -5    2.60    3.40
  -2  -1   5    6.00    2.50
  -2  -1   5    3.10    2.80
  -2  -1   5    3.80    3.50
  -2  -1   5    6.50    2.30
  -2  -1   5    5.60    2.00
   1   1  -5  773.72   67.99
   1   1  -5  821.52   67.79
  -1  -1   5  694.43   68.19
  -1  -1   5  741.23   67.69
  -1  -1   5  774.52   67.69
  -1  -1   5  761.82   67.89
  -1  -1   5  846.92   67.59
   0   1  -5  397.46   36.70
   0   1  -5  414.46   37.20
   0   1  -5  427.76   37.20
   0   1  -5  355.26   36.90
   0  -1   5  422.86   36.70
   0  -1   5  475.25   36.80
   0  -1   5  433.96   37.10
  -1   1  -5  315.97   26.90
  -1   1  -5  293.87   27.70
  -1   1  -5  307.17   27.00
  -1   1  -5  265.67   27.50
   1  -1   5  320.57   27.60
   1  -1   5  289.07   26.90
   1  -1   5  341.17   27.00
  -2   1  -5  500.05   49.10
  -2   1  -5  563.14   49.10
  -2   1  -5  638.54   49.60
  -2   1  -5  530.05   50.09
  -2   1  -5  551.34   50.19
   2  -1   5  592.34   49.00
   2  -1   5  581.84   50.09
   2  -1   5  593.14   49.20
   2  -1   5  482.85   49.20
   2  -1   5  552.54   49.10
   2  -1   5  587.74   50.19
  -3   1  -5 1712.73  131.29
  -3   1  -5 1451.75  130.19
  -3   1  -5 1564.84  130.59
  -3   1  -5 1287.47  131.09
  -3   1  -5 1467.55  130.29
  -3   1  -5 1569.84  130.19
  -3   1  -5 1351.96  131.29
   3  -1   5 1686.83  130.19
   3  -1   5 1587.74  130.49
   3  -1   5 1277.77  131.19
   3  -1   5 1447.46  131.09
  -4   1  -5   55.99    7.60
  -4   1  -5   61.09    8.80
  -4   1  -5   57.49    5.40
  -4   1  -5   46.80    9.10
  -4   1  -5   65.49    7.00
  -4   1  -5   50.29    7.80
  -4   1  -5   64.49    9.00
  -4   1  -5   50.29    7.50
   4  -1   5   36.90    9.10
   4  -1   5   55.99    5.40
   4  -1   5   57.69    5.50
   4  -1   5   42.00    7.80
  -5   1  -5   15.20    6.00
  -5   1  -5   28.30    6.50
  -5   1  -5   14.40    8.40
  -5   1  -5   29.80    7.70
  -5   1  -5   20.40    8.80
  -5   1  -5   12.10    6.90
  -5   1  -5   17.10    9.60
   5  -1   5   22.30    2.90
   5  -1   5   19.60    7.30
  -6   1  -5   15.80   11.10
  -6   1  -5   37.10    8.00
  -7   1  -5   -8.30    6.20
  -7   1  -5   -2.30    7.90
  -7   1  -5    5.90   13.20
  -7   1  -5  -12.90   11.10
  -7   1  -5   -3.00    4.80
   6   0  -5    6.60    7.70
   6   0  -5    8.50    6.30
   6   0  -5   22.30    9.70
   6   0  -5    4.00    3.70
  -6   0   5    6.40    2.80
  -6   0   5   -4.30    5.00
  -6   0   5   19.60    9.20
  -6   0   5   15.50    7.40
  -6   0   5   -5.20    6.80
  -6   0   5    2.90    2.60
  -6   0   5    2.50    7.30
   5   0  -5    0.90    8.10
   5   0  -5    3.60    3.30
   5   0  -5    0.00    4.80
   5   0  -5    4.00    3.20
   5   0  -5   -3.40    9.30
  -5   0   5    8.80    6.30
  -5   0   5   -0.40    5.90
  -5   0   5    4.60    3.00
  -5   0   5    0.70    4.60
  -5   0   5    5.30    2.40
  -5   0   5   13.90    7.90
   4   0  -5   12.60    5.50
   4   0  -5   15.20    4.80
   4   0  -5   18.40    3.60
   4   0  -5   15.90    4.20
   4   0  -5   15.10    6.80
  -4   0   5   25.90    6.70
  -4   0   5   16.50    3.20
  -4   0   5   12.30    4.50
  -4   0   5   11.60    5.00
  -4   0   5   21.10    3.60
   3   0  -5  120.59   13.00
   3   0  -5  129.99   12.30
   3   0  -5  116.39   12.90
   3   0  -5  123.59   11.70
   3   0  -5  120.39   11.70
  -3   0   5  123.59   11.50
  -3   0   5  128.49   13.10
  -3   0   5  129.99   11.50
  -3   0   5  127.59   12.40
  -3   0   5  122.69   13.30
   2   0  -5  664.13   65.59
   2   0  -5  761.22   65.59
   2   0  -5  793.02   66.39
   2   0  -5  759.72   65.79
   2   0  -5  679.33   65.49
  -2   0   5  821.72   66.49
  -2   0   5  718.93   65.49
  -2   0   5  721.93   66.19
  -2   0   5  779.72   65.89
  -2   0   5  792.02   65.59
   1   0  -5   19.80    3.00
   1   0  -5   16.80    4.80
   1   0  -5   27.50    3.40
   1   0  -5   32.00    5.20
   1   0  -5   24.10    5.20
   1   0  -5   19.80    3.60
  -1   0   5   20.10    3.40
  -1   0   5   17.90    4.90
  -1   0   5   26.20    5.10
  -1   0   5   19.80    3.30
   0   0  -5  243.58   22.50
   0   0  -5  285.97   22.90
   0   0  -5  281.17   23.10
   0   0   5  272.77   23.00
   0   0   5  210.38   22.30
   0   0   5  228.78   22.30
  -1   0  -5 1233.78  100.69
  -1   0  -5 1143.09  100.09
  -1   0  -5 1147.49  100.09
  -1   0  -5 1174.38  100.59
   1   0   5 1179.48  100.59
   1   0   5 1075.29   99.99
   1   0   5 1137.29  100.09
   1   0   5 1081.59   99.99
  -2   0  -5  324.37   30.80
  -2   0  -5  344.17   30.80
  -2   0  -5  339.47   29.80
  -2   0  -5  339.27   29.80
  -2   0  -5  306.87   30.60
   2   0   5  357.96   30.60
   2   0   5  326.07   30.60
   2   0   5  365.96   29.80
   2   0   5  379.66   29.80
   2   0   5  302.77   30.10
  -3   0  -5  282.17   23.50
  -3   0  -5  263.77   22.50
  -3   0  -5  215.28   24.10
  -3   0  -5  239.78   23.80
  -3   0  -5  271.27   23.20
  -3   0  -5  224.88   22.50
  -3   0  -5  244.08   22.60
   3   0   5  245.48   23.20
   3   0   5  285.77   23.70
   3   0   5  281.47   22.50
  -4   0  -5    1.20    1.30
  -4   0  -5   -4.10    3.70
  -4   0  -5   -3.70    6.50
  -4   0  -5   -1.30    2.20
  -4   0  -5   -2.90    5.90
  -4   0  -5    2.30    4.30
  -4   0  -5   -5.00    5.10
  -4   0  -5   -1.80    3.80
  -4   0  -5   -0.10    1.10
   4   0   5    0.20    1.40
   4   0   5   -2.60    4.30
   4   0   5   -0.40    1.40
   4   0   5   -6.10    4.90
  -5   0  -5   36.30    9.00
  -5   0  -5   35.40    7.10
  -5   0  -5   27.70    8.60
  -5   0  -5   42.90    6.60
  -5   0  -5   49.99    8.90
  -5   0  -5   27.10    8.50
  -5   0  -5   34.00    8.40
   5   0   5   40.20    7.90
  -6   0  -5   40.20    8.30
  -6   0  -5   22.40   10.70
  -6   0  -5   37.70    8.30
  -6   0  -5   46.90   10.80
  -7   0  -5   24.40   10.80
  -7   0  -5    6.20   11.80
  -7   0  -5   -3.20    5.30
  -7   0  -5    0.60    7.20
  -7   0  -5    9.10   11.50
  -7   0  -5   24.50    9.90
   6  -1  -5   13.90    6.10
   6  -1  -5    5.70    4.00
   6  -1  -5   16.60   10.30
  -6   1   5   15.60    9.70
  -6   1   5    3.30    2.70
  -6   1   5   10.30    5.00
  -6   1   5    2.90    8.00
  -6   1   5   -4.20    7.50
  -6   1   5   -7.70    6.20
   5  -1  -5   85.19    9.80
   5  -1  -5   90.69    9.60
   5  -1  -5   87.79   12.40
  -5   1   5   89.59   12.00
  -5   1   5  114.29   11.50
  -5   1   5   91.49   14.60
  -5   1   5   88.89    9.30
  -5   1   5  110.09    9.60
  -5   1   5   84.79   13.60
  -5   1   5  102.99   11.50
   4  -1  -5   -2.70    6.00
   4  -1  -5   -8.40    5.30
   4  -1  -5   -3.20    3.00
   4  -1  -5   -0.50    4.40
   4  -1  -5    1.80    3.20
  -4   1   5   -1.20    2.60
  -4   1   5    1.60    5.70
  -4   1   5    3.90    4.80
  -4   1   5    0.90    4.30
  -4   1   5    1.10    2.90
  -4   1   5   -6.50    4.90
   3  -1  -5   22.30    5.30
   3  -1  -5   10.00    7.20
   3  -1  -5   15.90    3.20
   3  -1  -5   25.10    6.50
   3  -1  -5   13.10    3.90
   3  -1  -5   20.20    4.10
  -3   1   5   21.70    3.70
  -3   1   5   22.30    4.40
  -3   1   5   17.50    3.30
  -3   1   5   12.20    4.20
  -3   1   5   13.30    4.40
   2  -1  -5    8.30    3.60
   2  -1  -5    6.40    2.50
   2  -1  -5    7.10    4.00
   2  -1  -5    9.20    5.30
   2  -1  -5   11.00    3.90
   2  -1  -5    7.00    2.70
   2  -1  -5    7.00    3.20
  -2   1   5    8.20    2.40
  -2   1   5   12.60    3.70
  -2   1   5   10.00    3.30
  -2   1   5   10.10    3.60
  -2   1   5    7.50    4.10
  -2   1   5    8.10    2.50
   1  -1  -5   18.40    5.10
   1  -1  -5   19.60    3.60
   1  -1  -5   21.60    3.40
   1  -1  -5   22.40    5.10
   1  -1  -5   28.10    3.80
   1  -1  -5   20.70    5.30
  -1   1   5   33.20    5.60
  -1   1   5   24.30    3.60
  -1   1   5   27.10    5.40
  -1   1   5   32.60    5.50
  -1   1   5   24.60    3.60
  -1   1   5   25.70    3.20
   0  -1  -5  317.77   29.00
   0  -1  -5  312.67   29.10
   0  -1  -5  321.27   29.20
   0  -1  -5  336.57   28.60
   0  -1  -5  298.17   28.50
   0   1   5  313.57   28.50
   0   1   5  331.67   28.50
   0   1   5  341.17   29.20
   0   1   5  332.97   29.00
  -1  -1  -5  404.66   38.90
  -1  -1  -5  479.95   38.80
  -1  -1  -5  414.66   38.50
  -1  -1  -5  416.36   39.30
  -1  -1  -5  462.95   38.80
  -1  -1  -5  404.66   39.20
   1   1   5  434.96   39.20
   1   1   5  431.46   39.30
   1   1   5  472.15   38.80
   1   1   5  463.95   38.70
   1   1   5  463.05   38.90
  -2  -1  -5  149.29   15.10
  -2  -1  -5  151.48   13.90
  -2  -1  -5  130.19   13.80
  -2  -1  -5  163.68   14.10
  -2  -1  -5  138.19   14.70
  -2  -1  -5  168.68   14.00
   2   1   5  172.88   14.80
   2   1   5  166.08   13.90
   2   1   5  147.19   13.80
   2   1   5  155.68   14.80
  -3  -1  -5 3423.06  323.87
  -3  -1  -5 3672.33  323.57
  -3  -1  -5 3705.83  324.07
  -3  -1  -5 3838.52  324.27
  -3  -1  -5 3524.25  324.17
  -3  -1  -5 3327.77  323.17
  -3  -1  -5 3805.62  323.27
   3   1   5 4102.79  323.27
   3   1   5 4158.38  324.07
   3   1   5 3776.92  324.17
   3   1   5 3526.65  323.47
   3   1   5 3661.03  323.97
  -4  -1  -5   27.10    6.00
  -4  -1  -5   19.90    2.80
  -4  -1  -5   18.30    6.40
  -4  -1  -5   19.80    2.60
  -4  -1  -5   13.70    4.20
  -4  -1  -5   19.00    4.40
  -4  -1  -5   18.80    7.10
   4   1   5   18.20    5.90
   4   1   5   23.60    5.20
   4   1   5   22.70    5.50
   4   1   5   19.80    2.80
   4   1   5   17.50    2.60
  -5  -1  -5   70.09   10.10
  -5  -1  -5   47.90    9.70
  -5  -1  -5   45.50    8.90
  -5  -1  -5   46.00    9.80
  -5  -1  -5   61.49    7.70
  -5  -1  -5   55.09    7.40
  -5  -1  -5   71.59    9.50
   5   1   5   74.99   10.00
   5   1   5   52.59    5.30
   5   1   5   67.99    9.30
   5   1   5   56.19    5.40
  -6  -1  -5   50.59   11.10
  -7  -1  -5   30.10    8.70
  -7  -1  -5    8.50    7.50
  -7  -1  -5   19.60   11.30
  -7  -1  -5   22.00   10.80
  -7  -1  -5    8.60    5.70
  -7  -1  -5   14.10   11.30
  -7  -1  -5    9.40    7.00
  -7  -1  -5   20.50    8.90
  -8  -1  -5    4.60   15.10
  -8  -1  -5   10.10    7.40
  -8  -1  -5    9.80    8.80
   6  -2  -5   17.80   11.10
   6  -2  -5    9.80   11.80
   6  -2  -5    8.10    6.10
  -6   2   5   -1.20    3.00
  -6   2   5   -9.40    8.60
  -6   2   5    2.40    3.50
   5  -2  -5   12.40    4.00
   5  -2  -5   12.50    4.30
   5  -2  -5   19.70    9.40
   5  -2  -5   25.10    9.30
  -5   2   5   11.40    3.90
  -5   2   5    7.00    7.40
  -5   2   5   11.20    3.30
  -5   2   5    6.70    7.30
  -5   2   5    6.90    5.70
  -5   2   5    4.00    6.50
   4  -2  -5    9.30    3.90
   4  -2  -5    8.60    7.70
   4  -2  -5    7.70    4.20
   4  -2  -5   15.70    6.00
   4  -2  -5    2.40    3.40
   4  -2  -5   -2.80    8.00
  -4   2   5    6.30    4.30
  -4   2   5    4.60    5.00
  -4   2   5    8.70    3.10
  -4   2   5   -3.40    5.90
  -4   2   5    3.70    3.40
  -4   2   5    6.10    6.50
  -4   2   5   10.50    5.70
   3  -2  -5    1.30    3.30
   3  -2  -5   -2.90    6.40
   3  -2  -5   -0.60    3.00
   3  -2  -5    2.30    6.30
   3  -2  -5   -2.80    3.10
   3  -2  -5    0.60    4.80
  -3   2   5    2.30    4.20
  -3   2   5   -1.60    2.60
  -3   2   5   -2.20    4.20
  -3   2   5    2.50    5.40
  -3   2   5   -1.00    2.70
  -3   2   5   -1.00    5.00
   2  -2  -5  604.34   49.90
   2  -2  -5  482.55   48.70
   2  -2  -5  523.25   48.70
  -2   2   5  614.24   49.00
  -2   2   5  588.24   48.70
  -2   2   5  498.25   49.60
  -2   2   5  573.64   48.70
  -2   2   5  542.15   49.20
   1  -2  -5   30.90    5.90
   1  -2  -5   30.70    4.40
   1  -2  -5   24.00    4.20
   1  -2  -5   27.00    5.40
   1  -2  -5   30.30    6.20
  -1   2   5   27.30    6.80
  -1   2   5   25.50    4.10
  -1   2   5   32.80    4.30
  -1   2   5   29.50    4.00
  -1   2   5   27.20    6.10
  -1   2   5   37.60    6.30
   0  -2  -5   23.50    5.40
   0  -2  -5   16.00    3.40
   0  -2  -5   29.70    6.00
   0  -2  -5   23.30    4.00
   0  -2  -5   29.50    5.40
   0   2   5   22.60    2.70
   0   2   5   18.30    3.80
   0   2   5   20.20    4.60
   0   2   5   19.10    3.80
   0   2   5   30.50    5.40
   0   2   5   21.00    3.80
  -1  -2  -5    6.90    3.80
  -1  -2  -5   -2.90    2.50
  -1  -2  -5   -2.70    2.50
  -1  -2  -5    6.30    3.60
  -1  -2  -5    4.70    3.00
   1   2   5    7.90    3.20
   1   2   5   -1.60    3.00
   1   2   5    0.60    1.90
   1   2   5   -2.30    2.40
   1   2   5    5.60    3.40
  -2  -2  -5  666.63   60.49
  -2  -2  -5  608.24   59.79
  -2  -2  -5  682.73   59.79
  -2  -2  -5  743.23   60.59
  -2  -2  -5  633.54   60.09
   2   2   5  646.34   59.79
   2   2   5  750.92   59.79
   2   2   5  649.04   60.29
   2   2   5  684.93   60.49
   2   2   5  708.53   59.79
   2   2   5  736.23   60.09
  -3  -2  -5  164.28   13.90
  -3  -2  -5  152.58   13.90
  -3  -2  -5  158.58   15.40
  -3  -2  -5  166.48   14.50
  -3  -2  -5  145.29   15.10
   3   2   5  148.69   13.80
   3   2   5  134.59   13.70
   3   2   5  160.08   14.20
   3   2   5  148.49   15.10
   3   2   5  154.58   14.90
   3   2   5  146.09   15.00
  -4  -2  -5   15.30    6.30
  -4  -2  -5    5.50    2.10
  -4  -2  -5    4.00    3.70
  -4  -2  -5    8.10    2.00
  -4  -2  -5    5.60    5.80
  -4  -2  -5   10.60    3.80
   4   2   5    8.10    4.00
   4   2   5    6.00    2.20
   4   2   5    4.20    3.30
   4   2   5    3.90    4.20
   4   2   5    4.60    5.20
  -5  -2  -5    9.30    7.70
  -5  -2  -5    5.60    1.90
  -5  -2  -5    7.80    5.30
  -5  -2  -5   -2.60    4.60
  -5  -2  -5    0.40    7.10
  -5  -2  -5    3.50    1.80
  -5  -2  -5   11.40    5.00
  -5  -2  -5    2.00    7.70
   5   2   5    6.20    6.90
   5   2   5   10.50    4.90
   5   2   5    5.70    2.00
   5   2   5    6.90    2.30
   5   2   5    7.90    3.70
  -6  -2  -5   74.09   13.00
  -6  -2  -5   83.29   12.10
  -6  -2  -5   74.89   11.30
  -6  -2  -5   97.39   11.80
   6   2   5   92.29   13.20
  -7  -2  -5   -1.40    6.10
  -7  -2  -5   31.00   10.70
  -7  -2  -5   11.20    6.20
  -7  -2  -5   15.40    6.00
  -7  -2  -5    8.60   10.50
  -7  -2  -5   28.50    7.70
  -7  -2  -5   29.60   11.40
  -8  -2  -5  114.19   16.50
  -8  -2  -5   74.09   14.10
  -8  -2  -5  115.49   15.20
  -8  -2  -5  105.79   22.80
   5  -3  -5   55.49   15.50
   5  -3  -5   26.20    8.60
   5  -3  -5   45.20    7.00
  -5   3   5   24.20    5.50
  -5   3   5   32.10    5.40
  -5   3   5   23.40    8.70
  -5   3   5   14.00    8.70
  -5   3   5   21.10    8.60
  -5   3   5   12.40    5.90
   4  -3  -5  -11.70    8.40
   4  -3  -5   -5.70    4.30
   4  -3  -5   -5.20    3.80
   4  -3  -5    2.60    8.30
   4  -3  -5   -1.60    8.80
   4  -3  -5   -1.70    4.00
  -4   3   5  -11.40    6.40
  -4   3   5    0.80    3.00
  -4   3   5   -4.00    3.30
  -4   3   5   -1.50    4.60
  -4   3   5   -3.60    5.50
  -4   3   5   -2.90    3.90
   3  -3  -5   38.30    5.90
   3  -3  -5   52.39    9.60
   3  -3  -5   55.69    7.90
   3  -3  -5   49.50    7.10
   3  -3  -5   59.09    9.90
   3  -3  -5   33.20    9.20
  -3   3   5   42.90    6.30
  -3   3   5   44.30    7.70
  -3   3   5   51.49   11.00
  -3   3   5   38.00    6.00
  -3   3   5   47.70    6.80
   2  -3  -5    0.40    3.10
   2  -3  -5    3.80    4.70
   2  -3  -5    7.80    7.10
   2  -3  -5   -6.00    6.20
   2  -3  -5   -1.60    4.00
   2  -3  -5    0.60    3.60
  -2   3   5    1.00    6.70
  -2   3   5    2.70    4.10
  -2   3   5   -0.70    3.20
  -2   3   5   -0.90    3.10
  -2   3   5    4.40    5.00
   1  -3  -5    4.00    3.30
   1  -3  -5    6.20    5.10
   1  -3  -5    2.50    3.20
   1  -3  -5   -0.60    4.30
   1  -3  -5    3.30    3.00
  -1   3   5    6.60    4.70
  -1   3   5    7.40    3.10
  -1   3   5    3.90    3.10
  -1   3   5    7.80    4.50
   0  -3  -5    7.50    3.50
   0  -3  -5   26.30    5.00
   0  -3  -5   18.30    3.40
   0  -3  -5   23.70    6.10
   0  -3  -5   26.40    5.30
   0   3   5   13.60    3.40
   0   3   5   15.40    4.70
   0   3   5   18.40    3.10
   0   3   5   14.90    3.40
  -1  -3  -5  260.77   24.20
  -1  -3  -5  261.07   23.50
  -1  -3  -5  273.87   23.70
  -1  -3  -5  283.07   23.50
  -1  -3  -5  221.38   24.10
   1   3   5  273.37   24.50
   1   3   5  220.48   23.20
   1   3   5  292.07   23.60
  -2  -3  -5   40.60    4.50
  -2  -3  -5   20.50    5.10
  -2  -3  -5   30.00    6.00
  -2  -3  -5   26.50    5.90
  -2  -3  -5   31.70    4.50
   2   3   5   31.90    5.90
   2   3   5   29.20    5.10
   2   3   5   28.30    4.40
   2   3   5   27.80    5.10
   2   3   5   30.80    4.50
  -3  -3  -5 2034.10  174.48
  -3  -3  -5 2095.49  174.48
  -3  -3  -5 1975.10  175.18
  -3  -3  -5 2197.18  174.98
  -3  -3  -5 2043.30  175.38
   3   3   5 1947.01  174.58
   3   3   5 2037.00  175.38
   3   3   5 1839.42  174.98
   3   3   5 1885.31  174.48
   3   3   5 1937.21  174.48
  -4  -3  -5  132.09   13.10
  -4  -3  -5  140.99   15.10
  -4  -3  -5  141.79   13.20
  -4  -3  -5  150.88   14.60
   4   3   5  147.79   14.30
   4   3   5  136.19   15.10
   4   3   5  151.38   13.20
   4   3   5  142.49   13.60
   4   3   5  135.49   13.20
  -5  -3  -5    4.40    7.10
  -5  -3  -5    1.70    7.90
  -5  -3  -5    8.80    4.90
  -5  -3  -5    4.90    4.90
  -5  -3  -5    4.30    2.50
  -5  -3  -5    6.20    2.90
   5   3   5    8.60    2.90
   5   3   5   13.20    5.20
   5   3   5    7.60    3.80
   5   3   5    6.40    2.90
   5   3   5   10.30    7.30
  -7  -3  -5   87.39   13.00
  -7  -3  -5  101.39   14.00
  -7  -3  -5   62.39   12.60
  -7  -3  -5   69.59   13.70
  -7  -3  -5   76.59   14.70
  -7  -3  -5  105.79   11.30
   7   3   5   91.69   13.90
   7   3   5   78.89   11.90
   7   3   5   79.19    8.00
  -8  -3  -5   39.80   14.70
  -8  -3  -5   33.80    8.90
  -8  -3  -5   11.20    8.30
  -8  -3  -5   17.50    7.30
   5  -4  -5    4.10    7.20
   5  -4  -5   26.10   11.70
   5  -4  -5   16.10   12.20
  -5   4   5    1.60    9.70
  -5   4   5   -1.50    4.90
  -5   4   5  -19.10   12.70
   4  -4  -5   -4.20    4.60
   4  -4  -5    5.00   10.00
   4  -4  -5    2.70    4.00
   4  -4  -5    1.60    7.10
   4  -4  -5    0.70    7.50
   4  -4  -5   -3.40    5.00
  -4   4   5  -14.80    8.40
  -4   4   5    4.10    7.30
  -4   4   5   -6.90    7.90
  -4   4   5   -7.40    4.20
  -4   4   5    0.50    4.70
   3  -4  -5   12.70    4.70
   3  -4  -5    6.40    3.80
   3  -4  -5   10.50    6.10
   3  -4  -5   17.60   10.10
   3  -4  -5   21.00    8.60
   3  -4  -5   15.10    4.70
  -3   4   5   16.90    5.90
  -3   4   5    7.70    7.20
  -3   4   5    5.20    7.50
  -3   4   5   14.70    4.70
  -3   4   5   15.20    4.60
   2  -4  -5   36.90    6.20
   2  -4  -5   27.30    5.40
   2  -4  -5   36.50    9.80
   2  -4  -5   32.40    6.50
   2  -4  -5   18.60    6.80
   2  -4  -5   24.90    6.90
  -2   4   5   36.80    5.60
  -2   4   5   32.50    5.80
  -2   4   5   15.80    7.90
   1  -4  -5   45.00    8.10
   1  -4  -5   41.10    6.30
   1  -4  -5   54.29    6.80
   1  -4  -5   46.60    8.90
   1  -4  -5   52.59    7.80
  -1   4   5   57.09    9.80
  -1   4   5   43.80    6.50
  -1   4   5   55.39    6.50
  -1   4   5   45.90   10.40
   0  -4  -5    7.10    3.90
   0  -4  -5   14.60    5.40
   0  -4  -5   14.00    4.50
   0  -4  -5    9.50    6.30
   0  -4  -5    7.30    3.70
   0   4   5    8.40    8.10
   0   4   5    9.10    3.90
   0   4   5    8.30    3.70
   0   4   5   13.60    5.50
  -1  -4  -5  108.49   10.50
  -1  -4  -5  100.29   10.10
  -1  -4  -5  101.39   10.20
  -1  -4  -5  106.69   12.00
  -1  -4  -5  110.29   10.40
   1   4   5   83.19   11.00
   1   4   5   82.19    9.70
   1   4   5  115.99   10.30
  -2  -4  -5 1212.78  108.09
  -2  -4  -5 1303.97  107.39
  -2  -4  -5 1316.77  107.39
  -2  -4  -5 1229.28  108.19
   2   4   5 1029.60  107.89
   2   4   5 1264.77  107.39
  -3  -4  -5   18.60    6.10
  -3  -4  -5   33.10    8.10
  -3  -4  -5   16.70    4.90
  -3  -4  -5   16.30    3.60
  -3  -4  -5   16.00    3.70
   3   4   5   15.40    3.70
   3   4   5   15.60    5.50
   3   4   5   14.30    4.20
   3   4   5   14.30    4.50
  -4  -4  -5   18.00    5.30
  -4  -4  -5   23.60    7.30
  -4  -4  -5   26.90    7.00
  -4  -4  -5   24.50    4.90
   4   4   5   14.80    3.60
   4   4   5   14.70    4.70
   4   4   5   20.20    5.90
   4   4   5   17.10    3.90
   4   4   5   25.90    5.30
  -5  -4  -5    0.40    8.00
  -5  -4  -5   -0.40    3.90
  -5  -4  -5    3.10    5.00
  -5  -4  -5   -3.20    3.40
  -5  -4  -5   -4.70    3.10
  -5  -4  -5    0.80    7.20
   5   4   5    3.20    3.90
   5   4   5   -0.90    9.00
   5   4   5   -4.60    3.40
   5   4   5   -3.60    4.80
   5   4   5   -3.80    3.20
  -6  -4  -5   95.69    9.80
  -6  -4  -5   88.79   14.80
  -6  -4  -5   99.29   10.90
  -6  -4  -5  103.79   13.90
  -6  -4  -5   75.89   12.50
  -6  -4  -5  104.39   10.30
   6   4   5  121.49   14.60
   6   4   5  102.19   13.40
   6   4   5   96.79   10.40
   6   4   5  111.99   12.00
   6   4   5  101.29   10.30
  -7  -4  -5   55.09   15.00
  -7  -4  -5   71.69   13.80
  -7  -4  -5   71.79    7.80
  -7  -4  -5   91.19   10.20
  -7  -4  -5  106.79   14.40
  -7  -4  -5   68.39    7.80
   7   4   5   82.79   11.50
   7   4   5   92.79    8.70
  -8  -4  -5   49.10   10.10
  -8  -4  -5   55.99   15.00
   8   4   5   30.30   10.60
   8   4   5   57.89   14.20
   8   4   5   37.50    5.50
   4  -5  -5   15.30   12.60
   4  -5  -5    9.50   11.50
  -4   5   5   -5.40    5.40
  -4   5   5   21.60    8.20
  -4   5   5   -7.00    7.80
   3  -5  -5   10.00    3.90
   3  -5  -5   15.80    5.00
   3  -5  -5    8.10    7.70
   3  -5  -5   11.70    7.40
   3  -5  -5   14.70    5.70
   3  -5  -5   17.20   10.80
  -3   5   5   -3.40    7.80
  -3   5   5   18.40    4.90
  -3   5   5   18.60    7.10
  -3   5   5   10.70    5.50
  -3   5   5    5.60    8.90
   2  -5  -5   -8.90    9.50
   2  -5  -5   -1.00    7.20
   2  -5  -5   -3.60    5.10
   2  -5  -5   -1.50    3.80
   2  -5  -5    0.60    8.10
  -2   5   5   -1.10    5.00
  -2   5   5  -13.10    7.30
  -2   5   5    1.70    4.20
  -2   5   5    0.70    5.70
  -2   5   5   -0.60    7.30
   1  -5  -5   34.60    6.80
   1  -5  -5   32.10    7.90
   1  -5  -5   22.10    6.90
   1  -5  -5   17.00    5.70
   1  -5  -5   34.50    7.30
  -1   5   5   30.80    6.30
  -1   5   5   20.90    8.00
  -1   5   5   38.80    6.20
  -1   5   5   22.70    7.60
   0  -5  -5    3.30    4.90
   0  -5  -5    4.70    4.70
   0  -5  -5    4.30    6.40
   0  -5  -5    0.90    3.90
   0  -5  -5    2.70    5.70
   0   5   5    5.80    4.90
   0   5   5    7.60    6.20
   0   5   5    5.50    3.50
   0   5   5    4.60    4.40
  -1  -5  -5   37.00    6.90
  -1  -5  -5   38.80    9.30
  -1  -5  -5   41.00    6.60
  -1  -5  -5   38.70    6.40
  -1  -5  -5   35.10    6.50
   1   5   5   35.80    6.60
   1   5   5   55.59    9.60
   1   5   5   41.90    6.60
   1   5   5   41.50    9.80
  -2  -5  -5   28.50    4.80
  -2  -5  -5   33.20    9.00
  -2  -5  -5   39.20    6.00
  -2  -5  -5   23.30    5.70
  -2  -5  -5   32.70    6.50
   2   5   5   34.10    6.00
   2   5   5   48.80    8.90
   2   5   5   20.70    5.90
   2   5   5   35.50    6.00
  -3  -5  -5  150.38   16.10
  -3  -5  -5  127.29   13.70
  -3  -5  -5  157.18   15.10
   3   5   5  159.18   14.00
   3   5   5  130.59   15.40
  -4  -5  -5   38.60    8.50
  -4  -5  -5   33.80    7.10
  -4  -5  -5   39.00    8.40
  -4  -5  -5   31.40    5.90
  -4  -5  -5   44.20    9.50
   4   5   5   49.50    8.80
   4   5   5   43.40    6.80
   4   5   5   42.30    6.10
   4   5   5   32.00    6.30
  -5  -5  -5    0.40    7.60
  -5  -5  -5   -7.20    4.30
  -5  -5  -5   -7.00    5.70
  -5  -5  -5   -5.20    5.30
  -5  -5  -5   -2.50    2.70
   5   5   5   -2.10    3.90
   5   5   5   -7.20    4.30
   5   5   5   -2.00    5.10
   5   5   5   -1.10    3.50
   5   5   5   -5.30    7.80
  -6  -5  -5   46.80    9.70
  -6  -5  -5   46.10   10.60
  -7  -5  -5  109.29   11.80
  -7  -5  -5   86.19   14.30
  -7  -5  -5  100.99   11.20
  -7  -5  -5  147.69   16.40
  -7  -5  -5  127.19   11.90
   7   5   5  128.39   12.10
   7   5   5  119.99   13.90
   7   5   5  117.39   14.10
   7   5   5  119.49   16.70
   3  -6  -5   14.80   12.80
   3  -6  -5   20.00   11.40
  -3   6   5   16.40    6.90
  -3   6   5   16.30    7.10
  -3   6   5   23.90   11.30
   2  -6  -5    6.20    7.70
   2  -6  -5  -14.60   11.00
   2  -6  -5   20.30    9.90
   2  -6  -5    0.90    3.90
   2  -6  -5    7.00    4.40
  -2   6   5   -6.40    8.40
  -2   6   5    3.80    8.40
  -2   6   5    4.40    5.10
  -2   6   5    7.90    5.50
   1  -6  -5   33.70    8.80
   1  -6  -5   23.50    6.60
  -1   6   5   33.50    6.80
  -1   6   5   22.70    5.70
  -1   6   5    8.40    7.70
   0  -6  -5   -0.50    5.30
   0  -6  -5   12.90    4.70
   0  -6  -5   11.80    7.50
   0  -6  -5   11.00    5.80
   0   6   5   -0.40    5.40
   0   6   5   15.30    5.20
   0   6   5    5.90    5.10
  -1  -6  -5   19.90    5.30
  -1  -6  -5   14.30    7.30
  -1  -6  -5   32.20    7.00
  -1  -6  -5   27.50    5.80
   1   6   5   17.40    6.00
   1   6   5   16.30    5.60
   1   6   5   20.70    5.70
   1   6   5   13.20    7.40
  -2  -6  -5  539.15   48.70
  -2  -6  -5  632.14   49.20
  -2  -6  -5  515.85   50.19
   2   6   5  599.74   51.79
   2   6   5  497.85   48.50
   2   6   5  484.05   49.99
  -3  -6  -5    5.10    3.90
  -3  -6  -5   -0.20    6.60
  -3  -6  -5    5.30   10.30
  -3  -6  -5    7.30    4.70
  -3  -6  -5    6.90    4.60
   3   6   5   10.00    4.60
   3   6   5   10.90    8.60
   3   6   5    0.20    6.00
   3   6   5    2.40    4.70
  -4  -6  -5   11.10    4.80
  -4  -6  -5   24.10    8.50
  -4  -6  -5    1.20    6.70
  -4  -6  -5   14.90    2.70
  -4  -6  -5    6.90    4.80
   4   6   5   10.20    8.60
   4   6   5   17.70    5.20
   4   6   5    7.10    5.90
  -5  -6  -5  -11.10    6.20
  -5  -6  -5   -4.10    5.40
  -5  -6  -5   -3.50    4.30
  -5  -6  -5   10.80    8.10
   5   6   5   -3.40    8.80
   5   6   5   -3.60    6.20
   5   6   5   -2.40    4.70
  -6  -6  -5   79.19   12.70
  -6  -6  -5   79.29    9.40
  -6  -6  -5   85.69   12.90
  -6  -6  -5   71.49    9.00
   6   6   5   54.09   12.40
   6   6   5   61.29   10.80
   6   6   5   71.99    9.70
   6   6   5   57.39   11.10
   6   6   5   70.59    9.50
  -7  -6  -5   85.29   12.20
  -7  -6  -5   83.99   10.30
  -7  -6  -5   74.89   14.60
   7   6   5  102.79   15.60
   7   6   5   70.89   10.20
   7   6   5   73.79   16.80
   7   6   5   66.29   11.90
   7   6   5   83.49   10.20
   2  -7  -5    2.90    7.70
  -2   7   5   14.50    6.60
   1  -7  -5    7.90    7.10
   1  -7  -5   -5.80    5.00
   1  -7  -5   23.60    9.90
  -1   7   5    5.10    6.20
  -1   7   5   17.90    6.10
  -1   7   5   -5.50    8.50
   0  -7  -5   11.50    7.70
   0  -7  -5    6.00    5.40
   0  -7  -5   -5.60    9.00
   0  -7  -5    0.70    6.00
   0  -7  -5  -13.70    8.60
   0   7   5  -11.60    7.70
   0   7   5  -12.30    8.30
   0   7   5   -0.60    5.70
   0   7   5    3.10    5.80
  -1  -7  -5   12.70    6.90
  -1  -7  -5    4.40    5.60
  -1  -7  -5    6.70    6.10
  -1  -7  -5   13.10    5.20
   1   7   5    7.20    5.90
   1   7   5   -2.60    7.20
   1   7   5    9.30    6.00
  -2  -7  -5   -2.20    5.70
  -2  -7  -5    8.10    6.30
  -2  -7  -5    6.30    5.70
  -2  -7  -5   -4.00    7.40
  -2  -7  -5   -4.60    5.30
   2   7   5   -1.30    5.50
   2   7   5   -5.30    9.40
   2   7   5    1.10    4.40
  -3  -7  -5   -1.30    4.10
  -3  -7  -5   -2.80    5.40
  -3  -7  -5    8.80    7.30
  -3  -7  -5    6.40    4.20
   3   7   5   -4.20    9.30
   3   7   5   -7.80    6.40
   3   7   5    1.60    4.40
   3   7   5    4.20    5.40
  -4  -7  -5    3.60    5.30
  -4  -7  -5   11.90    8.00
  -4  -7  -5   -7.00    5.10
   4   7   5    7.80    9.50
   4   7   5  -11.00    9.60
  -5  -7  -5   -2.30    5.10
  -5  -7  -5   -1.10    6.20
  -5  -7  -5   -8.00    5.40
   5   7   5    0.20    4.60
   5   7   5   -8.20    5.60
   5   7   5   -8.20    6.70
   5   7   5    4.80   10.10
   5   7   5  -10.60    6.60
  -6  -7  -5   35.70    7.40
   6   7   5   49.30   13.10
   0  -8  -5    8.80    9.30
   0  -8  -5    0.90    7.60
   0   8   5  -10.80    6.40
   0   8   5    1.10    7.20
  -1  -8  -5   -5.60    5.30
  -1  -8  -5   -2.90    7.10
  -1  -8  -5    5.10   12.30
   1   8   5   -3.30    6.90
   1   8   5   -2.70    6.80
  -2  -8  -5  127.29   15.50
  -2  -8  -5  148.69   15.60
  -2  -8  -5  135.89   15.50
  -2  -8  -5  121.39   14.70
   2   8   5  158.58   16.10
   2   8   5  133.29   15.40
  -3  -8  -5   11.50    6.90
  -3  -8  -5   27.90    7.00
  -3  -8  -5   22.30    9.00
   3   8   5   14.30   11.40
   3   8   5   11.30    7.20
   3   8   5   -7.60    8.50
  -4  -8  -5   -3.80    6.30
  -4  -8  -5   22.50    9.30
  -4  -8  -5   -1.20    6.50
  -4  -8  -5    9.30    6.60
   4   8   5    6.30   11.20
   4   8   5  -13.00    6.80
  -5  -8  -5   -8.40    6.50
  -5  -8  -5    2.50    7.10
  -5  -8  -5    1.80    6.40
   5   8   5   10.90   11.00
   5   8   5   -7.60    7.00
   3   8  -6    9.30    6.80
   3   8  -6    5.90    8.30
  -3  -8   6    3.30    7.10
  -3  -8   6   -1.60    6.70
  -3  -8   6    2.80    7.10
   2   8  -6   11.70    9.50
   2   8  -6   15.10    7.20
   2   8  -6   -9.70    6.20
   2   8  -6   14.40    8.00
  -2  -8   6    1.50    7.00
  -2  -8   6  -10.50    6.10
   1   8  -6    2.10    7.60
   1   8  -6   -3.50    8.10
  -1  -8   6   -0.80    7.20
  -1  -8   6   -8.20    5.60
  -1  -8   6   -8.20   12.20
   0   8  -6  143.89   18.60
   0   8  -6  138.99   16.30
   0   8  -6  136.09   16.60
   0  -8   6  128.39   16.00
   5   7  -6    7.90    8.20
  -5  -7   6    9.30    8.10
  -5  -7   6   14.70    6.50
  -5  -7   6   12.20    6.00
   4   7  -6    5.60    4.40
   4   7  -6   23.40    7.90
  -4  -7   6   12.70    6.30
  -4  -7   6    6.70    7.10
   3   7  -6   -7.60    7.10
   3   7  -6   -3.20    5.20
   3   7  -6   10.10    4.60
   3   7  -6   13.30    7.30
  -3  -7   6   -4.10    5.60
  -3  -7   6    2.00    6.00
  -3  -7   6  -11.10    6.50
  -3  -7   6   -1.60    5.90
   2   7  -6   15.80    8.30
   2   7  -6   13.00    6.20
   2   7  -6   -7.30    5.40
   2   7  -6   12.60    6.80
   2   7  -6   13.20    6.10
  -2  -7   6    5.10    5.90
  -2  -7   6  -12.60    9.30
  -2  -7   6    8.60    6.20
  -2  -7   6   -0.30    5.20
  -2  -7   6  -11.30    9.40
   1   7  -6  176.08   17.20
   1   7  -6  169.68   18.30
   1   7  -6  168.18   17.00
  -1  -7   6  174.68   16.50
  -1  -7   6  155.38   16.60
  -1  -7   6  132.69   17.00
   0   7  -6    8.40    7.50
   0   7  -6    2.50    6.60
   0  -7   6   -0.30    4.20
   0  -7   6   -7.40   10.50
   0  -7   6    3.40    5.60
   0  -7   6   -1.70    6.20
  -1   7  -6    3.90    6.20
  -1   7  -6   17.90    9.90
  -1   7  -6   -8.10    6.60
   1  -7   6    6.00   11.40
   1  -7   6   -4.70    6.60
  -2   7  -6   -6.90    6.50
  -2   7  -6   -9.80    5.90
  -2   7  -6   23.20   10.00
   2  -7   6    5.10    7.10
   2  -7   6   24.70   13.00
   2  -7   6  -12.80    8.60
   6   6  -6   -1.10    9.70
   6   6  -6    9.10    8.00
  -6  -6   6    3.50    7.50
  -6  -6   6   14.50    6.30
   5   6  -6    5.20    6.60
   5   6  -6    1.00    6.80
  -5  -6   6    0.10    7.10
  -5  -6   6   -3.80    6.30
  -5  -6   6    6.40    5.00
   4   6  -6   40.90    6.60
   4   6  -6   49.30    6.20
   4   6  -6   46.50    6.90
   4   6  -6   76.19    9.50
  -4  -6   6   35.70   11.10
  -4  -6   6   69.29    7.90
  -4  -6   6   49.40   11.20
  -4  -6   6   53.29    8.10
   3   6  -6   -8.60    8.40
   3   6  -6   -7.10    5.70
   3   6  -6    4.30    4.40
  -3  -6   6    6.70    5.90
  -3  -6   6    2.20    4.90
  -3  -6   6    2.30    5.30
   2   6  -6    2.50    5.30
   2   6  -6   -2.90    5.90
   2   6  -6    5.90    4.90
   2   6  -6   -0.90    7.10
   2   6  -6    0.10    6.00
  -2  -6   6  -14.20    8.60
  -2  -6   6   -1.20    4.70
  -2  -6   6   -4.20    5.40
  -2  -6   6    5.30    5.20
  -2  -6   6   -0.90    4.90
   1   6  -6   -0.50    6.20
   1   6  -6    7.20    6.00
   1   6  -6    7.60    6.20
   1   6  -6    8.20    5.90
  -1  -6   6    5.10    4.90
  -1  -6   6    8.90    5.40
  -1  -6   6    1.30    5.60
  -1  -6   6   -1.10    4.50
   0   6  -6  110.89   13.10
   0   6  -6   90.49   10.80
   0   6  -6  104.19   11.80
   0   6  -6  130.29   12.50
   0  -6   6  110.19   14.10
   0  -6   6   99.19   13.90
   0  -6   6   93.99   11.00
   0  -6   6   92.29   11.80
   0  -6   6  110.79   12.30
  -1   6  -6   29.40    8.70
  -1   6  -6   16.50    6.30
   1  -6   6   18.30    6.30
   1  -6   6   27.80   10.50
  -2   6  -6    0.10    5.60
   2  -6   6   -9.70    8.00
   2  -6   6    5.60    3.50
   2  -6   6    3.10    5.90
   2  -6   6   14.30   11.10
   2  -6   6   -2.70    6.30
  -3   6  -6   -2.50    6.10
  -3   6  -6    6.60    9.80
  -3   6  -6   -7.50    4.70
   3  -6   6    4.50    7.80
   3  -6   6  -11.30    6.50
   3  -6   6    6.20   10.90
   3  -6   6   -1.80    6.40
   6   5  -6    7.00    6.80
   6   5  -6    8.30    6.50
   6   5  -6    9.60    5.80
   6   5  -6   -5.60    5.70
  -6  -5   6   14.10    9.80
  -6  -5   6    5.90    5.40
  -6  -5   6   -6.80    7.30
  -6  -5   6    2.20    4.80
   5   5  -6    1.60    5.60
   5   5  -6   -5.90    5.00
   5   5  -6    3.90    8.20
   5   5  -6   -1.60    5.30
  -5  -5   6    4.10    4.40
  -5  -5   6   -2.30    6.20
  -5  -5   6    1.60    5.20
   4   5  -6    9.70    4.90
   4   5  -6   -9.10    6.30
   4   5  -6   -0.30    5.70
  -4  -5   6    2.20    7.70
  -4  -5   6    1.00    6.10
  -4  -5   6    2.30    5.50
  -4  -5   6   -0.10    4.30
   3   5  -6   10.50    5.60
   3   5  -6    0.10    5.50
   3   5  -6   -0.60    5.30
   3   5  -6    8.30    3.50
  -3  -5   6    4.70    7.60
  -3  -5   6   -3.50    6.30
  -3  -5   6    8.60    4.90
   2   5  -6   -0.80    3.90
   2   5  -6    0.60    4.60
   2   5  -6   -7.10    3.70
   2   5  -6    3.10    5.30
  -2  -5   6    0.90    4.60
  -2  -5   6    5.20    5.40
  -2  -5   6    1.00    4.00
  -2  -5   6    8.50    6.60
  -2  -5   6    3.60    4.80
   1   5  -6  629.14   54.59
   1   5  -6  687.13   55.49
   1   5  -6  669.93   55.19
   1   5  -6  692.63   54.79
  -1  -5   6  560.54   54.99
  -1  -5   6  533.35   55.19
  -1  -5   6  620.84   54.39
  -1  -5   6  601.14   54.39
  -1  -5   6  544.15   54.79
   0   5  -6   23.70    5.90
   0   5  -6   22.80    8.00
   0   5  -6   30.70    7.60
   0   5  -6   30.10    8.40
   0  -5   6   16.20    8.10
   0  -5   6   26.50    5.40
   0  -5   6   30.10    6.20
   0  -5   6   12.10    7.50
   0  -5   6   25.70    6.40
  -1   5  -6   -4.60    5.00
  -1   5  -6   -3.90    5.10
  -1   5  -6    4.30    6.70
   1  -5   6    4.00    3.00
   1  -5   6   -5.60    4.50
   1  -5   6    4.20    5.00
   1  -5   6   -0.10    3.80
  -2   5  -6   10.60    5.20
  -2   5  -6    6.90    5.40
   2  -5   6   11.70    5.10
   2  -5   6   13.70    8.10
   2  -5   6   26.40    9.80
   2  -5   6    9.40    5.20
   2  -5   6    4.70    3.60
  -3   5  -6    4.30    4.80
  -3   5  -6   -2.50    4.50
  -3   5  -6    0.00    6.50
   3  -5   6    3.50    7.30
   3  -5   6   -5.90    5.60
   3  -5   6   -3.40   10.00
   3  -5   6   -3.60    4.70
  -4   5  -6    3.30    7.90
  -4   5  -6    2.00    4.70
  -4   5  -6   18.00   10.60
   4  -5   6   12.50    9.20
   4  -5   6    3.90    5.60
   4  -5   6   -1.70    5.30
   4  -5   6   10.40    7.60
   4  -5   6    6.10    4.50
   6   4  -6    6.40    5.50
   6   4  -6   11.20    5.40
   6   4  -6   19.10    7.60
   6   4  -6   11.00    7.70
   6   4  -6   12.70    5.80
  -6  -4   6   22.00    8.90
  -6  -4   6   -2.20    7.20
  -6  -4   6    6.40    4.20
  -6  -4   6    4.40    4.50
   5   4  -6    2.20    4.80
   5   4  -6   -5.50    6.60
   5   4  -6   -8.50    6.10
   5   4  -6    4.50    4.70
  -5  -4   6   -1.40    6.00
  -5  -4   6    3.80    4.50
  -5  -4   6    9.20    7.00
  -5  -4   6    1.40    4.10
   4   4  -6  193.68   16.50
   4   4  -6  146.59   16.40
   4   4  -6  173.38   16.20
   4   4  -6  144.19   18.40
  -4  -4   6  171.38   16.20
  -4  -4   6  166.48   18.50
  -4  -4   6  148.69   17.40
  -4  -4   6  167.88   15.70
   3   4  -6   -3.10    4.20
   3   4  -6   -1.00    4.50
   3   4  -6    1.40    2.30
   3   4  -6    1.90    4.80
  -3  -4   6    0.30    5.50
  -3  -4   6   -2.40    3.80
  -3  -4   6    0.10    4.70
  -3  -4   6   -1.60    3.50
   2   4  -6   12.70    5.00
   2   4  -6   17.90    4.70
   2   4  -6   20.30    5.70
   2   4  -6   19.20    4.90
  -2  -4   6   15.70    4.80
  -2  -4   6   19.50    4.50
  -2  -4   6   19.40    5.40
  -2  -4   6   14.70    3.90
   1   4  -6    7.10    3.80
   1   4  -6    7.80    3.60
   1   4  -6   10.70    4.00
   1   4  -6   11.30    3.60
  -1  -4   6   16.80    6.50
  -1  -4   6   11.80    4.20
  -1  -4   6    6.70    3.80
  -1  -4   6   11.50    4.20
  -1  -4   6   12.90    3.70
   0   4  -6   -2.60    4.30
   0   4  -6   -4.00    4.10
   0   4  -6   -1.30    2.90
   0   4  -6    2.50    4.20
   0  -4   6    3.40    3.50
   0  -4   6   -0.70    4.00
   0  -4   6   -1.70    4.00
   0  -4   6    3.80    4.20
   0  -4   6    1.30    6.00
  -1   4  -6    9.10    2.90
  -1   4  -6    7.70    4.20
  -1   4  -6    8.60    5.10
  -1   4  -6    7.90    4.40
   1  -4   6   10.40    3.10
   1  -4   6    9.70    4.20
   1  -4   6    4.20    3.10
   1  -4   6   10.80    4.00
   1  -4   6    8.30    6.00
  -2   4  -6   47.90    6.60
  -2   4  -6   48.40    7.00
  -2   4  -6   37.10   10.20
  -2   4  -6   51.09    8.70
  -2   4  -6   45.40    5.40
   2  -4   6   49.50    9.90
   2  -4   6   50.99    7.70
   2  -4   6   50.79    6.70
   2  -4   6   43.40    6.00
   2  -4   6   53.29    8.60
  -3   4  -6   -2.20    7.40
  -3   4  -6   -3.70    4.50
  -3   4  -6   -0.90    4.80
  -3   4  -6   -5.30    4.60
  -3   4  -6   -1.20    1.70
   3  -4   6    2.00    6.20
   3  -4   6    0.20    4.30
   3  -4   6    0.70    6.90
   3  -4   6   -4.20    3.00
   3  -4   6   -1.60    4.10
  -4   4  -6   82.39    9.10
  -4   4  -6   93.09   11.80
  -4   4  -6   72.59    9.20
  -4   4  -6   84.39   13.80
   4  -4   6   96.69    9.20
   4  -4   6   86.89   11.10
   4  -4   6   80.59   11.50
   4  -4   6   74.29   13.60
   4  -4   6   90.09    9.60
  -5   4  -6   -1.00    3.60
  -5   4  -6   10.00    8.20
  -5   4  -6    3.00    4.10
   5  -4   6   21.00   12.60
   5  -4   6   16.40    8.50
   5  -4   6    6.60    4.60
   7   3  -6    2.30    5.60
   7   3  -6   22.60   10.80
   7   3  -6    5.60    8.70
  -7  -3   6   -3.50    8.30
  -7  -3   6    7.30    4.30
  -7  -3   6   -7.90    8.10
   6   3  -6   -0.10    7.50
   6   3  -6   -4.20    4.50
   6   3  -6   10.60    8.20
   6   3  -6    0.80    6.40
  -6  -3   6    5.20    4.60
  -6  -3   6   -3.70    7.20
  -6  -3   6   14.20    8.60
  -6  -3   6    4.30    6.80
  -6  -3   6    6.40    4.10
  -6  -3   6   -1.60    3.60
   5   3  -6   22.20    7.10
   5   3  -6   30.00    7.80
   5   3  -6   45.60    8.30
   5   3  -6   36.20    5.90
   5   3  -6   40.80    6.90
  -5  -3   6   38.30    5.90
  -5  -3   6   25.80    7.40
  -5  -3   6   42.40    8.80
  -5  -3   6   31.70    5.50
  -5  -3   6   38.80    5.40
   4   3  -6   -7.70    3.80
   4   3  -6    6.90    5.90
   4   3  -6   -9.30    5.10
   4   3  -6   12.10    6.00
   4   3  -6   -4.20    4.10
  -4  -3   6   -0.20    5.90
  -4  -3   6   -8.40    3.50
  -4  -3   6   -3.60    6.40
  -4  -3   6   -6.90    3.20
   3   3  -6    3.50    4.00
   3   3  -6   10.90    2.50
   3   3  -6    5.40    3.70
   3   3  -6    3.80    4.60
  -3  -3   6    9.60    4.00
  -3  -3   6    6.30    4.90
  -3  -3   6   10.10    3.20
  -3  -3   6    9.60    5.50
   2   3  -6  143.99   14.10
   2   3  -6  144.09   14.10
   2   3  -6  130.19   15.10
   2   3  -6  171.48   14.20
  -2  -3   6  146.39   14.60
  -2  -3   6  145.59   14.00
  -2  -3   6  161.88   15.30
   1   3  -6  758.62   70.89
   1   3  -6  841.82   70.89
   1   3  -6  765.42   71.19
  -1  -3   6  806.62   70.79
  -1  -3   6  761.22   70.79
  -1  -3   6  783.42   70.99
  -1  -3   6  933.91   71.59
   0   3  -6  456.55   40.10
   0   3  -6  425.26   40.00
   0   3  -6  468.05   40.80
   0   3  -6  513.75   40.60
   0  -3   6  500.65   40.50
   0  -3   6  442.76   39.90
   0  -3   6  385.76   39.80
   0  -3   6  425.46   39.70
  -1   3  -6    1.30    4.10
  -1   3  -6   -1.70    3.30
  -1   3  -6    1.70    3.40
  -1   3  -6    2.70    2.50
   1  -3   6    2.10    2.60
   1  -3   6    0.20    3.00
   1  -3   6    3.30    2.80
   1  -3   6   -0.70    3.20
   1  -3   6    1.40    6.10
  -2   3  -6  285.57   29.20
  -2   3  -6  284.07   27.50
  -2   3  -6  258.77   27.50
  -2   3  -6  358.36   27.90
   2  -3   6  353.86   28.00
   2  -3   6  343.47   27.70
   2  -3   6  349.67   29.10
   2  -3   6  264.67   28.90
   2  -3   6  279.27   27.80
  -3   3  -6   65.39    7.50
  -3   3  -6   69.39   11.00
  -3   3  -6   54.39    6.60
  -3   3  -6   78.59    7.80
  -3   3  -6   58.49   10.60
   3  -3   6   77.49    8.30
   3  -3   6   77.29    7.30
   3  -3   6   78.09    7.70
   3  -3   6   53.09   10.60
   3  -3   6   73.59   10.20
  -4   3  -6    6.20    3.20
  -4   3  -6   11.40    3.50
  -4   3  -6   15.70    6.40
  -4   3  -6   11.00    4.60
  -4   3  -6   14.00    4.90
   4  -3   6   15.20    3.40
   4  -3   6   17.30    3.80
   4  -3   6   10.90    3.90
   4  -3   6    9.10    9.70
   4  -3   6   12.20    7.10
  -5   3  -6    0.90    6.90
  -5   3  -6  -14.60   11.00
  -5   3  -6    8.20    6.20
  -5   3  -6   -3.50    3.00
  -5   3  -6    2.80    8.00
  -5   3  -6   -6.60    4.80
   5  -3   6    9.60    7.70
   5  -3   6    8.70    4.30
   5  -3   6    0.70    4.00
   5  -3   6   14.70   11.20
   5  -3   6    2.30    3.30
  -6   3  -6   18.30    9.30
  -6   3  -6   14.40    8.60
   6  -3   6    7.90    3.40
   6  -3   6    3.70    3.60
   6  -3   6   15.70    9.20
   6  -3   6   11.10   13.20
   7   2  -6   -0.90    6.10
   7   2  -6   12.10    9.70
   7   2  -6   14.70   10.70
  -7  -2   6  -13.20    8.00
  -7  -2   6   -0.30    3.40
  -7  -2   6    5.70    8.80
   6   2  -6   12.00    8.90
   6   2  -6    3.10    7.00
   6   2  -6    2.60    4.30
   6   2  -6    3.70    4.50
  -6  -2   6    3.80    3.60
  -6  -2   6    0.80    3.00
  -6  -2   6   -8.90    6.70
  -6  -2   6   -1.20    7.30
   5   2  -6    2.00    6.40
   5   2  -6    3.90    3.70
   5   2  -6   -3.30    3.90
   5   2  -6    2.40    5.70
   5   2  -6    2.00    6.90
  -5  -2   6    2.40    3.10
  -5  -2   6   -1.30    3.40
  -5  -2   6    0.40    6.10
  -5  -2   6    1.00    3.90
  -5  -2   6   -9.70    5.60
   4   2  -6  111.39   10.50
   4   2  -6   82.59   12.70
   4   2  -6  131.79   11.70
   4   2  -6  113.49   10.70
  -4  -2   6  122.09   10.40
  -4  -2   6  100.49   10.20
  -4  -2   6  108.99   13.00
  -4  -2   6   88.99    9.70
  -4  -2   6   98.79   12.50
  -4  -2   6  106.79   13.30
   3   2  -6    1.40    3.10
   3   2  -6    9.20    4.80
   3   2  -6   -1.90    4.70
   3   2  -6    5.50    3.40
  -3  -2   6    3.00    2.70
  -3  -2   6    2.20    3.40
  -3  -2   6    4.80    3.00
  -3  -2   6    0.90    1.30
  -3  -2   6    1.50    1.60
  -3  -2   6    1.40    5.30
   2   2  -6   24.30    6.10
   2   2  -6   25.20    4.40
   2   2  -6   21.80    4.10
   2   2  -6   26.20    4.30
  -2  -2   6   25.10    4.00
  -2  -2   6   23.20    6.20
  -2  -2   6   23.50    3.70
  -2  -2   6   19.30    5.00
  -2  -2   6   20.80    3.10
  -2  -2   6   23.50    3.80
   1   2  -6  227.08   20.50
   1   2  -6  226.48   20.20
   1   2  -6  187.18   20.10
  -1  -2   6  218.88   20.10
  -1  -2   6  229.78   20.30
  -1  -2   6  223.68   20.00
  -1  -2   6  248.98   20.20
  -1  -2   6  215.78   20.40
   0   2  -6  126.69   12.70
   0   2  -6  142.59   13.50
   0   2  -6  142.69   12.80
   0  -2   6  134.39   12.50
   0  -2   6  123.99   13.20
   0  -2   6  139.49   12.60
   0  -2   6  143.09   12.70
  -1   2  -6    0.60    2.60
  -1   2  -6    0.60    3.60
  -1   2  -6    6.50    5.30
  -1   2  -6    3.50    2.80
  -1   2  -6   -0.10    2.80
   1  -2   6    2.40    2.10
   1  -2   6    3.90    2.90
   1  -2   6   -0.90    4.90
   1  -2   6    1.50    2.30
   1  -2   6    2.90    2.80
  -2   2  -6  177.78   15.60
  -2   2  -6  192.28   15.90
  -2   2  -6  154.08   17.10
  -2   2  -6  142.39   16.40
  -2   2  -6  184.98   15.60
   2  -2   6  159.78   16.80
   2  -2   6  180.78   15.40
   2  -2   6  175.98   17.20
   2  -2   6  164.88   15.50
  -3   2  -6   52.89    5.80
  -3   2  -6   57.39    6.00
  -3   2  -6   47.30    7.70
  -3   2  -6   45.50    9.40
  -3   2  -6   49.99    6.00
  -3   2  -6   60.49    6.40
  -3   2  -6   52.89    8.20
  -3   2  -6   53.19    6.30
   3  -2   6   36.40    8.90
   3  -2   6   58.29    6.00
   3  -2   6   55.89    5.80
   3  -2   6   58.19    6.10
   3  -2   6   41.10    7.90
  -4   2  -6   95.79    9.10
  -4   2  -6   84.39    8.30
  -4   2  -6   80.39    9.50
  -4   2  -6   84.39   12.20
  -4   2  -6   70.79   11.80
  -4   2  -6   92.49    9.50
   4  -2   6   98.69    8.40
   4  -2   6   80.49    9.10
   4  -2   6   82.59    9.00
   4  -2   6   69.89   10.50
  -5   2  -6   61.09    8.60
  -5   2  -6   39.10   11.10
  -5   2  -6   51.59   11.30
  -5   2  -6   33.60    9.00
  -5   2  -6   45.60    4.90
  -5   2  -6   35.70    6.50
  -5   2  -6   43.80    4.90
  -5   2  -6   42.40    6.60
  -5   2  -6   46.80    8.30
  -5   2  -6   48.10   10.40
   5  -2   6   42.10    5.40
   5  -2   6   56.09    5.70
   5  -2   6   37.80   10.80
   5  -2   6   39.50    8.30
  -6   2  -6    5.90   11.90
  -6   2  -6   20.50    8.00
  -6   2  -6   16.40    7.80
  -6   2  -6    4.10    7.20
  -6   2  -6   22.20    9.10
  -6   2  -6    8.10    3.40
  -6   2  -6   -0.50    5.60
   6  -2   6   17.80    9.00
   6  -2   6   12.30   11.40
   6  -2   6   11.20    2.60
   6   1  -6    0.00    7.90
   6   1  -6    2.70    4.10
   6   1  -6   10.90    8.70
   6   1  -6    5.50    4.20
  -6  -1   6   -0.50    3.40
  -6  -1   6   -2.00    2.80
  -6  -1   6   -4.10    6.60
  -6  -1   6   -0.60    7.10
  -6  -1   6   10.20   13.50
   5   1  -6   49.50    6.80
   5   1  -6   55.79    6.10
   5   1  -6   39.30    9.60
   5   1  -6   51.29    9.40
   5   1  -6   39.00    8.40
  -5  -1   6   43.90    5.50
  -5  -1   6   44.40   11.10
  -5  -1   6   43.50   10.10
  -5  -1   6   40.20    5.50
  -5  -1   6   32.30    6.50
   4   1  -6    6.80    6.30
   4   1  -6    4.30    4.70
   4   1  -6    6.50    3.60
   4   1  -6    0.30    5.10
   4   1  -6    4.50    3.10
  -4  -1   6    8.30    3.00
  -4  -1   6    0.00    5.30
  -4  -1   6   13.00    6.60
  -4  -1   6    6.80    3.10
  -4  -1   6    7.40    5.20
  -4  -1   6    5.60    2.90
   3   1  -6   -1.70    2.80
   3   1  -6    2.80    4.10
   3   1  -6    2.00    3.80
   3   1  -6    4.10    3.40
   3   1  -6   12.50    5.40
  -3  -1   6    4.40    4.40
  -3  -1   6    2.10    2.60
  -3  -1   6    6.80    2.50
  -3  -1   6    3.60    4.30
  -3  -1   6    6.50    2.40
   2   1  -6  182.18   15.10
   2   1  -6  136.49   14.70
   2   1  -6  168.58   14.80
   2   1  -6  140.59   15.70
  -2  -1   6  158.58   15.70
  -2  -1   6  160.88   14.80
  -2  -1   6  159.58   14.60
  -2  -1   6  161.28   16.00
  -2  -1   6  168.98   14.60
   1   1  -6   30.00    4.50
   1   1  -6   25.60    5.80
   1   1  -6   32.60    5.30
  -1  -1   6   33.00    5.80
  -1  -1   6   29.20    4.80
  -1  -1   6   33.30    4.00
  -1  -1   6   25.00    4.20
   0   1  -6  712.83   65.89
   0   1  -6  813.02   65.49
   0   1  -6  708.83   65.59
   0   1  -6  726.03   65.39
   0  -1   6  657.13   65.69
   0  -1   6  803.42   65.39
   0  -1   6  808.22   65.49
  -1   1  -6  200.98   20.00
  -1   1  -6  233.28   19.80
  -1   1  -6  203.28   18.90
  -1   1  -6  224.28   19.00
   1  -1   6  175.68   18.70
   1  -1   6  197.08   19.40
   1  -1   6  234.88   19.00
   1  -1   6  225.68   19.80
  -2   1  -6  435.76   43.30
  -2   1  -6  489.65   43.00
  -2   1  -6  482.85   44.00
  -2   1  -6  507.55   43.00
  -2   1  -6  459.05   44.10
   2  -1   6  552.04   44.10
   2  -1   6  509.75   42.90
   2  -1   6  545.45   43.00
   2  -1   6  425.96   43.00
   2  -1   6  447.96   43.90
   2  -1   6  528.55   43.90
  -3   1  -6 1070.59   89.29
  -3   1  -6 1086.19   89.69
  -3   1  -6 1013.10   90.49
  -3   1  -6 1001.20   89.29
  -3   1  -6  856.91   90.29
  -3   1  -6  911.01   89.49
   3  -1   6 1090.09   89.29
   3  -1   6 1016.60   90.59
   3  -1   6 1019.60   90.29
   3  -1   6 1144.79   89.29
  -4   1  -6    2.60    4.90
  -4   1  -6    6.90    5.30
  -4   1  -6   -1.80    4.70
  -4   1  -6    6.80    7.50
  -4   1  -6    4.40    2.10
  -4   1  -6    4.20    2.40
  -4   1  -6    6.00    2.10
  -4   1  -6    3.00    5.00
  -4   1  -6    3.50    7.20
   4  -1   6   -3.30    7.60
   4  -1   6   -2.70    5.80
   4  -1   6    4.00    2.10
  -5   1  -6   27.50    7.30
  -5   1  -6   19.10    7.00
  -5   1  -6    7.80    6.60
  -5   1  -6   23.20    6.00
  -5   1  -6    9.10    9.00
  -5   1  -6   11.90    9.30
   5  -1   6   14.50    2.90
   5  -1   6   15.20    7.10
   5  -1   6   21.10    3.10
  -6   1  -6   10.90    5.10
  -6   1  -6   35.00   10.00
  -6   1  -6   11.40   10.40
  -6   1  -6   13.60    7.40
  -6   1  -6   22.80    8.30
  -6   1  -6   33.90    8.00
  -6   1  -6   20.70   11.10
   6  -1   6   25.70    8.50
  -7   1  -6    1.50    5.90
  -7   1  -6   11.00    5.10
  -7   1  -6   25.80    8.70
  -7   1  -6   30.90   10.90
   6   0  -6    0.80    5.70
   6   0  -6   -0.30    4.20
   6   0  -6   -3.70    8.20
   6   0  -6    4.40    6.10
   6   0  -6   14.40    9.60
  -6   0   6    7.10   10.20
  -6   0   6    8.40    6.70
  -6   0   6  -10.70    7.10
  -6   0   6    0.00    7.40
  -6   0   6   -5.60    3.20
   5   0  -6    7.30    3.60
   5   0  -6    5.70    3.90
   5   0  -6   -0.70    5.20
   5   0  -6    1.70    7.80
   5   0  -6   -9.50    6.20
  -5   0   6   -0.10    3.00
  -5   0   6   -0.40    2.70
  -5   0   6    0.80    6.40
  -5   0   6    1.00    7.20
  -5   0   6   -3.60    4.50
   4   0  -6  -10.20    5.20
   4   0  -6   -9.20    6.30
   4   0  -6    4.40    4.60
   4   0  -6    0.30    3.50
   4   0  -6    0.20    2.90
  -4   0   6    1.30    3.10
  -4   0   6    0.20    5.30
  -4   0   6    1.00    2.70
  -4   0   6    2.70    5.50
   3   0  -6    3.50    5.50
   3   0  -6   -2.30    3.30
   3   0  -6    1.80    3.60
   3   0  -6   -2.90    4.20
   3   0  -6   -1.50    2.70
  -3   0   6   -0.80    2.60
  -3   0   6   -3.00    2.50
  -3   0   6    3.70    3.90
  -3   0   6    0.60    3.30
  -3   0   6    1.40    4.30
   2   0  -6   16.50    3.30
   2   0  -6   18.30    4.20
   2   0  -6   25.50    5.70
   2   0  -6   17.70    3.80
   2   0  -6   10.70    4.10
  -2   0   6   22.60    5.90
  -2   0   6   22.00    5.80
  -2   0   6   25.30    5.20
  -2   0   6   20.20    3.50
  -2   0   6   21.10    3.80
   1   0  -6  260.57   23.80
   1   0  -6  272.17   23.80
   1   0  -6  251.07   24.30
   1   0  -6  283.37   24.70
  -1   0   6  278.07   24.50
  -1   0   6  237.48   23.80
  -1   0   6  284.47   24.40
  -1   0   6  261.37   24.60
  -1   0   6  279.57   23.80
   0   0  -6   -2.00    2.30
   0   0  -6    6.00    3.20
   0   0  -6   -2.00    3.10
   0   0  -6    5.90    2.70
   0   0  -6    0.50    2.60
   0   0   6    0.70    2.50
   0   0   6    8.90    3.40
   0   0   6    0.20    2.30
   0   0   6    0.00    2.50
   0   0   6    1.80    2.50
  -1   0  -6   55.09    6.70
  -1   0  -6   71.49    8.40
  -1   0  -6   76.99    8.20
  -1   0  -6   70.19    7.70
  -1   0  -6   67.79    6.80
   1   0   6   71.89    6.80
   1   0   6   56.29    7.40
   1   0   6   68.49    6.70
   1   0   6   77.19    6.70
  -2   0  -6  102.19   11.70
  -2   0  -6  111.29   10.30
  -2   0  -6  103.89   11.70
  -2   0  -6  115.69   10.40
  -2   0  -6  117.29   11.30
   2   0   6  127.59   10.30
   2   0   6  103.89   10.70
  -3   0  -6  239.08   25.40
  -3   0  -6  307.67   24.60
  -3   0  -6  229.08   25.50
  -3   0  -6  245.08   24.00
  -3   0  -6  294.97   24.10
   3   0   6  279.57   25.30
   3   0   6  272.87   24.00
   3   0   6  256.77   24.70
   3   0   6  298.17   25.20
   3   0   6  288.67   24.00
  -4   0  -6   41.60    5.90
  -4   0  -6   43.20    8.10
  -4   0  -6   37.80    4.00
  -4   0  -6   30.80    4.60
  -4   0  -6   43.00    6.90
  -4   0  -6   31.20    7.50
   4   0   6   37.30    4.00
   4   0   6   31.30    6.40
   4   0   6   29.60    6.90
  -5   0  -6  115.79   12.00
  -5   0  -6  120.39   14.00
  -5   0  -6  129.39   14.80
  -5   0  -6  109.19   14.20
  -5   0  -6  127.69   12.80
  -5   0  -6   94.39   14.30
   5   0   6  124.89   10.70
   5   0   6  110.29   13.60
   5   0   6  129.99   10.70
  -6   0  -6   -9.40    7.70
  -6   0  -6   -7.00    6.50
  -6   0  -6   -7.40    9.30
  -6   0  -6    2.80    9.60
  -6   0  -6   -4.00    8.90
  -6   0  -6   -1.30    8.30
  -6   0  -6   -0.60    4.00
   6   0   6   -1.30    7.70
  -7   0  -6   -9.40    9.00
  -7   0  -6    6.60   11.40
  -7   0  -6  -11.70   11.00
  -7   0  -6   -1.80    5.30
  -7   0  -6   -1.20    6.90
  -7   0  -6    1.50    5.20
  -7   0  -6   11.80   10.40
   6  -1  -6    7.40    6.10
   6  -1  -6   12.00   10.90
  -6   1   6   14.40    6.50
  -6   1   6    2.80    3.60
  -6   1   6   -5.40    7.50
   5  -1  -6   22.50    4.30
   5  -1  -6   18.00    4.50
   5  -1  -6   39.00    9.30
  -5   1   6   12.60    7.40
  -5   1   6   18.30    3.50
  -5   1   6   18.70    7.10
  -5   1   6   20.90    4.30
  -5   1   6    9.60    5.90
  -5   1   6   14.70    7.40
   4  -1  -6    8.70    6.10
   4  -1  -6   15.70    4.00
   4  -1  -6   -1.60   10.10
   4  -1  -6   11.60    3.90
  -4   1   6   21.50    3.90
  -4   1   6   13.80    5.30
  -4   1   6   17.30    5.80
  -4   1   6   14.40    3.50
  -4   1   6    8.90    6.20
   3  -1  -6   38.40    6.50
   3  -1  -6   20.80    6.20
   3  -1  -6   36.90    7.50
   3  -1  -6   32.20    5.80
   3  -1  -6   32.60    6.90
   3  -1  -6   35.30    5.60
  -3   1   6   35.80    5.00
  -3   1   6   36.00    8.10
  -3   1   6   43.60    6.10
  -3   1   6   35.90    4.70
  -3   1   6   47.10    8.30
   2  -1  -6   -4.40    2.60
   2  -1  -6   -0.20    3.40
   2  -1  -6   -0.90    5.30
   2  -1  -6   -5.30    3.90
   2  -1  -6    4.60    3.70
   2  -1  -6   -0.20    3.30
   2  -1  -6   -3.40    2.80
  -2   1   6    6.50    3.70
  -2   1   6   -0.30    2.40
  -2   1   6    6.00    3.90
  -2   1   6   -4.70    2.90
  -2   1   6    0.10    3.20
  -2   1   6    0.80    4.10
   1  -1  -6    3.10    2.30
   1  -1  -6    3.80    2.80
   1  -1  -6    3.40    3.30
   1  -1  -6    2.70    2.70
   1  -1  -6    3.70    3.50
   1  -1  -6    3.00    3.80
  -1   1   6    3.90    3.60
  -1   1   6    1.00    3.40
  -1   1   6    6.20    2.50
  -1   1   6    3.90    2.50
  -1   1   6    4.50    3.60
   0  -1  -6  164.68   14.60
   0  -1  -6  135.59   13.80
   0  -1  -6  178.58   15.10
   0  -1  -6  151.88   14.00
   0  -1  -6  134.79   14.80
   0   1   6  131.79   13.70
   0   1   6  177.98   15.00
   0   1   6  146.59   14.80
   0   1   6  158.88   13.90
  -1  -1  -6   43.30    4.80
  -1  -1  -6   57.39    5.80
  -1  -1  -6   42.50    5.30
  -1  -1  -6   66.19    7.60
  -1  -1  -6   49.20    6.10
   1   1   6   64.49    6.20
   1   1   6   65.09    6.90
   1   1   6   49.70    5.30
   1   1   6   56.39    5.60
   1   1   6   59.89    7.10
  -2  -1  -6   18.10    5.30
  -2  -1  -6    8.80    2.50
  -2  -1  -6   11.20    2.60
  -2  -1  -6   14.40    2.80
  -2  -1  -6    8.70    3.80
   2   1   6   16.90    3.10
   2   1   6   11.70    4.90
   2   1   6   17.60    3.40
   2   1   6    8.80    2.80
   2   1   6   15.50    2.80
  -3  -1  -6 1537.05  135.79
  -3  -1  -6 1322.17  136.79
  -3  -1  -6 1615.04  136.09
  -3  -1  -6 1396.76  136.59
  -3  -1  -6 1509.55  135.89
  -3  -1  -6 1731.13  136.99
  -3  -1  -6 1547.65  135.79
   3   1   6 1609.14  136.69
   3   1   6 1583.44  135.79
   3   1   6 1672.83  136.79
   3   1   6 1615.74  135.79
   3   1   6 1536.55  136.49
  -4  -1  -6   51.49    6.50
  -4  -1  -6   44.00    5.30
  -4  -1  -6   60.49    5.50
  -4  -1  -6   36.10    8.80
  -4  -1  -6   68.99    9.10
  -4  -1  -6   52.99    8.30
   4   1   6   60.39    8.20
   4   1   6   60.29    5.60
   4   1   6   52.89    7.70
   4   1   6   52.79    8.00
  -5  -1  -6    4.80    8.00
  -5  -1  -6   -0.60    7.10
  -5  -1  -6    5.50    3.20
  -5  -1  -6   12.20    7.90
  -5  -1  -6    4.40    1.20
  -5  -1  -6    2.40    5.30
  -5  -1  -6   11.90    5.10
   5   1   6    8.80    1.90
   5   1   6    7.60    1.80
   5   1   6    6.30    6.60
   5   1   6   11.20    6.90
  -6  -1  -6   -1.60    6.10
  -6  -1  -6    9.60    6.30
  -6  -1  -6    7.60    4.10
  -6  -1  -6    2.50    9.70
  -6  -1  -6   18.30   10.00
  -6  -1  -6   16.20    8.00
  -6  -1  -6   -8.60    9.60
  -7  -1  -6  -11.00    9.60
  -7  -1  -6    0.30    6.20
  -7  -1  -6   16.40    8.40
  -7  -1  -6   -0.40    7.50
  -7  -1  -6    9.80   10.70
  -7  -1  -6    0.90    5.10
  -7  -1  -6    5.50    6.50
  -7  -1  -6   18.80   10.80
   6  -2  -6    5.20   10.80
   6  -2  -6    6.00    6.70
   6  -2  -6   12.50   10.90
   6  -2  -6    1.10    5.00
  -6   2   6  -11.70    9.00
  -6   2   6   -4.40    4.00
   5  -2  -6    9.10    9.70
   5  -2  -6   -3.00    4.30
   5  -2  -6    0.80    5.30
   5  -2  -6    2.80    4.90
   5  -2  -6    6.10    8.80
  -5   2   6   -4.30    6.00
  -5   2   6   -1.60    4.00
  -5   2   6    0.30    7.40
  -5   2   6    5.30    3.40
  -5   2   6  -11.10    7.20
   4  -2  -6    0.30    3.60
   4  -2  -6   -2.80    8.40
   4  -2  -6   -1.40    7.20
   4  -2  -6   -4.40    4.00
   4  -2  -6   -0.30    4.10
   4  -2  -6    1.50    5.70
  -4   2   6    5.40    4.40
  -4   2   6   -3.70    3.30
  -4   2   6   -2.80    5.10
  -4   2   6   -3.00    6.40
  -4   2   6   -0.30    5.40
  -4   2   6   -2.30    5.10
   3  -2  -6    7.30    7.20
   3  -2  -6    2.00    5.20
   3  -2  -6    6.00    4.30
   3  -2  -6    9.90    6.10
   3  -2  -6    8.40    3.60
   3  -2  -6    2.60    3.10
  -3   2   6    8.20    3.10
  -3   2   6    5.40    3.60
  -3   2   6    0.50    5.30
  -3   2   6    6.80    4.90
  -3   2   6    5.90    5.70
  -3   2   6    8.40    4.30
   2  -2  -6   84.99    8.70
   2  -2  -6   59.29    7.50
   2  -2  -6   72.09    8.80
   2  -2  -6   51.29   11.10
   2  -2  -6   71.99    9.60
   2  -2  -6   72.89    7.80
  -2   2   6   68.49    7.50
  -2   2   6   71.59   10.00
  -2   2   6   68.19    7.80
  -2   2   6   70.79    9.80
  -2   2   6   69.49    7.70
  -2   2   6   92.19    9.70
   1  -2  -6  100.19   12.10
   1  -2  -6  114.49   12.10
   1  -2  -6  109.59   10.80
  -1   2   6  102.09   10.70
  -1   2   6  102.59   12.30
  -1   2   6  119.29   10.60
  -1   2   6  111.69   12.20
  -1   2   6  130.79   10.80
  -1   2   6  121.19   11.80
   0  -2  -6  431.36   39.30
   0  -2  -6  492.75   40.30
   0  -2  -6  454.15   39.30
   0  -2  -6  469.45   40.00
   0  -2  -6  375.86   39.80
   0   2   6  497.75   39.50
   0   2   6  454.25   39.90
   0   2   6  397.26   40.00
   0   2   6  447.36   39.30
   0   2   6  442.86   38.90
   0   2   6  427.96   39.20
  -1  -2  -6    4.20    3.20
  -1  -2  -6   12.40    4.20
  -1  -2  -6    2.50    2.80
  -1  -2  -6    8.60    3.90
  -1  -2  -6    6.40    2.30
   1   2   6    7.00    3.40
   1   2   6    4.20    4.00
   1   2   6    6.80    2.80
   1   2   6    6.40    2.70
  -2  -2  -6   49.60    6.90
  -2  -2  -6   46.80    5.30
  -2  -2  -6   47.30    5.20
  -2  -2  -6   40.60    5.90
  -2  -2  -6   47.30    7.50
   2   2   6   45.80    6.70
   2   2   6   41.50    6.30
   2   2   6   42.20    5.70
   2   2   6   39.20    5.10
   2   2   6   49.90    4.60
   2   2   6   46.90    5.10
  -3  -2  -6  265.17   23.40
  -3  -2  -6  267.57   24.80
  -3  -2  -6  268.87   23.80
  -3  -2  -6  275.97   23.50
  -3  -2  -6  232.98   24.50
   3   2   6  254.77   24.40
   3   2   6  285.97   23.70
   3   2   6  270.27   24.40
   3   2   6  243.58   23.30
   3   2   6  259.07   23.40
   3   2   6  268.87   24.50
  -4  -2  -6   23.60    4.40
  -4  -2  -6   25.50    6.70
  -4  -2  -6   23.50    3.70
  -4  -2  -6   26.50    8.10
  -4  -2  -6   32.90    5.90
  -4  -2  -6   26.90    3.70
   4   2   6   19.70    6.50
   4   2   6   22.80    6.40
   4   2   6   23.30    3.70
   4   2   6   25.00    6.00
   4   2   6   22.30    4.70
   4   2   6   25.20    3.70
  -5  -2  -6   42.90    9.60
  -5  -2  -6   66.29    8.00
  -5  -2  -6   47.80   10.10
  -5  -2  -6   61.29    8.70
  -5  -2  -6   51.09    8.30
  -5  -2  -6   54.39   10.20
   5   2   6   69.39    7.90
   5   2   6   43.50    9.00
   5   2   6   58.99    5.90
   5   2   6   63.59    8.30
   5   2   6   60.69    9.30
  -6  -2  -6   -4.90    9.50
  -6  -2  -6   13.80    7.70
  -6  -2  -6   14.10    6.50
  -6  -2  -6   -6.80    5.90
  -6  -2  -6    5.80    9.30
  -6  -2  -6   18.20    7.00
   6   2   6    6.20    2.20
   6   2   6   19.20   11.20
  -7  -2  -6   24.10    7.40
  -7  -2  -6   35.30    9.10
  -7  -2  -6   49.30    9.80
  -7  -2  -6   31.00   11.90
  -7  -2  -6   32.30   11.30
  -7  -2  -6    6.60   11.40
   7   2   6   31.00   10.30
  -8  -2  -6   50.89   12.40
  -8  -2  -6   54.79   12.90
   5  -3  -6    9.00    5.30
   5  -3  -6   31.20   13.90
   5  -3  -6    7.10    4.90
   5  -3  -6    7.90    5.50
   5  -3  -6   23.40   11.30
  -5   3   6    5.10    4.40
  -5   3   6    2.20    4.80
  -5   3   6   10.20    4.30
  -5   3   6    3.60    7.50
  -5   3   6   -7.60    8.40
   4  -3  -6   -2.70    4.80
   4  -3  -6   -0.80    4.60
   4  -3  -6    3.40    4.70
   4  -3  -6    3.00    9.10
   4  -3  -6    3.30    8.50
  -4   3   6   -5.90    3.50
  -4   3   6   -4.30    7.20
  -4   3   6    0.60    4.20
  -4   3   6    6.40    6.50
  -4   3   6   -4.80    5.00
  -4   3   6  -10.80    6.80
  -4   3   6    7.00    3.00
   3  -3  -6    9.80    4.40
   3  -3  -6   15.60    4.50
   3  -3  -6   33.90    8.50
   3  -3  -6   16.50    8.50
   3  -3  -6   15.50    6.10
   3  -3  -6   17.60    4.70
  -3   3   6   14.80    4.90
  -3   3   6   13.30    2.30
  -3   3   6   19.20    4.00
  -3   3   6   24.60    6.00
  -3   3   6   19.10    7.10
  -3   3   6   13.00    5.10
  -3   3   6   16.10    6.40
   2  -3  -6    4.70    6.80
   2  -3  -6    4.90    4.90
   2  -3  -6    2.10    3.40
   2  -3  -6    6.00    4.10
   2  -3  -6   15.00    7.20
   2  -3  -6    9.00    3.90
  -2   3   6   10.40    5.80
  -2   3   6    7.60    5.90
  -2   3   6    0.80    4.00
  -2   3   6    1.70    3.30
  -2   3   6    0.30    3.40
   1  -3  -6   49.40    8.40
   1  -3  -6   45.90    6.10
   1  -3  -6   42.50    6.10
   1  -3  -6   48.10    7.10
   1  -3  -6   52.19    7.70
  -1   3   6   46.20    8.30
  -1   3   6   34.00    7.20
  -1   3   6   55.69    5.90
  -1   3   6   51.09    5.60
  -1   3   6   45.90    5.80
  -1   3   6   35.90    4.60
   0  -3  -6    9.40    3.00
   0  -3  -6   26.70    6.00
   0  -3  -6   23.20    5.40
   0  -3  -6   16.50    4.70
   0  -3  -6   12.30    3.80
   0   3   6   14.00    4.90
   0   3   6   12.60    3.50
   0   3   6   15.10    3.20
   0   3   6   14.10    3.60
   0   3   6   30.70    6.70
  -1  -3  -6    6.40    3.70
  -1  -3  -6    9.20    4.20
  -1  -3  -6    2.20    3.30
  -1  -3  -6   -1.60    2.50
  -1  -3  -6   10.70    4.60
   1   3   6   -0.70    3.00
   1   3   6    4.40    3.40
   1   3   6    4.30    3.30
   1   3   6   10.90    4.20
  -2  -3  -6   12.80    5.30
  -2  -3  -6   10.80    4.60
  -2  -3  -6    8.70    2.60
  -2  -3  -6    9.00    3.20
  -2  -3  -6   10.60    4.00
   2   3   6    9.00    4.00
   2   3   6   14.80    2.70
   2   3   6    8.40    3.10
   2   3   6   13.10    3.80
   2   3   6   12.60    4.60
   2   3   6    9.20    3.00
  -3  -3  -6  261.07   24.40
  -3  -3  -6  280.77   23.00
  -3  -3  -6  217.58   22.90
  -3  -3  -6  244.18   23.70
  -3  -3  -6  261.47   24.30
   3   3   6  266.67   23.00
   3   3   6  255.97   24.30
   3   3   6  272.57   23.10
   3   3   6  246.88   23.00
   3   3   6  255.27   24.00
   3   3   6  259.87   24.00
  -4  -3  -6   56.59    6.20
  -4  -3  -6   41.00    5.80
  -4  -3  -6   55.19    8.80
  -4  -3  -6   64.39    8.30
  -4  -3  -6   55.29    9.40
   4   3   6   51.49    6.30
   4   3   6   60.09    8.50
   4   3   6   53.99    6.20
   4   3   6   54.69    6.50
   4   3   6   45.00    8.70
  -5  -3  -6    3.00    4.50
  -5  -3  -6    8.90    7.40
  -5  -3  -6    0.90    2.50
  -5  -3  -6    1.10    4.80
   5   3   6    2.60    4.40
   5   3   6   -1.10    6.70
   5   3   6    2.40    2.90
   5   3   6    1.80    3.50
   5   3   6   -1.00    4.90
  -6  -3  -6   -3.60    6.00
  -6  -3  -6    9.70    9.70
  -6  -3  -6   -3.50    5.60
   6   3   6   -7.30    2.90
   6   3   6    8.70    5.30
   6   3   6   -1.60    8.40
   6   3   6   11.80    6.50
  -7  -3  -6   74.49   12.40
  -7  -3  -6   70.59   15.00
   7   3   6   65.69    7.30
   7   3   6   81.59    7.20
   7   3   6   57.69   12.10
  -8  -3  -6   22.30    7.20
  -8  -3  -6   27.40    8.90
   4  -4  -6    2.80    4.60
   4  -4  -6    7.90    7.70
   4  -4  -6   -7.40    5.00
   4  -4  -6    4.50   10.20
   4  -4  -6    8.00   10.10
   4  -4  -6   -2.90    5.50
  -4   4   6    2.10    6.60
  -4   4   6  -12.10    8.00
  -4   4   6   -7.00    4.40
  -4   4   6   -8.10    5.10
   3  -4  -6    0.00    4.80
   3  -4  -6    5.50    8.90
   3  -4  -6    4.50    4.10
   3  -4  -6   10.70    9.10
  -3   4   6    6.50    4.60
  -3   4   6    8.50    6.00
  -3   4   6   -1.10    5.50
  -3   4   6   -1.20    7.60
  -3   4   6   14.80    4.50
   2  -4  -6    7.70    4.70
   2  -4  -6   12.20    8.40
   2  -4  -6    4.60    4.10
   2  -4  -6    1.20    5.90
   2  -4  -6    7.90    4.40
   2  -4  -6   10.20    7.70
  -2   4   6    1.60    4.70
  -2   4   6    6.00    7.20
  -2   4   6   13.40    4.70
  -2   4   6    8.20    6.70
  -2   4   6   13.70    5.10
   1  -4  -6  325.17   29.50
   1  -4  -6  297.97   29.80
   1  -4  -6  345.67   29.10
   1  -4  -6  279.07   28.20
   1  -4  -6  337.07   28.40
  -1   4   6  310.27   28.30
  -1   4   6  265.97   29.70
  -1   4   6  365.26   28.30
  -1   4   6  284.67   30.20
   0  -4  -6   81.89   11.50
   0  -4  -6  114.79   12.00
   0  -4  -6   99.29   11.50
   0  -4  -6   97.09   10.60
   0  -4  -6  114.99   10.90
   0   4   6  117.09   10.70
   0   4   6  117.59   10.80
   0   4   6  108.19   12.90
   0   4   6   92.09   13.00
  -1  -4  -6  149.79   15.00
  -1  -4  -6  155.28   15.70
  -1  -4  -6  163.78   15.30
  -1  -4  -6  159.68   15.00
   1   4   6  170.08   15.00
   1   4   6  138.29   16.80
   1   4   6  162.28   15.00
  -2  -4  -6   -2.30    2.70
  -2  -4  -6    5.20    4.90
  -2  -4  -6   -0.60    3.40
  -2  -4  -6   11.70    4.90
  -2  -4  -6   -4.70    5.20
   2   4   6    2.70    3.60
   2   4   6    6.30    3.70
   2   4   6    5.60    4.40
   2   4   6    1.30    3.40
  -3  -4  -6  373.06   31.60
  -3  -4  -6  351.76   32.80
  -3  -4  -6  347.07   32.60
  -3  -4  -6  374.56   31.60
  -3  -4  -6  376.06   32.70
   3   4   6  352.46   31.60
   3   4   6  340.17   31.50
   3   4   6  341.27   31.40
   3   4   6  349.07   32.90
   3   4   6  324.27   32.50
  -4  -4  -6   26.20    7.50
  -4  -4  -6   39.30    8.70
  -4  -4  -6   26.50    4.90
  -4  -4  -6   36.00    9.20
  -4  -4  -6   30.70    5.60
   4   4   6   21.10    6.30
   4   4   6   29.30    4.80
   4   4   6   33.50    7.10
   4   4   6   24.40    4.90
   4   4   6   31.80    5.50
  -5  -4  -6    8.90    3.50
  -5  -4  -6    6.20    5.70
  -5  -4  -6   11.40    8.10
  -5  -4  -6    2.40    5.70
  -5  -4  -6    7.00    3.80
   5   4   6    8.90    8.00
   5   4   6    6.10    3.90
   5   4   6    6.20    4.80
   5   4   6    6.00    3.60
   5   4   6   13.90    5.20
  -6  -4  -6   11.90    3.90
  -6  -4  -6    3.60    6.00
   6   4   6   25.20    7.20
   6   4   6   13.60    6.10
   6   4   6   19.10    9.00
  -7  -4  -6   66.29   12.90
  -7  -4  -6   62.39   14.10
  -7  -4  -6   86.39   13.30
  -7  -4  -6   82.09   14.10
  -7  -4  -6   90.29   10.40
  -7  -4  -6   70.99    8.00
   7   4   6   76.29    8.40
   7   4   6   77.89   11.70
   7   4   6   62.99   11.10
   7   4   6   93.19   14.00
  -8  -4  -6   17.30    8.30
   4  -5  -6   -8.20    6.90
   4  -5  -6    9.30   11.60
  -4   5   6    5.20    6.00
  -4   5   6   16.60    8.40
   3  -5  -6    1.40   10.70
   3  -5  -6   -0.90    4.30
   3  -5  -6   -1.10    5.50
   3  -5  -6    3.80    7.40
   3  -5  -6   -3.90    5.70
   3  -5  -6   -6.00   10.00
  -3   5   6    7.70    7.20
  -3   5   6   -6.20    8.50
  -3   5   6   -1.80    5.00
  -3   5   6   -0.30    5.40
   2  -5  -6   -2.20    5.40
   2  -5  -6  -11.00    9.10
   2  -5  -6    4.30    8.40
   2  -5  -6   -0.90    4.40
  -2   5   6   -9.00    7.80
  -2   5   6    2.60    4.70
  -2   5   6   -7.50    5.60
  -2   5   6    3.10    5.90
  -2   5   6    3.80    5.10
   1  -5  -6   45.30   13.10
   1  -5  -6   61.29    9.40
   1  -5  -6   70.19    8.50
  -1   5   6   54.39    7.90
  -1   5   6   43.10   11.30
  -1   5   6   63.99    8.50
   0  -5  -6   13.40    5.20
   0  -5  -6    7.80    4.90
   0  -5  -6    6.80    6.20
   0  -5  -6    4.60    3.40
   0  -5  -6    9.20    6.50
   0   5   6    3.40    6.50
   0   5   6   10.50    4.30
   0   5   6    7.10    8.50
  -1  -5  -6    6.00    5.60
  -1  -5  -6    3.00    4.30
  -1  -5  -6    7.10    3.70
  -1  -5  -6    8.40    4.80
  -1  -5  -6    6.00    5.80
   1   5   6    3.90    4.50
   1   5   6    7.00    6.10
   1   5   6    9.60    4.20
   1   5   6    6.40    6.30
  -2  -5  -6   -0.70    3.40
  -2  -5  -6    3.10    5.00
  -2  -5  -6    3.10    4.40
  -2  -5  -6   -0.80    5.80
  -2  -5  -6   -3.60    5.40
   2   5   6   -1.10    4.10
   2   5   6    4.60    4.10
   2   5   6    0.00    3.30
   2   5   6   -0.40    5.50
  -3  -5  -6    2.80    5.80
  -3  -5  -6    3.90    6.70
  -3  -5  -6    5.10    4.00
  -3  -5  -6   -2.50    4.10
  -3  -5  -6    3.30    4.60
  -3  -5  -6    2.20    5.80
   3   5   6    2.60    5.00
   3   5   6    4.20    4.20
   3   5   6    2.60    3.80
   3   5   6    8.90    7.40
  -4  -5  -6    2.40    5.70
  -4  -5  -6    3.90    7.30
  -4  -5  -6    5.70    5.90
  -4  -5  -6   -7.40    3.90
   4   5   6    3.00    6.10
   4   5   6   -3.80    4.60
   4   5   6    1.20    3.70
   4   5   6    8.60    4.80
   4   5   6    5.10    5.00
  -5  -5  -6   15.20    8.30
  -5  -5  -6    2.20    6.10
  -5  -5  -6    6.50    4.30
  -5  -5  -6    0.90    6.10
  -5  -5  -6    6.00    4.50
   5   5   6    3.20    4.90
   5   5   6    5.70    4.30
   5   5   6    6.50    4.10
   5   5   6    3.10    8.40
   5   5   6   15.10    5.40
  -6  -5  -6    2.00    4.10
  -6  -5  -6   -7.80    5.70
  -6  -5  -6   -6.20    3.70
  -6  -5  -6    7.50   12.40
  -6  -5  -6   -8.10    4.40
   6   5   6   -4.20    4.60
   6   5   6   -1.00    5.20
   6   5   6    5.90    9.80
   6   5   6    3.20    9.00
  -7  -5  -6  182.78   19.40
  -7  -5  -6  142.39   15.00
  -7  -5  -6  157.78   15.30
  -7  -5  -6  150.78   15.60
   7   5   6  170.18   15.60
   7   5   6  162.28   17.30
   7   5   6  178.68   20.30
   7   5   6  152.38   17.90
   3  -6  -6   13.80   12.10
  -3   6   6   18.90   13.70
  -3   6   6    0.60    6.00
   2  -6  -6   -4.20    6.40
   2  -6  -6    1.90   13.10
   2  -6  -6    8.80    9.80
  -2   6   6  -13.00    8.10
  -2   6   6    4.60    7.70
  -2   6   6   -1.50    6.20
  -2   6   6    3.10    5.90
   1  -6  -6   73.09   11.70
   1  -6  -6   92.39   11.90
   1  -6  -6   94.79   12.70
  -1   6   6  110.29   11.00
  -1   6   6   86.39   10.90
   0  -6  -6   -1.60    7.10
   0  -6  -6   -6.80    4.60
   0  -6  -6   12.20    8.90
   0  -6  -6    6.00    7.00
   0   6   6   -0.80    5.20
   0   6   6   -4.30    5.40
   0   6   6   -3.90    4.90
  -1  -6  -6   77.69    9.10
  -1  -6  -6   70.99    9.90
  -1  -6  -6   66.39    8.20
  -1  -6  -6   54.39   12.00
  -1  -6  -6   58.39    8.90
   1   6   6   73.59    9.10
   1   6   6   55.79    7.90
   1   6   6   75.69   12.20
   1   6   6   44.70   12.60
  -2  -6  -6    9.00    5.60
  -2  -6  -6   12.20    5.20
  -2  -6  -6    4.90    6.50
  -2  -6  -6   17.90    5.10
  -2  -6  -6    7.40    7.10
   2   6   6   14.50    7.50
   2   6   6    9.70    5.20
   2   6   6    8.30    6.80
   2   6   6    3.10    6.60
  -3  -6  -6  380.76   35.80
  -3  -6  -6  416.56   34.00
  -3  -6  -6  355.66   33.70
   3   6   6  318.87   33.50
   3   6   6  337.27   35.30
   3   6   6  397.96   34.00
   3   6   6  420.36   36.00
  -4  -6  -6   -0.80    4.70
  -4  -6  -6   -7.50    4.70
  -4  -6  -6    4.90    3.50
  -4  -6  -6    4.20    7.30
  -4  -6  -6   -2.90    6.40
   4   6   6   -0.10    8.70
   4   6   6    5.60    4.90
   4   6   6   -0.80    5.80
  -5  -6  -6   17.20    8.20
  -5  -6  -6    1.90    5.10
  -5  -6  -6    1.00    2.50
  -5  -6  -6    1.70    4.70
   5   6   6    5.00    9.20
   5   6   6   -3.40    5.70
   5   6   6    7.80    6.20
   5   6   6    0.40    5.00
  -6  -6  -6    6.80    6.60
  -6  -6  -6   11.90    9.30
  -6  -6  -6    9.80    4.60
  -6  -6  -6    5.60    5.50
   6   6   6    9.80   10.40
   6   6   6   12.50    6.90
   6   6   6    9.10    5.10
   6   6   6   -1.30    5.90
   6   6   6   21.60    5.60
  -7  -6  -6   43.80    8.30
  -7  -6  -6   34.20    9.40
  -7  -6  -6   25.20    8.80
   7   6   6   49.40    8.30
   7   6   6   51.29   13.50
   7   6   6   30.50    6.70
   7   6   6   35.20    9.60
   7   6   6   36.80   10.20
   1  -7  -6   20.40   10.50
  -1   7   6   24.10    6.90
  -1   7   6    9.90    6.40
   0  -7  -6   -2.90    5.40
   0  -7  -6    7.50    9.00
   0  -7  -6   -9.70    7.80
   0   7   6   -0.30    5.70
   0   7   6   -0.70    5.50
   0   7   6   -7.20    6.60
   0   7   6  -13.30    7.80
  -1  -7  -6   -3.50    5.70
  -1  -7  -6    5.90    7.40
   1   7   6    3.30    4.60
   1   7   6   -4.60    5.60
  -2  -7  -6    7.00    6.70
  -2  -7  -6  -10.00    6.90
  -2  -7  -6    6.50    5.90
  -2  -7  -6    5.10    5.90
   2   7   6   -9.00   10.10
   2   7   6    4.10    5.50
   2   7   6   -4.10    6.90
   2   7   6   10.10    6.00
  -3  -7  -6    8.50    5.90
  -3  -7  -6   15.20    5.20
  -3  -7  -6   22.30    7.80
   3   7   6   16.20    5.80
   3   7   6   -6.40    7.10
   3   7   6   19.40    6.00
   3   7   6    7.50    9.30
  -4  -7  -6   10.80    8.30
  -4  -7  -6   -0.90    5.40
  -4  -7  -6  -13.70    7.90
  -4  -7  -6   12.80    5.50
   4   7   6    3.50    9.80
   4   7   6  -10.00    6.70
   4   7   6    8.00    6.40
  -5  -7  -6   -1.10    5.10
  -5  -7  -6    0.90    5.60
   5   7   6   -8.00    6.60
   5   7   6    3.90    5.60
   5   7   6   15.90   10.90
   5   7   6   -8.80    7.70
   5   7   6   -9.90    6.60
  -6  -7  -6    0.00    5.50
  -6  -7  -6   -5.30    6.50
  -6  -7  -6   -3.50    5.80
   6   7   6   16.70   11.10
   6   7   6    6.60    8.30
   6   7   6   -0.40    6.90
   6   7   6  -10.80    6.90
  -1  -8  -6   15.20    8.70
  -1  -8  -6   12.50    7.70
   1   8   6   -8.20    8.70
   1   8   6   -3.50    6.70
   1   8   6    6.50    7.20
  -2  -8  -6   20.20    7.10
  -2  -8  -6    2.70    7.40
  -2  -8  -6   16.60    7.90
  -2  -8  -6   20.40    7.50
   2   8   6   31.00    9.60
  -3  -8  -6  218.98   23.70
  -3  -8  -6  263.47   24.10
  -3  -8  -6  277.07   24.70
  -3  -8  -6  208.48   22.80
   3   8   6  229.18   26.60
   3   8   6  275.77   24.00
  -4  -8  -6    5.50    7.00
  -4  -8  -6   21.40    9.60
  -4  -8  -6    5.10    6.80
   4   8   6   -8.90   11.10
   4   8   6  -12.80    8.10
   4   8   6    1.80    6.90
  -5  -8  -6    3.70    7.50
  -5  -8  -6  -11.00    7.40
  -5  -8  -6  -10.00    6.30
   5   8   6   12.50   12.20
   5   8   6  -10.50    8.00
   2   8  -7    2.50    6.70
  -2  -8   7   -9.90    7.00
  -2  -8   7   -8.70    7.10
   1   8  -7   23.80    9.00
  -1  -8   7   11.60    7.70
   4   7  -7  108.49   12.20
   4   7  -7  109.19   10.00
   4   7  -7   95.69   10.40
  -4  -7   7   80.79   14.40
  -4  -7   7  139.49   12.60
   3   7  -7   12.30    5.70
   3   7  -7    5.10    7.70
   3   7  -7    5.60    5.70
   3   7  -7    1.80    7.40
  -3  -7   7   -1.50    7.00
  -3  -7   7   -2.70    6.00
  -3  -7   7   -0.80    6.30
  -3  -7   7  -11.30    6.60
   2   7  -7   -1.40    7.30
   2   7  -7   -1.00    7.60
   2   7  -7    3.30    6.50
   2   7  -7   11.20    6.60
  -2  -7   7   -1.80    9.80
  -2  -7   7    0.90    5.90
  -2  -7   7   -5.00    6.10
  -2  -7   7   -3.90    6.00
   1   7  -7    0.70    7.20
   1   7  -7    5.70    7.70
   1   7  -7   18.70    7.90
   1   7  -7    8.60    6.70
  -1  -7   7    5.60    5.80
  -1  -7   7   -9.60    9.80
  -1  -7   7   -4.20    5.30
  -1  -7   7    0.00    6.30
   0   7  -7   11.80    7.70
   0   7  -7    7.10    7.20
   0   7  -7   28.30    9.40
   0  -7   7    8.70    5.50
   0  -7   7    9.60    6.70
   0  -7   7   -4.80   10.30
  -1   7  -7   56.89   13.90
  -1   7  -7   34.40    8.00
  -1   7  -7   46.80    9.50
   1  -7   7   23.90    7.90
   1  -7   7   31.70   12.40
  -2   7  -7   -0.20    6.40
  -2   7  -7   12.30    9.40
  -2   7  -7    3.80    8.00
   2  -7   7    9.20   12.10
   2  -7   7   -3.60    8.00
   5   6  -7   27.50    7.60
   5   6  -7   20.90    5.40
  -5  -6   7   18.60    9.10
  -5  -6   7   23.90    5.70
  -5  -6   7    6.70    7.80
  -5  -6   7   13.90    6.70
   4   6  -7  185.68   21.30
   4   6  -7  125.19   13.20
   4   6  -7  116.09   12.30
  -4  -6   7  140.29   16.40
  -4  -6   7  115.79   14.90
  -4  -6   7  135.59   13.60
   3   6  -7   -6.20    4.60
   3   6  -7    5.40    4.60
   3   6  -7    0.10    6.60
   3   6  -7   12.60    6.50
  -3  -6   7    1.10    8.70
  -3  -6   7    6.50    6.20
  -3  -6   7   -2.70    7.30
  -3  -6   7    2.50    5.40
  -3  -6   7    8.90    5.20
   2   6  -7   -7.70    6.10
   2   6  -7   -1.10    5.00
   2   6  -7    1.90    5.20
   2   6  -7    1.60    6.30
  -2  -6   7   -7.90    8.50
  -2  -6   7   -7.50    5.30
  -2  -6   7   -5.50    5.30
  -2  -6   7   -0.80    4.80
   1   6  -7    4.30    5.10
   1   6  -7    9.90    6.10
   1   6  -7   -3.60    6.10
   1   6  -7   -0.50    6.20
   1   6  -7    1.70    5.60
  -1  -6   7   -2.70   12.00
  -1  -6   7   -8.80    5.30
  -1  -6   7   -5.40    5.20
  -1  -6   7   -2.70    4.70
  -1  -6   7   -2.80    4.40
   0   6  -7  129.79   15.40
   0   6  -7  107.09   11.90
   0   6  -7  115.29   12.40
   0   6  -7   93.79   12.30
   0  -6   7  101.09   11.60
   0  -6   7  102.99   13.90
   0  -6   7   96.19   11.00
   0  -6   7   82.49   11.90
   0  -6   7   92.39   13.60
  -1   6  -7   34.20    9.00
  -1   6  -7   11.40    6.70
  -1   6  -7   17.10    6.40
  -1   6  -7   20.00    7.80
   1  -6   7    6.30    6.60
   1  -6   7   17.60    6.20
   1  -6   7   23.10    8.70
  -2   6  -7   15.30    8.10
  -2   6  -7   27.30    6.50
   2  -6   7   26.30   10.90
   2  -6   7   17.90    4.40
   2  -6   7    1.30    8.80
   2  -6   7   20.40    6.30
   2  -6   7    6.00    6.50
  -3   6  -7    5.50    8.70
  -3   6  -7    0.20    5.70
  -3   6  -7   21.00   11.40
  -3   6  -7   -3.10    6.40
   3  -6   7    1.70   10.60
   3  -6   7   -2.40    6.30
   3  -6   7   12.60   11.40
   3  -6   7    2.30    6.00
   6   5  -7    3.60    6.20
   6   5  -7   17.00    7.30
   6   5  -7    0.40    8.30
  -6  -5   7    7.80    5.40
  -6  -5   7   -4.10    7.80
  -6  -5   7    1.70    5.60
   5   5  -7   12.70    6.20
   5   5  -7   14.20    6.50
   5   5  -7   14.70    6.40
   5   5  -7    8.80    7.20
  -5  -5   7    6.00    6.90
  -5  -5   7   11.10    4.60
  -5  -5   7   12.60    5.20
   4   5  -7  345.77   30.00
   4   5  -7  324.87   29.90
  -4  -5   7  315.37   29.60
  -4  -5   7  297.27   30.70
  -4  -5   7  338.77   30.40
   3   5  -7   14.60    6.30
   3   5  -7   12.40    3.80
   3   5  -7    5.40    6.00
   3   5  -7   14.20    9.10
  -3  -5   7    4.50    5.00
  -3  -5   7    2.90    4.50
  -3  -5   7   14.50    6.10
  -3  -5   7   14.30    6.90
   2   5  -7   14.80    5.60
   2   5  -7    9.00    4.70
   2   5  -7   18.50    6.00
   2   5  -7   15.60    5.70
  -2  -5   7   17.60    4.60
  -2  -5   7   14.80    5.50
  -2  -5   7   17.50    5.30
  -2  -5   7   19.00    7.50
  -2  -5   7   16.70    5.90
   1   5  -7   17.40    5.70
   1   5  -7   17.10    5.60
   1   5  -7   23.50    6.10
   1   5  -7   24.60    6.10
  -1  -5   7   36.20    8.90
  -1  -5   7   14.90    5.00
  -1  -5   7   25.80    5.60
  -1  -5   7   22.70    4.90
  -1  -5   7   17.80    5.40
   0   5  -7   82.99   10.60
   0   5  -7   72.69    9.30
   0   5  -7   95.09   12.40
   0   5  -7  102.59   10.70
   0  -5   7   83.69   12.10
   0  -5   7   84.19    9.60
   0  -5   7  101.09   10.30
   0  -5   7   88.59   10.60
  -1   5  -7   65.79    8.90
  -1   5  -7   50.29    8.50
  -1   5  -7   58.69   12.90
  -1   5  -7   64.79    9.90
  -1   5  -7   64.49    8.20
   1  -5   7   52.29    8.30
   1  -5   7   65.09    8.30
   1  -5   7   70.49   10.10
   1  -5   7   60.49   11.00
  -2   5  -7    5.40    5.50
  -2   5  -7    9.50    7.10
  -2   5  -7    3.10    5.20
   2  -5   7   -0.10    3.00
   2  -5   7   12.20    7.70
   2  -5   7    5.70    5.80
   2  -5   7    8.70    5.00
   2  -5   7   16.40    9.80
  -3   5  -7    5.40    5.90
  -3   5  -7    8.40    5.40
  -3   5  -7    4.60    4.40
   3  -5   7    2.40    8.00
   3  -5   7   10.80    5.90
   3  -5   7    6.60    5.70
   3  -5   7    3.50    7.30
   3  -5   7    2.00    5.10
  -4   5  -7    3.80    4.70
  -4   5  -7    5.40    5.60
  -4   5  -7   11.90    8.40
   4  -5   7   11.30    5.70
   4  -5   7    3.10    4.90
   4  -5   7    6.20    9.30
   4  -5   7    0.10    5.50
   6   4  -7   19.60    6.50
   6   4  -7   13.80    6.50
   6   4  -7   12.40    8.50
  -6  -4   7   16.70    4.80
  -6  -4   7   11.20    5.10
  -6  -4   7   10.30    7.90
  -6  -4   7   38.10   11.40
   5   4  -7   13.10    5.40
   5   4  -7   11.30    7.10
   5   4  -7    4.00    7.40
  -5  -4   7    0.80    6.60
  -5  -4   7    8.40    4.50
  -5  -4   7   14.90    5.00
   4   4  -7  382.46   32.00
   4   4  -7  301.77   31.60
   4   4  -7  392.16   32.30
  -4  -4   7  382.26   31.60
  -4  -4   7  319.37   32.70
  -4  -4   7  316.67   31.40
   3   4  -7    2.50    2.70
   3   4  -7   -7.20    4.40
   3   4  -7   -9.80    4.90
   3   4  -7    4.70    5.40
  -3  -4   7   -9.50    3.70
  -3  -4   7    1.30    7.30
  -3  -4   7    3.30    5.60
   2   4  -7    8.40    3.80
   2   4  -7   15.40    5.00
   2   4  -7    6.30    3.70
   2   4  -7    7.50    4.80
  -2  -4   7   16.30    5.60
  -2  -4   7    9.10    4.40
  -2  -4   7    8.90    4.80
  -2  -4   7    9.30    4.80
  -2  -4   7   12.40    3.20
   1   4  -7    4.40    4.00
   1   4  -7    0.30    3.60
   1   4  -7   -1.00    5.30
   1   4  -7   -0.50    4.20
  -1  -4   7    1.70    3.80
  -1  -4   7    3.60    4.10
  -1  -4   7    3.20    4.10
  -1  -4   7    4.10    5.70
   0   4  -7   17.30    5.30
   0   4  -7   28.80    6.60
   0   4  -7   33.00    6.10
   0   4  -7   12.30    5.10
   0  -4   7   33.50    5.60
   0  -4   7   25.30    4.80
   0  -4   7   25.60    6.60
   0  -4   7   29.80    7.00
   0  -4   7   21.70    7.90
  -1   4  -7    7.90    5.60
  -1   4  -7   14.40    4.70
  -1   4  -7   11.60    3.40
  -1   4  -7    7.00    4.60
   1  -4   7   13.50    4.50
   1  -4   7   14.00    7.80
   1  -4   7   11.10    4.20
   1  -4   7    8.90    3.50
  -2   4  -7   82.29    8.80
  -2   4  -7   93.19   11.50
  -2   4  -7   86.89   10.30
   2  -4   7  100.19   10.60
   2  -4   7   70.39    8.80
   2  -4   7   79.69    9.40
   2  -4   7  106.29   12.40
   2  -4   7   62.79   12.10
  -3   4  -7    0.60    4.50
  -3   4  -7    1.90    6.50
  -3   4  -7    2.20    7.80
  -3   4  -7   -3.10    4.60
   3  -4   7   -6.80    9.10
   3  -4   7   -2.60    3.80
   3  -4   7    3.00    4.60
   3  -4   7   -1.80    3.50
   3  -4   7   -7.00    7.50
  -4   4  -7   26.60    8.50
  -4   4  -7   41.20    8.80
  -4   4  -7   44.60    6.80
  -4   4  -7   44.40    7.20
   4  -4   7   38.80    7.10
   4  -4   7   35.00   12.10
   4  -4   7   40.70    9.60
   4  -4   7   41.80    8.00
   4  -4   7   45.40    6.40
  -5   4  -7    2.20    3.90
  -5   4  -7    3.60    4.50
  -5   4  -7  -10.00    5.60
  -5   4  -7    6.50    8.70
   5  -4   7    9.40    4.90
   5  -4   7   -5.10    4.70
   5  -4   7   13.40    8.70
   5  -4   7    8.00   12.50
   6   3  -7    9.40    5.50
   6   3  -7   22.90    9.20
   6   3  -7   16.50    8.40
   6   3  -7    6.40    5.00
   6   3  -7   12.30    6.70
  -6  -3   7   19.70    9.20
  -6  -3   7   -3.10    7.60
  -6  -3   7    9.80    4.50
  -6  -3   7   13.30    7.40
  -6  -3   7   10.00    4.10
   5   3  -7    4.40    5.40
   5   3  -7   -6.60    6.30
   5   3  -7   -4.40    7.20
   5   3  -7    8.00    4.80
  -5  -3   7    3.50    4.20
  -5  -3   7    2.60    6.30
  -5  -3   7    1.10    2.40
  -5  -3   7    5.20    3.70
  -5  -3   7    6.50    6.30
   4   3  -7  256.87   23.30
   4   3  -7  230.78   23.20
   4   3  -7  294.97   24.00
  -4  -3   7  224.78   24.40
  -4  -3   7  227.08   23.00
  -4  -3   7  211.48   24.70
  -4  -3   7  267.47   22.90
  -4  -3   7  274.97   22.30
   3   3  -7   30.00    4.70
   3   3  -7   25.40    5.40
   3   3  -7   37.10    6.00
  -3  -3   7   33.40    4.70
  -3  -3   7   32.00    5.30
  -3  -3   7   32.70    6.90
  -3  -3   7   31.80    5.00
  -3  -3   7   37.20    8.30
   2   3  -7    3.50    4.60
   2   3  -7   -0.90    3.30
   2   3  -7    4.50    3.00
   2   3  -7    6.20    4.10
  -2  -3   7    4.90    3.90
  -2  -3   7   -0.80    4.30
  -2  -3   7    2.50    4.30
  -2  -3   7    2.90    2.80
  -2  -3   7    3.40    3.20
   1   3  -7  426.46   37.90
   1   3  -7  400.36   37.30
  -1  -3   7  428.36   37.20
  -1  -3   7  418.46   37.30
  -1  -3   7  422.06   37.50
   0   3  -7 1108.49   94.89
   0   3  -7  969.00   94.79
   0   3  -7 1245.48   95.39
   0   3  -7 1089.89   95.59
   0  -3   7 1042.30   94.69
   0  -3   7  907.31   94.99
   0  -3   7 1142.69   95.49
   0  -3   7 1060.59   94.59
   0  -3   7 1173.28   94.79
  -1   3  -7   60.69    7.10
  -1   3  -7   52.29    8.70
  -1   3  -7   56.09    9.00
  -1   3  -7   50.89    6.70
  -1   3  -7   43.80    6.50
   1  -3   7   53.69    8.30
   1  -3   7   60.69    7.20
   1  -3   7   52.29    7.20
   1  -3   7   60.69    6.70
   1  -3   7   47.30    6.00
  -2   3  -7   55.99    7.00
  -2   3  -7   58.09    6.60
  -2   3  -7   41.20    9.50
  -2   3  -7   40.20    6.10
  -2   3  -7   49.00    9.10
   2  -3   7   38.80    8.80
   2  -3   7   45.30    5.70
   2  -3   7   51.79    8.50
   2  -3   7   45.90    6.30
   2  -3   7   55.69    6.60
  -3   3  -7   -2.00    3.80
  -3   3  -7   -0.90    6.20
  -3   3  -7    1.90    8.60
  -3   3  -7    3.50    6.90
  -3   3  -7    0.30    2.30
  -3   3  -7    0.20    3.90
   3  -3   7   -1.80    3.10
   3  -3   7   -6.30    6.20
   3  -3   7   -4.70    3.90
   3  -3   7    0.80    6.70
   3  -3   7   -0.60    3.00
  -4   3  -7   -3.00    5.90
  -4   3  -7    2.00    3.40
  -4   3  -7    2.90    1.80
  -4   3  -7    1.00    3.70
  -4   3  -7    1.50    3.70
   4  -3   7    5.20    3.20
   4  -3   7    6.00    7.60
   4  -3   7    4.10    3.10
   4  -3   7   -0.30    4.00
   4  -3   7   11.80    9.60
  -5   3  -7    6.80   11.70
  -5   3  -7   33.30    9.10
  -5   3  -7   26.00    7.00
  -5   3  -7   18.60    5.40
  -5   3  -7   31.60    9.00
  -5   3  -7   24.10    4.60
   5  -3   7   24.30    5.00
   5  -3   7   30.50   12.20
  -6   3  -7   27.80    9.80
  -6   3  -7   18.70    8.10
   6  -3   7   36.40   13.70
   6   2  -7   14.80    8.60
   6   2  -7   10.50    4.90
   6   2  -7   18.30    9.40
   6   2  -7   11.10    7.10
  -6  -2   7   24.60    9.10
  -6  -2   7    7.50    4.20
  -6  -2   7   12.10    7.90
  -6  -2   7    5.60    3.70
  -6  -2   7   -6.10    7.10
   5   2  -7  135.79   13.10
   5   2  -7  148.09   14.80
   5   2  -7  117.19   12.90
   5   2  -7  137.29   14.40
   5   2  -7  138.79   15.80
  -5  -2   7  107.19   15.60
  -5  -2   7  130.79   12.50
  -5  -2   7  114.09   15.70
  -5  -2   7  123.99   12.30
   4   2  -7  128.39   16.20
   4   2  -7  147.09   13.80
   4   2  -7  138.79   13.90
   4   2  -7  159.68   14.70
  -4  -2   7  148.79   13.60
  -4  -2   7  128.99   15.60
  -4  -2   7  133.59   13.30
   3   2  -7   17.30    4.00
   3   2  -7   25.80    7.00
   3   2  -7   19.70    4.40
  -3  -2   7   21.40    3.60
  -3  -2   7   17.90    3.90
  -3  -2   7   12.40    5.20
  -3  -2   7   27.10    4.70
  -3  -2   7   16.80    5.40
  -3  -2   7   22.40    7.10
   2   2  -7    4.10    4.20
   2   2  -7   18.10    4.60
   2   2  -7    9.40    3.70
   2   2  -7    7.30    3.40
  -2  -2   7    7.60    4.40
  -2  -2   7    9.70    4.70
  -2  -2   7    5.90    2.10
  -2  -2   7   11.80    3.10
  -2  -2   7   10.10    3.20
  -2  -2   7    8.20    2.30
   1   2  -7  109.49   10.30
   1   2  -7   98.19   10.20
   1   2  -7  110.09   11.30
   1   2  -7   90.89   10.90
  -1  -2   7   99.69   10.10
  -1  -2   7  104.29   10.30
  -1  -2   7  109.79   11.30
   0   2  -7    9.30    3.80
   0   2  -7    6.30    3.60
   0   2  -7   17.30    4.60
   0   2  -7    6.60    2.80
   0   2  -7   12.00    3.60
   0  -2   7   11.20    3.60
   0  -2   7    8.80    4.80
   0  -2   7   14.40    3.50
   0  -2   7   14.60    3.10
  -1   2  -7   -2.70    2.90
  -1   2  -7   -1.70    2.80
  -1   2  -7   -2.80    3.60
  -1   2  -7   -1.50    3.00
  -1   2  -7    3.20    5.40
   1  -2   7   -0.50    2.50
   1  -2   7   -3.90    2.90
   1  -2   7   -3.20    5.10
   1  -2   7   -0.60    2.90
   1  -2   7   -0.30    2.10
  -2   2  -7   59.19    6.60
  -2   2  -7   51.69    9.30
  -2   2  -7   51.99    6.40
  -2   2  -7   74.29    7.70
  -2   2  -7   65.49    8.90
   2  -2   7   56.09    6.20
   2  -2   7   57.29    6.30
   2  -2   7   61.09    8.90
   2  -2   7   62.59    6.60
   2  -2   7   68.09    8.90
  -3   2  -7    2.50    7.40
  -3   2  -7   -4.20    4.90
  -3   2  -7    0.80    3.10
  -3   2  -7    2.90    3.00
  -3   2  -7    1.20    3.00
   3  -2   7   -0.40    6.20
   3  -2   7    0.80    1.80
   3  -2   7   -0.30    2.70
   3  -2   7    1.10    2.30
  -4   2  -7    9.10    3.40
  -4   2  -7    3.10    7.30
  -4   2  -7    5.10    4.70
  -4   2  -7    6.60    3.00
  -4   2  -7    8.90    8.10
  -4   2  -7    3.50    8.80
  -4   2  -7    5.90    2.80
  -4   2  -7   11.30    3.10
   4  -2   7    0.50    8.10
   4  -2   7    5.20    3.30
   4  -2   7   11.10    2.90
   4  -2   7    1.70    6.80
  -5   2  -7   -5.20    3.00
  -5   2  -7   -9.50    6.50
  -5   2  -7    6.30    9.90
  -5   2  -7   -5.30    3.30
  -5   2  -7    0.20    2.60
  -5   2  -7   -1.00    8.40
  -5   2  -7   -8.10    5.90
  -5   2  -7   -3.60    2.40
  -5   2  -7   -2.70    3.60
   5  -2   7   -4.80   10.20
   5  -2   7    5.90   10.00
   5  -2   7   -2.00    2.60
  -6   2  -7   -3.20    7.80
  -6   2  -7    4.50    8.40
  -6   2  -7    9.30    9.50
  -6   2  -7    0.80    3.20
  -6   2  -7   -9.60   10.60
  -6   2  -7   -8.30   11.40
   6  -2   7    5.70    8.90
   6  -2   7    5.20    2.70
   6  -2   7    1.80   11.80
   6  -2   7   -1.60    2.40
   6   1  -7    1.00    7.20
   6   1  -7    4.40    4.60
   6   1  -7    3.90    8.30
   6   1  -7   12.60    9.20
  -6  -1   7    1.20    3.80
  -6  -1   7    4.90    6.00
  -6  -1   7   -9.20    6.80
  -6  -1   7    0.30    3.10
   5   1  -7   10.70    4.30
   5   1  -7   17.40    9.00
   5   1  -7    7.00    7.30
   5   1  -7   12.40    4.60
   5   1  -7   10.30    6.10
  -5  -1   7    7.30    3.80
  -5  -1   7    1.90    3.20
  -5  -1   7    6.00    6.40
  -5  -1   7    5.80    3.30
  -5  -1   7    3.60    6.60
   4   1  -7   43.30    7.80
   4   1  -7   41.90    9.50
   4   1  -7   52.69    6.80
   4   1  -7   35.20    8.70
   4   1  -7   52.29    7.10
  -4  -1   7   47.10   11.10
  -4  -1   7   58.79    6.20
  -4  -1   7   40.40    9.90
  -4  -1   7   53.39    6.30
   3   1  -7   28.00    6.50
   3   1  -7   22.00    5.00
   3   1  -7   21.60    4.20
   3   1  -7   19.90    4.20
   3   1  -7   18.60    5.70
  -3  -1   7   27.10    4.80
  -3  -1   7   24.70    4.40
  -3  -1   7   20.20    4.10
  -3  -1   7   13.20    4.40
  -3  -1   7   14.90    5.50
   2   1  -7   95.69    9.30
   2   1  -7   77.89    8.50
   2   1  -7   74.99   10.00
  -2  -1   7   74.89    8.20
  -2  -1   7   74.09    9.80
  -2  -1   7   88.69    8.80
  -2  -1   7   86.59    8.20
   1   1  -7  690.33   68.79
   1   1  -7  808.42   69.19
   1   1  -7  758.62   68.79
  -1  -1   7  820.82   69.09
  -1  -1   7  839.12   68.69
  -1  -1   7  861.11   69.39
  -1  -1   7  763.62   69.39
  -1  -1   7  729.33   68.69
   0   1  -7 4175.98  389.06
   0   1  -7 4885.81  388.66
   0   1  -7 4138.29  388.76
   0   1  -7 4349.26  389.06
   0  -1   7 3917.01  388.86
   0  -1   7 4999.30  388.56
   0  -1   7 4332.07  389.06
   0  -1   7 4872.51  388.66
  -1   1  -7   24.20    4.00
  -1   1  -7   19.90    3.90
  -1   1  -7   29.10    6.30
  -1   1  -7   26.10    5.30
  -1   1  -7   22.30    5.10
   1  -1   7   22.90    5.40
   1  -1   7   22.70    5.10
   1  -1   7   21.80    3.50
   1  -1   7   26.80    3.90
   1  -1   7   23.20    3.60
  -2   1  -7   97.49    9.20
  -2   1  -7   89.99    9.10
  -2   1  -7   92.69   10.20
  -2   1  -7   84.39   11.10
   2  -1   7  109.69    9.10
   2  -1   7   89.99   10.50
   2  -1   7  106.59   10.80
   2  -1   7   84.39    9.00
   2  -1   7  110.19    9.20
  -3   1  -7   26.80    3.80
  -3   1  -7   19.70    3.80
  -3   1  -7   21.70    7.50
  -3   1  -7   13.00    5.30
   3  -1   7   20.40    4.40
   3  -1   7   20.80    6.60
   3  -1   7   28.40    3.30
   3  -1   7   29.30    3.90
   3  -1   7   17.30    5.20
  -4   1  -7   24.40    3.80
  -4   1  -7   23.00    6.20
  -4   1  -7   19.30    8.10
  -4   1  -7   29.10    6.10
  -4   1  -7   18.50    3.10
  -4   1  -7   13.10    8.50
  -4   1  -7   19.70    6.00
  -4   1  -7   16.50    5.90
  -4   1  -7   18.70    3.70
   4  -1   7    9.90    8.60
   4  -1   7   17.40    6.80
   4  -1   7   25.80    3.50
  -5   1  -7   -0.60    2.90
  -5   1  -7    1.30    6.20
  -5   1  -7  -11.20    7.60
  -5   1  -7    4.10    1.90
  -5   1  -7   -7.80    6.10
  -5   1  -7    2.70    8.90
   5  -1   7   -0.60    2.30
   5  -1   7    0.60    2.10
   5  -1   7   -0.20    6.80
  -6   1  -7   92.09   10.20
  -6   1  -7   58.69   13.70
  -6   1  -7   57.39   12.90
  -6   1  -7   59.59   12.90
  -6   1  -7   66.79   12.00
  -6   1  -7   79.79   10.90
  -6   1  -7   67.09    9.50
   6  -1   7   69.09    6.50
   6  -1   7   70.19    6.60
   6  -1   7   77.99   11.30
  -7   1  -7   -9.70   10.00
  -7   1  -7   -0.60    5.00
  -7   1  -7    3.20    9.00
   6   0  -7   -8.40    8.70
   6   0  -7    8.40    9.80
   6   0  -7    1.70    4.40
  -6   0   7    5.30    8.10
  -6   0   7   -0.20    3.00
  -6   0   7   -2.50    3.80
   5   0  -7   96.09   10.90
   5   0  -7  109.59   13.30
   5   0  -7   98.39   11.00
   5   0  -7  111.99   12.50
   5   0  -7  124.79   14.00
  -5   0   7   79.79   13.40
  -5   0   7  104.79   12.50
  -5   0   7  102.89   10.40
  -5   0   7   83.59   14.10
   4   0  -7    4.40    3.70
   4   0  -7    3.00    4.20
   4   0  -7   -2.20    4.90
  -4   0   7   -3.90    5.50
  -4   0   7   -3.80    3.50
  -4   0   7    3.30    5.50
  -4   0   7    0.60    3.20
   3   0  -7   43.90    7.90
   3   0  -7   32.20    5.50
   3   0  -7   33.00    5.80
   3   0  -7   37.10    5.50
   3   0  -7   32.80    8.10
  -3   0   7   41.20    6.80
  -3   0   7   35.60    7.70
  -3   0   7   33.90    4.60
  -3   0   7   36.10    4.90
  -3   0   7   31.30    7.80
   2   0  -7   51.69    6.80
   2   0  -7   56.09    6.80
   2   0  -7   76.29    8.40
   2   0  -7   59.69    8.60
   2   0  -7   67.29    7.00
  -2   0   7   66.19    6.50
  -2   0   7   57.69    7.40
  -2   0   7   64.29    6.70
  -2   0   7   64.49    8.70
  -2   0   7   68.19    8.50
   1   0  -7  142.59   14.50
   1   0  -7  182.68   15.70
   1   0  -7  150.08   14.50
   1   0  -7  154.78   14.30
  -1   0   7  152.48   15.60
  -1   0   7  170.08   14.40
  -1   0   7  161.38   15.30
  -1   0   7  144.19   14.40
  -1   0   7  155.38   15.00
   0   0  -7   62.99    8.00
   0   0  -7   57.99    6.70
   0   0  -7   68.09    8.10
   0   0  -7   59.79    6.70
   0   0   7   45.40    7.40
   0   0   7   66.19    7.50
   0   0   7   58.79    6.50
   0   0   7   56.89    6.40
   0   0   7   74.79    8.20
  -1   0  -7   78.19    7.90
  -1   0  -7   71.29    8.60
  -1   0  -7   73.99    7.90
  -1   0  -7   79.69    9.60
  -1   0  -7   72.79    9.30
   1   0   7   87.69    7.90
   1   0   7   80.49    7.70
   1   0   7   76.89    9.00
   1   0   7   89.09    7.80
   1   0   7   74.29    9.10
  -2   0  -7   19.60    3.50
  -2   0  -7   21.90    3.50
  -2   0  -7   13.60    4.50
  -2   0  -7   30.70    5.90
  -2   0  -7   18.80    5.80
   2   0   7   25.30    3.30
   2   0   7   18.70    6.00
   2   0   7   26.20    3.40
   2   0   7   17.50    4.10
   2   0   7   29.30    4.30
  -3   0  -7    0.30    2.30
  -3   0  -7    3.70    3.60
  -3   0  -7   -2.20    6.30
  -3   0  -7   11.50    6.30
  -3   0  -7    5.70    2.40
   3   0   7    1.80    3.40
   3   0   7    3.10    3.80
   3   0   7    1.40    5.40
   3   0   7    4.30    2.40
   3   0   7    3.30    2.10
  -4   0  -7   -7.70    6.40
  -4   0  -7    2.30    4.60
  -4   0  -7    2.60    7.20
  -4   0  -7    0.30    4.50
  -4   0  -7   -2.00    2.20
  -4   0  -7    0.60    2.10
   4   0   7   -0.50    4.40
   4   0   7    0.70    2.10
   4   0   7    0.20    2.00
   4   0   7   -4.10    4.70
   4   0   7   -8.90    5.70
  -5   0  -7   -1.40    5.60
  -5   0  -7   -7.70    7.10
  -5   0  -7    0.80    2.50
  -5   0  -7    8.30    8.40
  -5   0  -7    4.30    5.30
  -5   0  -7    1.10    1.60
  -5   0  -7   -4.50    8.80
  -5   0  -7   -6.60    7.20
  -5   0  -7    1.80    1.60
   5   0   7    0.90    1.90
   5   0   7    4.30    2.10
   5   0   7   -4.80    6.60
   5   0   7    9.50    6.20
  -6   0  -7   -1.00    8.60
  -6   0  -7  -14.90    9.90
  -6   0  -7    4.80    9.80
  -6   0  -7    2.90    6.70
  -6   0  -7   -4.90    4.50
  -6   0  -7   -8.00    6.10
  -6   0  -7   -3.60    3.60
   6   0   7   -2.60    8.00
  -7   0  -7   16.60   12.30
  -7   0  -7   11.10    7.80
  -7   0  -7    7.00    5.00
  -7   0  -7   -3.60   12.40
  -7   0  -7   18.70    6.00
   6  -1  -7   11.20   10.80
   6  -1  -7    9.00    8.60
   6  -1  -7   -2.10    5.10
  -6   1   7   -3.80    4.10
  -6   1   7   23.90    6.90
  -6   1   7   -3.40    4.90
  -6   1   7   -8.00    8.40
   5  -1  -7   14.40    4.60
   5  -1  -7   12.30    5.80
   5  -1  -7   12.20    4.50
  -5   1   7    4.40    5.80
  -5   1   7    4.50    6.80
  -5   1   7   10.50    5.90
  -5   1   7   11.00    3.40
  -5   1   7    9.90    3.90
   4  -1  -7    7.40    4.00
   4  -1  -7    0.70    5.10
   4  -1  -7    2.80    3.70
   4  -1  -7    1.50    8.00
  -4   1   7    0.00    5.30
  -4   1   7   -1.00    4.70
  -4   1   7    6.60    3.20
  -4   1   7   -1.40    5.40
  -4   1   7   -9.50    5.50
   3  -1  -7   30.00    5.50
   3  -1  -7   20.40    4.30
   3  -1  -7   16.80    5.10
   3  -1  -7   31.30    7.60
   3  -1  -7   21.10    5.30
   3  -1  -7   18.90    5.20
   3  -1  -7   10.80    5.50
  -3   1   7   29.00    7.30
  -3   1   7   17.60    5.30
  -3   1   7   29.40    4.20
  -3   1   7   26.10    4.70
  -3   1   7   15.90    5.90
   2  -1  -7  159.78   14.90
   2  -1  -7  134.09   14.60
   2  -1  -7  163.88   14.80
   2  -1  -7  174.38   14.90
   2  -1  -7  146.59   16.30
   2  -1  -7  161.48   16.00
  -2   1   7  142.79   14.60
  -2   1   7  179.88   14.70
  -2   1   7  164.98   15.90
  -2   1   7  156.48   15.90
  -2   1   7  160.78   16.30
   1  -1  -7   57.79    8.50
   1  -1  -7   63.59    7.10
   1  -1  -7   61.49    6.70
   1  -1  -7   58.69    6.80
   1  -1  -7   69.89    8.60
   1  -1  -7   77.99    8.90
  -1   1   7   58.59    6.60
  -1   1   7   75.99    9.10
  -1   1   7   72.59    7.00
  -1   1   7   71.49    8.70
  -1   1   7   84.39    8.80
   0  -1  -7 3894.91  384.16
   0  -1  -7 4606.44  383.76
   0  -1  -7 4001.80  384.06
   0  -1  -7 4695.43  384.36
   0   1   7 4818.42  384.16
   0   1   7 4451.95  383.76
   0   1   7 4004.20  384.16
   0   1   7 4749.12  383.76
  -1  -1  -7  812.62   70.09
  -1  -1  -7  851.11   70.39
  -1  -1  -7  806.32   70.89
  -1  -1  -7  708.43   70.69
   1   1   7  837.32   70.09
   1   1   7  829.42   70.09
   1   1   7  735.33   70.69
   1   1   7  748.63   70.69
   1   1   7  871.01   70.39
  -2  -1  -7   60.89    6.10
  -2  -1  -7   52.59    6.40
  -2  -1  -7   68.19    8.70
  -2  -1  -7   64.39    6.50
  -2  -1  -7   62.79    6.40
   2   1   7   68.69    6.30
   2   1   7   53.69    7.10
   2   1   7   64.39    8.00
   2   1   7   59.29    6.30
   2   1   7   60.59    6.20
  -3  -1  -7  147.79   14.50
  -3  -1  -7  174.48   14.50
  -3  -1  -7  136.59   14.40
  -3  -1  -7  152.38   16.30
  -3  -1  -7  132.59   15.60
  -3  -1  -7  174.68   16.50
  -3  -1  -7  176.18   14.80
   3   1   7  172.18   14.50
   3   1   7  160.78   15.40
   3   1   7  151.88   15.70
   3   1   7  169.48   14.40
   3   1   7  162.18   16.00
  -4  -1  -7   64.19   10.70
  -4  -1  -7   74.99    8.10
  -4  -1  -7   83.29    7.30
  -4  -1  -7   65.59    7.10
  -4  -1  -7   72.89    7.50
  -4  -1  -7   58.29    9.20
  -4  -1  -7   69.19   10.00
   4   1   7   70.19    9.70
   4   1   7   76.09    7.10
   4   1   7   75.09    9.00
   4   1   7   77.39    9.40
   4   1   7   82.09    7.10
  -5  -1  -7   25.30    3.50
  -5  -1  -7   32.40    9.30
  -5  -1  -7   26.10    3.50
  -5  -1  -7   24.00    7.30
  -5  -1  -7   23.60    8.90
  -5  -1  -7   25.00    5.90
  -5  -1  -7   20.30    6.30
  -5  -1  -7   19.30    8.80
   5   1   7   28.40    3.70
   5   1   7   37.00    7.10
   5   1   7   25.40    7.80
   5   1   7   27.30    8.00
   5   1   7   31.60    3.70
  -6  -1  -7   28.10   10.50
  -6  -1  -7   14.70    4.00
  -6  -1  -7   16.10    6.70
  -6  -1  -7    2.30    6.50
  -6  -1  -7   -1.50    9.70
  -6  -1  -7   10.90   10.20
  -6  -1  -7   16.90    8.70
   6   1   7   13.20    8.20
   6   1   7   13.30    2.40
   6   1   7   24.40    8.60
   6   1   7   15.60    2.20
  -7  -1  -7   11.00    7.70
  -7  -1  -7   14.80   11.30
  -7  -1  -7    1.60    4.60
  -7  -1  -7   18.60    9.90
  -7  -1  -7   -0.50   10.50
  -7  -1  -7   -0.30    6.60
  -7  -1  -7    3.30    5.50
   5  -2  -7   19.00    9.00
   5  -2  -7   11.30    5.00
   5  -2  -7    3.80    5.80
   5  -2  -7   14.10    9.60
  -5   2   7   21.70    5.90
  -5   2   7   -6.10    7.50
  -5   2   7    9.20    4.60
  -5   2   7   -6.80    7.60
  -5   2   7    9.40    4.00
   4  -2  -7    3.10    3.70
   4  -2  -7    8.30    4.80
   4  -2  -7   15.00    8.90
   4  -2  -7    7.90    7.60
   4  -2  -7   10.30    5.40
  -4   2   7    6.40    4.00
  -4   2   7   13.40    3.80
  -4   2   7    6.70    7.10
  -4   2   7   15.00    5.80
  -4   2   7   -1.80    6.70
  -4   2   7    3.30    5.40
   3  -2  -7    1.00    5.50
   3  -2  -7   -3.90    3.40
   3  -2  -7    6.10    4.80
   3  -2  -7   -1.30    6.10
   3  -2  -7    0.40    4.40
   3  -2  -7   -2.20    6.40
  -3   2   7   -0.70    6.20
  -3   2   7   -0.10    3.70
  -3   2   7   -1.50    6.00
  -3   2   7    0.80    3.40
  -3   2   7    2.70    5.20
  -3   2   7   -0.70    4.40
   2  -2  -7  155.48   15.60
   2  -2  -7  137.39   15.40
   2  -2  -7  136.19   17.10
   2  -2  -7  182.78   16.80
   2  -2  -7  188.58   16.30
  -2   2   7  159.58   15.40
  -2   2   7  167.68   16.70
  -2   2   7  181.98   15.40
  -2   2   7  158.08   17.40
  -2   2   7  189.18   15.60
   1  -2  -7   69.19    8.80
   1  -2  -7   66.29    7.40
   1  -2  -7   60.09    7.30
   1  -2  -7   60.49    9.10
  -1   2   7   75.89    7.20
  -1   2   7   62.89    9.10
  -1   2   7   65.49    6.70
  -1   2   7   78.59    8.80
  -1   2   7   67.49    9.40
  -1   2   7   62.99    7.10
   0  -2  -7    9.30    4.60
   0  -2  -7    6.00    3.90
   0  -2  -7    3.80    3.30
   0  -2  -7    7.80    3.30
   0  -2  -7   11.80    4.20
   0   2   7    9.70    4.00
   0   2   7    4.00    3.90
   0   2   7    1.40    2.40
   0   2   7   10.30    3.80
   0   2   7    5.40    3.00
  -1  -2  -7   40.90    7.10
  -1  -2  -7   27.60    4.10
  -1  -2  -7   40.10    7.60
  -1  -2  -7   23.10    5.50
  -1  -2  -7   32.40    4.30
   1   2   7   30.30    5.40
   1   2   7   42.70    6.50
   1   2   7   37.40    4.80
   1   2   7   36.80    6.60
   1   2   7   35.70    4.80
  -2  -2  -7  213.58   19.70
  -2  -2  -7  218.98   20.10
  -2  -2  -7  203.58   18.60
  -2  -2  -7  197.18   19.00
   2   2   7  218.28   18.50
   2   2   7  180.28   18.70
   2   2   7  208.68   19.40
   2   2   7  215.78   18.60
   2   2   7  195.08   19.60
  -3  -2  -7   55.29    6.70
  -3  -2  -7   54.19    8.30
  -3  -2  -7   45.30    8.00
  -3  -2  -7   39.30    5.80
  -3  -2  -7   47.10    5.40
   3   2   7   49.00    5.70
   3   2   7   50.39    7.40
   3   2   7   49.40    5.80
   3   2   7   50.29    7.40
  -4  -2  -7   -0.30    2.60
  -4  -2  -7    4.70    3.50
  -4  -2  -7    5.30    6.70
  -4  -2  -7    5.80    3.20
  -4  -2  -7    3.00    2.60
  -4  -2  -7    4.40    5.00
   4   2   7    4.80    2.60
   4   2   7    3.30    3.90
   4   2   7    8.00    5.90
   4   2   7    2.40    2.50
   4   2   7    0.30    5.50
  -5  -2  -7    1.50    6.30
  -5  -2  -7    2.10    5.20
  -5  -2  -7    1.40    8.00
  -5  -2  -7    0.90    2.30
  -5  -2  -7    4.20    4.60
  -5  -2  -7    2.90    3.80
  -5  -2  -7    3.00    2.50
   5   2   7    0.60    2.50
   5   2   7    0.60    2.50
   5   2   7   -1.30    6.50
   5   2   7   -2.00    5.60
   5   2   7    3.70    6.80
  -6  -2  -7   -7.90    6.30
  -6  -2  -7   -0.20    9.20
  -6  -2  -7   -7.90    5.70
  -6  -2  -7    6.00    8.80
  -6  -2  -7   -1.20    6.50
   6   2   7   -5.10    2.30
   6   2   7   -1.20    9.40
   6   2   7    3.80    4.80
  -7  -2  -7   35.70   12.40
  -7  -2  -7   42.80    9.90
  -7  -2  -7   25.00   11.60
  -7  -2  -7   30.60    8.40
  -7  -2  -7   46.80    9.00
   7   2   7   42.30   12.20
  -8  -2  -7    3.60    7.40
  -8  -2  -7    7.50    6.20
   5  -3  -7   12.80   10.90
   5  -3  -7    9.70    6.10
   5  -3  -7   24.20   11.20
   5  -3  -7   -1.60    4.90
   5  -3  -7    3.50    5.80
  -5   3   7    2.80    4.90
  -5   3   7   -7.00    8.80
  -5   3   7    9.90    5.70
  -5   3   7    3.80    5.30
   4  -3  -7   39.10   10.90
   4  -3  -7   23.80   10.10
   4  -3  -7   33.80    8.50
   4  -3  -7   16.70    6.00
   4  -3  -7   41.30    9.50
  -4   3   7   10.20    8.20
  -4   3   7   28.50    4.10
  -4   3   7   22.50    4.90
  -4   3   7   31.80    6.40
  -4   3   7   21.60    6.80
   3  -3  -7    9.50    5.40
   3  -3  -7    9.00    3.90
   3  -3  -7   14.70    8.30
   3  -3  -7   12.90    4.90
   3  -3  -7    3.30    6.50
  -3   3   7    5.20    6.50
  -3   3   7   -0.20    6.60
  -3   3   7   10.90    3.80
  -3   3   7    7.90    5.40
  -3   3   7    9.80    2.60
  -3   3   7    8.30    4.50
  -3   3   7    8.90    5.50
   2  -3  -7   24.70    7.60
   2  -3  -7   25.00    6.60
   2  -3  -7   20.40    4.20
   2  -3  -7   27.30    6.60
   2  -3  -7   16.90    5.20
   2  -3  -7    9.10    5.60
  -2   3   7   24.60    4.80
  -2   3   7   14.60    3.20
  -2   3   7   21.30    4.80
  -2   3   7   18.80    4.20
  -2   3   7   16.20    6.60
  -2   3   7   11.90    6.40
   1  -3  -7   27.80    5.20
   1  -3  -7   14.00    5.50
   1  -3  -7   25.10    6.60
   1  -3  -7   17.50    4.00
   1  -3  -7   11.00    5.40
  -1   3   7   16.50    4.00
  -1   3   7   16.10    6.80
  -1   3   7   15.60    3.50
  -1   3   7   15.60    4.00
  -1   3   7   21.60    3.80
  -1   3   7   18.00    5.80
   0  -3  -7  876.71   87.49
   0  -3  -7 1081.89   88.49
   0  -3  -7 1012.60   87.59
   0  -3  -7  980.20   88.29
   0   3   7  992.00   87.49
   0   3   7  870.31   88.39
   0   3   7 1084.09   87.59
   0   3   7 1082.49   88.39
   0   3   7  957.10   87.49
   0   3   7 1044.60   87.19
  -1  -3  -7  905.91   77.79
  -1  -3  -7  834.52   78.09
  -1  -3  -7  865.01   78.49
  -1  -3  -7  899.91   77.79
  -1  -3  -7  872.41   78.69
   1   3   7 1008.90   78.09
   1   3   7  800.22   78.59
   1   3   7  854.51   78.29
   1   3   7  932.11   77.79
  -2  -3  -7    1.00    4.60
  -2  -3  -7   -6.10    4.90
  -2  -3  -7   -0.60    3.70
  -2  -3  -7   -6.80    3.20
   2   3   7   -0.90    3.50
   2   3   7   -1.20    3.90
   2   3   7   -0.20    1.70
   2   3   7   -4.40    4.00
   2   3   7   -4.10    2.20
  -3  -3  -7  123.59   11.30
  -3  -3  -7  113.49   12.90
  -3  -3  -7  107.49   11.30
  -3  -3  -7  117.99   12.70
  -3  -3  -7  108.89   13.30
   3   3   7  130.19   13.20
   3   3   7  112.29   11.20
   3   3   7  116.49   11.20
   3   3   7  125.29   11.20
   3   3   7  119.09   12.50
   3   3   7  117.09   12.80
  -4  -3  -7  469.45   38.50
  -4  -3  -7  393.16   39.00
  -4  -3  -7  445.96   37.70
  -4  -3  -7  411.36   39.30
  -4  -3  -7  421.26   37.60
   4   3   7  410.26   38.70
   4   3   7  469.25   38.10
   4   3   7  427.56   39.20
   4   3   7  414.96   37.60
   4   3   7  415.66   38.00
   4   3   7  401.36   38.90
  -5  -3  -7   -1.60    7.00
  -5  -3  -7   -2.90    3.00
  -5  -3  -7    1.30    2.70
  -5  -3  -7   -2.20    5.30
  -5  -3  -7    4.10    4.40
   5   3   7    0.20    5.10
   5   3   7    0.00    3.00
   5   3   7   -2.00    3.10
   5   3   7   -5.50    6.90
   5   3   7    2.20    5.10
  -6  -3  -7   -7.90    6.90
  -6  -3  -7   -6.30    6.10
  -6  -3  -7    3.50    9.60
  -6  -3  -7   -6.40    4.60
   6   3   7   -6.20    6.00
   6   3   7    5.10    4.50
   6   3   7   -4.30    7.70
  -7  -3  -7   23.40   11.70
  -7  -3  -7   24.10    7.60
  -7  -3  -7   38.60   11.80
   7   3   7   55.29   11.30
   7   3   7   32.00    4.70
   7   3   7   36.70    4.60
  -8  -3  -7   17.50    9.10
  -8  -3  -7   37.80    9.90
   8   3   7   60.29   15.10
   4  -4  -7    0.50    5.50
   4  -4  -7    7.00   11.20
   4  -4  -7   11.00   10.50
   4  -4  -7    1.50    7.60
   4  -4  -7    7.70    5.70
  -4   4   7    6.80    5.60
  -4   4   7    4.80    4.80
  -4   4   7   -6.00    7.80
  -4   4   7   12.60    7.00
   3  -4  -7   -2.40    4.70
   3  -4  -7   -8.10    8.70
   3  -4  -7   -5.20    8.10
   3  -4  -7  -10.90    5.00
  -3   4   7    1.70    4.20
  -3   4   7   -5.90    7.30
  -3   4   7   -4.70    5.70
  -3   4   7    2.20    4.50
   2  -4  -7   26.80    7.10
   2  -4  -7   59.59   10.60
   2  -4  -7   44.30    9.50
   2  -4  -7   55.29    8.90
  -2   4   7   50.79   11.90
  -2   4   7   36.70    6.70
  -2   4   7   38.00    6.80
  -2   4   7   46.00    6.70
   1  -4  -7  176.78   17.50
   1  -4  -7  176.28   16.70
   1  -4  -7  177.48   18.10
   1  -4  -7  171.78   18.80
   1  -4  -7  156.58   16.50
  -1   4   7  190.78   16.50
  -1   4   7  161.98   18.20
  -1   4   7  127.89   21.30
  -1   4   7  190.28   16.30
   0  -4  -7    8.60    6.20
   0  -4  -7    7.40    5.30
   0  -4  -7    6.30    4.80
   0  -4  -7    4.50    4.00
   0  -4  -7    3.90    4.40
   0   4   7    0.90    4.00
   0   4   7    4.00    5.70
   0   4   7   -0.70    3.90
   0   4   7   -0.70    5.50
  -1  -4  -7    5.40    4.90
  -1  -4  -7    7.30    6.40
  -1  -4  -7   -0.90    4.10
  -1  -4  -7   11.80    6.00
  -1  -4  -7    2.80    4.10
  -1  -4  -7    8.60    5.10
   1   4   7   -2.50    3.80
   1   4   7   13.80    5.60
   1   4   7   -6.10    3.70
   1   4   7    6.00    5.20
  -2  -4  -7   38.60    6.00
  -2  -4  -7   34.60    8.00
  -2  -4  -7   33.40    5.90
  -2  -4  -7   37.50    7.20
  -2  -4  -7   38.70    8.90
   2   4   7   31.40    4.80
   2   4   7   34.60    5.60
   2   4   7   23.10    8.50
   2   4   7   42.60    7.90
  -3  -4  -7    9.00    3.80
  -3  -4  -7    8.50    7.00
  -3  -4  -7   11.70    3.80
  -3  -4  -7    6.00    5.40
  -3  -4  -7   10.30    5.70
   3   4   7    5.40    3.30
   3   4   7    9.40    3.30
   3   4   7    7.40    3.80
   3   4   7   12.50    7.30
   3   4   7    6.70    4.70
  -4  -4  -7    0.80    3.50
  -4  -4  -7    2.20    5.30
  -4  -4  -7    3.70    4.80
  -4  -4  -7    5.50    5.50
  -4  -4  -7   -2.80    4.00
   4   4   7    8.40    7.50
   4   4   7   -1.40    3.10
   4   4   7   -1.50    4.00
   4   4   7    0.90    3.60
  -5  -4  -7   18.80    4.10
  -5  -4  -7   13.20    6.00
  -5  -4  -7   15.60    6.20
  -5  -4  -7   28.10    8.80
   5   4   7   24.00    8.70
   5   4   7   19.90    4.10
   5   4   7   15.30    5.10
   5   4   7   21.20    4.50
   5   4   7   26.70    6.00
  -6  -4  -7   -4.60    3.10
  -6  -4  -7   -0.80    5.40
  -6  -4  -7   -7.10    5.60
  -6  -4  -7   -3.00    5.70
   6   4   7   -7.10    3.50
   6   4   7    2.90    6.60
   6   4   7   -2.10    3.90
   6   4   7   -0.70    5.10
   6   4   7    6.00    8.90
  -7  -4  -7   14.30    7.60
  -7  -4  -7   26.00    6.00
  -7  -4  -7   20.10   10.10
  -7  -4  -7   39.80   10.40
  -7  -4  -7   31.80   12.60
  -7  -4  -7   26.40    4.80
   7   4   7   42.60    5.70
   7   4   7   22.60    5.10
   7   4   7   45.70    9.50
   7   4   7   28.50    9.10
   3  -5  -7    2.50    6.10
   3  -5  -7   -1.30    5.10
   3  -5  -7   -1.10   10.90
   3  -5  -7    6.40   10.00
  -3   5   7   16.70    7.30
  -3   5   7    3.10    5.60
  -3   5   7    3.70    5.60
   2  -5  -7   -1.80    8.50
   2  -5  -7   -8.30    5.00
   2  -5  -7   -8.90    6.50
  -2   5   7  -11.30    7.70
  -2   5   7   -2.80    7.30
  -2   5   7   -7.40    4.70
  -2   5   7   -5.30    5.50
   1  -5  -7   24.70    7.90
   1  -5  -7   21.10    5.70
   1  -5  -7   16.50    5.60
  -1   5   7   14.30    7.60
  -1   5   7    9.20    7.60
  -1   5   7   18.80    5.60
  -1   5   7   17.60    5.20
  -1   5   7   24.60    5.20
   0  -5  -7  132.59   14.00
   0  -5  -7  143.99   14.30
   0  -5  -7  137.89   15.70
   0  -5  -7  128.59   15.00
   0  -5  -7  143.09   16.60
   0   5   7  160.88   14.20
   0   5   7  144.39   16.80
   0   5   7  110.79   21.20
   0   5   7  142.79   14.20
  -1  -5  -7  278.57   24.20
  -1  -5  -7  261.87   24.60
  -1  -5  -7  239.48   23.60
  -1  -5  -7  232.68   22.80
  -1  -5  -7  208.28   22.40
  -1  -5  -7  260.77   23.00
   1   5   7  245.08   24.40
   1   5   7  257.67   22.90
   1   5   7  204.58   24.80
   1   5   7  265.87   22.90
  -2  -5  -7    5.80    5.60
  -2  -5  -7   -6.60    4.10
  -2  -5  -7   -1.50    4.50
  -2  -5  -7    5.30    5.80
  -2  -5  -7   -5.40    5.90
   2   5   7    2.60    5.90
   2   5   7   -2.60    4.20
   2   5   7    1.60    5.50
   2   5   7   -4.20    4.40
  -3  -5  -7   14.80    7.60
  -3  -5  -7    7.20    5.80
  -3  -5  -7   13.00    3.70
  -3  -5  -7   13.30    6.30
  -3  -5  -7    8.70    5.90
   3   5   7    7.20    5.40
   3   5   7    9.80    4.20
   3   5   7   14.10    4.60
   3   5   7    9.30   12.10
  -4  -5  -7  270.27   27.30
  -4  -5  -7  263.57   27.40
  -4  -5  -7  254.77   25.60
  -4  -5  -7  290.77   27.40
  -4  -5  -7  331.37   26.00
   4   5   7  253.17   26.90
   4   5   7  322.07   28.30
   4   5   7  259.27   25.60
   4   5   7  272.37   25.70
   4   5   7  307.37   25.80
  -5  -5  -7    7.20    6.50
  -5  -5  -7    4.30    6.20
  -5  -5  -7   13.00    4.80
  -5  -5  -7   14.90    8.20
   5   5   7   13.20    8.90
   5   5   7   17.50    4.60
   5   5   7   18.20    6.00
   5   5   7   19.30    4.60
   5   5   7   10.80    5.30
  -6  -5  -7   -6.10    4.20
  -6  -5  -7   -0.50    4.70
  -6  -5  -7   -7.40    6.60
  -6  -5  -7    5.70    9.00
  -6  -5  -7   -6.30    4.50
   6   5   7    6.70    9.60
   6   5   7    5.60    7.20
   6   5   7   -4.80    5.30
   6   5   7   -7.60    4.60
  -7  -5  -7   78.79    9.80
  -7  -5  -7   84.69   14.30
  -7  -5  -7   86.39    9.90
  -7  -5  -7   99.59    9.70
   7   5   7   80.09    9.50
   7   5   7   99.39   15.20
   7   5   7   79.89   12.80
   7   5   7   93.69   12.00
   7   5   7   60.49   10.30
   2  -6  -7    4.40   10.40
   2  -6  -7   -8.40    8.90
  -2   6   7    0.70    5.90
  -2   6   7   12.70    7.50
  -2   6   7    1.70    5.50
   1  -6  -7   51.69   10.10
   1  -6  -7   33.50    7.80
  -1   6   7   40.20    7.90
  -1   6   7   41.10    8.10
   0  -6  -7    1.60    7.70
   0  -6  -7   -5.60    5.10
   0  -6  -7   -2.80    5.70
   0   6   7   -0.90    5.30
   0   6   7   -8.10    6.70
   0   6   7    2.50    5.50
  -1  -6  -7    0.60    6.20
  -1  -6  -7    8.80    5.40
  -1  -6  -7   12.40    5.70
  -1  -6  -7    8.00    7.00
  -1  -6  -7    3.50    7.20
  -1  -6  -7   -2.10    5.30
   1   6   7    2.50    7.10
   1   6   7    7.30    5.30
   1   6   7    5.20    5.30
  -2  -6  -7   -7.30    6.60
  -2  -6  -7    3.30    6.00
  -2  -6  -7    2.20    5.20
  -2  -6  -7    0.90    6.30
  -2  -6  -7    3.20    4.10
   2   6   7    2.00    5.00
   2   6   7    3.70    5.20
   2   6   7   -6.60    6.30
   2   6   7   -4.20    6.60
  -3  -6  -7   30.50    8.50
  -3  -6  -7   35.30    7.00
  -3  -6  -7   46.30    9.20
  -3  -6  -7   55.99    7.70
  -3  -6  -7   38.30    7.30
   3   6   7   29.10    8.20
   3   6   7   56.29    7.40
   3   6   7   34.90    5.90
   3   6   7   22.50    7.50
  -4  -6  -7   10.00    6.10
  -4  -6  -7   20.40    8.20
  -4  -6  -7    4.60    4.90
  -4  -6  -7   -4.50    7.10
   4   6   7    3.90    5.20
   4   6   7   10.30    9.00
   4   6   7    7.80    5.30
   4   6   7    4.00    5.60
  -5  -6  -7   13.30   10.00
  -5  -6  -7   19.20    6.00
  -5  -6  -7    1.20    7.40
  -5  -6  -7   28.00    5.30
   5   6   7   22.00    5.60
   5   6   7   19.30    6.70
   5   6   7   28.50   10.40
   5   6   7   11.70    6.10
   5   6   7   16.10    5.40
  -6  -6  -7    4.10    3.40
  -6  -6  -7   11.90   10.50
  -6  -6  -7  -11.50    8.60
  -6  -6  -7    1.00    5.30
  -6  -6  -7   -1.10    5.50
   6   6   7   -6.30    5.80
   6   6   7    5.10    6.70
   6   6   7   -8.30    4.60
   6   6   7    5.20   10.10
   6   6   7   -4.00    6.50
  -7  -6  -7   10.70    7.70
  -7  -6  -7   12.10    6.20
   7   6   7    7.90    7.10
   7   6   7    7.70    6.20
   7   6   7   23.90    8.70
   7   6   7   22.00   11.90
   1  -7  -7   29.30   11.90
  -1   7   7   18.30    7.20
  -1   7   7    8.80    6.80
   0  -7  -7   16.10    7.60
   0  -7  -7   31.80   10.10
   0   7   7    9.40    6.50
   0   7   7   21.70    6.70
  -1  -7  -7   47.70   11.00
  -1  -7  -7   45.50    9.30
  -1  -7  -7   57.29    9.50
   1   7   7   46.80    9.40
   1   7   7   49.70    9.00
  -2  -7  -7   -8.20    7.00
  -2  -7  -7   -0.70    7.00
  -2  -7  -7   10.90    6.70
  -2  -7  -7   -0.80    4.60
   2   7   7    2.20    5.90
   2   7   7   -1.10    7.00
   2   7   7    9.90    6.00
  -3  -7  -7   -9.80    7.50
  -3  -7  -7    9.30    5.70
  -3  -7  -7   16.00    8.40
  -3  -7  -7    1.40    5.80
   3   7   7   -8.60    9.60
   3   7   7    3.10    5.80
   3   7   7    1.00    4.30
  -4  -7  -7   52.59   10.10
  -4  -7  -7   39.10    8.40
  -4  -7  -7   39.60    6.50
  -4  -7  -7   50.69    8.60
   4   7   7   39.60    8.50
   4   7   7   38.30   12.30
   4   7   7   57.49    9.00
  -5  -7  -7   12.40    5.90
  -5  -7  -7    0.50    5.60
  -5  -7  -7   13.60    2.70
   5   7   7    8.40    7.60
   5   7   7   -0.50    7.10
   5   7   7   19.20   10.70
   5   7   7   13.70    7.60
  -6  -7  -7   -8.80    6.90
  -6  -7  -7    0.30    7.20
  -6  -7  -7    9.20    7.00
   6   7   7   -2.50    7.90
   6   7   7  -11.20    6.90
   6   7   7   16.80   11.80
   6   7   7  -11.10    7.00
  -1  -8  -7   -7.90    7.50
  -1  -8  -7   15.30    9.20
   1   8   7   -5.90   12.30
   1   8   7   -3.80    7.30
  -2  -8  -7   12.40    7.70
  -2  -8  -7   -6.90    7.30
  -2  -8  -7   -4.00    7.50
   2   8   7    6.90    7.40
   2   8   7   -2.60    8.50
  -3  -8  -7  106.39   13.20
  -3  -8  -7   88.49   12.80
  -3  -8  -7  116.29   14.80
  -3  -8  -7   83.79   11.70
   3   8   7  103.29   13.00
  -4  -8  -7   20.70   10.10
  -4  -8  -7    7.00    7.20
  -4  -8  -7    1.20    6.90
   4   8   7   -0.90   11.30
   4   8   7    7.40    7.70
   4   7  -8   58.89   11.00
   4   7  -8   24.50    6.90
  -4  -7   8   25.20    8.50
  -4  -7   8   24.90   12.50
  -4  -7   8   39.10    8.30
   3   7  -8    6.70    6.10
   3   7  -8   17.60    8.20
   3   7  -8   15.00    6.70
  -3  -7   8   -9.50   10.40
  -3  -7   8   22.90    6.90
  -3  -7   8   -7.10    6.50
  -3  -7   8    4.70    6.40
   2   7  -8   -3.00    7.60
   2   7  -8   -0.40    7.10
   2   7  -8   -9.00    7.50
   2   7  -8   -0.10    6.60
  -2  -7   8   -1.40    6.30
  -2  -7   8   -6.80    5.70
  -2  -7   8   -2.30   10.70
  -2  -7   8    4.40    6.30
   1   7  -8   15.70    8.30
   1   7  -8    8.10    8.20
   1   7  -8    4.90    7.00
   1   7  -8    4.00    7.30
  -1  -7   8   -0.40    6.70
  -1  -7   8    3.20    5.90
  -1  -7   8   -6.50    8.60
  -1  -7   8   -6.40   10.20
   0   7  -8   11.00    7.60
   0   7  -8   18.40    8.80
   0   7  -8    7.60    7.60
   0   7  -8   28.10   10.00
   0  -7   8   12.60   11.70
   0  -7   8   20.10    7.00
  -1   7  -8   30.90    8.30
  -1   7  -8   34.60   10.30
   1  -7   8   44.80   14.00
   1  -7   8   49.40    9.70
   5   6  -8    5.90    9.10
   5   6  -8    7.10    6.00
  -5  -6   8    4.90    5.80
  -5  -6   8   -6.50    9.30
  -5  -6   8   -0.70    5.10
  -5  -6   8   -8.10    7.70
   4   6  -8   70.79   10.00
   4   6  -8   34.10    5.80
   4   6  -8   54.99   10.00
   4   6  -8   40.80    6.10
   4   6  -8   45.40    8.80
  -4  -6   8   49.20   10.20
  -4  -6   8   36.80    9.30
  -4  -6   8   48.20    9.80
  -4  -6   8   67.19    8.70
   3   6  -8    9.60    4.90
   3   6  -8   11.00    6.90
   3   6  -8   15.50    6.80
   3   6  -8    9.80    6.90
  -3  -6   8    2.10    8.60
  -3  -6   8   15.60    5.50
  -3  -6   8    5.80    6.30
  -3  -6   8   15.20    5.90
  -3  -6   8    2.80    7.50
   2   6  -8    2.40    6.80
   2   6  -8    4.10    5.90
   2   6  -8   -8.70    6.30
   2   6  -8   -2.40    5.50
  -2  -6   8   -4.60    5.00
  -2  -6   8    2.20    5.50
  -2  -6   8   -2.50    8.30
  -2  -6   8    0.10    4.30
   1   6  -8    5.30    6.40
   1   6  -8   -4.50    6.50
   1   6  -8   -4.20    6.30
   1   6  -8    0.10    4.80
  -1  -6   8   -0.20    8.50
  -1  -6   8   -7.40    4.80
  -1  -6   8   -2.70    5.30
  -1  -6   8    1.00    5.70
  -1  -6   8   -9.60    5.40
   0   6  -8   36.50    8.00
   0   6  -8   29.70    8.40
   0   6  -8   46.80   10.00
   0   6  -8   34.40    7.70
   0   6  -8   55.79   12.90
   0  -6   8   42.30   11.70
   0  -6   8   47.50    7.40
   0  -6   8   66.29    8.40
  -1   6  -8  311.17   25.50
  -1   6  -8  237.88   25.10
  -1   6  -8  270.97   27.70
  -1   6  -8  259.57   26.40
   1  -6   8  275.17   26.20
   1  -6   8  270.07   27.40
   1  -6   8  294.37   26.70
   1  -6   8  222.78   24.60
  -2   6  -8    2.80    6.30
  -2   6  -8   -0.80    6.20
  -2   6  -8   14.80   13.20
   2  -6   8    0.60    5.60
   2  -6   8    0.40    6.30
   2  -6   8    7.70   11.60
  -3   6  -8   -3.30    6.00
  -3   6  -8   15.40    9.60
  -3   6  -8    2.60    6.30
   3  -6   8   16.60   12.50
   3  -6   8   -1.60    6.20
   3  -6   8    0.80    8.50
   6   5  -8   14.20    7.90
   6   5  -8   -3.50    6.90
  -6  -5   8  -11.90    7.90
  -6  -5   8    5.50    6.20
  -6  -5   8    5.00    7.80
   5   5  -8   -1.70    6.00
   5   5  -8   -0.20    6.90
   5   5  -8   10.50    6.50
   5   5  -8   10.10   12.00
  -5  -5   8   11.10    9.20
  -5  -5   8    2.30    6.50
  -5  -5   8   10.40    5.30
  -5  -5   8  -10.80    7.20
   4   5  -8   68.49    9.50
   4   5  -8   45.60   12.10
   4   5  -8   42.20    8.80
  -4  -5   8   35.60    8.00
  -4  -5   8   59.39    8.00
  -4  -5   8   53.29    7.50
  -4  -5   8   54.19    9.60
   3   5  -8    6.50    5.80
   3   5  -8    4.90    6.20
   3   5  -8   -1.80    3.80
  -3  -5   8    0.10    5.30
  -3  -5   8    4.00    5.80
  -3  -5   8    2.40    6.60
  -3  -5   8    2.10    6.00
  -3  -5   8   -7.60    4.40
   2   5  -8   -1.20    4.60
   2   5  -8    0.50    6.00
   2   5  -8    1.80    5.70
   2   5  -8    0.30    5.40
  -2  -5   8   -4.30    3.70
  -2  -5   8   -0.30    5.40
  -2  -5   8   -3.10    5.80
  -2  -5   8    2.30    6.90
  -2  -5   8    0.70    4.40
   1   5  -8    3.50    5.80
   1   5  -8    7.70    5.10
   1   5  -8    3.20    5.10
   1   5  -8    8.00    5.90
  -1  -5   8    5.80    5.30
  -1  -5   8   20.00    8.60
  -1  -5   8    4.40    4.80
  -1  -5   8    7.50    4.40
   0   5  -8  129.89   14.20
   0   5  -8  148.69   14.80
   0   5  -8  133.19   16.10
   0   5  -8  161.08   14.60
   0  -5   8  162.98   15.90
   0  -5   8  146.99   15.40
   0  -5   8  104.19   14.40
   0  -5   8  119.99   13.30
  -1   5  -8  114.89   12.20
  -1   5  -8  112.39   13.60
  -1   5  -8   92.39   12.20
  -1   5  -8  137.59   13.30
  -1   5  -8  110.09   15.00
   1  -5   8  108.19   14.70
   1  -5   8  104.59   12.30
   1  -5   8  128.99   12.40
   1  -5   8  116.59   13.20
  -2   5  -8   -8.10    5.20
  -2   5  -8   -8.60    6.60
  -2   5  -8    7.20    7.80
  -2   5  -8    2.40    2.60
   2  -5   8   -2.40    9.80
   2  -5   8   -7.80    4.60
   2  -5   8    0.30    9.30
  -3   5  -8   29.80    9.00
  -3   5  -8   26.30    6.30
   3  -5   8   32.50    8.10
   3  -5   8   45.70    7.00
   3  -5   8   51.39   11.90
   3  -5   8   40.60    7.10
   3  -5   8   28.90    9.30
  -4   5  -8    1.30    6.60
  -4   5  -8   -8.40    5.00
  -4   5  -8   -5.80    5.70
   4  -5   8   13.20   12.30
   4  -5   8   11.90    8.90
   4  -5   8    2.60    5.70
   4  -5   8    1.90    5.40
   4  -5   8   -3.80    4.80
   6   4  -8    3.40    6.80
   6   4  -8   -6.90    8.60
   6   4  -8   12.80    8.60
  -6  -4   8   13.40    7.80
  -6  -4   8  -11.70    7.30
  -6  -4   8   -2.10    5.30
  -6  -4   8   -6.30    6.70
   5   4  -8    7.10    7.90
   5   4  -8    1.20    7.50
   5   4  -8    7.10    5.60
   5   4  -8   12.50    5.40
  -5  -4   8   -1.00    7.00
  -5  -4   8    6.80    4.10
  -5  -4   8    4.80    4.60
   4   4  -8   70.19   10.10
  -4  -4   8   79.49    9.00
  -4  -4   8   88.29   11.10
  -4  -4   8   78.39    9.30
  -4  -4   8   84.09   12.70
  -4  -4   8   72.79    8.60
   3   4  -8  -13.70    6.10
   3   4  -8    1.60    3.00
   3   4  -8   -4.10    5.50
  -3  -4   8    3.90    5.90
  -3  -4   8    3.30    5.00
  -3  -4   8    2.80    5.50
   2   4  -8   -0.40    4.90
   2   4  -8    0.30    4.40
   2   4  -8   -1.10    3.90
   2   4  -8   -1.20    5.10
  -2  -4   8    3.20    5.00
  -2  -4   8   -1.70    5.40
  -2  -4   8   -1.70    4.30
  -2  -4   8    2.00    4.70
  -2  -4   8    0.50    5.00
   1   4  -8   -0.20    4.20
   1   4  -8    3.90    5.00
   1   4  -8   -2.50    5.00
   1   4  -8    7.20    4.90
  -1  -4   8    3.70    4.80
  -1  -4   8    8.40    6.40
  -1  -4   8    6.50    4.50
  -1  -4   8    0.70    4.00
  -1  -4   8    0.10    3.60
   0   4  -8   58.09    8.70
   0   4  -8   53.29    7.50
   0   4  -8   65.49   10.20
   0   4  -8   68.69    8.80
   0  -4   8   61.69    7.50
   0  -4   8   74.29    9.30
   0  -4   8   76.99    8.30
   0  -4   8   73.49    9.60
   0  -4   8   63.79    8.40
  -1   4  -8  466.95   39.70
  -1   4  -8  500.75   40.00
  -1   4  -8  435.66   41.20
  -1   4  -8  382.86   39.60
   1  -4   8  474.45   39.60
   1  -4   8  396.16   39.30
   1  -4   8  423.46   39.70
   1  -4   8  463.25   41.00
  -2   4  -8   33.80    7.00
  -2   4  -8   50.19    6.80
  -2   4  -8   41.10    7.30
   2  -4   8   43.30   11.70
   2  -4   8   43.40    7.10
   2  -4   8   37.90    6.20
   2  -4   8   50.29    7.30
   2  -4   8   55.99    9.70
  -3   4  -8   -5.00    6.80
  -3   4  -8   -0.70    4.50
  -3   4  -8   -5.40    4.80
  -3   4  -8    7.20    8.10
  -3   4  -8    1.60    1.90
   3  -4   8    0.10    3.40
   3  -4   8    1.60    3.80
   3  -4   8   -4.40    7.10
   3  -4   8   -3.10    8.00
   3  -4   8    2.80    4.80
  -4   4  -8   -1.30    7.40
  -4   4  -8    7.90    4.70
  -4   4  -8    4.20    8.70
   4  -4   8    0.20    4.80
   4  -4   8   11.70   11.20
   4  -4   8    6.80    7.60
   4  -4   8    1.60    3.90
  -5   4  -8    6.70    8.90
  -5   4  -8   -0.50    4.70
   5  -4   8    5.50    4.70
   5  -4   8    8.70   12.50
   5  -4   8   17.90    9.40
   5  -4   8    8.70    4.50
   5  -4   8   -3.10    4.50
   6   3  -8    9.20    8.60
   6   3  -8    8.80    9.30
   6   3  -8    3.20    5.80
   6   3  -8    7.90    5.90
  -6  -3   8   -8.50    7.80
  -6  -3   8    7.80    7.90
  -6  -3   8    1.90    4.10
  -6  -3   8    1.30    4.80
   5   3  -8   -1.50    7.80
   5   3  -8   -0.90    5.00
   5   3  -8   -1.00    7.10
   5   3  -8    0.40    5.60
  -5  -3   8   -5.20    4.30
  -5  -3   8    1.90    6.70
  -5  -3   8   -7.00    3.80
  -5  -3   8   -4.10    5.10
   4   3  -8   -6.00    4.50
   4   3  -8   13.70    7.30
   4   3  -8  -14.50    5.70
   4   3  -8   10.80    8.90
  -4  -3   8   -2.50    4.20
  -4  -3   8   -6.90    3.80
  -4  -3   8    1.90    4.80
  -4  -3   8    6.00    6.90
   3   3  -8    3.50    2.70
   3   3  -8    3.80    5.20
  -3  -3   8    4.90    6.00
  -3  -3   8    1.80    2.70
  -3  -3   8    8.50    6.00
  -3  -3   8   -5.10    3.60
   2   3  -8    3.20    3.50
   2   3  -8   -1.20    4.10
   2   3  -8   -6.80    4.30
   2   3  -8   -0.90    4.50
  -2  -3   8    2.80    3.30
  -2  -3   8    2.00    5.00
  -2  -3   8   -5.10    4.40
  -2  -3   8    1.10    3.90
  -2  -3   8   -3.30    3.80
   1   3  -8    3.40    4.20
   1   3  -8   11.90    4.50
   1   3  -8    2.70    4.20
   1   3  -8    3.10    4.10
  -1  -3   8    3.40    4.70
  -1  -3   8    4.30    4.30
  -1  -3   8    5.20    3.90
  -1  -3   8    5.40    3.40
  -1  -3   8    5.00    3.10
   0   3  -8  686.33   58.99
   0   3  -8  613.04   59.19
   0   3  -8  651.23   58.39
   0   3  -8  589.54   58.29
   0  -3   8  656.13   58.09
   0  -3   8  726.43   58.99
   0  -3   8  698.53   58.39
   0  -3   8  671.03   58.29
  -1   3  -8   69.79    8.90
  -1   3  -8   76.49   10.70
  -1   3  -8   74.69   11.00
  -1   3  -8   85.69    9.60
  -1   3  -8   76.99    9.00
   1  -3   8   82.09    8.80
   1  -3   8   79.39    8.40
   1  -3   8   88.29    8.90
   1  -3   8   83.89   10.30
   1  -3   8   98.49    9.80
  -2   3  -8   23.20    5.60
  -2   3  -8   23.10    8.40
  -2   3  -8    9.80    4.30
  -2   3  -8    8.20    4.10
  -2   3  -8    5.60    5.90
   2  -3   8   17.50    4.70
   2  -3   8   18.50    7.90
   2  -3   8   16.80    4.20
   2  -3   8   14.00    3.30
  -3   3  -8   84.59   13.60
  -3   3  -8   93.29    9.70
  -3   3  -8   82.09    9.00
  -3   3  -8   67.79   10.90
  -3   3  -8   90.79    9.50
   3  -3   8   74.89   11.60
   3  -3   8   91.39    8.70
   3  -3   8   82.19   14.40
   3  -3   8   97.59    9.30
   3  -3   8   95.39    9.70
  -4   3  -8   43.10    9.40
  -4   3  -8   51.39    6.50
  -4   3  -8   39.50    8.30
  -4   3  -8   32.40    5.50
   4  -3   8   52.99    5.70
   4  -3   8   39.60    6.20
   4  -3   8   39.50    8.90
   4  -3   8   31.90    8.30
   4  -3   8   40.20    6.20
  -5   3  -8   -7.70    8.60
  -5   3  -8   11.40    4.10
  -5   3  -8    6.10    3.50
  -5   3  -8    6.90    2.20
  -5   3  -8   12.60    7.90
   5  -3   8    7.10    4.10
   5  -3   8   26.10    9.00
   5  -3   8    7.40    3.40
   5  -3   8   11.90   11.70
  -6   3  -8    0.60    8.80
  -6   3  -8    2.80    3.60
   6  -3   8    3.40    4.30
   6  -3   8   14.00   12.50
   6  -3   8   29.70   10.60
   6   2  -8   11.80    9.30
   6   2  -8    2.60    5.30
   6   2  -8    9.60    7.70
   6   2  -8    9.90    8.10
   6   2  -8   -3.20    5.30
  -6  -2   8   -3.60    3.60
  -6  -2   8   -1.00    4.30
  -6  -2   8   -5.00    7.60
  -6  -2   8    0.40    7.70
   5   2  -8   14.10    5.90
   5   2  -8   12.20    7.30
   5   2  -8    3.00    5.30
   5   2  -8   21.60   11.00
  -5  -2   8   -2.80    6.90
  -5  -2   8    8.60    3.40
  -5  -2   8   14.50    4.40
  -5  -2   8    7.90    6.30
   4   2  -8   58.69    8.80
   4   2  -8   76.69   10.00
   4   2  -8   54.19    8.30
   4   2  -8   70.69   11.00
   4   2  -8   71.59    9.10
  -4  -2   8   38.60   11.00
  -4  -2   8   55.89    6.30
  -4  -2   8   62.89    7.90
  -4  -2   8   68.19   11.50
  -4  -2   8   68.29   10.10
  -4  -2   8   58.29    7.60
   3   2  -8   11.10    4.10
   3   2  -8    9.00    3.20
   3   2  -8    7.50    4.50
   3   2  -8    9.80    5.00
  -3  -2   8    2.30    5.00
  -3  -2   8    7.60    4.30
  -3  -2   8    7.50    2.40
  -3  -2   8    7.10    3.40
  -3  -2   8    8.80    3.70
  -3  -2   8    8.90    6.00
   2   2  -8   13.50    6.10
   2   2  -8   27.30    5.80
   2   2  -8    8.50    3.80
   2   2  -8   15.70    4.30
  -2  -2   8   15.10    3.90
  -2  -2   8   21.90    4.40
  -2  -2   8   22.50    4.20
  -2  -2   8    8.30    4.00
   1   2  -8    2.00    2.90
   1   2  -8    2.10    3.60
   1   2  -8    1.50    3.30
   1   2  -8    3.80    3.90
  -1  -2   8    3.70    3.90
  -1  -2   8    0.40    3.30
  -1  -2   8   -1.40    3.30
  -1  -2   8    1.80    2.70
  -1  -2   8    1.30    2.30
   0   2  -8   73.09    8.10
   0   2  -8   58.29    8.70
   0   2  -8   53.29    8.40
   0   2  -8   54.99    7.50
   0  -2   8   71.09    8.00
   0  -2   8   67.79    7.80
   0  -2   8   68.99    7.10
   0  -2   8   71.89    7.40
   0  -2   8   64.69    8.50
  -1   2  -8   94.09   10.20
  -1   2  -8  122.29   10.40
  -1   2  -8   83.39   11.00
  -1   2  -8   96.19   11.30
   1  -2   8  124.59   11.50
   1  -2   8   95.09   10.90
   1  -2   8   94.79    9.70
   1  -2   8  123.29   10.30
   1  -2   8  103.99   11.10
  -2   2  -8  115.39   13.20
  -2   2  -8  103.79   13.70
  -2   2  -8  123.59   11.40
  -2   2  -8   98.19   11.20
   2  -2   8  129.29   11.30
   2  -2   8  129.29   11.00
   2  -2   8  113.79   13.20
   2  -2   8  116.79   11.10
   2  -2   8  120.39   13.20
  -3   2  -8    0.80    3.40
  -3   2  -8   -3.40    7.00
  -3   2  -8   -0.40    3.30
  -3   2  -8    0.50    5.10
  -3   2  -8   -1.40    3.40
   3  -2   8    2.00    6.80
   3  -2   8   -0.10    3.00
   3  -2   8   -2.90    7.70
   3  -2   8   -1.30    1.10
   3  -2   8    1.10    2.80
  -4   2  -8    4.40    3.30
  -4   2  -8    4.20    6.20
  -4   2  -8   -0.80    3.60
  -4   2  -8   -5.00    6.70
  -4   2  -8   -2.70    3.30
  -4   2  -8   -4.10    7.30
   4  -2   8    1.80    2.70
   4  -2   8   -5.50    8.50
   4  -2   8   -6.50    6.70
   4  -2   8    0.00    3.20
  -5   2  -8    0.90    3.90
  -5   2  -8    7.80    7.10
  -5   2  -8    4.80    7.60
  -5   2  -8   15.70    9.30
  -5   2  -8    2.10    3.10
   5  -2   8    0.30   10.10
   5  -2   8    9.50    7.60
   5  -2   8    5.50    3.10
   5  -2   8   11.60    3.70
  -6   2  -8    7.10    3.80
  -6   2  -8   21.10   13.90
  -6   2  -8   -3.80   20.90
  -6   2  -8    4.10    8.30
  -6   2  -8   -1.20    3.70
   6  -2   8   22.50    9.70
   6  -2   8    9.70    3.10
   6  -2   8    7.40    3.10
   6   1  -8    5.40    5.30
   6   1  -8    4.30    8.70
   6   1  -8    3.60    7.20
   6   1  -8   -0.50    5.00
   6   1  -8    7.80   10.00
  -6  -1   8    1.70    4.50
  -6  -1   8    0.80    7.90
  -6  -1   8  -12.30    7.40
  -6  -1   8   -6.40    3.90
   5   1  -8    0.50    4.00
   5   1  -8   -6.60    4.60
   5   1  -8    0.30    8.20
   5   1  -8   -2.10    6.40
   5   1  -8   -7.60    7.20
  -5  -1   8    0.30    6.70
  -5  -1   8   -2.80    3.40
  -5  -1   8   -3.70    3.20
  -5  -1   8   -4.50    6.50
  -5  -1   8    3.80    4.00
   4   1  -8  100.19   11.50
   4   1  -8  122.89   12.80
   4   1  -8  129.29   12.30
   4   1  -8  138.69   14.00
  -4  -1   8  117.79   14.60
  -4  -1   8   89.79   14.50
  -4  -1   8  103.39   12.00
  -4  -1   8  120.29   12.00
  -4  -1   8  110.09   11.20
   3   1  -8   56.09    7.10
   3   1  -8   72.49    9.60
   3   1  -8   52.49    7.40
   3   1  -8   44.20    6.70
  -3  -1   8   49.70    9.40
  -3  -1   8   53.09    6.60
  -3  -1   8   63.49    7.30
  -3  -1   8   55.49    9.60
  -3  -1   8   58.19    6.40
   2   1  -8    2.20    3.60
   2   1  -8   -3.20    3.40
   2   1  -8    1.60    4.20
   2   1  -8    3.80    3.40
  -2  -1   8    2.10    2.90
  -2  -1   8    1.80    4.30
  -2  -1   8    3.10    3.10
  -2  -1   8    2.20    2.70
  -2  -1   8    0.70    4.10
   1   1  -8    5.50    3.50
   1   1  -8    6.70    4.10
   1   1  -8   11.80    2.70
   1   1  -8    9.30    3.50
   1   1  -8    6.10    2.80
  -1  -1   8    6.80    3.50
  -1  -1   8    8.40    3.20
  -1  -1   8    9.50    4.20
  -1  -1   8    7.00    2.90
  -1  -1   8    6.80    3.00
   0   1  -8  622.94   58.69
   0   1  -8  658.63   58.29
   0   1  -8  674.93   58.09
   0   1  -8  619.94   58.69
   0  -1   8  684.03   57.89
   0  -1   8  729.13   58.59
   0  -1   8  576.94   58.49
   0  -1   8  709.33   57.99
  -1   1  -8    5.30    3.10
  -1   1  -8    7.40    3.20
  -1   1  -8    9.90    5.10
  -1   1  -8    6.30    3.90
  -1   1  -8    4.50    3.70
   1  -1   8    6.10    2.10
   1  -1   8    8.70    2.60
   1  -1   8    6.70    3.80
   1  -1   8    7.70    3.10
  -2   1  -8   45.00    7.70
  -2   1  -8   41.10    5.70
  -2   1  -8   58.59    6.20
  -2   1  -8   45.70    7.00
  -2   1  -8   44.70    7.20
   2  -1   8   55.59    7.70
   2  -1   8   59.19    5.70
   2  -1   8   55.69    8.20
   2  -1   8   47.00    5.50
   2  -1   8   44.30    7.30
   2  -1   8   52.89    5.40
  -3   1  -8    1.10    2.80
  -3   1  -8    4.80    3.80
  -3   1  -8   -4.30    9.90
  -3   1  -8    1.20    4.90
  -3   1  -8   -0.30    3.00
   3  -1   8    0.40    2.90
   3  -1   8   -0.90    4.40
   3  -1   8    4.80    2.30
   3  -1   8   -2.00    3.20
   3  -1   8   -1.40    6.30
   3  -1   8    0.60    7.30
  -4   1  -8   46.50    5.60
  -4   1  -8   52.19    5.80
  -4   1  -8   47.30   10.20
  -4   1  -8   40.50    9.50
  -4   1  -8   55.29    7.60
  -4   1  -8   49.10    8.30
   4  -1   8   52.99    6.50
   4  -1   8   47.30    5.60
   4  -1   8   41.00    8.80
  -5   1  -8   -3.60    6.30
  -5   1  -8   -3.10    4.50
  -5   1  -8   -9.40    7.90
  -5   1  -8   -5.30    6.40
  -5   1  -8    0.00    2.90
  -5   1  -8    0.00    2.50
   5  -1   8   -4.20    7.20
   5  -1   8    0.80    2.40
  -6   1  -8   -0.20    4.20
  -6   1  -8    7.30    9.60
  -6   1  -8    6.70   10.80
  -6   1  -8   16.10    7.80
  -6   1  -8   -1.00    7.40
   6  -1   8   10.80    8.60
  -7   1  -8    3.20    5.10
  -7   1  -8    5.50    9.10
   7  -1   8   15.50   10.60
   6   0  -8    2.20    9.50
   6   0  -8   -4.00    4.80
   6   0  -8   15.40    7.80
   6   0  -8   10.50   10.70
   6   0  -8    6.90    5.10
  -6   0   8    5.20    8.40
  -6   0   8    6.20    4.30
  -6   0   8    4.10    4.40
   5   0  -8    5.60    6.30
   5   0  -8   -2.90    4.70
   5   0  -8    0.10    8.40
   5   0  -8    9.10    6.40
   5   0  -8    2.80    7.10
  -5   0   8    2.10    7.10
  -5   0   8   -9.60    6.70
  -5   0   8   -5.30    3.80
  -5   0   8   -1.20    3.20
   4   0  -8   56.39    7.20
   4   0  -8   35.70    6.50
   4   0  -8   30.80    7.50
   4   0  -8   34.70    9.30
   4   0  -8   39.00    9.10
  -4   0   8   44.20    6.10
  -4   0   8   44.80    5.90
  -4   0   8   21.90    7.10
  -4   0   8   33.10    7.60
   3   0  -8    1.60    4.70
   3   0  -8   18.60    7.30
   3   0  -8    9.90    4.80
   3   0  -8    8.50    4.20
   3   0  -8    4.20    3.70
  -3   0   8    7.60    4.00
  -3   0   8    8.70    3.50
  -3   0   8    6.50    4.20
  -3   0   8    2.30    3.10
  -3   0   8    6.70    5.30
   2   0  -8   -0.60    3.40
   2   0  -8    4.90    3.50
   2   0  -8    1.60    3.60
   2   0  -8    8.50    4.10
   2   0  -8    4.80    4.30
  -2   0   8    8.40    4.70
  -2   0   8    2.70    3.00
  -2   0   8    6.50    3.20
  -2   0   8    6.00    3.50
  -2   0   8    4.40    4.70
   1   0  -8   74.29    7.10
   1   0  -8   65.99    7.60
   1   0  -8   75.29    8.70
  -1   0   8   70.19    8.20
  -1   0   8   60.69    7.30
  -1   0   8   66.89    7.20
  -1   0   8   68.59    8.40
   0   0  -8  489.75   43.40
   0   0  -8  454.45   42.60
   0   0  -8  467.65   42.60
   0   0  -8  464.95   42.80
   0   0  -8  513.45   43.50
   0   0   8  456.35   43.30
   0   0   8  496.45   42.50
   0   0   8  413.76   43.10
   0   0   8  554.34   43.10
   0   0   8  513.85   42.60
  -1   0  -8  141.89   14.90
  -1   0  -8  170.18   15.00
  -1   0  -8  155.88   15.60
  -1   0  -8  157.88   16.20
  -1   0  -8  153.38   16.10
   1   0   8  162.58   14.80
   1   0   8  179.68   15.00
   1   0   8  175.88   14.90
   1   0   8  163.08   15.90
   1   0   8  154.58   16.00
  -2   0  -8    0.90    2.80
  -2   0  -8    5.80    3.80
  -2   0  -8    3.70    4.00
  -2   0  -8    1.10    2.60
  -2   0  -8   -2.50    5.50
   2   0   8   -1.30    5.50
   2   0   8    1.80    2.20
   2   0   8    1.80    2.60
   2   0   8    1.60    3.40
  -3   0  -8   16.90    3.30
  -3   0  -8    8.70    4.90
  -3   0  -8   13.90    3.00
  -3   0  -8   29.00    7.20
  -3   0  -8   20.00    7.30
  -3   0  -8   20.90    4.70
   3   0   8   20.10    3.80
   3   0   8   13.30    5.30
   3   0   8   20.80    3.00
   3   0   8   15.30    4.50
   3   0   8   12.10    4.10
  -4   0  -8    8.10    2.80
  -4   0  -8    2.60    7.40
  -4   0  -8    8.40    4.80
  -4   0  -8    9.40    2.50
  -4   0  -8    7.00    4.30
  -4   0  -8   13.60    8.50
   4   0   8   11.50    2.80
   4   0   8    8.00    4.20
   4   0   8   13.10    2.50
   4   0   8    8.20    4.90
   4   0   8    7.30    6.40
  -5   0  -8    9.00    2.50
  -5   0  -8    7.10    2.30
  -5   0  -8    2.70    7.70
  -5   0  -8  -14.30    9.20
  -5   0  -8    3.10    5.90
  -5   0  -8    0.70    6.10
  -5   0  -8    8.70    8.50
   5   0   8    3.00    2.40
   5   0   8   -0.70    7.30
   5   0   8    4.50    6.20
  -6   0  -8    1.90    9.10
  -6   0  -8   -9.00   10.50
  -6   0  -8    3.90    7.20
  -6   0  -8   -7.40    6.60
  -6   0  -8    6.80   10.10
   6   0   8    3.30    2.00
   6   0   8    0.70    8.00
   6   0   8    0.90    1.90
  -7   0  -8   20.50   10.00
  -7   0  -8   -2.40    8.40
  -7   0  -8    3.10    5.90
   5  -1  -8    4.90    8.50
   5  -1  -8    0.50    4.80
   5  -1  -8    6.30    5.90
  -5   1   8   -4.10    4.30
  -5   1   8  -10.00    6.20
  -5   1   8   -3.50    7.40
  -5   1   8   -1.40    3.50
   4  -1  -8  114.29   11.40
   4  -1  -8  103.59   11.20
   4  -1  -8   92.39   13.00
  -4   1   8  116.59   14.70
  -4   1   8  115.29   10.70
  -4   1   8  109.19   10.60
  -4   1   8   96.09   14.10
  -4   1   8   89.29   14.80
   3  -1  -8   77.99    9.60
   3  -1  -8   92.09   11.50
   3  -1  -8   81.59    9.60
   3  -1  -8   79.39    9.30
   3  -1  -8   83.49   12.40
  -3   1   8   92.59   11.80
  -3   1   8   98.59    9.20
  -3   1   8   99.69    9.20
   2  -1  -8    1.10    3.20
   2  -1  -8   -4.00    4.50
   2  -1  -8    7.10    3.90
   2  -1  -8    1.80    4.40
   2  -1  -8   -1.70    3.60
   2  -1  -8   -7.80    3.60
   2  -1  -8   14.70    6.90
  -2   1   8    3.10    4.20
  -2   1   8   -1.90    2.90
  -2   1   8   -2.20    3.20
  -2   1   8    3.30    4.80
  -2   1   8    5.60    4.80
   1  -1  -8   -1.60    3.30
   1  -1  -8   -3.50    2.90
   1  -1  -8   -0.60    4.10
   1  -1  -8   -1.90    2.40
   1  -1  -8   -0.10    3.20
   1  -1  -8    0.00    4.10
  -1   1   8   -2.50    2.80
  -1   1   8   -1.20    2.90
  -1   1   8    4.10    3.90
  -1   1   8    0.00    3.70
  -1   1   8    3.10    4.20
   0  -1  -8   12.00    3.00
   0  -1  -8   10.70    2.00
   0  -1  -8    9.10    3.60
   0  -1  -8   10.80    3.50
   0   1   8   16.80    3.40
   0   1   8   16.20    3.30
  -1  -1  -8    6.50    3.30
  -1  -1  -8    3.60    3.20
  -1  -1  -8    6.50    3.50
  -1  -1  -8    2.10    2.80
  -1  -1  -8    6.10    3.10
   1   1   8    4.00    2.80
   1   1   8    7.70    3.60
   1   1   8   12.20    5.30
   1   1   8    6.40    2.80
   1   1   8    7.60    3.00
  -2  -1  -8    1.90    4.30
  -2  -1  -8    0.00    2.70
  -2  -1  -8   -1.40    2.00
  -2  -1  -8   -1.60    2.70
  -2  -1  -8    1.00    2.10
  -2  -1  -8    0.50    4.00
   2   1   8    4.50    2.20
   2   1   8    0.10    2.50
   2   1   8   -1.10    2.40
   2   1   8    1.00    3.30
   2   1   8   -3.50    4.90
  -3  -1  -8   25.50    4.00
  -3  -1  -8   28.70    3.80
  -3  -1  -8   28.40    4.30
  -3  -1  -8   23.00    7.00
  -3  -1  -8   18.80    5.30
  -3  -1  -8   35.30    7.70
  -3  -1  -8   22.20    4.40
   3   1   8   23.40    6.40
   3   1   8   33.90    4.40
   3   1   8   36.00    6.30
   3   1   8   28.50    4.20
   3   1   8   27.40    6.40
  -4  -1  -8   65.59   10.20
  -4  -1  -8   65.99    6.50
  -4  -1  -8   57.29    7.20
  -4  -1  -8   63.19   10.10
  -4  -1  -8   70.69    6.80
  -4  -1  -8   51.69    6.50
   4   1   8   69.19    6.50
   4   1   8   53.79    9.00
   4   1   8   62.89    6.60
   4   1   8   63.99    8.90
  -5  -1  -8    9.80    5.50
  -5  -1  -8    7.60    2.60
  -5  -1  -8    9.50    8.50
  -5  -1  -8   14.50    9.10
  -5  -1  -8    7.40    5.80
  -5  -1  -8    8.50    2.90
  -5  -1  -8   13.10    2.70
   5   1   8    9.80    2.50
   5   1   8   -0.70    8.60
   5   1   8    6.80    6.90
   5   1   8    8.30    4.70
  -6  -1  -8   19.30   11.00
  -6  -1  -8   23.60    5.70
  -6  -1  -8   29.10   10.40
  -6  -1  -8   24.30    7.60
  -6  -1  -8   27.60    8.80
   6   1   8   20.60    3.60
   6   1   8   19.10    8.90
   6   1   8   17.90    7.80
   6   1   8   23.40    3.80
  -7  -1  -8   39.40   12.30
  -7  -1  -8   17.50   12.50
  -7  -1  -8   48.10   10.80
  -7  -1  -8   32.50    8.80
  -7  -1  -8   42.30   10.60
   5  -2  -8   -5.80    5.10
   5  -2  -8    1.60    5.20
   5  -2  -8    9.80    8.50
   5  -2  -8    4.90    6.30
   5  -2  -8    5.50    9.20
  -5   2   8   -5.00    7.80
  -5   2   8   -1.50    4.80
  -5   2   8   -1.00    4.10
   4  -2  -8   10.40    5.40
   4  -2  -8   16.70    7.60
   4  -2  -8   18.30    7.70
   4  -2  -8    7.70    6.10
  -4   2   8   13.10    7.50
  -4   2   8    8.10    7.10
  -4   2   8    4.70    6.00
  -4   2   8   17.00    4.60
  -4   2   8    9.60    6.10
  -4   2   8   20.40    4.40
   3  -2  -8    3.00    6.50
   3  -2  -8    0.30    5.20
   3  -2  -8    7.70    4.90
   3  -2  -8   -1.20    4.00
   3  -2  -8   -2.30    8.10
  -3   2   8    1.40    6.50
  -3   2   8    8.60    5.70
  -3   2   8   14.50    6.10
  -3   2   8    5.90    4.40
  -3   2   8    3.20    6.30
  -3   2   8   -1.50    4.10
   2  -2  -8   -1.30    3.90
   2  -2  -8   -5.80    3.90
   2  -2  -8    4.10    4.60
   2  -2  -8   -3.10    4.00
   2  -2  -8    8.20    7.20
  -2   2   8    0.80    5.50
  -2   2   8   11.50    7.10
  -2   2   8   -0.60    3.40
  -2   2   8    2.30    3.80
  -2   2   8    2.90    4.80
  -2   2   8   -2.70    3.90
   1  -2  -8   12.90    4.20
   1  -2  -8   26.10    6.90
   1  -2  -8   29.70    6.90
   1  -2  -8    9.40    4.90
   1  -2  -8   17.60    5.50
  -1   2   8   13.70    5.80
  -1   2   8   14.30    3.70
  -1   2   8   16.80    5.10
  -1   2   8   27.80    6.90
  -1   2   8   16.20    3.80
   0  -2  -8  681.83   63.49
   0  -2  -8  766.72   64.49
   0   2   8  708.03   63.39
   0   2   8  662.63   64.29
   0   2   8  733.93   64.09
   0   2   8  777.52   63.49
  -1  -2  -8   50.29    6.60
  -1  -2  -8   62.49    9.10
  -1  -2  -8   49.50    7.20
  -1  -2  -8   56.19    8.60
  -1  -2  -8   52.89    6.60
   1   2   8   54.89    6.50
   1   2   8   53.09    6.40
   1   2   8   57.49    7.20
   1   2   8   56.99    8.30
   1   2   8   67.39    7.60
  -2  -2  -8  257.87   24.60
  -2  -2  -8  286.27   23.50
  -2  -2  -8  244.28   23.90
  -2  -2  -8  278.17   25.10
  -2  -2  -8  238.28   23.40
   2   2   8  220.88   23.20
   2   2   8  268.97   24.30
   2   2   8  288.27   23.90
   2   2   8  273.67   23.40
   2   2   8  259.87   24.50
  -3  -2  -8   11.70    3.30
  -3  -2  -8   10.10    4.10
  -3  -2  -8    9.90    3.10
  -3  -2  -8   20.10    6.90
  -3  -2  -8    8.90    3.40
   3   2   8   10.70    3.00
   3   2   8    9.70    4.50
   3   2   8   11.40    4.20
   3   2   8   22.90    5.90
   3   2   8   13.30    3.00
  -4  -2  -8   47.00    6.50
  -4  -2  -8   35.00    5.50
  -4  -2  -8   31.50    4.90
  -4  -2  -8   34.50    8.50
  -4  -2  -8   42.50    8.60
  -4  -2  -8   34.50    5.00
   4   2   8   31.80    7.90
   4   2   8   34.40    7.20
   4   2   8   34.80    4.90
   4   2   8   23.20    7.30
   4   2   8   37.00    5.00
  -5  -2  -8    1.60    5.80
  -5  -2  -8   -1.20    7.80
  -5  -2  -8   -2.70    5.70
  -5  -2  -8    0.40    3.50
  -5  -2  -8   -0.50    2.40
  -5  -2  -8    6.20    8.40
  -5  -2  -8    3.10    2.80
   5   2   8    2.00    7.30
   5   2   8   -2.00    5.40
   5   2   8    4.10    4.50
   5   2   8    0.60    2.80
   5   2   8    2.60    2.70
  -6  -2  -8   -5.50    6.00
  -6  -2  -8   -3.10    9.50
  -6  -2  -8   -1.80    2.30
  -6  -2  -8    1.60    7.60
  -6  -2  -8   -7.30    6.40
  -6  -2  -8    6.80    7.60
  -6  -2  -8   -7.00    4.10
   6   2   8   -2.60    2.40
   6   2   8   -2.80    4.50
   6   2   8    0.10    2.60
   6   2   8   -3.10    8.00
   6   2   8    9.10    8.00
  -7  -2  -8    8.30    4.80
  -7  -2  -8   25.20   12.00
  -7  -2  -8    5.10   10.40
  -7  -2  -8    0.50    6.20
  -7  -2  -8   21.60    9.40
   7   2   8   15.60    9.40
   7   2   8    3.60    2.00
  -5   3   8   -5.80    5.60
   4  -3  -8   44.50   10.10
   4  -3  -8   33.10    8.40
   4  -3  -8   43.70   10.20
   4  -3  -8   45.00    8.40
   4  -3  -8   49.70   11.50
   4  -3  -8   48.60    7.80
  -4   3   8   41.20    5.10
  -4   3   8   43.60    7.40
  -4   3   8   47.50    7.10
  -4   3   8   25.10    9.10
  -4   3   8   42.90    8.70
  -4   3   8   24.20    9.00
   3  -3  -8   41.10    9.90
   3  -3  -8   39.30    7.40
   3  -3  -8   56.19   10.30
   3  -3  -8   37.70    8.50
   3  -3  -8   37.50    7.30
  -3   3   8   43.10    6.50
  -3   3   8   37.30    9.80
  -3   3   8   51.99    7.30
  -3   3   8   47.50    6.60
   2  -3  -8    6.70    7.70
   2  -3  -8    2.10    4.70
   2  -3  -8   -1.60    6.00
   2  -3  -8    2.10    4.00
   2  -3  -8    2.30    5.20
  -2   3   8    5.70    4.20
  -2   3   8    5.90    3.40
  -2   3   8    4.30    4.40
  -2   3   8   -2.00    3.90
  -2   3   8   -8.60    5.70
  -2   3   8    6.70    6.40
   1  -3  -8    2.60    3.90
   1  -3  -8   13.10    7.10
   1  -3  -8    3.90    5.40
   1  -3  -8    8.80    4.80
   1  -3  -8    3.00    4.40
  -1   3   8    3.20    3.50
  -1   3   8    3.10    5.80
  -1   3   8    7.60    5.50
  -1   3   8    3.90    3.00
  -1   3   8    3.60    3.70
  -1   3   8   -2.10    3.60
   0  -3  -8   13.30    5.20
   0  -3  -8   16.90    5.20
   0  -3  -8   13.20    3.50
   0  -3  -8   14.60    5.90
   0  -3  -8   14.80    6.40
   0   3   8   31.60    7.50
   0   3   8   17.40    4.10
   0   3   8    6.40    4.70
   0   3   8   12.40    2.50
   0   3   8   19.30    4.10
   0   3   8   18.60    4.60
  -1  -3  -8   15.30    4.90
  -1  -3  -8   12.80    4.20
  -1  -3  -8   30.80    8.30
  -1  -3  -8   12.20    4.20
  -1  -3  -8   15.70    5.20
   1   3   8   13.30    4.00
   1   3   8   29.70    7.40
   1   3   8   30.20    7.00
   1   3   8   13.80    3.30
   1   3   8   19.60    5.10
  -2  -3  -8    0.90    5.60
  -2  -3  -8   -2.50    3.80
  -2  -3  -8   -4.90    3.30
  -2  -3  -8   -0.50    3.50
  -2  -3  -8    5.50    5.00
   2   3   8    3.70    4.00
   2   3   8   -0.90    3.10
   2   3   8   -6.20    4.30
   2   3   8   -3.60    3.10
   2   3   8    0.30    4.00
  -3  -3  -8    3.60    4.10
  -3  -3  -8   -3.60    3.20
  -3  -3  -8    1.00    6.60
  -3  -3  -8    3.40    5.30
  -3  -3  -8    3.40    3.30
   3   3   8   -4.70    4.80
   3   3   8    9.00    6.50
   3   3   8    2.30    2.70
   3   3   8   -0.40    4.00
   3   3   8    1.30    3.20
   3   3   8    0.60    3.10
  -4  -3  -8  295.77   26.30
  -4  -3  -8  302.57   25.40
  -4  -3  -8  286.57   25.40
  -4  -3  -8  278.77   27.20
  -4  -3  -8  265.17   27.10
   4   3   8  299.07   25.60
   4   3   8  301.47   27.10
   4   3   8  253.37   26.70
   4   3   8  287.87   25.40
   4   3   8  244.68   27.20
   4   3   8  277.67   25.20
  -5  -3  -8    2.60    3.00
  -5  -3  -8    6.40    3.40
  -5  -3  -8    3.50    7.80
  -5  -3  -8    1.10    4.50
  -5  -3  -8   -0.80    5.90
   5   3   8   -0.60    5.40
   5   3   8   -1.80    3.20
   5   3   8    0.90    4.60
   5   3   8    3.50    3.20
   5   3   8   -4.50    6.80
   5   3   8    4.00    7.50
  -6  -3  -8   16.90    5.40
  -6  -3  -8   18.50    7.20
  -6  -3  -8   25.70    8.50
  -6  -3  -8   16.00    3.50
   6   3   8   33.70    9.20
   6   3   8   25.60    4.70
   6   3   8   20.60    4.30
  -7  -3  -8   38.10    3.80
  -7  -3  -8   33.10    3.70
  -7  -3  -8   48.30   12.00
  -7  -3  -8   51.59   13.20
  -7  -3  -8   21.50    7.80
   7   3   8   45.70    5.20
   7   3   8   43.00    5.30
   4  -4  -8   10.20    6.90
   4  -4  -8   -2.00    6.00
   4  -4  -8   14.20   11.40
   4  -4  -8   16.70   10.80
  -4   4   8    0.80    8.20
  -4   4   8  -10.60    8.60
  -4   4   8    4.60    5.70
   3  -4  -8   -1.00    5.70
   3  -4  -8    1.40    5.50
   3  -4  -8    3.20    9.70
   3  -4  -8    4.50   10.00
   3  -4  -8    8.10    4.80
  -3   4   8    6.30    5.70
  -3   4   8   14.60    6.30
  -3   4   8    4.40    4.70
  -3   4   8  -10.70    8.20
  -3   4   8    0.70    7.90
   2  -4  -8    4.20    8.40
   2  -4  -8   -1.20    6.10
   2  -4  -8   -4.60    5.50
   2  -4  -8    8.50    8.10
  -2   4   8   -6.20    6.90
  -2   4   8    4.10    4.60
  -2   4   8    0.20    4.70
  -2   4   8    3.90    7.40
  -2   4   8    4.90    5.00
   1  -4  -8   -0.30    5.10
   1  -4  -8   -0.60    4.70
   1  -4  -8   -1.50    4.30
   1  -4  -8    1.50    6.10
  -1   4   8   -0.40    3.70
  -1   4   8  -10.40    6.20
  -1   4   8    5.00    4.50
  -1   4   8    0.30    6.90
   0  -4  -8   89.79   11.50
   0  -4  -8   67.89    8.90
   0  -4  -8   84.59   10.40
   0  -4  -8   68.79    8.20
   0  -4  -8   73.69   11.50
   0   4   8   69.19   11.60
   0   4   8   70.19    8.70
   0   4   8   69.19    7.90
   0   4   8   81.79    7.60
   0   4   8   70.19   12.20
  -1  -4  -8   40.40    6.80
  -1  -4  -8   50.39   11.10
  -1  -4  -8   47.60    8.90
  -1  -4  -8   34.70    9.90
  -1  -4  -8   46.10    7.70
  -1  -4  -8   38.70    6.60
   1   4   8   38.70    8.90
   1   4   8   36.60    6.20
   1   4   8   37.00    6.40
   1   4   8   37.30    5.90
   1   4   8   38.30    8.90
  -2  -4  -8  129.79   12.70
  -2  -4  -8  125.99   12.80
  -2  -4  -8  127.79   15.30
  -2  -4  -8  152.08   15.10
  -2  -4  -8  120.59   13.50
   2   4   8  127.09   12.60
   2   4   8  119.19   11.60
   2   4   8  122.49   14.60
   2   4   8  113.49   12.10
   2   4   8  131.29   13.30
   2   4   8  148.09   14.20
  -3  -4  -8   -3.50    3.70
  -3  -4  -8   -2.50    4.20
  -3  -4  -8   -2.50    6.70
  -3  -4  -8    3.70    5.80
  -3  -4  -8   -1.00    4.90
   3   4   8    2.80    3.40
   3   4   8   -1.40    3.80
   3   4   8   10.60    7.20
   3   4   8   -5.20    5.30
   3   4   8    2.30    3.00
   3   4   8    0.00    4.50
  -4  -4  -8   14.90    4.30
  -4  -4  -8   20.70    6.10
  -4  -4  -8   20.40    7.90
  -4  -4  -8   14.20    4.20
  -4  -4  -8   14.70    6.60
   4   4   8   16.50    3.80
   4   4   8   12.10    5.20
   4   4   8   16.80    4.60
   4   4   8   21.60    9.00
   4   4   8   19.80    4.70
  -5  -4  -8    1.90    6.70
  -5  -4  -8   -3.50    4.90
  -5  -4  -8    5.90    4.40
  -5  -4  -8    5.90    3.80
  -5  -4  -8    0.70    7.90
   5   4   8    7.50    3.40
   5   4   8    4.50    5.10
   5   4   8   -0.90    4.60
   5   4   8    0.60    7.90
   5   4   8    5.50    4.20
  -6  -4  -8   -3.60    6.70
  -6  -4  -8   -8.70    4.10
   6   4   8    4.20    8.00
   6   4   8   -6.30    3.50
   6   4   8    2.50    5.00
   6   4   8    4.50    6.10
  -7  -4  -8    0.30    5.20
  -7  -4  -8    4.50    3.70
  -7  -4  -8   10.00   11.60
  -7  -4  -8   -7.70    6.40
  -7  -4  -8   -7.80    7.40
   7   4   8    5.40    3.90
   7   4   8   20.10   10.40
   7   4   8   13.70    6.20
   7   4   8   -6.90    8.10
   3  -5  -8   16.90   10.60
   3  -5  -8    9.90    6.80
   3  -5  -8    1.30   12.40
  -3   5   8   21.20    7.90
  -3   5   8   15.30    7.20
  -3   5   8   14.90    6.70
   2  -5  -8   -5.20   10.00
   2  -5  -8    6.40    9.40
   2  -5  -8   -7.30    5.60
   2  -5  -8   -7.70    6.20
  -2   5   8    4.70    5.20
  -2   5   8    4.50    5.40
  -2   5   8   -2.10    5.70
  -2   5   8  -11.40    7.60
  -2   5   8  -11.80    7.90
   1  -5  -8   -0.20    8.10
   1  -5  -8   -8.00    5.00
   1  -5  -8   -3.40    5.80
  -1   5   8   -1.80    4.70
  -1   5   8   -4.30    7.50
  -1   5   8   -7.80    5.50
  -1   5   8    5.00    5.00
  -1   5   8    2.40    4.90
   0  -5  -8    4.60    4.80
   0  -5  -8    0.80    4.20
   0  -5  -8   -3.60    7.40
   0  -5  -8   -6.40    6.10
   0  -5  -8   -5.00    5.50
   0   5   8   -1.10    4.60
   0   5   8   -4.50    4.70
   0   5   8   -1.20    5.30
  -1  -5  -8   27.60    8.10
  -1  -5  -8   10.70    4.20
  -1  -5  -8   16.20    6.30
  -1  -5  -8   29.60    6.20
  -1  -5  -8   20.20    7.10
   1   5   8    6.60    7.60
   1   5   8    1.60    6.40
   1   5   8    6.70    4.90
   1   5   8   16.10    9.00
  -2  -5  -8    6.50    6.00
  -2  -5  -8   -8.10    6.70
  -2  -5  -8    2.10    6.20
  -2  -5  -8   -2.00    5.50
   2   5   8   -7.60    3.60
   2   5   8   -1.70    5.80
   2   5   8    1.70    6.20
   2   5   8   -3.90    3.40
  -3  -5  -8    2.80    6.40
  -3  -5  -8   -7.70    4.50
  -3  -5  -8    4.00    4.70
  -3  -5  -8   -1.90    6.50
   3   5   8    3.60    3.60
   3   5   8    6.30    8.30
   3   5   8    0.80    5.60
   3   5   8    2.10    4.50
   3   5   8    2.40    4.20
  -4  -5  -8  149.69   13.50
  -4  -5  -8  121.99   15.90
  -4  -5  -8  142.39   13.80
  -4  -5  -8  112.29   15.60
   4   5   8  124.69   15.10
   4   5   8  131.49   13.20
   4   5   8  146.39   13.40
   4   5   8  124.39   16.00
  -5  -5  -8   15.40    4.90
  -5  -5  -8   18.20    9.20
  -5  -5  -8   -4.90    6.00
  -5  -5  -8    2.10    7.00
   5   5   8    6.40    8.90
   5   5   8    5.30    4.10
   5   5   8    3.40    5.40
   5   5   8   15.00    4.60
   5   5   8   13.10    5.50
  -6  -5  -8    1.40    4.30
  -6  -5  -8   17.30   10.50
  -6  -5  -8   -0.10    8.10
  -6  -5  -8    0.90    4.90
   6   5   8   17.10    6.90
   6   5   8    2.90    4.40
   6   5   8   18.90    9.70
   6   5   8    3.70    5.80
  -7  -5  -8   59.79    8.00
  -7  -5  -8   36.10    7.60
   7   5   8   45.00    7.50
   7   5   8   41.50    9.30
   7   5   8   38.90    7.50
   7   5   8   58.39   13.10
   7   5   8   47.60   11.60
   2  -6  -8   13.30   11.20
   2  -6  -8    5.60    7.30
  -2   6   8   13.60    7.50
  -2   6   8   -5.80    5.80
  -2   6   8   -4.90    6.80
   1  -6  -8    2.90    9.20
   1  -6  -8   -4.20    7.30
   1  -6  -8   -1.30    5.70
   1  -6  -8   -1.40    6.50
  -1   6   8   -2.10    6.00
  -1   6   8    0.90    5.80
  -1   6   8  -10.90    6.50
  -1   6   8   -1.90    5.70
   0  -6  -8   -1.10    7.70
   0  -6  -8   -0.20    5.40
   0  -6  -8   -0.30    7.30
   0  -6  -8    5.50    6.30
   0   6   8    9.10    5.60
   0   6   8    1.40    5.40
   0   6   8   -5.80    7.70
  -1  -6  -8   23.00    6.20
  -1  -6  -8   35.50    8.80
  -1  -6  -8   14.40    7.40
  -1  -6  -8   18.70    6.60
  -1  -6  -8   26.60    8.20
   1   6   8   20.70    7.80
   1   6   8   32.00    5.80
   1   6   8   21.30    5.10
  -2  -6  -8    2.30    6.40
  -2  -6  -8   -4.90    6.70
  -2  -6  -8    2.30    5.60
  -2  -6  -8   -7.00    6.80
  -2  -6  -8    0.00    4.10
   2   6   8   -8.00    6.50
   2   6   8   -4.30    5.10
   2   6   8   -3.90    5.10
   2   6   8   -3.00    6.80
  -3  -6  -8   -4.00    5.00
  -3  -6  -8   -8.60    7.50
  -3  -6  -8   -3.10    6.00
  -3  -6  -8   -5.70    4.90
  -3  -6  -8  -10.20    6.70
   3   6   8    2.90    4.60
   3   6   8   -7.90    8.70
   3   6   8    0.80    7.00
   3   6   8   -6.80    5.70
  -4  -6  -8  -13.00    6.90
  -4  -6  -8   -0.20    5.00
  -4  -6  -8    7.40    8.40
  -4  -6  -8   -9.20    5.50
  -4  -6  -8   -9.70    5.00
   4   6   8   -4.20    5.10
   4   6   8   -3.50    5.70
   4   6   8    7.50    5.00
   4   6   8   -4.80    7.00
  -5  -6  -8   -5.80    7.40
  -5  -6  -8   -0.60    7.80
  -5  -6  -8   11.70    5.70
   5   6   8    9.80    6.10
   5   6   8    8.10    4.30
   5   6   8    5.90    5.30
   5   6   8   -1.80    6.40
   5   6   8    5.20    9.30
  -6  -6  -8   -0.70    5.80
  -6  -6  -8   -8.20    7.00
  -6  -6  -8    3.50    4.50
  -6  -6  -8   18.60   11.30
  -6  -6  -8   -1.60    4.60
   6   6   8   -9.10    5.40
   6   6   8   -3.40    6.80
   6   6   8    5.00    8.10
   6   6   8   -9.80    5.80
   6   6   8    1.30   10.00
   7   6   8    8.80   10.10
  -1   7   8   -5.40    6.50
   0  -7  -8   12.00    9.40
   0  -7  -8   -4.90    7.40
   0   7   8    2.70    6.60
   0   7   8   -6.40    6.00
  -1  -7  -8    8.10    8.00
  -1  -7  -8    3.40    7.00
  -1  -7  -8    6.20    5.00
  -1  -7  -8  -11.20    8.90
   1   7   8  -11.20    8.10
   1   7   8   -0.60    6.20
   1   7   8    4.40    6.60
  -2  -7  -8    0.80    7.10
  -2  -7  -8   -8.80    7.50
  -2  -7  -8    8.80    6.30
  -2  -7  -8    2.80    6.50
   2   7   8   10.70    6.20
   2   7   8   -8.00    7.20
   2   7   8   -6.40    6.00
  -3  -7  -8   -2.50    4.70
  -3  -7  -8    6.60    8.60
  -3  -7  -8    4.80    6.30
   3   7   8  -15.30   10.20
   3   7   8    1.90    6.10
   3   7   8   -0.60    5.90
   3   7   8  -10.90    7.70
  -4  -7  -8   15.20    5.50
  -4  -7  -8   25.10    9.30
  -4  -7  -8  -11.90    8.90
  -4  -7  -8    6.20    6.20
   4   7   8   15.40    6.00
   4   7   8    4.20    6.10
   4   7   8   -4.20   10.50
  -5  -7  -8   -7.30    5.80
  -5  -7  -8   29.60   12.70
  -5  -7  -8    3.80    5.90
  -5  -7  -8    5.70    3.90
   5   7   8    8.50    8.60
   5   7   8   -9.20    8.10
   5   7   8    3.70    6.60
  -6  -7  -8  -10.80    6.90
   6   7   8    4.40    7.50
   6   7   8   19.10   11.70
   6   7   8   -1.00    7.80
   2   8   8    7.10    7.20
   2   8   8  -10.30    8.00
  -3  -8  -8    0.00    7.50
  -3  -8  -8   24.50    8.00
  -3  -8  -8    0.40   10.10
   3   8   8    5.10    7.60
  -4  -8  -8   30.20    8.40
  -4  -8  -8   24.90    7.70
   4   8   8   29.80    8.50
   3   7  -9   75.99   12.40
   3   7  -9   63.79   12.50
   3   7  -9   92.89   14.40
  -3  -7   9   46.30   13.10
  -3  -7   9   68.19   10.20
  -3  -7   9   63.79   10.60
   2   7  -9    8.40    8.70
   2   7  -9   10.80    6.90
   2   7  -9   12.40   14.20
   2   7  -9    8.80    8.40
   2   7  -9    2.40    8.30
  -2  -7   9    5.30    6.70
  -2  -7   9    6.80    6.30
  -2  -7   9    0.80   10.30
   1   7  -9   10.80    8.80
   1   7  -9  -10.20    6.10
   1   7  -9   -1.30    7.40
   1   7  -9   -5.10    5.90
  -1  -7   9   10.30   10.90
  -1  -7   9   -3.50    6.80
   0   7  -9   12.10    7.60
   0   7  -9   -7.10    8.20
   0   7  -9   19.50   10.70
   0   7  -9   13.50    8.70
   0  -7   9    7.60   11.90
   0  -7   9   -6.30    6.70
  -1   7  -9   11.10    7.80
  -1   7  -9   20.10    9.70
   1  -7   9   10.90    7.70
   1  -7   9   13.20   13.00
  -5  -6   9   -3.60    5.90
   4   6  -9  107.29   13.30
   4   6  -9  143.39   23.90
  -4  -6   9   97.69   12.70
  -4  -6   9   66.49   15.00
  -4  -6   9   84.79   11.60
  -4  -6   9   99.09   13.10
  -4  -6   9  101.09   11.50
   3   6  -9   31.00    7.80
   3   6  -9   16.70    5.70
   3   6  -9   23.90    8.00
  -3  -6   9    8.60    8.00
  -3  -6   9   17.20    9.10
  -3  -6   9   16.10    7.10
  -3  -6   9   29.50    6.70
   2   6  -9    6.80    6.10
   2   6  -9    3.90    6.80
   2   6  -9    9.40    6.20
   2   6  -9    2.70    7.00
  -2  -6   9    8.10    5.50
  -2  -6   9   -2.90    5.70
  -2  -6   9    1.20    8.90
  -2  -6   9   -3.20    5.80
   1   6  -9    3.00    5.50
   1   6  -9   14.90    5.90
   1   6  -9   11.40    6.70
   1   6  -9    6.30    7.00
  -1  -6   9    3.70    5.90
  -1  -6   9    3.70    5.90
  -1  -6   9   13.10    5.20
  -1  -6   9   -4.50    5.70
  -1  -6   9   20.30   10.00
   0   6  -9    2.20    4.80
   0   6  -9    7.10    7.90
   0   6  -9    4.70    7.00
   0   6  -9    6.40    6.70
   0   6  -9    4.90    6.90
   0  -6   9    4.80    3.80
   0  -6   9   10.40    9.60
   0  -6   9   -1.00    5.00
   0  -6   9    2.50    5.80
  -1   6  -9  212.38   22.20
  -1   6  -9  237.98   24.10
  -1   6  -9  226.78   20.30
  -1   6  -9  234.08   21.00
  -1   6  -9  210.98   20.60
   1  -6   9  174.68   20.20
   1  -6   9  215.18   23.00
   1  -6   9  172.28   20.90
   1  -6   9  177.68   20.10
   1  -6   9  236.38   20.50
  -2   6  -9   11.60   10.10
  -2   6  -9   -4.30    7.20
  -2   6  -9   -6.30    7.20
  -2   6  -9   -0.10    8.50
   2  -6   9   17.00   11.40
   2  -6   9    5.70   11.00
  -3   6  -9   -1.30    6.50
  -3   6  -9   -2.00    9.70
  -3   6  -9  -12.60    6.80
   3  -6   9   -3.60    9.90
   3  -6   9   16.50   12.80
   3  -6   9    2.20    7.60
   5   5  -9    3.20    7.80
   5   5  -9   -7.20    6.80
  -5  -5   9   -4.40    5.20
  -5  -5   9   13.40    8.80
  -5  -5   9   -0.80    3.90
  -5  -5   9   -4.40    5.30
  -5  -5   9  -14.00    7.50
   4   5  -9   43.80    9.70
   4   5  -9   63.99    9.90
   4   5  -9   77.39   13.10
  -4  -5   9   66.09    8.20
  -4  -5   9   55.09    8.50
  -4  -5   9   55.59   10.10
  -4  -5   9   56.69    8.30
   3   5  -9  261.87   25.60
   3   5  -9  279.77   27.60
   3   5  -9  256.27   25.90
  -3  -5   9  296.37   25.80
  -3  -5   9  254.47   25.10
  -3  -5   9  311.27   25.10
  -3  -5   9  248.28   25.70
  -3  -5   9  255.87   27.10
   2   5  -9    3.80    6.00
   2   5  -9    1.60    6.10
   2   5  -9    2.60    5.70
   2   5  -9   -3.40    5.10
  -2  -5   9    2.50    4.50
  -2  -5   9   -3.30    5.60
  -2  -5   9    1.90    7.00
  -2  -5   9    0.60    5.30
  -2  -5   9    3.40    5.50
   1   5  -9   -5.10    5.90
   1   5  -9    3.70    5.50
   1   5  -9    1.20    5.70
   1   5  -9    2.20    5.90
  -1  -5   9    1.20    4.50
  -1  -5   9    3.50    8.10
  -1  -5   9   -4.50    4.50
  -1  -5   9   -4.40    4.90
  -1  -5   9   -0.80    5.30
   0   5  -9   -5.30    5.60
   0   5  -9   -2.00    5.50
   0   5  -9    0.00    6.00
   0   5  -9   -1.40    5.20
   0  -5   9    6.00    6.10
   0  -5   9   -3.90    5.20
   0  -5   9    0.90    8.10
   0  -5   9   -0.30    4.30
   0  -5   9   -2.40    4.60
  -1   5  -9    5.10    6.00
  -1   5  -9    1.80    6.50
  -1   5  -9    5.10    5.80
   1  -5   9   -5.30    4.30
   1  -5   9    6.00    5.30
   1  -5   9   -6.50    9.40
   1  -5   9   -2.50    5.00
  -2   5  -9   76.19   10.70
  -2   5  -9   82.89   11.40
  -2   5  -9  102.09   12.90
  -2   5  -9   84.49   15.30
  -2   5  -9   96.49    9.90
   2  -5   9   90.39   10.70
   2  -5   9   70.69   10.90
   2  -5   9   94.69   13.70
   2  -5   9   81.89   12.80
  -3   5  -9   25.10   10.50
  -3   5  -9    6.40    6.20
  -3   5  -9   10.20    6.40
  -3   5  -9    0.70    8.20
   3  -5   9    1.70    4.90
   3  -5   9   11.10    9.00
   3  -5   9   11.00    5.60
   3  -5   9   18.20   11.70
   3  -5   9   14.20    4.90
  -4   5  -9    5.20    6.40
  -4   5  -9    8.60    9.20
   4  -5   9   15.70    9.30
   4  -5   9   25.10   13.30
   4  -5   9   11.00    5.10
   4  -5   9    7.10    6.60
   6   4  -9    1.70    6.70
   6   4  -9   12.40   12.10
  -6  -4   9   -5.90    5.60
  -6  -4   9   15.50    7.90
   5   4  -9   -6.70    8.00
   5   4  -9   -3.60    6.10
   5   4  -9    7.50    5.90
   5   4  -9    1.20    5.50
   5   4  -9  -13.40    7.90
  -5  -4   9    0.40    4.10
  -5  -4   9    8.60    7.00
  -5  -4   9   -8.80    7.30
  -5  -4   9    5.60    4.80
   4   4  -9  218.48   20.00
  -4  -4   9  207.88   22.10
  -4  -4   9  200.58   19.40
  -4  -4   9  213.18   19.70
  -4  -4   9  184.38   18.30
  -4  -4   9  210.58   20.90
   3   4  -9  483.85   40.10
   3   4  -9  384.26   39.60
  -3  -4   9  474.75   39.60
  -3  -4   9  421.16   40.50
  -3  -4   9  455.85   39.60
  -3  -4   9  442.06   39.70
  -3  -4   9  447.46   41.40
   2   4  -9   43.50    8.00
   2   4  -9   45.70    9.80
   2   4  -9   50.09    8.20
   2   4  -9   53.59    9.10
  -2  -4   9   44.70    6.80
  -2  -4   9   52.89    8.10
  -2  -4   9   48.20   10.40
  -2  -4   9   53.69    7.50
  -2  -4   9   54.99    7.90
   1   4  -9   -1.60    5.20
   1   4  -9   -3.40    5.00
   1   4  -9   -2.10    4.60
   1   4  -9    4.80    5.10
  -1  -4   9   -4.40    4.20
  -1  -4   9   -3.50    3.90
  -1  -4   9   -1.50    4.80
  -1  -4   9    0.10    6.30
  -1  -4   9    3.10    4.90
   0   4  -9   59.49   10.10
   0   4  -9   50.89    8.60
   0   4  -9   58.69    8.30
   0   4  -9   61.39    9.60
   0  -4   9   47.30    8.60
   0  -4   9   51.59    6.90
   0  -4   9   60.19    9.00
   0  -4   9   56.89    7.20
   0  -4   9   63.59    8.80
  -1   4  -9  127.79   15.80
  -1   4  -9  142.79   14.10
  -1   4  -9  143.79   13.60
  -1   4  -9  108.89   13.20
   1  -4   9  120.19   14.80
   1  -4   9  136.79   13.20
   1  -4   9  117.89   12.50
   1  -4   9  125.59   13.80
   1  -4   9  131.19   13.30
  -2   4  -9   -4.20    6.50
  -2   4  -9   -9.30    5.00
  -2   4  -9    5.90    3.60
  -2   4  -9   -9.20    4.90
   2  -4   9   -6.50    3.20
   2  -4   9    0.90    8.60
   2  -4   9    0.50    4.00
   2  -4   9    8.20    8.40
   2  -4   9   -9.40    4.80
  -3   4  -9    0.70    2.60
  -3   4  -9   -9.80    7.00
  -3   4  -9   -7.50    5.20
  -3   4  -9   -6.50    4.40
   3  -4   9   -7.10    4.90
   3  -4   9   -6.50    7.60
   3  -4   9    3.50   10.20
   3  -4   9   -1.50    4.60
   3  -4   9   -2.70    3.60
  -4   4  -9    6.60    5.10
  -4   4  -9   -0.60    7.70
  -4   4  -9    6.80    9.90
   4  -4   9    9.40    8.90
   4  -4   9    1.00    3.60
   4  -4   9    6.20    5.80
   4  -4   9    4.30    8.90
   4  -4   9   -4.20    5.00
  -5   4  -9    4.90    7.50
  -5   4  -9    8.80    8.90
  -5   4  -9   13.80    5.50
   5  -4   9   32.90    9.80
   5  -4   9   12.70    4.60
   5  -4   9   15.40    6.60
   5  -4   9   24.90   13.50
   6   3  -9   22.00   10.80
   6   3  -9   -0.20    6.40
   6   3  -9    4.60    8.80
  -6  -3   9    3.90    5.50
  -6  -3   9    2.80    5.20
  -6  -3   9   -8.00    8.60
  -6  -3   9   16.20    8.40
   5   3  -9   -4.80    5.40
   5   3  -9   -2.20    7.50
   5   3  -9   -0.70    8.50
   5   3  -9   -6.60    4.80
   5   3  -9   -1.20    5.50
  -5  -3   9    6.60    6.70
  -5  -3   9   -0.20    4.10
  -5  -3   9    9.40    8.10
  -5  -3   9   -8.60    6.90
  -5  -3   9    2.10    4.80
   4   3  -9  137.59   13.80
   4   3  -9  102.79   13.90
   4   3  -9  122.49   14.30
   4   3  -9  138.79   14.80
  -4  -3   9  134.29   15.20
  -4  -3   9  141.09   16.00
  -4  -3   9  122.79   13.00
  -4  -3   9  151.28   12.90
  -4  -3   9  111.09   16.10
   3   3  -9  722.03   63.79
   3   3  -9  695.33   65.19
   3   3  -9  707.33   63.59
  -3  -3   9  704.53   64.59
  -3  -3   9  704.43   63.59
  -3  -3   9  790.12   63.59
   2   3  -9    4.40    4.50
   2   3  -9    2.50    4.00
   2   3  -9    1.50    5.00
   2   3  -9    6.50    4.90
  -2  -3   9    1.00    3.80
  -2  -3   9    2.80    4.10
  -2  -3   9    5.40    3.70
  -2  -3   9    2.00    5.00
  -2  -3   9    2.40    4.70
   1   3  -9   -7.50    4.20
   1   3  -9    1.00    3.50
   1   3  -9   -0.70    4.80
   1   3  -9   -4.10    4.30
  -1  -3   9   -0.30    4.10
  -1  -3   9   -1.50    4.80
  -1  -3   9    3.00    4.10
  -1  -3   9    5.80    4.30
   0   3  -9    4.60    4.80
   0   3  -9    1.10    4.40
   0   3  -9    3.80    4.40
   0   3  -9    6.80    4.20
   0  -3   9    1.30    3.00
   0  -3   9    2.10    3.50
   0  -3   9    3.80    6.10
   0  -3   9    5.00    4.20
   0  -3   9   10.90    4.70
  -1   3  -9    1.40    4.20
  -1   3  -9   -3.90    4.10
  -1   3  -9   -5.90    7.40
  -1   3  -9    0.50    3.90
  -1   3  -9    2.40    5.20
   1  -3   9    2.50    3.10
   1  -3   9    4.90    3.30
   1  -3   9   -1.70    6.80
   1  -3   9    0.60    4.20
   1  -3   9    3.50    4.30
  -2   3  -9  268.17   22.20
  -2   3  -9  216.28   21.50
  -2   3  -9  202.38   23.20
  -2   3  -9  191.68   23.70
  -2   3  -9  201.68   21.40
   2  -3   9  258.77   23.40
   2  -3   9  216.98   23.20
   2  -3   9  260.17   21.50
   2  -3   9  233.68   21.10
   2  -3   9  265.37   21.40
  -3   3  -9    1.40    6.40
  -3   3  -9    4.90    5.70
  -3   3  -9   -4.10    9.40
  -3   3  -9    9.20    3.60
  -3   3  -9    8.50    4.30
   3  -3   9    8.80    3.60
   3  -3   9    8.10    2.60
   3  -3   9    8.60    8.90
   3  -3   9   10.70    4.60
   3  -3   9   10.10    8.20
  -4   3  -9   10.70    4.20
  -4   3  -9    7.00    6.90
  -4   3  -9    4.80    3.40
  -4   3  -9   13.00    4.60
   4  -3   9   15.60   10.30
   4  -3   9   14.10    3.70
   4  -3   9   13.00    4.60
   4  -3   9   10.90    7.80
  -5   3  -9   65.49    7.10
  -5   3  -9   47.50    7.80
  -5   3  -9   62.99   14.60
  -5   3  -9   68.09   12.60
   5  -3   9   58.09   13.80
   5  -3   9   60.99    7.90
   5  -3   9   52.29    7.80
   5  -3   9   54.19   10.80
  -6   3  -9    6.50    5.80
   6  -3   9   12.90   13.20
   6   2  -9    5.00    6.10
   6   2  -9   11.10    6.00
   6   2  -9    4.10    9.00
   6   2  -9    2.90   10.20
  -6  -2   9    0.10    6.30
  -6  -2   9    0.40    5.20
  -6  -2   9    4.10    8.20
   5   2  -9   31.30    8.60
   5   2  -9   15.30    6.10
   5   2  -9   17.50    7.00
  -5  -2   9   18.60    7.20
  -5  -2   9   19.20    5.20
  -5  -2   9   35.60    9.50
  -5  -2   9    9.30    7.80
  -5  -2   9   28.00    4.90
   4   2  -9   84.19   11.00
   4   2  -9   71.19    8.80
   4   2  -9   46.00    8.10
   4   2  -9   59.79    9.40
  -4  -2   9   62.39    7.00
  -4  -2   9   68.09   12.00
  -4  -2   9   66.39    7.60
  -4  -2   9   62.19    7.80
  -4  -2   9   50.19   11.30
  -4  -2   9   79.19   10.70
   3   2  -9 1559.14  131.49
   3   2  -9 1316.67  131.39
   3   2  -9 1557.34  132.79
  -3  -2   9 1630.74  131.39
  -3  -2   9 1401.06  132.29
  -3  -2   9 1555.04  131.29
  -3  -2   9 1479.25  132.59
   2   2  -9   16.20    4.30
   2   2  -9   12.40    4.10
   2   2  -9    9.70    5.20
   2   2  -9   11.80    4.60
  -2  -2   9   12.70    5.20
  -2  -2   9   16.80    3.70
  -2  -2   9   12.90    4.00
  -2  -2   9   13.20    5.00
  -2  -2   9   10.70    3.20
   1   2  -9  120.89   12.60
   1   2  -9  127.19   13.70
   1   2  -9  124.49   14.10
   1   2  -9  107.79   12.40
  -1  -2   9  114.89   13.80
  -1  -2   9  123.79   12.30
  -1  -2   9  144.89   12.30
  -1  -2   9  128.29   12.10
  -1  -2   9  136.79   12.90
   0   2  -9  221.58   21.60
   0   2  -9  220.78   22.00
   0   2  -9  229.38   22.70
   0   2  -9  274.47   22.70
   0   2  -9  216.28   21.60
   0  -2   9  208.68   22.30
   0  -2   9  255.37   21.40
   0  -2   9  245.18   22.10
   0  -2   9  256.07   21.60
  -1   2  -9   57.79    7.50
  -1   2  -9   65.69    7.60
  -1   2  -9   65.19    9.10
  -1   2  -9   67.09   10.00
   1  -2   9   70.99    8.70
   1  -2   9   60.79    8.70
   1  -2   9   55.79    7.70
   1  -2   9   76.89    7.50
   1  -2   9   73.19    9.50
  -2   2  -9    1.60    7.50
  -2   2  -9    0.00    3.70
  -2   2  -9    4.70    3.60
  -2   2  -9    4.20    3.70
  -2   2  -9    3.70    4.20
   2  -2   9    5.50    2.10
   2  -2   9    6.10    3.50
   2  -2   9    2.90    2.80
   2  -2   9   20.60    7.40
   2  -2   9   -0.40    7.00
  -3   2  -9   -4.10    3.80
  -3   2  -9   -4.90    7.70
  -3   2  -9    2.20    3.50
  -3   2  -9    0.00    5.90
  -3   2  -9    0.60    3.40
   3  -2   9    1.80    3.00
   3  -2   9   -0.60    6.20
   3  -2   9   -3.60    3.70
   3  -2   9   -2.00    7.50
  -4   2  -9    3.80    3.70
  -4   2  -9    4.90    5.80
  -4   2  -9    3.60    4.20
  -4   2  -9    6.60    6.20
  -4   2  -9    6.20    3.60
   4  -2   9    6.40    3.80
   4  -2   9   10.90    3.10
   4  -2   9    3.70    9.50
  -5   2  -9   14.30    5.00
  -5   2  -9   28.30    5.10
  -5   2  -9   25.20    5.00
  -5   2  -9   12.90    7.80
  -5   2  -9   27.60    8.80
  -5   2  -9   39.70   10.20
   5  -2   9   33.40    4.80
   5  -2   9   38.80   10.30
   5  -2   9   16.90   11.20
   5  -2   9   22.60    4.40
  -6   2  -9    5.00    3.90
  -6   2  -9   -4.60    8.50
  -6   2  -9    1.30    2.20
  -6   2  -9    1.00    2.10
   6  -2   9    0.40    3.30
   6  -2   9    9.50    9.00
   6  -2   9    6.00    3.10
   6   1  -9    4.60    9.20
   6   1  -9   12.40   10.80
   6   1  -9   -3.20    6.30
   6   1  -9    2.70    5.50
  -6  -1   9   -1.60    5.00
  -6  -1   9    6.70    8.50
   5   1  -9    7.20    5.70
   5   1  -9   19.30    9.00
   5   1  -9   11.90    7.20
  -5  -1   9   -1.30    3.40
  -5  -1   9    2.10    7.10
  -5  -1   9   -5.90    6.80
  -5  -1   9   13.60    8.40
  -5  -1   9    5.50    4.70
  -5  -1   9    0.50    3.80
   4   1  -9   96.79   13.10
   4   1  -9  110.09   12.00
   4   1  -9   78.49   10.90
   4   1  -9  101.39   14.60
  -4  -1   9   91.99   10.00
  -4  -1   9   61.29   12.80
  -4  -1   9   95.99   10.20
  -4  -1   9   74.79   13.00
  -4  -1   9   93.79    9.80
   3   1  -9  781.32   66.69
   3   1  -9  770.62   67.79
   3   1  -9  686.63   66.59
   3   1  -9  786.22   68.09
   3   1  -9  822.52   67.09
  -3  -1   9  696.03   67.89
  -3  -1   9  837.72   66.49
  -3  -1   9  720.83   66.49
  -3  -1   9  694.73   67.69
   2   1  -9   54.39    7.70
   2   1  -9   80.59    9.20
   2   1  -9   62.29    8.10
  -2  -1   9   62.29    7.60
  -2  -1   9   71.79    8.20
  -2  -1   9   76.79    7.40
  -2  -1   9   66.09    9.50
  -2  -1   9   61.59    9.90
   1   1  -9    0.40    3.30
   1   1  -9   -4.80    3.90
   1   1  -9    0.50    2.90
   1   1  -9   -0.10    3.80
   1   1  -9    1.90    3.80
  -1  -1   9    5.20    4.60
  -1  -1   9    0.40    3.30
  -1  -1   9    0.10    3.00
  -1  -1   9   -3.40    3.50
  -1  -1   9    0.50    3.30
   0   1  -9  142.89   14.00
   0   1  -9  133.49   14.90
   0   1  -9  134.09   14.90
   0   1  -9  139.09   13.70
   0  -1   9  153.68   13.90
   0  -1   9  130.79   13.20
   0  -1   9  158.18   14.40
   0  -1   9  158.28   13.60
   0  -1   9  142.89   14.80
  -1   1  -9   89.29   10.00
  -1   1  -9   93.19   11.80
  -1   1  -9   98.89   11.20
  -1   1  -9   88.39    9.90
  -1   1  -9   91.19   10.80
   1  -1   9  114.49    9.90
   1  -1   9  104.69    9.70
   1  -1   9  107.49   11.10
   1  -1   9  109.39    9.80
   1  -1   9   92.69   11.10
  -2   1  -9  398.06   34.80
  -2   1  -9  346.57   35.10
  -2   1  -9  410.06   34.10
  -2   1  -9  336.67   33.90
  -2   1  -9  344.37   35.40
   2  -1   9  427.66   34.00
   2  -1   9  420.46   35.10
   2  -1   9  419.16   35.50
   2  -1   9  393.26   33.90
   2  -1   9  334.57   33.90
  -3   1  -9   -2.40    3.30
  -3   1  -9    1.20    3.40
  -3   1  -9   -0.50    7.10
  -3   1  -9    3.10    4.00
  -3   1  -9   -0.70    4.10
   3  -1   9   -3.30    3.20
   3  -1   9   -5.50    2.90
   3  -1   9    1.50    2.90
   3  -1   9   -2.90    6.70
  -4   1  -9    6.10    3.20
  -4   1  -9   10.90    3.30
  -4   1  -9    5.90    4.80
  -4   1  -9    5.80    8.40
  -4   1  -9    4.40    8.80
  -4   1  -9    5.70    6.00
   4  -1   9    9.90    3.20
   4  -1   9   -3.50    4.50
   4  -1   9    1.80    7.30
   4  -1   9    7.00    2.80
  -5   1  -9   54.59    9.00
  -5   1  -9   42.80   10.50
  -5   1  -9   50.19    6.30
  -5   1  -9   44.90    9.30
  -5   1  -9   58.99    6.30
   5  -1   9   61.19    6.00
   5  -1   9   45.50    9.80
  -6   1  -9  109.89   16.40
  -6   1  -9   86.69   16.60
  -6   1  -9  122.99   14.30
  -6   1  -9  115.09   14.10
   6  -1   9  112.99   14.60
   6  -1   9  101.49   10.80
   6  -1   9  134.49   10.80
  -7   1  -9    4.10    9.50
  -7   1  -9    3.00    5.40
   7  -1   9    8.00   10.70
   5   0  -9   21.30    8.10
   5   0  -9   15.70    5.70
   5   0  -9   26.20    9.60
   5   0  -9   21.40    5.70
  -5   0   9   -0.10    7.00
  -5   0   9    7.70    5.10
  -5   0   9   11.00    4.60
  -5   0   9   12.20    4.30
  -5   0   9    5.40    7.50
   4   0  -9   -2.30    6.20
   4   0  -9    1.90    5.80
   4   0  -9    8.80    4.30
   4   0  -9    8.70    5.30
   4   0  -9    4.00    7.60
  -4   0   9    0.70    6.20
  -4   0   9    2.00    3.80
  -4   0   9    2.50    3.50
  -4   0   9   -1.20    4.60
  -4   0   9    5.10    6.70
   3   0  -9 1477.35  127.79
   3   0  -9 1292.37  126.79
   3   0  -9 1533.65  126.69
   3   0  -9 1424.86  127.69
  -3   0   9 1529.55  126.49
  -3   0   9 1286.17  126.69
  -3   0   9 1569.44  127.09
   2   0  -9   69.99    8.00
   2   0  -9   54.89    9.70
   2   0  -9   65.29    9.10
   2   0  -9   65.89    7.60
   2   0  -9   52.69    7.40
  -2   0   9   71.99   10.00
  -2   0   9   61.99    7.40
  -2   0   9   63.59    9.60
  -2   0   9   85.89    9.30
  -2   0   9   71.69    7.40
   1   0  -9  324.27   27.60
   1   0  -9  348.07   27.40
   1   0  -9  259.07   27.20
   1   0  -9  268.67   27.50
   1   0  -9  340.77   28.50
  -1   0   9  324.07   28.30
  -1   0   9  319.07   27.40
  -1   0   9  289.47   27.20
  -1   0   9  286.87   28.50
   0   0  -9   40.40    7.30
   0   0  -9   24.20    4.30
   0   0  -9   31.90    5.10
   0   0  -9   19.60    4.20
   0   0  -9   48.40    7.40
   0   0   9   28.20    4.70
   0   0   9   36.40    5.50
   0   0   9   26.60    4.20
   0   0   9   37.70    6.30
   0   0   9   39.30    7.30
  -1   0  -9  877.01   77.89
  -1   0  -9  848.32   78.79
  -1   0  -9  870.01   78.39
  -1   0  -9 1015.30   78.79
  -1   0  -9  764.92   77.79
   1   0   9  814.32   78.49
   1   0   9  998.00   77.99
   1   0   9  948.61   77.89
   1   0   9  898.11   77.79
   1   0   9  841.32   78.49
  -2   0  -9   43.80    7.40
  -2   0  -9   31.80    7.70
  -2   0  -9   32.90    4.90
  -2   0  -9   28.30    4.80
  -2   0  -9   33.70    6.50
   2   0   9   25.70    5.40
   2   0   9   29.80    3.80
   2   0   9   34.10    4.40
   2   0   9   45.10    7.50
   2   0   9   38.00    4.70
  -3   0  -9    5.70    4.40
  -3   0  -9    6.00    7.10
  -3   0  -9    2.30    2.90
  -3   0  -9    9.00    5.20
  -3   0  -9    5.70    3.40
   3   0   9    2.40    6.40
   3   0   9    5.20    4.20
   3   0   9    6.40    3.20
   3   0   9    5.50    2.50
   3   0   9    4.80    4.20
  -4   0  -9   10.40    9.10
  -4   0  -9    3.20    5.40
  -4   0  -9   -0.80    5.10
  -4   0  -9    3.00    2.80
  -4   0  -9    4.90    7.80
  -4   0  -9    1.90    5.70
  -4   0  -9    4.40    3.00
   4   0   9    5.40    3.00
   4   0   9    2.20    4.20
   4   0   9    4.30    2.90
   4   0   9   -2.90    6.90
   4   0   9   -1.80    4.90
  -5   0  -9    9.60   10.70
  -5   0  -9   16.30    7.00
  -5   0  -9   21.80    4.00
  -5   0  -9   33.00    4.40
  -5   0  -9   34.20    6.80
   5   0   9   23.60    7.10
   5   0   9   20.40    4.60
   5   0   9   19.80    8.40
   5   0   9   25.60    4.00
  -6   0  -9   -5.70    7.20
  -6   0  -9   11.10    7.20
  -6   0  -9    0.20    1.10
  -6   0  -9    8.90   10.20
  -6   0  -9   10.20    9.50
   6   0   9   -1.00    2.30
   6   0   9    8.90    8.30
   6   0   9    1.70    2.40
  -7   0  -9   -7.00    8.40
  -7   0  -9    5.20    8.60
  -7   0  -9   14.00   11.30
   7   0   9    3.00   10.10
   5  -1  -9   -0.60    5.50
   5  -1  -9   19.60    9.60
   5  -1  -9   -4.10    5.20
  -5   1   9    5.80    7.90
  -5   1   9    0.70    4.20
  -5   1   9    5.40    4.70
   4  -1  -9   18.30    9.10
   4  -1  -9    0.80    6.20
   4  -1  -9    5.70    5.20
  -4   1   9    7.40    4.10
  -4   1   9    6.40    6.50
  -4   1   9    7.30    4.50
  -4   1   9   -2.40    5.10
  -4   1   9    7.30    5.50
   3  -1  -9  202.68   22.10
   3  -1  -9  239.08   23.90
   3  -1  -9  223.38   22.70
   3  -1  -9  230.88   22.30
   3  -1  -9  280.37   24.50
  -3   1   9  228.38   24.00
  -3   1   9  274.67   24.20
  -3   1   9  251.97   22.00
  -3   1   9  204.58   24.10
  -3   1   9  271.67   22.30
   2  -1  -9  106.69   11.40
   2  -1  -9  106.69   11.20
   2  -1  -9  139.49   13.60
   2  -1  -9  133.79   12.30
   2  -1  -9   95.49   11.30
  -2   1   9  108.59   13.40
  -2   1   9  128.09   11.30
  -2   1   9  114.49   13.00
  -2   1   9  105.79   11.30
  -2   1   9  127.39   13.70
   1  -1  -9   -0.60    2.70
   1  -1  -9    2.40    4.40
   1  -1  -9   -6.50    4.30
   1  -1  -9    2.00    4.40
   1  -1  -9    5.80    4.80
   1  -1  -9    4.30    3.90
  -1   1   9    4.00    4.10
  -1   1   9    7.30    3.80
  -1   1   9    0.20    3.10
  -1   1   9    3.70    4.30
  -1   1   9    4.70    3.50
   0  -1  -9  340.47   30.10
   0  -1  -9  296.47   29.30
   0  -1  -9  311.17   30.40
   0  -1  -9  337.77   30.40
   0   1   9  343.77   29.20
   0   1   9  328.77   30.30
   0   1   9  328.07   29.30
   0   1   9  350.06   29.90
   0   1   9  309.37   30.20
  -1  -1  -9  588.14   50.59
  -1  -1  -9  512.35   50.19
  -1  -1  -9  621.54   51.49
   1   1   9  472.35   50.89
   1   1   9  630.14   50.19
   1   1   9  568.34   50.09
   1   1   9  544.35   50.39
   1   1   9  619.74   51.09
  -2  -1  -9  324.57   28.30
  -2  -1  -9  360.86   29.70
  -2  -1  -9  271.27   28.00
  -2  -1  -9  281.07   29.50
  -2  -1  -9  288.97   28.30
  -2  -1  -9  323.87   28.30
   2   1   9  314.27   28.20
   2   1   9  326.97   29.50
   2   1   9  329.77   28.30
   2   1   9  333.27   28.30
   2   1   9  335.97   29.40
  -3  -1  -9    5.10    3.40
  -3  -1  -9    3.80    3.00
  -3  -1  -9    4.50    1.80
  -3  -1  -9    8.50    3.30
  -3  -1  -9    7.00    6.90
  -3  -1  -9    4.50    5.20
  -3  -1  -9    2.00    4.90
   3   1   9    4.80    2.70
   3   1   9   11.30    5.40
   3   1   9   -3.70    5.90
   3   1   9    0.40    4.60
   3   1   9    8.00    3.00
  -4  -1  -9   94.39   13.70
  -4  -1  -9  129.99   14.70
  -4  -1  -9  106.69   10.50
  -4  -1  -9  118.49   11.90
  -4  -1  -9  125.49   11.30
  -4  -1  -9  122.09   14.40
  -4  -1  -9  104.69   11.10
   4   1   9   94.09   13.20
   4   1   9  131.79   11.70
   4   1   9  124.39   11.20
   4   1   9  136.19   13.10
   4   1   9  131.29   13.30
  -5  -1  -9   14.00    3.20
  -5  -1  -9   14.60    3.20
  -5  -1  -9   25.50    4.10
  -5  -1  -9   22.80    5.70
  -5  -1  -9   18.60    3.20
  -5  -1  -9   11.60   10.20
   5   1   9   15.30    3.40
   5   1   9   19.80    7.30
   5   1   9   16.40    3.20
   5   1   9   16.30    5.00
   5   1   9   15.90    7.90
  -6  -1  -9  146.69   15.70
  -6  -1  -9  127.99   13.90
  -6  -1  -9  144.69   13.40
  -6  -1  -9  138.19   18.10
  -6  -1  -9  150.98   13.50
  -6  -1  -9  183.18   17.50
  -6  -1  -9  158.08   19.00
  -6  -1  -9  126.99   17.80
  -6  -1  -9  144.59   14.10
   6   1   9  163.68   13.70
   6   1   9  154.88   13.70
   6   1   9  161.78   17.40
  -7  -1  -9   22.70    5.90
  -7  -1  -9   13.90   15.10
  -7  -1  -9    6.60    8.20
  -7  -1  -9   33.10    8.80
   7   1   9   42.40   10.80
   5  -2  -9    8.90    9.90
   5  -2  -9    0.10    5.80
   5  -2  -9   10.60    8.20
   5  -2  -9    2.10    8.30
  -5   2   9   -1.50    5.10
  -5   2   9   -7.00    5.20
  -5   2   9  -11.60    8.50
   4  -2  -9   24.30    8.20
   4  -2  -9   20.30    6.50
   4  -2  -9   37.00    8.00
   4  -2  -9   32.70    6.50
   4  -2  -9   22.10    5.30
  -4   2   9    8.10    6.80
  -4   2   9    8.80    7.70
  -4   2   9   30.10    5.50
  -4   2   9   29.20    6.00
  -4   2   9   19.70    8.00
   3  -2  -9  348.97   30.70
   3  -2  -9  291.27   30.10
   3  -2  -9  367.06   32.30
  -3   2   9  339.97   30.00
  -3   2   9  317.37   29.80
  -3   2   9  279.47   31.20
  -3   2   9  380.06   32.60
   2  -2  -9  166.08   15.80
   2  -2  -9  159.38   17.80
  -2   2   9  171.28   17.30
  -2   2   9  134.29   18.40
  -2   2   9  184.78   15.50
  -2   2   9  149.59   17.50
   1  -2  -9   62.89   12.10
   1  -2  -9   37.80    7.00
   1  -2  -9   43.90    6.40
   1  -2  -9   53.59    6.80
   1  -2  -9   43.70    7.20
  -1   2   9   55.79    6.30
  -1   2   9   35.10    5.40
  -1   2   9   50.59   11.10
  -1   2   9   55.49    8.90
  -1   2   9   51.79    8.70
   0  -2  -9   29.90    7.80
   0  -2  -9   13.00    4.40
   0  -2  -9   15.40    6.00
   0  -2  -9   26.30    6.60
   0  -2  -9   18.40    4.60
   0   2   9   29.70    6.70
   0   2   9   18.60    4.10
   0   2   9   27.70    7.70
   0   2   9   27.50    6.00
   0   2   9   20.00    4.30
  -1  -2  -9  678.23   64.99
  -1  -2  -9  698.63   64.99
   1   2   9  791.42   64.99
   1   2   9  712.33   65.89
   1   2   9  745.43   65.49
   1   2   9  779.42   65.69
   1   2   9  768.92   64.99
  -2  -2  -9   20.00    5.60
  -2  -2  -9   21.20    4.70
  -2  -2  -9   35.40    8.40
  -2  -2  -9   34.80    7.70
  -2  -2  -9   21.90    4.30
   2   2   9   32.90    5.80
   2   2   9   26.90    4.70
   2   2   9   29.40    4.60
   2   2   9   29.70    6.80
   2   2   9   21.20    6.30
  -3  -2  -9    1.30    5.40
  -3  -2  -9    2.90    3.10
  -3  -2  -9    0.20    3.10
  -3  -2  -9    1.70    3.60
  -3  -2  -9    5.90    9.20
   3   2   9   -1.60    2.90
   3   2   9   -5.90    5.60
   3   2   9   -1.10    6.10
   3   2   9   11.20    5.80
   3   2   9   -2.60    4.10
  -4  -2  -9   -2.30    3.30
  -4  -2  -9   -0.50    3.80
  -4  -2  -9    0.40    5.60
  -4  -2  -9   -1.70    7.50
  -4  -2  -9    1.10    3.00
  -4  -2  -9   -0.50    3.30
   4   2   9    3.90    6.20
   4   2   9   -0.60    2.80
   4   2   9    0.50    4.30
   4   2   9   -1.50    2.70
  -5  -2  -9    7.00    3.70
  -5  -2  -9    9.90    3.10
  -5  -2  -9    4.70    6.30
  -5  -2  -9   12.00   11.60
  -5  -2  -9    8.70    6.80
  -5  -2  -9    8.00    3.50
   5   2   9    6.90    5.00
   5   2   9    1.80    7.40
   5   2   9    9.70    3.20
   5   2   9   11.30    3.20
   5   2   9    7.80    7.00
  -6  -2  -9   33.70   10.70
  -6  -2  -9   31.20    5.90
  -6  -2  -9   19.90    4.00
  -6  -2  -9   30.20    4.70
  -6  -2  -9   20.70    6.90
  -6  -2  -9   18.70    7.40
   6   2   9   27.90    4.60
   6   2   9   26.20    7.30
   6   2   9   28.10    8.00
   6   2   9   35.10   10.00
  -7  -2  -9   13.60   13.50
  -7  -2  -9   -1.50   11.70
  -7  -2  -9  -12.20    7.80
  -7  -2  -9   16.00    9.60
  -7  -2  -9  -10.10    8.00
  -7  -2  -9    0.10    4.00
   7   2   9   -0.60    2.60
   7   2   9   -0.60    2.40
   7   2   9    7.20    9.30
   4  -3  -9    5.70    6.40
   4  -3  -9    7.40   10.60
   4  -3  -9   -5.90    6.50
   4  -3  -9    9.60    9.30
   4  -3  -9    5.60    5.10
  -4   3   9   -1.60    4.70
  -4   3   9   -7.70    6.50
  -4   3   9  -12.90    8.00
  -4   3   9   -1.40    4.10
   3  -3  -9    2.60    8.70
   3  -3  -9    1.40    6.00
   3  -3  -9   12.20    9.30
   3  -3  -9   11.70    5.60
  -3   3   9    6.40    5.70
  -3   3   9   11.40    4.50
  -3   3   9    4.10    5.70
  -3   3   9   -2.00    7.50
  -3   3   9    3.80    7.20
  -3   3   9   20.30    5.20
   2  -3  -9   55.79   10.50
   2  -3  -9   36.40    7.30
  -2   3   9   39.30    7.10
  -2   3   9   24.30    7.70
  -2   3   9   48.20    5.80
  -2   3   9   35.00    6.00
  -2   3   9   33.20    6.30
  -2   3   9   21.00    7.70
   1  -3  -9    1.20    4.80
   1  -3  -9    0.30    4.20
   1  -3  -9   -0.40    5.10
   1  -3  -9    1.70    7.50
   1  -3  -9   -4.60    5.30
  -1   3   9    1.30    3.00
  -1   3   9    2.30    4.70
  -1   3   9    3.00    4.30
  -1   3   9    0.70    3.90
  -1   3   9    3.10    4.40
   0  -3  -9  104.79   15.90
   0  -3  -9   83.29    9.80
   0  -3  -9   68.19   11.00
   0  -3  -9   90.79   10.10
   0   3   9  104.49    9.90
   0   3   9  104.29   12.00
   0   3   9   87.59    9.20
   0   3   9   99.19    9.90
   0   3   9   85.99   12.20
  -1  -3  -9  518.55   44.40
  -1  -3  -9  468.75   42.80
  -1  -3  -9  487.95   43.70
  -1  -3  -9  471.75   42.80
   1   3   9  418.46   43.80
   1   3   9  424.26   42.60
   1   3   9  553.64   43.30
   1   3   9  508.65   43.70
  -2  -3  -9   24.10    7.10
  -2  -3  -9   16.70    6.10
  -2  -3  -9   12.10    4.20
  -2  -3  -9   12.20    3.40
  -2  -3  -9   12.50    4.90
  -2  -3  -9   15.10    5.70
   2   3   9   15.60    4.10
   2   3   9   13.60    3.80
   2   3   9   11.90    4.90
   2   3   9   19.00    5.50
  -3  -3  -9   -1.80   10.20
  -3  -3  -9    1.60    4.10
  -3  -3  -9    9.10    6.00
  -3  -3  -9    0.10    3.60
  -3  -3  -9   -5.20    4.00
   3   3   9   -2.10    3.70
   3   3   9    0.00    3.20
   3   3   9    0.80    4.20
   3   3   9   -2.10    2.90
   3   3   9   13.80    7.10
   3   3   9   -3.80    5.40
  -4  -3  -9  125.09   13.90
  -4  -3  -9  138.79   15.70
  -4  -3  -9  149.49   13.00
  -4  -3  -9  138.59   16.00
  -4  -3  -9  120.89   12.80
   4   3   9  120.89   14.40
   4   3   9  135.59   15.00
   4   3   9  136.39   12.70
   4   3   9  127.19   14.80
   4   3   9  136.19   12.70
  -5  -3  -9   22.90    7.50
  -5  -3  -9    9.30    7.00
  -5  -3  -9    6.70    4.90
  -5  -3  -9   16.60    4.10
  -5  -3  -9   15.10    3.80
   5   3   9   17.50   14.30
   5   3   9   18.50    4.00
   5   3   9    5.70    7.70
   5   3   9   11.70    5.00
   5   3   9   15.00    3.80
  -6  -3  -9   69.39   10.90
  -6  -3  -9   45.30   12.60
  -6  -3  -9   83.49    8.40
  -6  -3  -9   67.69   12.60
   6   3   9   70.29    7.90
   6   3   9   82.69   12.00
   6   3   9   79.29    8.40
   6   3   9   81.49   11.10
  -7  -3  -9   45.60   16.80
  -7  -3  -9   35.70    4.70
  -7  -3  -9   16.70    8.60
  -7  -3  -9   28.00    4.40
   7   3   9   43.40    9.30
   7   3   9   41.40    5.20
   7   3   9   38.30    5.60
  -4   4   9    0.50    6.30
   3  -4  -9   17.30    7.40
   3  -4  -9   24.30    5.70
   3  -4  -9   29.40    9.40
   3  -4  -9   21.20   10.90
   3  -4  -9   13.50   10.60
   3  -4  -9   13.30    6.60
  -3   4   9   22.40    5.30
  -3   4   9   21.30    7.00
  -3   4   9    8.80    8.30
  -3   4   9   24.30    5.80
  -3   4   9    5.60    9.00
   2  -4  -9   73.69   11.90
   2  -4  -9   81.39   11.40
   2  -4  -9   72.69   10.20
  -2   4   9   73.39    9.30
  -2   4   9   85.29    8.90
  -2   4   9   62.39   14.10
   1  -4  -9   -7.20    6.30
   1  -4  -9   -3.90    5.80
   1  -4  -9    1.50    5.30
   1  -4  -9    7.80    7.40
  -1   4   9  -12.10    6.70
  -1   4   9    1.40    2.60
  -1   4   9   -3.50    6.70
  -1   4   9    2.40    4.30
  -1   4   9    2.70    3.70
  -1   4   9   -2.50    4.40
   0  -4  -9    3.50    5.20
   0  -4  -9    1.70    5.80
   0  -4  -9   -4.90    6.00
   0  -4  -9   -2.70    7.30
   0  -4  -9    2.50    4.50
   0   4   9   -4.30    3.60
   0   4   9   -5.30    6.40
   0   4   9   -6.40    6.20
   0   4   9   -8.70    6.50
   0   4   9   -2.40    4.30
   0   4   9    0.40    2.50
  -1  -4  -9  115.39   12.20
  -1  -4  -9  108.99   12.10
  -1  -4  -9  129.99   14.60
  -1  -4  -9  153.68   16.00
   1   4   9  118.69   12.00
   1   4   9  120.29   15.00
   1   4   9  131.29   12.10
  -2  -4  -9    7.50    7.30
  -2  -4  -9    3.10    4.30
  -2  -4  -9   -0.30    4.40
  -2  -4  -9    7.20    5.90
   2   4   9    1.50    3.10
   2   4   9    6.10    4.20
   2   4   9    0.00    5.20
   2   4   9    4.50    5.30
   2   4   9    7.40    5.40
  -3  -4  -9   38.90    9.00
  -3  -4  -9   16.50    6.90
  -3  -4  -9   27.30   10.80
  -3  -4  -9   17.70    5.50
  -3  -4  -9   21.40    4.90
   3   4   9   19.10    5.30
   3   4   9   12.70    5.60
   3   4   9   26.20    6.80
   3   4   9   20.80    3.80
   3   4   9   22.30    4.70
   3   4   9   20.10    4.20
   3   4   9   19.20    6.50
  -4  -4  -9   -2.00    7.60
  -4  -4  -9   -0.50    5.70
  -4  -4  -9   -0.10    4.50
  -4  -4  -9    5.00    6.40
  -4  -4  -9   -3.40    4.00
   4   4   9    3.70    3.70
   4   4   9   -1.10    8.10
   4   4   9    3.00    4.10
   4   4   9    2.20    4.80
   4   4   9   -2.20    4.50
  -5  -4  -9   -1.00    3.70
  -5  -4  -9    5.50    9.00
  -5  -4  -9   -3.90    4.10
  -5  -4  -9   -6.60    5.40
   5   4   9    0.20    7.90
   5   4   9    3.40    5.10
   5   4   9   -2.20    5.10
   5   4   9    3.90    3.90
   5   4   9   -2.00    3.80
  -6  -4  -9   31.50    6.00
  -6  -4  -9   52.49   11.20
  -6  -4  -9   20.60    8.60
   6   4   9   55.49   10.80
   6   4   9   33.50    6.30
   6   4   9   33.60    6.60
   6   4   9   41.50    8.50
   6   4   9   47.30   10.30
  -7  -4  -9    6.50    7.40
  -7  -4  -9    1.50    4.10
  -7  -4  -9   -3.50    5.20
   7   4   9   -5.10    4.30
   7   4   9   10.10    6.70
   7   4   9   19.30   11.00
   3  -5  -9   13.70    8.50
   3  -5  -9   26.10   11.80
   3  -5  -9    6.90    6.60
   3  -5  -9    7.50   13.20
  -3   5   9   17.70    6.40
  -3   5   9   17.70    7.80
   2  -5  -9   -8.20    6.10
   2  -5  -9   14.20   10.30
   2  -5  -9   -0.30    8.80
   2  -5  -9   -4.90    7.40
   2  -5  -9  -17.00   10.10
   2  -5  -9   -1.30    6.00
  -2   5   9  -10.00    5.50
  -2   5   9   -6.20    5.30
  -2   5   9    2.70    5.80
  -2   5   9  -12.50    8.40
   1  -5  -9   -8.20    8.50
   1  -5  -9   -6.50    6.90
   1  -5  -9    3.60    8.50
  -1   5   9   -8.60    7.80
  -1   5   9   -1.70    5.20
  -1   5   9    2.30    4.60
  -1   5   9   -9.70    7.70
  -1   5   9    1.80    5.20
   0  -5  -9   -6.10    5.10
   0  -5  -9   -7.50    5.10
   0  -5  -9  -10.60    5.70
   0  -5  -9    1.10    7.60
   0  -5  -9   -2.50    7.10
   0   5   9    4.30    5.20
   0   5   9   -6.40    7.10
   0   5   9   -2.00    5.10
   0   5   9    5.80    3.70
  -1  -5  -9  114.29   15.90
  -1  -5  -9  139.99   14.10
  -1  -5  -9  144.59   14.20
  -1  -5  -9  134.89   15.00
  -1  -5  -9  123.79   16.40
   1   5   9  126.79   16.30
   1   5   9  143.29   14.00
   1   5   9  145.39   13.90
  -2  -5  -9   -9.80    7.10
  -2  -5  -9    3.80    5.10
  -2  -5  -9    1.90    5.10
  -2  -5  -9   11.90    7.50
  -2  -5  -9    6.30    6.40
  -2  -5  -9    3.40    7.30
   2   5   9    5.30    7.80
   2   5   9    5.30    4.90
   2   5   9    0.10    5.00
   2   5   9    1.70    6.20
  -3  -5  -9    1.40    5.10
  -3  -5  -9   -3.50    8.10
  -3  -5  -9   -1.20    6.70
  -3  -5  -9    3.60    6.20
   3   5   9   -1.90    4.90
   3   5   9    4.50    3.30
   3   5   9    1.10    6.20
   3   5   9   -6.30    4.80
   3   5   9    1.60    8.60
   3   5   9   -3.60    5.40
  -4  -5  -9   21.80    7.50
  -4  -5  -9   52.29   11.20
  -4  -5  -9   40.30   11.10
  -4  -5  -9   39.10    6.90
  -4  -5  -9   30.00    6.50
   4   5   9   51.09    7.10
   4   5   9   43.20    6.10
   4   5   9   31.50    8.20
  -5  -5  -9   41.00    9.70
  -5  -5  -9   23.60    5.50
  -5  -5  -9   32.50    6.10
   5   5   9   31.00   10.50
   5   5   9   36.00    6.50
   5   5   9   17.20    6.80
   5   5   9   32.30    6.40
  -6  -5  -9   33.20   11.60
  -6  -5  -9   24.00    5.40
   6   5   9   24.50    6.10
   6   5   9   42.30    9.60
   6   5   9   28.00    7.70
   6   5   9   23.30    5.10
   6   5   9   40.50   11.10
  -7  -5  -9   10.30    6.10
  -7  -5  -9    8.90    5.40
   7   5   9   13.20    5.00
   7   5   9    1.50    5.60
   7   5   9    8.30    8.00
   7   5   9   25.10   10.60
   7   5   9   10.70    7.30
   2  -6  -9   17.20    8.30
  -2   6   9   17.80    7.70
  -2   6   9   25.90    6.90
  -2   6   9   13.50    6.90
   1  -6  -9   14.90    7.50
   1  -6  -9   14.00   10.10
  -1   6   9   13.10    6.60
  -1   6   9   10.10    6.90
   0  -6  -9   18.30    8.90
   0  -6  -9    9.70    8.10
   0  -6  -9   11.90    6.70
   0  -6  -9   13.80    6.00
   0   6   9   14.70    5.30
   0   6   9   -3.10    8.20
   0   6   9   13.40    6.10
   0   6   9    6.00    5.80
  -1  -6  -9   22.10    8.90
  -1  -6  -9   16.80    5.10
  -1  -6  -9    5.70    7.60
  -1  -6  -9   13.40    8.10
  -1  -6  -9   19.60    6.50
   1   6   9   16.80    6.10
   1   6   9   10.20    7.60
   1   6   9   18.70    6.10
  -2  -6  -9   -1.50    5.60
  -2  -6  -9    0.40    6.00
  -2  -6  -9   -0.70    7.60
  -2  -6  -9  -11.40    7.50
  -2  -6  -9    0.20    7.30
   2   6   9    2.40    4.20
   2   6   9   -1.50    5.60
   2   6   9   -7.10    7.00
  -3  -6  -9   29.20    9.10
  -3  -6  -9   10.70    7.30
  -3  -6  -9   12.60    7.70
  -3  -6  -9   17.00    6.20
  -3  -6  -9   16.60    6.10
   3   6   9   19.50    9.70
   3   6   9   14.70    7.10
   3   6   9   19.20    5.50
   3   6   9   17.20    4.60
   3   6   9   19.40    6.00
  -4  -6  -9  -10.70    7.80
  -4  -6  -9    1.80    8.70
  -4  -6  -9    2.80    6.00
   4   6   9   -8.00    7.10
   4   6   9   -3.40    5.10
   4   6   9   -2.50    4.60
   4   6   9   -7.60    6.20
  -5  -6  -9    5.00    5.50
  -5  -6  -9   -6.50    8.20
   5   6   9   -2.70    6.40
   5   6   9   -1.70    5.60
   5   6   9   -0.70    5.20
   5   6   9   -1.90    7.60
   5   6   9    2.80    5.80
  -6  -6  -9   -0.60    5.70
  -6  -6  -9    9.00    6.40
  -6  -6  -9   -1.40    7.90
   6   6   9   24.90    7.60
   6   6   9    8.10    6.20
   6   6   9    1.60   10.70
   0  -7  -9  -10.30    7.50
   0  -7  -9   19.60   11.20
   0   7   9   -4.60    7.20
   0   7   9    1.80    6.60
  -1  -7  -9   25.10    9.20
  -1  -7  -9   23.20    7.50
  -1  -7  -9   24.50    9.20
   1   7   9    5.00    9.00
   1   7   9   24.30    7.20
   1   7   9   20.20    7.20
  -2  -7  -9   21.60    7.20
  -2  -7  -9   12.20    8.30
  -2  -7  -9    8.80    7.30
   2   7   9   14.40    6.90
   2   7   9   10.50    6.70
   2   7   9   -4.50    8.10
  -3  -7  -9    3.70    6.70
  -3  -7  -9   -4.30    9.40
  -3  -7  -9    9.20    7.00
  -3  -7  -9   -2.30    6.40
   3   7   9   -9.20    5.90
   3   7   9    4.90    6.30
   3   7   9  -10.90    8.40
  -4  -7  -9    3.10    6.30
  -4  -7  -9    3.00    6.60
  -4  -7  -9   11.30   10.70
   4   7   9    2.70    6.30
   4   7   9  -10.90   10.60
   4   7   9   -0.70    5.60
  -5  -7  -9   10.30    5.90
  -5  -7  -9   18.60    6.70
  -5  -7  -9   21.70    7.00
  -5  -7  -9   39.40   11.80
   5   7   9   24.90    7.10
   5   7   9   21.10    9.50
   5   7   9   23.00    7.20
   2   7 -10   24.30    8.20
   2   7 -10   24.10    9.00
   2   7 -10   10.30    9.20
  -2  -7  10    2.30    7.80
  -2  -7  10   10.10    5.90
  -2  -7  10   25.20   11.80
   1   7 -10    7.20    8.50
   1   7 -10    3.30    9.60
   1   7 -10    7.50    8.00
   1   7 -10   11.50    9.00
   1   7 -10   14.90    6.90
  -1  -7  10    9.00   12.20
  -1  -7  10   -0.80    7.20
   0   7 -10    3.60    8.90
   0   7 -10    5.50    7.90
   0  -7  10   -6.30    7.30
   0  -7  10   10.40   12.50
   4   6 -10   19.60    8.80
  -4  -6  10   -0.60    5.90
  -4  -6  10   13.20    7.50
  -4  -6  10    5.50   10.00
  -4  -6  10   -6.70    8.10
  -4  -6  10    6.90    6.30
   3   6 -10   15.70    6.10
   3   6 -10   28.40    8.50
   3   6 -10   33.60    8.70
  -3  -6  10   42.50    7.70
  -3  -6  10    5.80    7.80
  -3  -6  10   21.10    8.40
  -3  -6  10   24.50    7.00
   2   6 -10   17.00    7.00
   2   6 -10   24.50    7.80
   2   6 -10   18.90    6.30
   2   6 -10   21.70    7.30
  -2  -6  10   20.00    6.10
  -2  -6  10   31.50    9.90
  -2  -6  10    4.70    6.70
  -2  -6  10   17.00    6.90
   1   6 -10    4.90    9.20
   1   6 -10    6.70    6.20
   1   6 -10   -6.90    7.30
   1   6 -10    2.60    7.00
  -1  -6  10   -2.60    4.70
  -1  -6  10   -7.50    5.30
  -1  -6  10   -5.60    5.80
  -1  -6  10   12.40    9.20
   0   6 -10    2.00    7.30
   0   6 -10    3.60    5.10
   0   6 -10   -2.90    7.10
   0   6 -10    9.50    6.80
   0  -6  10    1.50    6.10
   0  -6  10    9.90   10.20
   0  -6  10    1.20    5.10
  -1   6 -10    4.00    6.80
  -1   6 -10   13.60    7.40
  -1   6 -10    5.70    4.80
  -1   6 -10   10.00    9.00
   1  -6  10   13.00   11.70
   1  -6  10   12.10    6.70
  -2   6 -10   24.50    8.10
  -2   6 -10   22.60    7.70
  -2   6 -10   19.10   10.00
   2  -6  10   37.40   13.20
   2  -6  10   17.20    7.20
   5   5 -10   -4.30    9.20
   5   5 -10    6.60    8.90
  -5  -5  10    1.40    6.30
  -5  -5  10  -14.20    8.20
  -5  -5  10   -2.30    5.70
   4   5 -10    4.80    7.60
   4   5 -10   -3.00    7.00
   4   5 -10   -3.60   11.00
  -4  -5  10    6.50    8.30
  -4  -5  10    7.30    5.70
  -4  -5  10    8.40    5.10
  -4  -5  10    4.00    5.10
  -4  -5  10   -3.20    7.50
   3   5 -10   22.50    6.70
   3   5 -10   20.80    7.90
   3   5 -10   47.10    8.70
   3   5 -10   16.00    5.30
  -3  -5  10   19.80    5.70
  -3  -5  10   18.00    7.50
  -3  -5  10   28.60    7.10
  -3  -5  10   27.10    6.20
   2   5 -10   10.80    5.70
   2   5 -10   16.50    6.60
   2   5 -10   15.10    6.90
   2   5 -10    9.60    5.30
  -2  -5  10   11.20    4.10
  -2  -5  10    9.60    6.30
  -2  -5  10   20.20    7.60
  -2  -5  10   19.30    6.00
  -2  -5  10   17.90    6.00
   1   5 -10    1.80    5.30
   1   5 -10    3.70    4.90
   1   5 -10    1.30    6.30
   1   5 -10   -7.30    6.20
  -1  -5  10   -2.60    8.00
  -1  -5  10    8.00    8.20
  -1  -5  10    2.70    5.40
  -1  -5  10   -7.10    4.60
  -1  -5  10   -2.10    4.70
   0   5 -10    4.10    6.10
   0   5 -10   -4.40    6.20
   0   5 -10   -6.80    5.00
   0  -5  10   -2.90    5.00
   0  -5  10   -0.50    4.40
   0  -5  10    0.10    5.50
   0  -5  10   -4.80    8.80
  -1   5 -10    9.10    7.40
  -1   5 -10    7.40    6.10
  -1   5 -10    3.80    6.00
   1  -5  10   -1.60    5.00
   1  -5  10   16.40    6.00
   1  -5  10  -11.50    9.50
  -2   5 -10    9.40    8.40
  -2   5 -10   18.90    6.20
  -2   5 -10    9.30    4.10
  -2   5 -10   18.30    6.30
   2  -5  10    3.00    4.60
   2  -5  10   23.10   10.10
   2  -5  10    6.20    5.10
   2  -5  10   15.90   10.00
   2  -5  10   23.80    6.30
  -3   5 -10    5.20    9.00
  -3   5 -10    0.80    6.70
  -3   5 -10   14.00   10.40
  -3   5 -10    7.20    2.70
  -3   5 -10    1.20    5.80
   3  -5  10    0.30    5.90
   3  -5  10    6.10    5.00
   3  -5  10   13.30   11.90
   3  -5  10   -5.10    9.80
   3  -5  10   -6.40    4.60
  -4   5 -10   -1.70    7.10
  -4   5 -10   -8.00    9.50
   4  -5  10   -1.50   10.00
   4  -5  10    3.80   13.50
   4  -5  10   -5.60    5.70
   5   4 -10   -4.50    8.40
   5   4 -10    1.30   10.40
   5   4 -10    7.40    7.10
  -5  -4  10    3.10    5.80
  -5  -4  10   16.40    7.80
  -5  -4  10    5.60    5.90
  -5  -4  10  -11.90    8.00
   4   4 -10   -6.80    6.40
   4   4 -10   -6.80    6.70
   4   4 -10   -6.60    8.60
  -4  -4  10    5.30    7.80
  -4  -4  10   -7.20    4.90
  -4  -4  10   -1.20    7.10
  -4  -4  10    0.80    4.30
   3   4 -10   44.00    8.60
   3   4 -10   67.39   12.00
   3   4 -10   61.69    9.50
  -3  -4  10   57.69    7.00
  -3  -4  10   49.40    7.60
  -3  -4  10   53.59   11.70
  -3  -4  10   57.59    9.00
  -3  -4  10   51.29    8.10
   2   4 -10   12.60    5.30
   2   4 -10   11.10    5.90
   2   4 -10   11.60    6.20
   2   4 -10   10.10    5.90
  -2  -4  10   12.60    4.60
  -2  -4  10   10.20    5.10
  -2  -4  10   15.70    5.90
  -2  -4  10   14.20    6.20
   1   4 -10   11.40    5.50
   1   4 -10    3.40    5.30
   1   4 -10    7.80    5.70
  -1  -4  10    3.90    6.20
  -1  -4  10    6.20    5.50
  -1  -4  10   12.00    4.70
  -1  -4  10    6.10    4.30
  -1  -4  10    6.90    6.50
   0   4 -10    8.00    6.00
   0   4 -10   12.60    5.70
   0   4 -10    8.40    4.40
   0   4 -10    8.20    4.80
   0  -4  10   11.50    3.30
   0  -4  10    7.20    4.90
   0  -4  10    9.70    5.30
   0  -4  10   16.60    4.30
   0  -4  10   22.40    7.40
  -1   4 -10    3.90    4.60
  -1   4 -10    4.30    5.20
  -1   4 -10    4.50    6.50
   1  -4  10   10.80    8.30
   1  -4  10    7.10    4.30
   1  -4  10   11.60    5.30
   1  -4  10    3.40    4.80
  -2   4 -10  134.19   17.10
  -2   4 -10  168.18   20.20
  -2   4 -10  187.38   17.50
  -2   4 -10  198.78   17.20
   2  -4  10  172.68   16.70
   2  -4  10  149.59   18.90
   2  -4  10  148.79   18.80
   2  -4  10  187.38   16.80
  -3   4 -10   -0.80    4.80
  -3   4 -10   -4.80    3.20
  -3   4 -10    2.90    5.60
  -3   4 -10    0.20    5.80
   3  -4  10    7.30    9.70
   3  -4  10  -11.30    8.50
   3  -4  10   -3.30    5.50
   3  -4  10   -2.30    3.30
  -4   4 -10    1.90    2.50
  -4   4 -10    1.70    5.20
  -4   4 -10    6.10    5.40
  -4   4 -10    3.90    7.90
  -4   4 -10   11.30   11.10
   4  -4  10    8.60    5.30
   4  -4  10    9.00   12.00
   4  -4  10    5.60    3.20
   4  -4  10   -0.90    4.20
   4  -4  10    8.40    9.70
  -5   4 -10   24.00    6.40
  -5   4 -10   19.10   10.50
   5  -4  10   27.70    6.00
   5  -4  10   33.60   14.70
   5  -4  10   45.70   10.80
   5   3 -10    4.80    8.00
   5   3 -10   -9.10    6.80
   5   3 -10   -0.50    8.80
   5   3 -10   -1.80    9.30
   5   3 -10   -8.00    5.80
  -5  -3  10   -4.30    5.40
  -5  -3  10   -7.70    7.10
  -5  -3  10   -2.90    7.10
  -5  -3  10   -0.80    4.40
  -5  -3  10   16.90    8.60
   4   3 -10    4.60    8.90
   4   3 -10    7.40    7.10
   4   3 -10    8.00    6.10
  -4  -3  10    2.40    5.20
  -4  -3  10   19.00    7.60
  -4  -3  10    4.30    4.30
  -4  -3  10    1.30    6.80
  -4  -3  10   10.50    6.60
   3   3 -10   14.10    6.80
   3   3 -10   10.40    4.40
   3   3 -10   13.10    6.20
  -3  -3  10   13.20    5.20
  -3  -3  10    9.20    7.40
  -3  -3  10   14.90    6.50
  -3  -3  10   12.70    6.50
   2   3 -10    2.90    4.50
   2   3 -10   -2.70    5.20
   2   3 -10    2.50    5.50
   2   3 -10   -3.50    3.70
  -2  -3  10   -3.60    4.50
  -2  -3  10    0.60    5.50
  -2  -3  10    1.80    6.90
  -2  -3  10   -1.20    3.00
   1   3 -10    1.10    5.10
   1   3 -10    1.20    5.00
   1   3 -10   -5.00    4.70
   1   3 -10    1.60    5.00
  -1  -3  10    8.10    5.00
  -1  -3  10    4.00    4.50
  -1  -3  10    0.90    3.70
  -1  -3  10   -3.10    4.80
  -1  -3  10    1.10    4.40
   0   3 -10   16.90    6.00
   0   3 -10   15.10    5.20
   0   3 -10    9.00    5.40
   0  -3  10   20.60    5.80
   0  -3  10   15.40    4.70
   0  -3  10   14.20    5.10
   0  -3  10   16.20    4.20
   0  -3  10   17.40    4.20
  -1   3 -10   79.69   12.10
  -1   3 -10   83.39   12.30
  -1   3 -10   70.09    9.80
  -1   3 -10   65.79    8.30
  -1   3 -10   74.79    9.10
   1  -3  10   94.09   10.70
   1  -3  10   72.09    8.40
   1  -3  10   77.29    8.50
   1  -3  10   69.79   11.30
   1  -3  10   81.19    9.10
  -2   3 -10   51.89    7.90
  -2   3 -10   51.49   11.20
  -2   3 -10   35.20    7.60
   2  -3  10   54.39   10.40
   2  -3  10   52.49    7.70
   2  -3  10   67.39    7.00
   2  -3  10   52.29    6.80
  -3   3 -10    6.20    4.10
  -3   3 -10    3.90    4.50
  -3   3 -10    1.70    4.30
  -3   3 -10    1.50    9.80
  -3   3 -10   -1.80    7.20
   3  -3  10   18.50    9.60
   3  -3  10    5.30    3.30
   3  -3  10    4.10    7.60
   3  -3  10    5.50    2.10
   3  -3  10    8.50    4.30
  -4   3 -10   -9.20   12.20
  -4   3 -10   18.50    4.90
  -4   3 -10   10.40    7.50
  -4   3 -10    5.20    3.90
  -4   3 -10   10.30    4.90
   4  -3  10   17.10   10.90
   4  -3  10   17.50    8.60
   4  -3  10   10.80    4.40
   4  -3  10   18.10    4.90
  -5   3 -10    5.10    4.70
  -5   3 -10    4.60    9.20
   5  -3  10    8.80    4.80
   5  -3  10   19.70    8.90
   5  -3  10   12.50   12.40
   5   2 -10    2.90    7.70
   5   2 -10    2.70    5.70
   5   2 -10    3.80    9.70
   5   2 -10    3.30    5.50
   5   2 -10    0.10    6.80
  -5  -2  10   -9.90    7.50
  -5  -2  10   -8.20    4.10
  -5  -2  10   13.50    8.80
  -5  -2  10    2.70    1.70
  -5  -2  10   -4.00    4.90
  -5  -2  10    8.00    7.30
   4   2 -10   -5.00    9.70
   4   2 -10   -9.40    5.10
   4   2 -10   -9.10    6.50
  -4  -2  10   -4.60    6.60
  -4  -2  10    1.00    4.30
  -4  -2  10    0.50    2.40
  -4  -2  10   -2.30    6.20
  -4  -2  10    0.10    4.30
   3   2 -10   26.60    7.10
  -3  -2  10   39.70   10.40
  -3  -2  10   39.40    6.20
  -3  -2  10   26.30    5.40
  -3  -2  10   24.50    7.60
  -3  -2  10   29.60    5.80
  -3  -2  10   20.80    6.90
   2   2 -10    2.00    3.40
   2   2 -10    2.80    4.10
   2   2 -10    2.90    4.50
   2   2 -10   -1.10    4.90
  -2  -2  10   -6.20    4.80
  -2  -2  10    3.40    3.70
  -2  -2  10    0.90    3.90
  -2  -2  10    4.20    5.50
   1   2 -10   -2.40    4.60
   1   2 -10   -4.30    4.10
   1   2 -10    1.60    3.60
   1   2 -10    6.20    4.90
  -1  -2  10    0.10    4.30
  -1  -2  10   -1.80    4.00
  -1  -2  10   -1.60    4.00
  -1  -2  10   -2.00    3.20
  -1  -2  10    1.30    5.00
   0   2 -10   97.89   11.10
   0   2 -10  112.39   13.50
   0   2 -10   95.19   11.10
   0   2 -10  106.09   11.70
   0  -2  10  100.79   10.20
   0  -2  10  119.49   12.60
   0  -2  10   98.29   10.40
   0  -2  10  106.79   11.50
   0  -2  10  123.79   11.50
  -1   2 -10   -2.00    4.00
  -1   2 -10    2.60    5.40
  -1   2 -10    0.10    6.50
  -1   2 -10    2.70    4.70
  -1   2 -10   -1.80    4.10
   1  -2  10   -1.30    3.80
   1  -2  10   -1.60    5.90
   1  -2  10    4.80    4.80
   1  -2  10   -6.00    3.00
  -2   2 -10  375.96   32.40
  -2   2 -10  329.17   32.40
  -2   2 -10  351.76   34.40
  -2   2 -10  323.27   35.10
   2  -2  10  403.86   32.40
   2  -2  10  345.07   31.80
   2  -2  10  383.36   34.10
   2  -2  10  353.06   33.70
   2  -2  10  375.56   32.20
   2  -2  10  366.36   31.90
  -3   2 -10   35.90    9.80
  -3   2 -10   40.70    6.30
  -3   2 -10   41.80    7.00
  -3   2 -10   62.09    8.60
   3  -2  10   29.40    7.80
   3  -2  10   47.30    9.80
   3  -2  10   56.89    7.00
   3  -2  10   54.49    5.70
  -4   2 -10    3.80    4.10
  -4   2 -10    0.30    6.40
  -4   2 -10   -2.80    4.40
  -4   2 -10    0.40    4.70
  -4   2 -10   10.90    7.50
   4  -2  10    2.90    3.20
   4  -2  10   -2.40    8.30
   4  -2  10    3.30    4.00
   4  -2  10    3.80    9.40
  -5   2 -10   44.90    6.10
  -5   2 -10   31.30    8.40
  -5   2 -10   52.09   13.10
  -5   2 -10   31.70    8.40
  -5   2 -10   48.20    9.90
  -5   2 -10   40.80    6.40
   5  -2  10   49.10   10.30
   5  -2  10   44.00    6.50
  -6   2 -10    7.50    9.50
  -6   2 -10    1.60    2.90
   6  -2  10    4.50    3.70
   6  -2  10   21.00   10.40
   5   1 -10   -2.70    5.40
   5   1 -10   -1.10    5.30
   5   1 -10   -4.60    6.80
   5   1 -10    3.20    7.80
   5   1 -10   10.30    9.70
  -5  -1  10   -6.10    3.40
  -5  -1  10    0.20    7.50
  -5  -1  10    4.30    8.40
  -5  -1  10   -2.80    4.10
  -5  -1  10   -2.80    4.90
   4   1 -10   14.80   10.50
   4   1 -10   25.60    6.50
   4   1 -10   31.30    9.30
   4   1 -10   26.40    7.00
  -4  -1  10   18.20    6.90
  -4  -1  10   23.40    4.50
  -4  -1  10   30.90    6.60
  -4  -1  10   22.20    5.20
  -4  -1  10   10.80    7.20
   3   1 -10   13.20    5.60
   3   1 -10   14.90    6.00
   3   1 -10   26.50    6.60
   3   1 -10   10.80    5.10
  -3  -1  10   22.50    6.80
  -3  -1  10   30.00    6.80
  -3  -1  10   13.90    4.60
  -3  -1  10   16.90    4.40
  -3  -1  10    6.30    6.60
   2   1 -10   -3.00    4.70
   2   1 -10    0.70    4.30
   2   1 -10    1.60    5.10
   2   1 -10    8.30    4.60
   2   1 -10    0.20    4.30
  -2  -1  10    8.70    5.40
  -2  -1  10    3.30    3.70
  -2  -1  10    5.10    3.60
  -2  -1  10    1.40    3.60
  -2  -1  10    1.80    5.00
   1   1 -10   22.90    4.70
   1   1 -10   28.70    5.90
   1   1 -10   38.10    7.50
   1   1 -10   28.00    4.50
  -1  -1  10   32.50    5.40
  -1  -1  10   36.10    6.20
  -1  -1  10   27.30    5.00
  -1  -1  10   31.60    8.10
  -1  -1  10   26.50    7.50
   0   1 -10   63.09    7.90
   0   1 -10   72.69    8.70
   0   1 -10   77.99    8.80
   0   1 -10   92.49   11.50
   0  -1  10   79.59   10.40
   0  -1  10   73.69    7.80
   0  -1  10   93.59    9.50
   0  -1  10   72.19    7.70
  -1   1 -10  244.98   24.90
  -1   1 -10  267.67   24.40
  -1   1 -10  257.07   23.40
  -1   1 -10  218.28   23.30
  -1   1 -10  284.77   24.60
   1  -1  10  243.68   24.40
   1  -1  10  278.57   23.40
   1  -1  10  284.97   23.40
   1  -1  10  233.68   24.20
  -2   1 -10    0.20    7.30
  -2   1 -10    3.90    3.70
  -2   1 -10   10.80    3.90
  -2   1 -10    8.00    5.60
  -2   1 -10    8.40    4.60
   2  -1  10   16.50    7.60
   2  -1  10    4.90    1.80
   2  -1  10    9.70    3.00
   2  -1  10    3.20    4.10
   2  -1  10    6.00    3.50
  -3   1 -10    2.20    7.70
  -3   1 -10    0.60    3.50
  -3   1 -10    1.70    3.40
  -3   1 -10    1.80    4.60
  -3   1 -10    1.00    4.60
   3  -1  10   -4.60    3.50
   3  -1  10    0.80    7.60
   3  -1  10   -1.60    3.70
   3  -1  10    2.20    2.70
   3  -1  10   -6.20    4.10
  -4   1 -10   68.39    7.50
  -4   1 -10   71.99   12.30
  -4   1 -10   62.19    7.40
  -4   1 -10   59.59   11.20
  -4   1 -10   63.79   10.40
   4  -1  10   74.49    7.00
   4  -1  10   64.29    7.30
   4  -1  10   54.79    7.60
   4  -1  10   49.80   10.50
  -5   1 -10   31.90    5.10
  -5   1 -10   17.30    8.00
  -5   1 -10   23.30    4.90
  -5   1 -10   16.60    5.90
  -5   1 -10   33.40    8.10
   5  -1  10   24.60    9.10
   5  -1  10   33.50    4.70
   5  -1  10   25.40    5.20
  -6   1 -10   17.80   14.60
  -6   1 -10   16.80    9.90
  -6   1 -10    5.40    2.80
  -6   1 -10   29.50    8.80
  -6   1 -10   -4.90    8.50
   6  -1  10   12.80    9.30
   6  -1  10    5.90    3.20
   6  -1  10    5.80    3.30
   5   0 -10    7.00    6.20
   5   0 -10    2.60    5.80
   5   0 -10    7.70    9.70
   5   0 -10   -4.70    8.50
   5   0 -10    1.60    7.00
  -5   0  10    1.10    4.90
  -5   0  10   -0.80    4.10
  -5   0  10   -0.90    7.30
   4   0 -10    3.30    8.50
   4   0 -10    8.60    5.30
   4   0 -10    2.80    6.10
   4   0 -10    4.40    6.20
  -4   0  10   -1.50    6.50
  -4   0  10    0.70    4.70
  -4   0  10    0.80    4.20
  -4   0  10    2.70    3.80
  -4   0  10    1.50    6.50
   3   0 -10    9.20    6.00
   3   0 -10    7.10    5.10
   3   0 -10   21.30    9.00
   3   0 -10    5.00    5.90
   3   0 -10    4.80    5.40
  -3   0  10    7.00    4.10
  -3   0  10   10.30    6.30
  -3   0  10    3.40    4.30
  -3   0  10    3.10    6.20
  -3   0  10    8.60    4.90
   2   0 -10   98.29   11.30
   2   0 -10   76.89    9.20
   2   0 -10   59.59   11.20
   2   0 -10   67.09    8.70
   2   0 -10   67.79    8.50
  -2   0  10   71.99   11.60
  -2   0  10   80.89    8.30
  -2   0  10   81.89   10.80
  -2   0  10   85.19   10.30
  -2   0  10   73.79    8.40
   1   0 -10   32.10    8.60
   1   0 -10   10.70    4.60
   1   0 -10   11.80    5.20
   1   0 -10   10.30    3.50
   1   0 -10    7.60    4.20
  -1   0  10    8.20    3.90
  -1   0  10   11.70    4.50
  -1   0  10   14.30    4.30
  -1   0  10   14.60    3.70
  -1   0  10   15.80    5.40
   0   0 -10   46.80    6.90
   0   0 -10   45.40    6.60
   0   0 -10   59.79    8.90
   0   0 -10   43.00    6.50
   0   0  10   60.09    7.80
   0   0  10   34.00    7.10
   0   0  10   46.50    5.50
   0   0  10   48.10    5.60
   0   0  10   58.79    7.00
  -1   0 -10  110.19   13.00
  -1   0 -10  117.39   13.20
  -1   0 -10  103.29   11.80
  -1   0 -10  102.29   11.10
   1   0  10   92.59   10.50
   1   0  10  121.19   12.80
   1   0  10  115.09   11.00
   1   0  10  129.69   12.50
   1   0  10  114.39   12.80
   1   0  10  120.19   11.10
  -2   0 -10   55.39    9.80
  -2   0 -10   50.29    8.90
  -2   0 -10   39.30    8.30
  -2   0 -10   46.00    6.30
  -2   0 -10   44.20    6.40
   2   0  10   51.29    8.80
   2   0  10   65.99    6.40
   2   0  10   55.19    5.70
  -3   0 -10  242.78   26.40
  -3   0 -10  233.48   26.00
  -3   0 -10  313.17   25.80
  -3   0 -10  245.78   24.20
  -3   0 -10  254.97   24.30
   3   0  10  280.37   24.80
   3   0  10  278.87   24.10
   3   0  10  274.17   25.60
   3   0  10  297.87   24.30
  -4   0 -10   -1.30    7.60
  -4   0 -10    5.90    3.40
  -4   0 -10    1.10    5.90
  -4   0 -10    0.70    6.60
  -4   0 -10   -3.80    6.30
  -4   0 -10    3.60    3.40
   4   0  10   -7.00    4.80
   4   0  10    4.20    2.50
   4   0  10    0.30    4.50
   4   0  10    0.70    3.40
  -5   0 -10   67.49    6.90
  -5   0 -10   45.30   12.20
  -5   0 -10   48.30   11.20
  -5   0 -10   60.39    6.70
  -5   0 -10   62.39    8.80
   5   0  10   65.69    8.90
   5   0  10   46.60   10.30
   5   0  10   55.19    7.00
   5   0  10   67.39    6.70
  -6   0 -10    2.40    2.60
  -6   0 -10   -2.40    7.70
  -6   0 -10    8.90    9.70
  -6   0 -10   18.10    7.60
  -6   0 -10    2.00    2.60
   6   0  10    0.10    2.80
   6   0  10   18.90    8.90
  -7   0 -10  -10.40    9.00
   7   0  10    1.80    3.10
   7   0  10   13.80   10.30
   7   0  10   -0.70    2.30
   5  -1 -10    3.30    7.10
   5  -1 -10   -9.20    5.30
   5  -1 -10    5.60   10.30
  -5   1  10   -4.20    8.30
  -5   1  10   -3.40    5.40
   4  -1 -10   -1.40    4.50
   4  -1 -10   16.50    9.70
   4  -1 -10    2.70    6.20
   4  -1 -10    5.60    6.10
  -4   1  10    2.60    6.60
  -4   1  10   -0.10    5.20
  -4   1  10    0.50    7.30
  -4   1  10    1.80    4.80
  -4   1  10    4.20    4.20
   3  -1 -10  193.08   19.90
   3  -1 -10  234.48   20.60
   3  -1 -10  207.08   20.10
  -3   1  10  188.68   22.00
  -3   1  10  229.78   19.90
  -3   1  10  184.78   22.20
  -3   1  10  241.98   19.80
   2  -1 -10   12.30    5.30
   2  -1 -10   22.50    5.00
   2  -1 -10   12.00    4.70
   2  -1 -10   25.00    8.80
   2  -1 -10   13.00    4.80
   2  -1 -10   17.70    6.10
  -2   1  10   17.40    4.50
  -2   1  10   33.60    8.80
  -2   1  10   19.20    6.20
   1  -1 -10   63.99    7.40
   1  -1 -10   88.19   11.00
   1  -1 -10   58.59    8.20
   1  -1 -10   53.09   11.40
   1  -1 -10   69.79    8.60
   1  -1 -10   74.89   10.60
  -1   1  10   65.49    9.70
  -1   1  10   84.09   10.70
  -1   1  10   82.19    8.00
  -1   1  10   85.89    9.90
  -1   1  10   62.99    8.00
   0  -1 -10   13.50    3.60
   0  -1 -10   16.50    7.10
   0  -1 -10   14.10    4.40
   0  -1 -10   15.30    2.60
   0  -1 -10   13.10    3.60
   0  -1 -10   17.80    5.80
   0   1  10   18.90    3.90
   0   1  10   30.50    7.00
   0   1  10   26.30    6.80
   0   1  10   14.90    4.00
   0   1  10   14.90    4.40
  -1  -1 -10  124.39   15.00
  -1  -1 -10  109.59   12.90
  -1  -1 -10  147.19   13.60
  -1  -1 -10  150.58   15.20
  -1  -1 -10  120.09   13.00
   1   1  10  158.18   13.50
   1   1  10  135.19   12.70
   1   1  10  133.99   14.20
   1   1  10  143.09   12.90
   1   1  10  113.29   14.10
  -2  -1 -10   53.49    9.30
  -2  -1 -10   59.59    7.60
  -2  -1 -10   72.79   10.80
  -2  -1 -10   64.59    7.50
  -2  -1 -10   58.49    6.60
  -2  -1 -10   62.89   10.40
  -2  -1 -10   72.39    7.60
   2   1  10   76.39    7.70
   2   1  10   76.69    7.50
   2   1  10   67.89    9.40
  -3  -1 -10    2.10    3.20
  -3  -1 -10    1.50    1.80
  -3  -1 -10    1.30    7.90
  -3  -1 -10    4.70    6.50
  -3  -1 -10    3.70    3.30
  -3  -1 -10    3.90    5.80
  -3  -1 -10    0.50    3.40
   3   1  10   -0.70    6.20
   3   1  10    3.50    3.60
   3   1  10    2.10    3.20
   3   1  10    2.40    3.20
  -4  -1 -10   13.00    3.70
  -4  -1 -10    9.60    4.70
  -4  -1 -10   13.30    3.70
  -4  -1 -10    8.60    5.00
  -4  -1 -10   16.00    9.20
  -4  -1 -10   10.00    8.20
   4   1  10    7.10    4.50
   4   1  10    8.10    6.30
   4   1  10   14.40    3.30
   4   1  10   12.90    3.60
   4   1  10    1.00    5.70
  -5  -1 -10   85.09    9.60
  -5  -1 -10  105.89   11.30
  -5  -1 -10  117.99   10.00
  -5  -1 -10   88.99   14.80
  -5  -1 -10  104.79   14.50
   5   1  10   90.19    9.70
   5   1  10   98.49    9.70
   5   1  10   90.69   12.70
   5   1  10  101.89   11.80
   5   1  10  101.19   12.30
  -6  -1 -10    7.90    3.10
  -6  -1 -10  -14.10   11.30
  -6  -1 -10   10.20    2.90
  -6  -1 -10    2.00    7.50
  -6  -1 -10   13.10    6.60
   6   1  10   14.80    9.00
   6   1  10   16.40    7.50
   6   1  10   10.20    3.10
  -7  -1 -10    6.20    8.80
  -7  -1 -10   15.40   10.10
  -7  -1 -10    2.60    8.10
   7   1  10    1.00   10.00
   7   1  10    1.60    2.80
   7   1  10    2.50    2.30
   4  -2 -10    0.60    6.30
   4  -2 -10   14.00    6.60
   4  -2 -10   -5.20    5.60
   4  -2 -10   14.60    9.70
   4  -2 -10    1.20    5.60
  -4   2  10   -9.00    6.60
  -4   2  10   -5.70    4.00
  -4   2  10   -5.90    4.50
  -4   2  10    0.50    7.60
   3  -2 -10   15.30    7.30
   3  -2 -10   14.30    9.20
   3  -2 -10    7.70    6.50
   3  -2 -10   15.40    5.60
  -3   2  10   16.00    5.20
  -3   2  10    9.80    7.00
  -3   2  10   13.40    4.50
  -3   2  10   -1.90    6.50
  -3   2  10    3.60    6.40
   2  -2 -10  105.79   13.20
   2  -2 -10   98.29   10.90
   2  -2 -10  109.69   13.10
   2  -2 -10   81.19   13.20
  -2   2  10   86.09   10.10
  -2   2  10   67.59   13.00
  -2   2  10  112.49   13.10
  -2   2  10   82.49   12.90
  -2   2  10   96.09   10.20
   1  -2 -10    4.30    5.20
   1  -2 -10    2.60    4.60
   1  -2 -10   -7.30    5.10
   1  -2 -10   -3.70    4.10
   1  -2 -10    1.90    5.60
  -1   2  10    0.30    3.90
  -1   2  10   -2.90    5.40
  -1   2  10   -1.90    3.70
  -1   2  10    1.00    5.30
  -1   2  10    0.00    5.50
   0  -2 -10   -4.70    4.10
   0  -2 -10   -0.10    3.90
   0  -2 -10   -7.70    4.00
   0  -2 -10    2.00    5.80
   0  -2 -10   -4.00    4.40
   0   2  10   -6.00    3.60
   0   2  10    7.30    4.90
   0   2  10    3.10    5.00
   0   2  10   -3.20    3.60
   0   2  10    1.70    5.20
  -1  -2 -10   21.60    4.30
  -1  -2 -10   16.10    4.80
  -1  -2 -10   20.20    4.80
  -1  -2 -10   25.70    7.10
  -1  -2 -10   25.00    6.90
   1   2  10   18.50    5.30
   1   2  10   37.90    7.20
   1   2  10   30.00    6.40
   1   2  10   26.80    5.20
  -2  -2 -10  159.88   18.60
  -2  -2 -10  201.58   17.60
  -2  -2 -10  184.98   19.20
  -2  -2 -10  160.08   16.90
  -2  -2 -10  154.48   16.60
   2   2  10  194.78   18.20
   2   2  10  190.78   17.40
   2   2  10  193.58   16.80
   2   2  10  180.78   18.30
   2   2  10  188.28   16.80
  -3  -2 -10  106.29   10.40
  -3  -2 -10  105.69   10.60
  -3  -2 -10   96.69   10.00
  -3  -2 -10  100.29   13.30
  -3  -2 -10   93.39   12.80
  -3  -2 -10   89.99   12.70
   3   2  10   80.19   10.80
   3   2  10   99.89    9.90
   3   2  10  111.49   11.80
   3   2  10   95.59    9.70
  -4  -2 -10   62.19   10.80
  -4  -2 -10   60.99    7.10
  -4  -2 -10   50.69    7.20
  -4  -2 -10   52.59    7.30
  -4  -2 -10   69.79   11.40
   4   2  10   59.89    7.10
   4   2  10   57.59    9.40
   4   2  10   69.29   10.10
   4   2  10   37.30    9.30
   4   2  10   58.59    6.50
  -5  -2 -10   16.10    7.20
  -5  -2 -10   30.50    5.20
  -5  -2 -10   25.20    5.00
  -5  -2 -10   24.10    5.60
  -5  -2 -10   25.20    7.00
   5   2  10   30.60    7.90
   5   2  10   20.80    6.50
   5   2  10   28.40    7.80
   5   2  10   28.00    5.00
   5   2  10   30.20    4.70
  -6  -2 -10   10.70    3.80
  -6  -2 -10   -2.00    7.70
  -6  -2 -10    8.60    6.90
  -6  -2 -10   16.60    3.80
  -6  -2 -10   19.70    5.20
   6   2  10   12.10    5.70
   6   2  10   19.10    9.00
   6   2  10   13.90    4.80
   6   2  10   11.50    3.40
   6   2  10   19.40    8.40
  -7  -2 -10  -12.30    7.90
  -7  -2 -10    1.40    3.50
  -7  -2 -10   12.70   10.10
   7   2  10   -1.90    3.00
   7   2  10    1.40    3.00
   7   2  10   12.20    9.30
   4  -3 -10   -1.40    7.00
   4  -3 -10   19.50    9.20
   4  -3 -10    0.00    6.80
   4  -3 -10   -0.50   10.90
  -4   3  10    4.40    5.10
  -4   3  10   -1.00    5.10
   3  -3 -10  246.78   22.50
   3  -3 -10  220.28   22.60
   3  -3 -10  212.78   21.30
   3  -3 -10  205.18   20.20
   3  -3 -10  163.58   19.50
   3  -3 -10  192.48   24.50
  -3   3  10  194.08   24.20
  -3   3  10  170.48   22.00
  -3   3  10  222.18   19.90
  -3   3  10  240.88   20.00
   2  -3 -10  110.59   14.10
   2  -3 -10   94.39   11.10
   2  -3 -10  112.09   13.50
   2  -3 -10   83.39   12.80
  -2   3  10   99.99   10.30
  -2   3  10   93.69   10.40
  -2   3  10   73.79   13.40
  -2   3  10   74.39   10.10
  -2   3  10   91.09   14.20
   1  -3 -10    4.70    4.50
   1  -3 -10   -2.80    5.80
   1  -3 -10    0.00    5.30
   1  -3 -10    9.60    8.20
   1  -3 -10    2.00    5.90
  -1   3  10   -9.00    6.40
  -1   3  10    4.30    5.10
  -1   3  10    3.30    6.50
  -1   3  10    3.80    4.90
  -1   3  10    1.40    4.30
   0  -3 -10   -7.10    4.40
   0  -3 -10    0.70    5.20
   0  -3 -10   -4.00    5.50
   0  -3 -10   -2.40    6.20
   0  -3 -10   -5.30    3.60
   0   3  10   -5.70    4.80
   0   3  10   -1.20    5.10
   0   3  10   -0.90    4.00
   0   3  10    0.20    5.90
  -1  -3 -10    9.10    6.40
  -1  -3 -10    9.40    4.70
  -1  -3 -10   13.40    4.60
  -1  -3 -10    4.50    5.20
  -1  -3 -10   10.50    5.50
   1   3  10    4.10    4.90
   1   3  10    5.70    3.20
   1   3  10    4.40    3.10
   1   3  10    4.50    5.20
   1   3  10    8.90    5.10
  -2  -3 -10   90.89   12.40
  -2  -3 -10   65.79    9.50
  -2  -3 -10   73.99    8.60
  -2  -3 -10   68.79    8.70
  -2  -3 -10   61.99   10.90
   2   3  10   79.09   10.90
   2   3  10   78.09    9.50
   2   3  10   76.19    8.50
   2   3  10   70.79    9.20
   2   3  10   76.49    8.30
  -3  -3 -10   34.30    7.20
  -3  -3 -10   28.50    5.60
  -3  -3 -10   21.10    7.20
  -3  -3 -10   29.50    8.80
  -3  -3 -10   27.30    5.80
   3   3  10   25.00    7.20
   3   3  10   32.30    8.10
   3   3  10   26.80    5.40
   3   3  10   29.60    5.10
   3   3  10   30.80    6.80
  -4  -3 -10    3.70    8.70
  -4  -3 -10    2.40    4.60
  -4  -3 -10    4.60    4.50
  -4  -3 -10    4.50    4.40
  -4  -3 -10   11.70    6.90
   4   3  10    6.10    3.30
   4   3  10    8.80    7.60
   4   3  10    3.50    4.80
   4   3  10   -7.50    6.60
   4   3  10    4.60    4.10
  -5  -3 -10    1.50    4.70
  -5  -3 -10    3.70    7.50
  -5  -3 -10    2.40    6.80
  -5  -3 -10    6.60    3.90
  -5  -3 -10   10.90    3.90
   5   3  10    8.40    3.70
   5   3  10    9.50    5.50
   5   3  10    7.90    7.90
   5   3  10   11.40    3.90
   5   3  10    7.80    6.10
  -6  -3 -10   58.69   13.00
  -6  -3 -10   59.09   10.20
  -6  -3 -10   72.59    8.10
  -6  -3 -10   57.49    7.50
   6   3  10   63.49   10.90
   6   3  10   66.69    7.70
   6   3  10   72.39    7.90
   6   3  10   62.59   11.50
   6   3  10   88.69   12.90
  -7  -3 -10    4.50    3.20
  -7  -3 -10   17.90    9.60
  -7  -3 -10  -14.70    8.30
   7   3  10   -0.30    3.70
   7   3  10   17.80   10.00
   3  -4 -10   -3.90    7.10
   3  -4 -10   -1.90   10.40
   3  -4 -10    6.90    7.80
   3  -4 -10   12.70   10.70
  -3   4  10   -6.50    8.30
  -3   4  10   14.60    5.60
  -3   4  10   13.80    5.70
   2  -4 -10   42.50    8.30
   2  -4 -10   24.50    7.70
   2  -4 -10   39.50   10.30
  -2   4  10   34.10    6.90
  -2   4  10   37.00    7.10
  -2   4  10   18.50    8.50
  -2   4  10   32.30    6.30
   1  -4 -10    0.60    5.60
   1  -4 -10    2.10    8.00
  -1   4  10  -11.90    6.70
  -1   4  10   -2.20    5.50
  -1   4  10   -2.80    4.70
  -1   4  10   -4.30    3.50
  -1   4  10    1.10    4.60
  -1   4  10   -2.30    3.30
   0  -4 -10   -0.10    5.40
   0  -4 -10    1.70    4.90
   0  -4 -10   -5.90    6.00
   0  -4 -10   -1.40    6.40
   0  -4 -10    9.90    9.00
   0   4  10    6.70    4.60
   0   4  10   -4.30    6.50
   0   4  10    2.50    3.60
   0   4  10    7.50    4.30
   0   4  10   -2.20    6.60
  -1  -4 -10    3.20    5.90
  -1  -4 -10    3.30    5.20
  -1  -4 -10   -8.00    6.90
  -1  -4 -10   -1.80    5.80
  -1  -4 -10   -0.30    5.00
   1   4  10   -3.80    6.00
   1   4  10    5.60    5.00
   1   4  10    4.40    4.60
   1   4  10   -2.10    4.60
   1   4  10    2.90    6.20
  -2  -4 -10  193.98   17.70
  -2  -4 -10  180.68   21.70
  -2  -4 -10  148.39   19.50
  -2  -4 -10  146.39   19.70
   2   4  10  155.18   19.40
   2   4  10  206.08   18.30
   2   4  10  214.08   18.90
   2   4  10  184.58   17.50
   2   4  10  197.98   17.60
  -3  -4 -10   10.20    4.60
  -3  -4 -10    7.30    5.50
  -3  -4 -10    5.90    5.90
  -3  -4 -10   10.00    8.20
  -3  -4 -10    8.60    4.90
   3   4  10    9.50    4.40
   3   4  10    8.30    5.50
   3   4  10   14.20    7.10
   3   4  10    8.70    5.10
   3   4  10    8.10    4.20
  -4  -4 -10   39.10   10.00
  -4  -4 -10   46.60   11.50
  -4  -4 -10   32.50    6.60
  -4  -4 -10   36.70    9.50
  -4  -4 -10   45.00    6.70
   4   4  10   41.70    7.00
   4   4  10   39.30    9.10
   4   4  10   42.20    6.60
   4   4  10   46.40   10.20
  -5  -4 -10   -1.40    7.70
  -5  -4 -10    0.90    4.00
  -5  -4 -10   -2.20    7.10
  -5  -4 -10   -1.90    4.30
   5   4  10   -1.60    4.10
   5   4  10   -7.00    7.80
   5   4  10    1.20    5.40
   5   4  10   -5.30    8.40
   5   4  10    3.90    3.80
  -6  -4 -10    2.50    6.60
  -6  -4 -10    1.70    8.30
  -6  -4 -10   13.50    4.40
  -6  -4 -10   22.70   10.90
  -6  -4 -10   17.70    4.90
   6   4  10   28.40   10.00
   6   4  10   13.10    4.90
   6   4  10   15.80    6.30
  -7  -4 -10   -7.80    5.90
  -7  -4 -10   13.70    8.40
  -7  -4 -10   -2.00    4.70
   7   4  10   -2.70    4.70
   7   4  10   -0.40    4.50
   7   4  10   20.00   10.40
   2  -5 -10   66.09   13.10
   2  -5 -10   50.69   13.20
   2  -5 -10   55.29   10.40
  -2   5  10   60.39   10.10
  -2   5  10   61.09    9.10
  -2   5  10   55.79   10.40
   1  -5 -10  -10.70    7.20
   1  -5 -10   -8.30    5.70
   1  -5 -10   -8.20    6.30
   1  -5 -10    1.40    8.90
  -1   5  10   -7.50    8.20
  -1   5  10    8.10    5.70
  -1   5  10  -13.40    5.30
  -1   5  10    1.90    4.50
   0  -5 -10   -3.70    7.00
   0  -5 -10   -8.50    6.00
   0  -5 -10    1.20    8.40
   0  -5 -10   -0.60    5.30
   0   5  10   -0.40    5.10
   0   5  10    4.20    5.40
   0   5  10    3.40    3.20
   0   5  10   -6.90    7.10
  -1  -5 -10    1.00    5.30
  -1  -5 -10    0.60    5.70
  -1  -5 -10  -11.40    6.30
  -1  -5 -10   -0.60   11.80
  -1  -5 -10   -1.40    6.40
   1   5  10    2.30    4.00
   1   5  10   -3.50    4.90
   1   5  10    1.90    1.80
   1   5  10   -5.60    6.90
  -2  -5 -10   13.30    6.90
  -2  -5 -10   22.10    6.00
  -2  -5 -10   15.10    5.80
  -2  -5 -10   -1.70    7.50
  -2  -5 -10   13.80    6.90
   2   5  10   11.00    6.70
   2   5  10   16.10    4.30
   2   5  10   16.80    4.60
  -3  -5 -10   30.00    5.90
  -3  -5 -10   16.10    8.10
  -3  -5 -10   13.60    6.90
  -3  -5 -10   16.70    5.60
  -3  -5 -10   28.90    8.90
   3   5  10   20.80    4.60
   3   5  10   15.80    6.60
   3   5  10   22.70    6.90
  -4  -5 -10    0.80    7.40
  -4  -5 -10   -2.80    5.00
  -4  -5 -10    0.50    9.50
  -4  -5 -10   -7.10    6.00
  -4  -5 -10   -1.60    4.80
   4   5  10   -4.40    6.80
   4   5  10   -1.90    5.50
   4   5  10    7.20    4.10
   4   5  10    6.50    5.00
  -5  -5 -10   11.20    5.00
  -5  -5 -10   15.70    5.50
  -5  -5 -10    6.00    7.90
   5   5  10   21.40    5.70
   5   5  10   14.10    5.90
   5   5  10   20.90    5.30
   5   5  10    4.60    6.40
   5   5  10   13.70    9.90
  -6  -5 -10   53.59    7.90
  -6  -5 -10   38.70   10.50
   6   5  10   55.29    8.70
   6   5  10   43.30    8.30
   6   5  10   53.99    9.00
   6   5  10   67.09   12.80
  -7  -5 -10   21.70    6.30
   7   5  10   16.30    6.50
   7   5  10   32.60   11.60
   1  -6 -10   15.80   10.70
   1  -6 -10  -10.10    7.70
  -1   6  10   -8.50    6.60
  -1   6  10    6.90    5.80
  -1   6  10    4.90    6.40
   0  -6 -10    7.40    9.00
   0  -6 -10   -3.30    6.70
   0  -6 -10   -2.20    8.10
   0  -6 -10    8.50    6.40
   0   6  10    6.70    6.30
   0   6  10   -8.50    5.90
   0   6  10    3.80    4.50
  -1  -6 -10    5.00    9.00
  -1  -6 -10   -3.50    6.30
  -1  -6 -10    4.70    6.30
  -1  -6 -10   -2.10    8.00
   1   6  10   -3.10    5.70
   1   6  10  -10.70    5.90
  -2  -6 -10   21.30    8.20
  -2  -6 -10   17.40    6.60
  -2  -6 -10   16.30    6.80
  -2  -6 -10   10.40    8.10
   2   6  10   19.00    6.20
   2   6  10    4.70    6.20
   2   6  10   21.60    6.20
   2   6  10   12.00    7.80
  -3  -6 -10   18.70    6.30
  -3  -6 -10    1.50    7.90
  -3  -6 -10   17.90    8.60
  -3  -6 -10   19.50    6.70
  -3  -6 -10   31.30   10.00
   3   6  10    8.70   10.50
   3   6  10   30.10    4.60
   3   6  10   17.90    6.10
   3   6  10    9.60   11.50
   3   6  10   23.50    7.50
   3   6  10   20.60    5.80
  -4  -6 -10    4.40    5.90
  -4  -6 -10    3.10    5.50
  -4  -6 -10   -0.60    9.60
  -4  -6 -10  -14.40    7.90
  -4  -6 -10   -0.80    7.90
   4   6  10    8.10   10.10
   4   6  10    9.60    4.60
   4   6  10    2.70    7.90
  -5  -6 -10   13.30   15.10
  -5  -6 -10   -2.10    5.20
  -5  -6 -10   -5.30    5.50
  -5  -6 -10  -11.30    7.80
   5   6  10    3.80    5.50
   5   6  10    1.30    5.60
   5   6  10   -5.40    5.70
   5   6  10   -0.50    7.90
  -6  -6 -10   -7.70    8.50
  -6  -6 -10    4.60    5.90
   6   6  10   -1.00    8.00
   6   6  10    6.40   10.40
   6   6  10  -12.40    6.50
   6   6  10   18.10    7.40
  -1  -7 -10    6.60   10.00
  -1  -7 -10    3.80    7.60
   1   7  10   -5.00    6.60
   1   7  10   -3.50    6.90
  -2  -7 -10   -1.20    7.10
  -2  -7 -10   -4.70    7.30
  -2  -7 -10    7.70    8.80
   2   7  10    0.10    6.70
   2   7  10   -0.40    8.90
  -3  -7 -10   10.40    7.00
  -3  -7 -10   12.20    7.50
  -3  -7 -10    7.80    7.90
   3   7  10   -6.80   11.40
   3   7  10   -2.20    4.60
   3   7  10    5.50    6.80
  -4  -7 -10    3.60    6.50
  -4  -7 -10    1.00    7.00
  -4  -7 -10  -10.20   11.30
  -4  -7 -10   -5.00    7.30
   4   7  10    1.40    6.30
   4   7  10    5.50    5.20
  -5  -7 -10    3.70    7.00
   5   7  10   10.40    9.30
   5   7  10   20.30    7.90
   5   7  10   -5.70    8.60
   3   6 -11   -3.50    6.20
   3   6 -11   11.30    8.70
   3   6 -11   16.70   14.70
  -3  -6  11   -4.10    7.90
  -3  -6  11    6.70    6.70
  -3  -6  11    3.40    6.30
  -3  -6  11   16.40    8.60
  -3  -6  11   -1.40    8.10
   2   6 -11   18.30    8.00
   2   6 -11   11.40    7.50
   2   6 -11   16.30    8.30
   2   6 -11    5.50    7.10
  -2  -6  11   15.40    9.60
  -2  -6  11   13.80    6.10
  -2  -6  11    8.90    6.80
  -2  -6  11   -1.50    6.90
   1   6 -11    7.90    6.70
   1   6 -11   -1.40    7.90
   1   6 -11   -3.60    7.40
   1   6 -11    5.20    7.90
  -1  -6  11   -0.90    5.60
  -1  -6  11   -2.30    6.40
  -1  -6  11   13.10    9.80
  -1  -6  11  -10.60    6.30
   0   6 -11    4.60    7.00
   0   6 -11    4.30    6.00
   0   6 -11    4.80    7.50
   0   6 -11    0.60    8.50
   0  -6  11   15.60   10.40
   0  -6  11  -10.30    6.40
  -1   6 -11   54.29   10.40
  -1   6 -11   69.49   11.50
  -1   6 -11   53.39   12.60
  -1   6 -11   60.69   10.50
   1  -6  11   55.39   10.40
   1  -6  11   84.39   13.80
  -2   6 -11  194.08   27.90
  -2   6 -11  176.48   22.70
  -2   6 -11  187.48   17.50
  -2   6 -11  148.89   17.10
   2  -6  11  162.28   17.20
   2  -6  11  121.39   17.50
   2  -6  11  148.99   20.60
   4   5 -11   -5.70    7.60
  -4  -5  11   -6.80    5.40
  -4  -5  11    8.90    3.50
  -4  -5  11    1.80    6.00
   3   5 -11   24.80    7.20
   3   5 -11    7.40    5.50
   3   5 -11   11.80    7.90
   3   5 -11   13.00    7.60
  -3  -5  11   14.70    6.10
  -3  -5  11   25.00    6.70
  -3  -5  11   24.50    7.40
  -3  -5  11   20.30    5.70
   2   5 -11   -0.80    6.10
   2   5 -11   14.30    7.10
   2   5 -11    2.80    7.20
   2   5 -11    3.20    6.80
  -2  -5  11    9.60    5.90
  -2  -5  11   13.80    6.20
  -2  -5  11   -1.10    6.40
  -2  -5  11    7.40    7.20
  -2  -5  11   15.40    5.30
   1   5 -11   12.30    6.70
   1   5 -11    2.00    7.00
   1   5 -11    5.80    6.80
   1   5 -11    7.00    6.10
  -1  -5  11    2.40    6.30
  -1  -5  11    5.40    5.10
  -1  -5  11    2.90    5.70
  -1  -5  11   -1.40    4.90
  -1  -5  11   20.00    8.30
   0   5 -11    3.10    6.80
   0   5 -11    4.70    5.00
   0   5 -11   -8.60    6.40
   0   5 -11    1.80    6.40
   0  -5  11   13.50   12.60
   0  -5  11    2.40    4.60
   0  -5  11   -3.30    5.50
   0  -5  11   -5.50    5.00
  -1   5 -11    5.00    4.70
  -1   5 -11   15.80    6.40
  -1   5 -11   12.90    6.80
  -1   5 -11    8.20    8.20
   1  -5  11   11.00    6.20
   1  -5  11   23.80   10.80
   1  -5  11   -2.50    5.30
   1  -5  11   -2.40    5.90
  -2   5 -11   25.40    6.90
  -2   5 -11   28.40    7.70
  -2   5 -11   23.00    9.20
  -2   5 -11   29.70    7.10
   2  -5  11   46.90    8.10
   2  -5  11   37.70   12.40
   2  -5  11   16.20    4.70
   2  -5  11    9.30   10.80
  -3   5 -11    0.70    6.20
  -3   5 -11   11.00    3.60
  -3   5 -11   -4.10    9.20
  -3   5 -11    7.60    9.60
   3  -5  11   -0.80    6.20
   3  -5  11   -1.50    4.50
   3  -5  11   18.50   12.90
   3  -5  11    4.30   10.50
   5   4 -11  -11.10    9.30
   5   4 -11   -0.90    8.80
   5   4 -11  -14.60   10.30
  -5  -4  11   20.00    8.00
  -5  -4  11  -12.60    8.10
  -5  -4  11   -1.40    5.50
  -5  -4  11    1.80    4.70
   4   4 -11   -9.30   10.70
   4   4 -11   -1.80    9.10
   4   4 -11    4.60    6.10
   4   4 -11    1.70    7.40
  -4  -4  11    7.70    4.80
  -4  -4  11   -1.60    5.20
  -4  -4  11   10.50    7.30
  -4  -4  11  -12.30    7.20
   3   4 -11  107.89   14.80
   3   4 -11   89.29   12.70
   3   4 -11  114.89   15.40
  -3  -4  11   98.19   11.80
  -3  -4  11  122.79   11.60
  -3  -4  11  115.29   12.90
  -3  -4  11   99.49   15.10
   2   4 -11    1.60    5.90
   2   4 -11   -1.90    4.80
   2   4 -11   -9.10    5.80
   2   4 -11    1.00    5.50
  -2  -4  11   -5.40    5.10
  -2  -4  11    4.30    4.80
  -2  -4  11   -4.00    6.10
  -2  -4  11    8.30    5.70
   1   4 -11   -0.50    6.00
   1   4 -11   -1.50    5.80
   1   4 -11    4.40    5.70
   1   4 -11   -1.00    5.90
  -1  -4  11    6.30    6.60
  -1  -4  11    3.60    5.80
  -1  -4  11   12.00    4.80
  -1  -4  11    2.40    5.10
  -1  -4  11    2.60    4.50
   0   4 -11   34.20    8.20
   0   4 -11   17.80    6.90
   0   4 -11   26.40    6.50
   0   4 -11   22.00    6.30
   0  -4  11   20.70    4.90
   0  -4  11   32.30    7.40
   0  -4  11   22.30    3.90
   0  -4  11   16.60    6.20
   0  -4  11   21.50    7.90
  -1   4 -11  108.19   12.60
  -1   4 -11   99.39   11.00
  -1   4 -11   80.29   13.70
  -1   4 -11   77.49   10.60
   1  -4  11   80.79   10.60
   1  -4  11   83.59   10.40
   1  -4  11   90.29   11.90
   1  -4  11   89.49   12.30
  -2   4 -11  777.72   68.29
  -2   4 -11  655.73   67.89
  -2   4 -11  742.23   70.19
  -2   4 -11  873.01   68.49
   2  -4  11  841.82   67.89
   2  -4  11  826.62   67.99
   2  -4  11  733.83   69.79
   2  -4  11  681.73   69.29
  -3   4 -11   15.80    5.70
  -3   4 -11    7.90    7.80
  -3   4 -11    9.40    6.10
  -3   4 -11   -0.10    4.20
   3  -4  11   12.40   11.40
   3  -4  11    5.70    4.50
   3  -4  11   10.10    5.90
   3  -4  11    2.50    3.20
   3  -4  11   -2.60    9.40
  -4   4 -11    5.00    5.80
  -4   4 -11   -2.40    5.00
  -4   4 -11   -3.70    6.90
  -4   4 -11   -1.00    3.10
   4  -4  11   -2.20    4.70
   4  -4  11   11.90   12.30
   4  -4  11    5.40    9.70
   4  -4  11   -0.10    5.70
   5   3 -11   -0.60    6.80
   5   3 -11   -4.20    8.50
   5   3 -11    7.10   11.00
  -5  -3  11    1.70    5.00
  -5  -3  11   10.20    8.00
  -5  -3  11    0.30    5.20
  -5  -3  11   16.70   10.40
   4   3 -11    2.60    4.00
   4   3 -11   -5.60    6.30
  -4  -3  11   -2.20    4.60
  -4  -3  11   -2.50    4.80
  -4  -3  11  -12.30    6.80
  -4  -3  11    6.80    6.80
   3   3 -11   23.70    6.80
   3   3 -11   10.20    5.00
  -3  -3  11   14.60    7.00
  -3  -3  11   28.80    7.70
  -3  -3  11   23.10    6.70
  -3  -3  11   16.40    5.40
  -3  -3  11   38.50    5.90
   2   3 -11   11.60    5.30
   2   3 -11   12.80    5.60
   2   3 -11   12.40    6.20
   2   3 -11    5.50    5.00
  -2  -3  11   16.80    6.70
  -2  -3  11   22.20    4.80
  -2  -3  11    8.00    6.00
  -2  -3  11   15.50    5.30
  -2  -3  11    8.00    5.60
   1   3 -11   14.40    5.70
   1   3 -11   15.60    5.70
   1   3 -11   19.10    6.00
   1   3 -11   17.30    5.70
  -1  -3  11   23.90    6.30
  -1  -3  11   23.10    6.00
  -1  -3  11   22.30    4.80
   0   3 -11    0.20    5.60
   0   3 -11    1.60    4.90
   0   3 -11    1.00    3.90
   0  -3  11    0.50    6.30
   0  -3  11    2.60    5.30
   0  -3  11    0.50    4.70
   0  -3  11   -1.70    3.70
   0  -3  11   -0.10    3.90
  -1   3 -11   14.50    6.70
  -1   3 -11   24.50    5.70
  -1   3 -11   20.50    5.30
  -1   3 -11    8.70    7.20
  -1   3 -11   19.70   10.70
   1  -3  11   22.70    5.60
   1  -3  11   21.10    4.50
   1  -3  11   16.50    5.50
   1  -3  11   30.30    7.70
   1  -3  11   28.50    5.50
  -2   3 -11   10.80    7.40
  -2   3 -11   15.50    5.50
  -2   3 -11    0.00   10.00
  -2   3 -11   15.90    5.30
  -2   3 -11   14.10    5.60
   2  -3  11   11.00    5.20
   2  -3  11   27.20    9.70
  -3   3 -11  121.89   12.60
  -3   3 -11   94.59   16.50
  -3   3 -11  100.49   11.90
  -3   3 -11  115.99   12.80
  -3   3 -11  103.99   15.40
   3  -3  11  110.09   15.10
   3  -3  11  130.69   11.90
   3  -3  11  104.89   14.70
   3  -3  11  124.29   11.80
  -4   3 -11    9.60    5.10
  -4   3 -11    1.10    5.10
  -4   3 -11   -6.80    4.30
  -4   3 -11    0.20   10.60
  -4   3 -11    4.10    6.40
   4  -3  11   14.20    9.40
   4  -3  11   17.40    8.90
   4  -3  11   10.50    5.00
  -5   3 -11    8.20    9.40
  -5   3 -11    9.90    5.00
  -5   3 -11    8.00    6.20
   5  -3  11   10.80    9.30
   5  -3  11   17.60   13.00
   5  -3  11   12.40    5.20
   5  -3  11    9.00    4.40
   5   2 -11   -6.10   10.40
   5   2 -11    9.20    8.40
   5   2 -11    7.20    6.50
  -5  -2  11   -6.70    4.40
  -5  -2  11   -2.50    5.20
  -5  -2  11    3.20    3.00
  -5  -2  11  -13.90    7.60
  -5  -2  11    6.30    7.90
   4   2 -11   -8.70    4.00
   4   2 -11   -4.90    5.80
   4   2 -11    8.30    7.40
   4   2 -11  -11.80    9.40
   4   2 -11   -0.10    4.60
  -4  -2  11    6.40    6.90
  -4  -2  11   -4.20    4.10
  -4  -2  11    1.30    2.70
  -4  -2  11   -1.60    4.50
  -4  -2  11  -10.00    6.90
   3   2 -11  271.47   23.50
   3   2 -11  260.27   23.20
   3   2 -11  206.38   23.00
  -3  -2  11  219.48   22.50
  -3  -2  11  223.88   24.50
  -3  -2  11  257.57   22.70
  -3  -2  11  267.77   23.70
   2   2 -11  254.47   23.90
   2   2 -11  245.28   23.20
   2   2 -11  211.38   22.90
   2   2 -11  238.38   25.00
  -2  -2  11  248.48   22.80
  -2  -2  11  259.07   23.20
  -2  -2  11  251.37   24.20
  -2  -2  11  259.17   22.60
   1   2 -11   65.49   10.60
   1   2 -11   45.70    6.80
   1   2 -11   37.90    6.60
   1   2 -11   52.99    9.90
  -1  -2  11   52.39    7.30
  -1  -2  11   59.69    7.00
  -1  -2  11   55.29    8.50
  -1  -2  11   69.09    8.30
   0   2 -11   43.90    7.70
   0   2 -11   39.60    9.30
   0   2 -11   33.70    6.90
   0   2 -11   50.69    8.90
   0   2 -11   35.50    7.20
   0  -2  11   47.60    6.70
   0  -2  11   46.30    7.40
   0  -2  11   43.80    6.30
   0  -2  11   49.99    7.50
   0  -2  11   45.90    9.00
  -1   2 -11    2.10    5.80
  -1   2 -11    4.20    6.80
  -1   2 -11   -3.70    4.50
  -1   2 -11   -4.20    7.10
  -1   2 -11   -2.90    4.50
   1  -2  11    3.80    5.00
   1  -2  11    0.70    3.00
   1  -2  11   -0.50    3.30
   1  -2  11    3.30    3.60
   1  -2  11   -5.30    6.10
   1  -2  11    1.70    3.80
  -2   2 -11 1127.09  106.19
  -2   2 -11 1231.58  104.69
  -2   2 -11 1148.19  105.79
   2  -2  11 1099.89  104.19
   2  -2  11 1205.48  105.79
   2  -2  11 1273.17  104.49
   2  -2  11 1177.58  105.59
   2  -2  11 1304.77  104.59
   2  -2  11 1164.38  107.29
  -3   2 -11  121.59   15.70
  -3   2 -11  127.49   12.90
  -3   2 -11  124.29   13.20
  -3   2 -11  111.19   16.60
   3  -2  11  119.89   16.30
   3  -2  11  151.28   13.30
   3  -2  11  142.89   12.50
   3  -2  11  124.79   15.80
  -4   2 -11   -3.30    4.40
  -4   2 -11    9.80   12.30
  -4   2 -11   -1.90    6.90
  -4   2 -11    4.90    4.10
   4  -2  11   -0.80    4.40
   4  -2  11    2.00    3.00
  -5   2 -11   -9.90    8.60
  -5   2 -11   -2.50    4.10
  -5   2 -11    1.60   11.10
  -5   2 -11   -5.60    9.20
  -5   2 -11    3.10    4.40
  -5   2 -11   -4.90    8.30
   5  -2  11   -0.30    4.10
   5  -2  11    3.10    9.10
   5  -2  11    0.20    4.60
  -6   2 -11   13.80    9.70
  -6   2 -11   28.40    5.70
   6  -2  11   29.30   10.90
   5   1 -11    1.50    6.80
   5   1 -11    6.90   10.30
   5   1 -11   -6.30    7.80
  -5  -1  11    0.90    7.80
  -5  -1  11   -4.80    3.50
  -5  -1  11   -8.10    7.80
  -5  -1  11   -3.20    4.80
  -5  -1  11    9.20    4.80
   4   1 -11    7.00    7.00
   4   1 -11   -3.50    5.70
   4   1 -11    6.70    9.30
   4   1 -11   -6.20    4.70
   4   1 -11   -3.60    9.00
  -4  -1  11    3.10    4.00
  -4  -1  11   -2.20    3.80
  -4  -1  11   -2.50    4.40
  -4  -1  11   -8.10    5.10
  -4  -1  11    4.70    5.20
   3   1 -11    0.30    8.70
   3   1 -11   -3.70    5.70
   3   1 -11   -1.40    5.10
   3   1 -11   -0.60    5.50
  -3  -1  11   -1.80    3.80
  -3  -1  11    1.10    5.00
  -3  -1  11  -10.40    5.90
   2   1 -11   61.09    8.80
   2   1 -11   74.59   10.80
   2   1 -11   51.19   11.30
   2   1 -11   49.99    8.50
  -2  -1  11   45.60   10.10
  -2  -1  11   64.29   11.60
  -2  -1  11   78.69    7.80
  -2  -1  11   59.09    7.90
  -2  -1  11   63.09    9.30
   1   1 -11    9.00    4.80
   1   1 -11    9.60    5.10
   1   1 -11   17.30    5.70
   1   1 -11    7.40    4.40
   1   1 -11   13.30    4.00
  -1  -1  11   15.50    4.40
  -1  -1  11   11.20    4.60
  -1  -1  11   10.40    3.50
  -1  -1  11    8.60    5.60
  -1  -1  11   14.60    5.80
   0   1 -11    0.30    5.10
   0   1 -11    1.50    5.20
   0   1 -11   -2.40    4.60
   0   1 -11   -0.30    5.20
   0  -1  11   -0.80    4.00
   0  -1  11    2.30    3.80
   0  -1  11    0.70    3.70
   0  -1  11    0.60    3.40
   0  -1  11    7.00    5.30
  -1   1 -11   52.99    8.70
  -1   1 -11   59.09   10.10
  -1   1 -11   41.90    7.20
  -1   1 -11   49.30   10.10
  -1   1 -11   51.59    7.20
   1  -1  11   57.39    6.90
   1  -1  11   54.99    6.90
   1  -1  11   51.09    6.40
   1  -1  11   49.50    9.00
   1  -1  11   55.89    8.30
  -2   1 -11   -4.70    4.10
  -2   1 -11   -1.40    7.80
  -2   1 -11   -8.60    4.20
  -2   1 -11    9.60    5.80
  -2   1 -11    2.10    6.30
   2  -1  11    2.90    4.00
   2  -1  11   12.10    8.00
   2  -1  11   -0.70    4.50
   2  -1  11   -0.30    3.20
   2  -1  11    0.00    1.60
  -3   1 -11  239.68   24.40
  -3   1 -11  220.18   27.60
  -3   1 -11  289.97   25.80
  -3   1 -11  243.08   24.40
  -3   1 -11  253.17   26.60
   3  -1  11  300.27   24.40
   3  -1  11  287.67   24.50
   3  -1  11  300.47   24.30
  -4   1 -11   64.79    7.40
  -4   1 -11   62.99   12.70
  -4   1 -11   41.70   11.00
  -4   1 -11   57.79   11.40
  -4   1 -11   55.89   10.10
   4  -1  11   63.19    7.50
   4  -1  11   47.80   10.90
   4  -1  11   74.49    7.10
   4  -1  11   58.59    7.80
  -5   1 -11   48.50    9.00
  -5   1 -11   42.10    6.30
  -5   1 -11   45.10   12.60
  -5   1 -11   48.50    6.80
   5  -1  11   42.10   10.50
   5  -1  11   43.10    6.70
   5  -1  11   51.49    5.90
  -6   1 -11   38.40   10.10
  -6   1 -11   12.90    9.00
  -6   1 -11   15.60    4.10
   6  -1  11   27.00    5.10
   5   0 -11   14.20    8.70
   5   0 -11   13.60    7.50
   5   0 -11    6.40    6.70
   5   0 -11    7.50   11.10
  -5   0  11   -4.30    5.40
  -5   0  11    6.20    8.40
   4   0 -11    3.30    5.60
   4   0 -11   17.80    7.40
   4   0 -11   -1.50    9.50
   4   0 -11    0.40    5.50
  -4   0  11   -3.40    4.60
  -4   0  11   -4.00    5.50
  -4   0  11   -7.30    7.20
  -4   0  11    7.60    7.30
  -4   0  11   -4.80    4.50
   3   0 -11  106.69   11.10
   3   0 -11  102.69   13.60
   3   0 -11   96.49   11.90
   3   0 -11   80.79   13.10
  -3   0  11   74.99   12.90
  -3   0  11   87.49   10.10
  -3   0  11   94.49    9.90
  -3   0  11  112.49   11.90
  -3   0  11   65.99   13.30
   2   0 -11  867.71   76.59
   2   0 -11  918.81   76.49
   2   0 -11  853.61   77.79
   2   0 -11  894.61   77.29
  -2   0  11  851.21   76.29
  -2   0  11  807.42   77.49
  -2   0  11  874.81   76.29
   1   0 -11   52.39    7.50
   1   0 -11   49.50    9.50
   1   0 -11   39.30    5.80
   1   0 -11   50.89    6.20
   1   0 -11   43.00    7.00
   1   0 -11   56.89    9.40
  -1   0  11   65.89    9.10
  -1   0  11   54.89    6.60
  -1   0  11   56.29    8.40
  -1   0  11   50.89    6.70
  -1   0  11   31.40    7.60
   0   0 -11   -1.40    4.40
   0   0 -11    5.00    5.20
   0   0 -11    1.00    5.40
   0   0 -11   -4.10    4.90
   0   0  11    3.70    5.30
   0   0  11    0.00    3.70
   0   0  11   -5.10    3.70
   0   0  11    1.30    4.00
   0   0  11    1.40    4.10
  -1   0 -11   54.59    7.90
  -1   0 -11   62.09   10.90
  -1   0 -11   60.09   10.20
  -1   0 -11   66.59    7.90
  -1   0 -11   64.49    9.20
   1   0  11   72.69   10.30
   1   0  11   63.09    7.20
   1   0  11   70.79   10.00
   1   0  11   54.79    6.90
   1   0  11   81.29   10.20
   1   0  11   69.69    7.80
  -2   0 -11  536.45   50.59
  -2   0 -11  527.05   51.09
  -2   0 -11  595.54   49.60
  -2   0 -11  490.85   49.40
  -2   0 -11  635.64   50.89
   2   0  11  632.64   49.50
   2   0  11  558.54   49.30
   2   0  11  501.05   49.10
   2   0  11  560.04   50.59
  -3   0 -11  258.27   29.00
  -3   0 -11  309.07   27.80
  -3   0 -11  322.97   27.70
  -3   0 -11  281.87   29.40
  -3   0 -11  352.26   29.30
   3   0  11  345.97   27.60
   3   0  11  268.77   29.20
   3   0  11  335.27   27.50
   3   0  11  272.07   28.50
   3   0  11  315.07   28.00
  -4   0 -11   -1.80    6.90
  -4   0 -11    0.60    3.50
  -4   0 -11    1.00    8.80
  -4   0 -11    1.60    5.20
  -4   0 -11   -4.90    6.10
  -4   0 -11    0.60    3.80
   4   0  11   -6.40    4.50
   4   0  11    2.50    3.30
   4   0  11    4.30    3.20
  -5   0 -11   -1.90    6.70
  -5   0 -11   -2.00    3.20
  -5   0 -11   10.80    6.20
  -5   0 -11    7.50    4.20
   5   0  11    5.00    6.30
   5   0  11    3.80    5.90
   5   0  11    4.50    3.10
   5   0  11    1.10    3.50
   5   0  11   -4.80    7.90
  -6   0 -11   84.99   13.00
  -6   0 -11   61.99   10.20
  -6   0 -11   65.29    7.50
  -6   0 -11   60.49    7.30
  -6   0 -11   56.49   15.10
   6   0  11   58.39    7.30
   6   0  11   69.39   10.30
   6   0  11   67.49   12.00
  -7   0 -11  -10.40    9.70
   7   0  11   14.80   11.40
   7   0  11    1.80    2.90
   4  -1 -11    3.10    9.20
   4  -1 -11   -4.10    5.00
   4  -1 -11   -2.50    6.40
  -4   1  11   -4.20    7.10
  -4   1  11   -6.50    5.30
  -4   1  11   -4.50    4.00
  -4   1  11  -10.60    5.80
   3  -1 -11    6.50    5.60
   3  -1 -11    1.60    7.20
   3  -1 -11    3.70    6.10
   3  -1 -11    9.50    5.90
  -3   1  11    6.80    6.70
  -3   1  11    3.20    6.60
  -3   1  11    1.90    5.40
  -3   1  11    6.60    4.20
  -3   1  11   -0.80    4.50
   2  -1 -11  117.79   12.60
   2  -1 -11  130.99   15.60
   2  -1 -11  133.89   13.20
   2  -1 -11  125.59   15.70
   2  -1 -11  129.69   15.10
  -2   1  11  119.29   14.30
  -2   1  11  109.99   14.80
  -2   1  11  108.09   12.40
  -2   1  11  128.49   12.40
   1  -1 -11   -1.90    4.30
   1  -1 -11    2.00    4.70
   1  -1 -11   -2.60    4.90
   1  -1 -11    5.20    5.90
   1  -1 -11    2.30    3.10
  -1   1  11   -4.50    5.80
  -1   1  11   -1.50    4.10
  -1   1  11    1.50    4.70
  -1   1  11    2.50    4.30
  -1   1  11    1.30    5.10
   0  -1 -11   -3.90    4.30
   0  -1 -11    3.00    2.00
   0  -1 -11   -1.60    4.50
   0  -1 -11    7.10    5.30
   0  -1 -11   -0.50    4.20
   0  -1 -11    5.10    5.90
   0   1  11   -1.50    5.30
   0   1  11    4.30    4.30
   0   1  11   -2.70    3.90
   0   1  11    1.60    4.20
   0   1  11    3.30    4.60
  -1  -1 -11   37.50    9.10
  -1  -1 -11   28.30    6.60
  -1  -1 -11   29.20    6.00
  -1  -1 -11   21.00    5.30
  -1  -1 -11   29.50    7.30
   1   1  11   38.80    6.70
   1   1  11   37.40    5.70
   1   1  11   33.30    5.30
   1   1  11   35.20    7.80
  -2  -1 -11   19.40    5.90
  -2  -1 -11    8.50    4.30
  -2  -1 -11    4.50    4.30
  -2  -1 -11   13.40    6.30
  -2  -1 -11    9.10    2.70
  -2  -1 -11    1.90    7.40
  -2  -1 -11    5.90    3.20
   2   1  11   10.00    3.40
   2   1  11   11.10    3.50
   2   1  11    9.50    4.80
   2   1  11   12.80    4.00
   2   1  11   21.10    7.40
  -3  -1 -11  167.18   15.40
  -3  -1 -11  175.38   18.00
  -3  -1 -11  160.58   15.20
  -3  -1 -11  146.59   15.30
  -3  -1 -11  158.68   14.80
  -3  -1 -11  161.58   18.30
  -3  -1 -11  140.19   17.30
   3   1  11  183.98   15.60
   3   1  11  174.28   15.10
   3   1  11  152.88   17.30
  -4  -1 -11   56.19   10.80
  -4  -1 -11   58.69    7.70
  -4  -1 -11   68.99    7.70
  -4  -1 -11   77.49   12.30
  -4  -1 -11   49.99   11.20
  -4  -1 -11   64.29    7.30
   4   1  11   66.59    7.60
   4   1  11   45.50   10.40
   4   1  11   60.19    8.90
   4   1  11   70.79    7.30
   4   1  11   72.29   10.10
  -5  -1 -11   63.89    8.60
  -5  -1 -11   45.90   12.50
  -5  -1 -11   69.79    8.60
  -5  -1 -11   54.19    7.00
   5   1  11   72.39   10.40
   5   1  11   63.79    9.90
   5   1  11   45.40   10.10
   5   1  11   59.59    6.70
   5   1  11   53.69    7.00
  -6  -1 -11   30.20    7.60
  -6  -1 -11   30.50    6.40
  -6  -1 -11   13.60    8.70
   6   1  11   46.20    9.60
   6   1  11   32.00    5.20
   6   1  11   48.90   10.40
  -7  -1 -11   -7.50    9.10
  -7  -1 -11   20.90   11.20
  -7  -1 -11   -3.00    8.10
   7   1  11    2.70    3.00
   7   1  11    8.10   10.20
   7   1  11   28.20   10.00
   4  -2 -11   -2.60    7.00
   4  -2 -11    8.90   10.40
  -4   2  11   -0.20    8.20
  -4   2  11   -1.90    5.50
  -4   2  11  -12.90    7.20
  -4   2  11   -6.20    4.20
   3  -2 -11  -11.70    5.80
   3  -2 -11   -1.10    7.20
   3  -2 -11   -2.20    6.20
   3  -2 -11    1.30    3.80
   3  -2 -11    5.60    5.90
   3  -2 -11   -2.10    7.00
  -3   2  11   -5.60    4.90
  -3   2  11   -3.60    4.70
  -3   2  11   -5.60    7.20
  -3   2  11   -3.80    6.70
   2  -2 -11  672.23   54.79
   2  -2 -11  630.64   56.19
   2  -2 -11  616.64   56.39
  -2   2  11  697.53   55.59
  -2   2  11  562.74   55.99
  -2   2  11  575.94   55.79
  -2   2  11  556.24   55.99
   1  -2 -11   -5.10    3.80
   1  -2 -11    0.70    6.50
   1  -2 -11   -1.50    4.50
   1  -2 -11    0.40    5.70
  -1   2  11   13.00    6.90
  -1   2  11    0.10    5.60
  -1   2  11   -4.60    4.00
  -1   2  11   -3.50    4.10
   0  -2 -11   54.89    8.20
   0  -2 -11   54.59   11.40
   0  -2 -11   69.59   11.00
   0  -2 -11   79.19   11.70
   0   2  11   60.49    8.80
   0   2  11   62.99    7.80
   0   2  11   65.29    7.90
   0   2  11   71.09   10.70
   0   2  11   59.49   10.20
  -1  -2 -11   16.20    5.60
  -1  -2 -11   20.60    7.20
  -1  -2 -11   30.20    6.20
  -1  -2 -11   32.70    6.70
  -1  -2 -11   37.80    9.20
   1   2  11   30.80    5.50
   1   2  11   35.70    8.00
   1   2  11   31.70    6.90
   1   2  11   33.90    5.80
  -2  -2 -11   11.00    4.10
  -2  -2 -11   15.60    6.80
  -2  -2 -11    7.30    4.30
  -2  -2 -11   10.30    5.60
  -2  -2 -11   10.40    4.40
   2   2  11   18.20    6.90
   2   2  11   12.60    4.30
   2   2  11    3.20    4.80
   2   2  11   11.30    4.30
   2   2  11   13.40    3.90
  -3  -2 -11  282.67   24.80
  -3  -2 -11  303.57   25.30
  -3  -2 -11  228.68   26.80
  -3  -2 -11  286.77   27.40
  -3  -2 -11  248.28   24.80
   3   2  11  271.27   24.90
   3   2  11  231.18   26.10
   3   2  11  273.37   24.60
   3   2  11  308.07   24.80
   3   2  11  289.87   26.40
  -4  -2 -11   -0.10    9.20
  -4  -2 -11   -1.20    3.70
  -4  -2 -11   -4.90    2.90
  -4  -2 -11    3.10    8.80
  -4  -2 -11    3.20    5.30
   4   2  11    4.70    4.00
   4   2  11   -2.50    3.00
   4   2  11   -4.00    5.50
   4   2  11    0.60    4.90
   4   2  11   -6.70    6.50
  -5  -2 -11   -4.40    6.40
  -5  -2 -11    3.50    3.70
  -5  -2 -11    4.50    3.90
  -5  -2 -11    2.80    5.40
  -5  -2 -11   -1.40    2.50
   5   2  11    1.80    3.30
   5   2  11   -3.50    7.70
   5   2  11    1.30    3.60
   5   2  11    1.90    7.10
   5   2  11    2.30    5.20
  -6  -2 -11  112.69   10.10
  -6  -2 -11   81.29   15.20
  -6  -2 -11   75.79    9.10
  -6  -2 -11  100.09    9.40
  -6  -2 -11   83.39    9.40
  -6  -2 -11   80.49   11.50
   6   2  11   95.89    9.90
   6   2  11   97.79    9.60
   6   2  11  113.49   12.90
   6   2  11   92.69   13.50
  -7  -2 -11   -2.20    2.30
  -7  -2 -11    9.60   10.80
  -7  -2 -11  -12.00    8.30
  -7  -2 -11    0.90    2.40
   7   2  11   -1.70    3.90
   7   2  11   -2.60    3.40
   7   2  11   14.60    9.30
   7   2  11   11.60    6.40
   3  -3 -11    0.10    7.30
   3  -3 -11   10.20    8.60
   3  -3 -11    0.30    6.50
   3  -3 -11   -9.00    7.20
   3  -3 -11    6.90    7.70
   3  -3 -11   10.90    9.10
  -3   3  11    1.00    7.50
  -3   3  11    4.30    5.20
  -3   3  11   -2.00    6.70
  -3   3  11   11.80    5.10
  -3   3  11   -8.60    7.90
   2  -3 -11   43.30   10.70
   2  -3 -11   21.40    7.30
   2  -3 -11   53.39   11.50
  -2   3  11   30.00    8.20
  -2   3  11   25.20    7.10
  -2   3  11   12.10    8.10
   1  -3 -11   22.00    5.40
   1  -3 -11   23.80    9.20
   1  -3 -11   13.60    7.10
   1  -3 -11   20.10    6.10
  -1   3  11   16.60    7.30
  -1   3  11   19.50    4.30
  -1   3  11   27.40    6.50
  -1   3  11    9.90    6.90
  -1   3  11   30.90    6.00
   0  -3 -11   -2.70    7.30
   0  -3 -11   -6.40    5.40
   0  -3 -11   -6.30    5.10
   0  -3 -11   -9.60    6.10
   0  -3 -11   -1.80    4.70
   0   3  11   -1.60    4.60
   0   3  11   -8.00    6.00
   0   3  11   -3.20    4.40
   0   3  11    0.40    5.50
   0   3  11   -3.00    5.80
  -1  -3 -11    4.20    5.30
  -1  -3 -11   -5.60    4.90
  -1  -3 -11   -8.40    7.30
  -1  -3 -11   -9.60    4.70
  -1  -3 -11   -4.70    4.60
   1   3  11   -7.30    4.10
   1   3  11   -6.00    4.30
   1   3  11   -8.60    5.40
   1   3  11    5.80    5.50
   1   3  11   -1.40    5.30
  -2  -3 -11   49.99    8.70
  -2  -3 -11   32.20   12.10
  -2  -3 -11   67.99    9.60
  -2  -3 -11   52.59    8.10
  -2  -3 -11   60.99   11.00
   2   3  11   53.59    9.10
   2   3  11   43.60    8.10
   2   3  11   51.19    8.40
   2   3  11   55.79    7.20
   2   3  11   48.30    7.20
  -3  -3 -11   39.90    9.80
  -3  -3 -11   26.40    5.30
  -3  -3 -11   16.30    6.80
  -3  -3 -11   16.20    5.70
  -3  -3 -11   29.60    7.30
  -3  -3 -11   22.00    5.40
   3   3  11   36.70    7.10
   3   3  11   19.40    6.00
   3   3  11   25.70    5.10
   3   3  11   19.60    4.50
   3   3  11   24.70    7.50
  -4  -3 -11    1.40    9.00
  -4  -3 -11    4.90    4.20
  -4  -3 -11   -2.40    4.40
  -4  -3 -11   14.00    6.90
  -4  -3 -11    8.70    4.90
   4   3  11    3.60    3.90
   4   3  11    6.20    4.10
   4   3  11    7.70    5.30
   4   3  11    9.70   11.80
   4   3  11   -5.60    7.20
  -5  -3 -11   -0.30    7.30
  -5  -3 -11    8.50    4.00
  -5  -3 -11    6.70    3.80
   5   3  11    6.70    4.30
   5   3  11   -1.20    8.00
   5   3  11    5.00    5.20
   5   3  11    6.50    3.80
   5   3  11    5.60    7.80
  -6  -3 -11   10.50    8.30
  -6  -3 -11   26.90    5.00
  -6  -3 -11   15.60    4.50
   6   3  11   12.30    6.50
   6   3  11   20.20    4.90
  -7  -3 -11    8.00    5.80
  -7  -3 -11   30.30   10.80
   7   3  11   23.30    7.20
   7   3  11   27.70   10.80
   3  -4 -11    3.20   10.30
   3  -4 -11    8.30   10.60
   3  -4 -11   -5.60   10.80
   3  -4 -11   -3.20   10.20
  -3   4  11    9.60    5.60
  -3   4  11    5.10    5.90
   2  -4 -11  158.68   18.40
   2  -4 -11  138.59   16.10
   2  -4 -11  159.28   19.80
   2  -4 -11  157.58   18.80
  -2   4  11  118.99   18.80
  -2   4  11  187.38   15.80
  -2   4  11  144.49   20.50
  -2   4  11  167.78   15.80
   1  -4 -11   19.10    9.70
   1  -4 -11   18.70    8.20
   1  -4 -11   13.40    5.90
   1  -4 -11    8.70    5.80
   1  -4 -11   10.40    7.30
  -1   4  11   17.00    5.40
  -1   4  11   14.60    4.50
  -1   4  11    9.10    7.90
  -1   4  11   18.10    5.40
  -1   4  11   -1.10    6.90
   0  -4 -11   31.10    6.60
   0  -4 -11   20.70    7.50
   0  -4 -11   30.40    6.20
   0  -4 -11   31.20    9.40
   0   4  11   29.90    5.90
   0   4  11   15.00    7.10
   0   4  11   23.50    7.90
   0   4  11   35.40    6.70
   0   4  11   27.70    5.80
  -1  -4 -11    1.80    5.30
  -1  -4 -11   -4.10    5.90
  -1  -4 -11   -6.60    5.10
  -1  -4 -11   -4.30    6.10
  -1  -4 -11   -8.80    7.00
   1   4  11   -2.60    4.60
   1   4  11   -7.10    4.60
   1   4  11   -3.80    5.00
   1   4  11   -3.60    6.10
  -2  -4 -11    8.50    7.70
  -2  -4 -11   18.40    6.00
  -2  -4 -11   20.50    5.80
  -2  -4 -11   18.60    5.80
  -2  -4 -11   15.60    6.70
   2   4  11   22.30    6.90
   2   4  11   18.80    5.00
   2   4  11   38.80   10.00
   2   4  11   25.60    5.00
  -3  -4 -11   80.09   10.30
  -3  -4 -11   74.49   12.40
  -3  -4 -11   91.79   13.00
  -3  -4 -11   97.79   14.60
  -3  -4 -11  110.59   14.30
   3   4  11   93.59   11.40
   3   4  11   84.49   12.60
   3   4  11   84.39    9.30
   3   4  11   89.29   11.20
  -4  -4 -11    3.00    4.50
  -4  -4 -11   -3.20    5.20
  -4  -4 -11   -2.60    7.40
  -4  -4 -11   -4.90    4.60
  -4  -4 -11   -5.90    9.40
   4   4  11   -4.70    4.30
   4   4  11    2.70    5.60
   4   4  11    4.90    8.60
   4   4  11    1.40    2.90
   4   4  11   -4.30    7.00
  -5  -4 -11   -3.20    4.20
  -5  -4 -11   -3.30    4.40
  -5  -4 -11   -1.60    7.80
   5   4  11    4.20    5.90
   5   4  11   -8.70    7.80
   5   4  11   -5.10    4.40
   5   4  11   -4.60    8.70
  -6  -4 -11   92.09   15.60
  -6  -4 -11   74.49    9.80
  -6  -4 -11   87.09   10.50
   6   4  11   89.29   10.10
   6   4  11   73.39    9.70
   6   4  11   91.69   13.80
   7   4  11    5.70    4.70
   7   4  11   12.30    7.80
   2  -5 -11   -7.10    7.40
   2  -5 -11    6.30   11.20
   2  -5 -11   11.60    8.00
  -2   5  11   -2.80    8.60
  -2   5  11   14.70    6.20
  -2   5  11    6.40    7.10
   1  -5 -11    9.20    8.20
   1  -5 -11   20.20   10.30
   1  -5 -11  -10.60    6.90
   1  -5 -11   -0.20    7.20
   1  -5 -11    2.80    8.20
  -1   5  11    6.70    4.20
  -1   5  11   -9.50    8.60
  -1   5  11  -13.20    7.70
  -1   5  11    4.00    6.00
  -1   5  11    3.30    5.90
   0  -5 -11   -2.80    4.40
   0  -5 -11   -2.10    9.10
   0  -5 -11   -9.80    7.50
   0   5  11  -13.10    7.60
   0   5  11   -3.00    5.40
   0   5  11   -0.60    5.50
  -1  -5 -11  -12.60    8.20
  -1  -5 -11    1.90    5.80
  -1  -5 -11   -5.20    6.60
  -1  -5 -11   -9.70    6.00
   1   5  11    0.70    5.40
   1   5  11   -6.10    5.10
   1   5  11    2.20    5.30
  -2  -5 -11   60.89    8.90
  -2  -5 -11   48.70   11.40
  -2  -5 -11   50.89    8.60
   2   5  11   47.20    8.10
   2   5  11   52.49    8.30
   2   5  11   50.89    8.40
   2   5  11   51.39   12.30
  -3  -5 -11    2.40    7.60
  -3  -5 -11    9.20    5.60
  -3  -5 -11    2.60    6.50
  -3  -5 -11    2.60    5.60
  -3  -5 -11   -7.80    8.70
   3   5  11   -7.60    5.30
   3   5  11    3.20    7.10
   3   5  11    7.20    6.70
   3   5  11    4.00   10.10
  -4  -5 -11   -4.20    8.00
  -4  -5 -11   -9.50    6.00
  -4  -5 -11   -8.80    5.10
  -4  -5 -11   -8.00    9.60
  -4  -5 -11   -1.40    5.00
   4   5  11   -7.10    8.70
   4   5  11   -4.00    5.10
  -5  -5 -11   -0.50    5.80
  -5  -5 -11   -3.00    7.90
  -5  -5 -11    4.40    5.50
   5   5  11    7.10    4.50
   5   5  11    2.70    5.30
   5   5  11   -8.00    9.80
  -6  -5 -11   16.00    5.40
  -6  -5 -11   19.60    6.10
   6   5  11   19.80    5.90
   6   5  11   23.10   10.50
   6   5  11    8.60    7.20
   6   5  11   14.40    6.40
   1  -6 -11    1.40    8.70
   1  -6 -11   21.40   12.00
  -1   6  11    9.00    7.40
  -1   6  11   13.70    7.00
   0  -6 -11   -0.90    9.60
   0  -6 -11   -8.40    7.10
   0   6  11   -7.40    6.60
   0   6  11    5.20    3.80
   0   6  11   13.20    6.60
  -1  -6 -11  -11.70    8.20
  -1  -6 -11   -9.70    6.70
  -1  -6 -11  -10.50    9.70
  -1  -6 -11   -3.40    6.70
   1   6  11   -2.80    6.00
   1   6  11    0.10    6.50
   1   6  11  -14.60   10.40
   1   6  11    2.60    2.20
  -2  -6 -11   -4.70   11.30
  -2  -6 -11   16.30    6.90
  -2  -6 -11    9.80    6.80
  -2  -6 -11    1.90    8.70
  -2  -6 -11   -2.70    8.30
   2   6  11    7.40    6.10
   2   6  11   21.90    6.50
   2   6  11   -0.80    7.20
  -3  -6 -11   16.70    6.80
  -3  -6 -11    1.50    9.10
  -3  -6 -11   10.40    8.00
  -3  -6 -11   13.40    6.80
   3   6  11   19.40    3.10
   3   6  11   23.50    6.50
   3   6  11   14.70    5.90
   3   6  11   12.80    7.20
  -4  -6 -11   -0.80    9.00
  -4  -6 -11   -7.30   10.30
  -4  -6 -11    9.30    6.20
  -4  -6 -11   -3.40    7.80
  -4  -6 -11    2.10    6.20
   4   6  11   11.10    5.30
   4   6  11   -9.70    6.90
   4   6  11   -9.70   10.10
   4   6  11   16.70    6.10
  -5  -6 -11   -3.10    6.30
  -5  -6 -11  -13.10    6.30
  -5  -6 -11    0.30   12.40
  -5  -6 -11  -15.50    8.90
   5   6  11  -12.70    7.30
   5   6  11    7.90    5.30
   5   6  11   -0.90    5.90
   5   6  11   -8.20   10.20
   6   6  11   39.60    9.10
   6   6  11   25.10    8.00
   6   6  11   41.80   12.90
  -1  -7 -11    3.20    8.30
   1   7  11   -3.20    6.90
  -2  -7 -11   14.10    9.50
  -2  -7 -11   20.20    8.20
   2   7  11   29.80    7.50
  -3  -7 -11   13.40    9.20
  -3  -7 -11   12.70    7.90
  -3  -7 -11    2.30    7.30
   3   7  11  -14.30   12.20
   3   7  11   -3.30    8.40
   3   7  11   14.00    7.40
  -4  -7 -11    3.60    7.40
  -4  -7 -11   -0.10    6.70
  -4  -7 -11  -11.40    8.40
   4   7  11    8.40    4.90
   4   7  11    2.00    7.10
  -3  -6  12   13.50    7.20
   2   6 -12    5.60    7.90
   2   6 -12    5.10    8.30
   2   6 -12   -4.70    7.50
  -2  -6  12   19.00    8.90
  -2  -6  12    2.50    7.00
  -2  -6  12    7.20    6.50
   1   6 -12    5.00    8.60
   1   6 -12   10.50    7.10
   1   6 -12   19.50    8.50
   1   6 -12   19.80    8.60
  -1  -6  12   21.50    7.30
  -1  -6  12   37.60   11.10
   0   6 -12   -1.20    8.10
   0   6 -12    5.30    6.10
   0   6 -12    0.30    6.20
   0   6 -12   -3.40    8.50
   0  -6  12   16.50   11.50
   0  -6  12   -2.40    7.10
  -1   6 -12   12.10    8.50
  -1   6 -12    6.90    5.70
  -1   6 -12   11.80    9.90
  -1   6 -12    3.40    7.70
   1  -6  12   10.00   12.50
   1  -6  12   -1.60    7.20
   4   5 -12  -10.30    8.40
  -4  -5  12   -2.00    6.20
  -4  -5  12   23.40   13.70
  -4  -5  12   -4.60    5.50
   3   5 -12   -0.60    7.90
   3   5 -12    1.70   10.80
  -3  -5  12    3.70    6.00
  -3  -5  12    9.40    7.80
  -3  -5  12    5.10    5.60
  -3  -5  12  -13.50    7.40
  -3  -5  12    8.80    5.60
   2   5 -12   -5.40    7.00
   2   5 -12   -6.90    6.40
   2   5 -12    4.80    7.20
   2   5 -12    2.20    7.30
  -2  -5  12    6.50    6.50
  -2  -5  12   -7.00    5.90
  -2  -5  12   -0.50    5.40
  -2  -5  12    3.80    7.20
  -2  -5  12   -7.90    6.70
   1   5 -12   21.70    7.10
   1   5 -12   20.00    8.00
   1   5 -12   31.90    7.70
   1   5 -12   25.50    7.90
  -1  -5  12   35.40    9.00
  -1  -5  12   24.60    6.00
  -1  -5  12   17.40    5.70
  -1  -5  12   44.50    7.90
  -1  -5  12   14.50    6.80
   0   5 -12    6.50    8.00
   0   5 -12    8.00    7.10
   0   5 -12   -1.80    6.60
   0   5 -12   -6.50    5.40
   0  -5  12   -6.40    5.70
   0  -5  12    3.80    4.90
   0  -5  12   -2.40    9.50
  -1   5 -12    7.50    8.50
  -1   5 -12   15.70    6.70
  -1   5 -12   16.60    7.10
  -1   5 -12   12.00    5.70
   1  -5  12   22.30   10.50
   1  -5  12   -5.50    9.60
   1  -5  12   13.20    5.10
   1  -5  12   23.90    6.60
  -2   5 -12   15.20    9.10
  -2   5 -12   28.00    7.20
  -2   5 -12   21.50    7.60
   2  -5  12   37.00   13.00
   2  -5  12   28.40    8.60
  -3   5 -12   15.60    6.90
  -3   5 -12    4.50   10.30
  -3   5 -12   13.70    7.50
   3  -5  12   16.90   13.70
   3  -5  12   11.50    7.60
   3  -5  12    9.10   11.40
   4   4 -12    3.30    7.40
  -4  -4  12    2.20    5.00
  -4  -4  12   -5.70    5.50
  -4  -4  12   10.20    7.50
   3   4 -12   17.60    6.50
   3   4 -12   17.60    7.60
   3   4 -12   16.10    7.90
  -3  -4  12   20.80    5.50
  -3  -4  12   11.00    5.80
  -3  -4  12    0.50    7.40
  -3  -4  12   21.00    6.80
  -3  -4  12   33.40    9.00
   2   4 -12   -5.60    5.90
   2   4 -12    2.00    5.20
   2   4 -12   -2.60    6.00
   2   4 -12   -4.30    6.60
  -2  -4  12   -7.90    6.50
  -2  -4  12    3.80    5.60
  -2  -4  12   10.00    9.20
  -2  -4  12    0.30    4.80
  -2  -4  12   -0.80    5.40
   1   4 -12   29.80    7.20
   1   4 -12   28.20    7.20
   1   4 -12   50.79   11.60
   1   4 -12   24.40    7.50
  -1  -4  12   39.80    6.70
  -1  -4  12   29.20    6.30
  -1  -4  12   21.40    7.10
   0   4 -12    5.70   10.50
   0   4 -12   12.40    6.20
   0   4 -12   -1.70    6.10
   0   4 -12    2.20    5.90
   0  -4  12    7.80    3.40
   0  -4  12   11.90    7.90
   0  -4  12    3.70    5.30
   0  -4  12    0.40    4.40
   0  -4  12   -3.80    8.20
  -1   4 -12    1.00    6.00
  -1   4 -12   -0.30    5.90
  -1   4 -12   -6.40    7.50
  -1   4 -12   -1.00    4.90
   1  -4  12    0.30    6.70
   1  -4  12   -4.00    5.10
  -2   4 -12   21.90    6.30
  -2   4 -12   29.00    6.60
  -2   4 -12   14.30    8.20
  -2   4 -12    9.70    5.60
   2  -4  12   13.20    5.90
   2  -4  12    1.50   10.20
  -3   4 -12    7.60    6.60
  -3   4 -12   -2.10    8.30
  -3   4 -12   16.40    6.60
   3  -4  12    5.10    4.30
   3  -4  12    1.30    2.70
   3  -4  12    0.50    9.60
   3  -4  12    0.70   11.40
   3  -4  12    8.30    5.50
  -4   4 -12    3.50    6.00
  -4   4 -12   30.90    9.90
  -4   4 -12   13.80    6.10
  -4   4 -12   16.00   10.00
   4  -4  12   27.00   11.70
   4  -4  12   17.50    6.60
   4  -4  12   14.50   11.80
  -5  -3  12   -1.80    5.50
   4   3 -12   -2.30    7.50
   4   3 -12  -11.70    8.40
  -4  -3  12  -10.50    7.30
  -4  -3  12   12.20    8.20
  -4  -3  12   -5.00    4.50
  -4  -3  12    2.40    6.80
  -4  -3  12   -1.60    5.70
   3   3 -12   -1.60    5.30
   3   3 -12   15.10    7.00
  -3  -3  12    8.50    5.20
  -3  -3  12    6.60    4.80
  -3  -3  12    2.30    7.00
  -3  -3  12   13.20    6.80
  -3  -3  12   22.20    8.10
   2   3 -12   92.69   12.60
   2   3 -12   76.29   13.80
   2   3 -12   92.19   12.60
   2   3 -12   68.09   10.90
  -2  -3  12   97.29   12.50
  -2  -3  12   90.19   10.70
  -2  -3  12  102.79   11.80
  -2  -3  12  100.19   10.40
   1   3 -12   45.00   10.80
   1   3 -12   42.10   10.50
   1   3 -12   41.30    8.40
   1   3 -12   31.00    7.20
  -1  -3  12   51.29    6.90
  -1  -3  12   40.00   10.30
  -1  -3  12   42.90    7.50
  -1  -3  12   51.39    9.50
  -1  -3  12   40.90    7.20
   0   3 -12   11.20    5.80
   0   3 -12    8.30    6.40
   0   3 -12   12.20    5.80
   0   3 -12   10.70    5.90
   0  -3  12   19.30    7.30
   0  -3  12   13.70    4.60
   0  -3  12    7.00    6.40
   0  -3  12   16.60    4.50
   0  -3  12   10.10    5.90
  -1   3 -12   41.90    7.70
  -1   3 -12   46.80    8.90
  -1   3 -12   36.00   10.40
  -1   3 -12   27.90   10.30
  -1   3 -12   39.10    7.50
   1  -3  12   42.20    7.30
   1  -3  12   45.80    9.70
   1  -3  12   37.60    6.00
   1  -3  12   34.30    4.10
  -2   3 -12  110.59   13.60
  -2   3 -12  108.19   15.50
  -2   3 -12  126.59   13.60
  -2   3 -12  123.39   16.10
   2  -3  12  138.49   16.40
   2  -3  12  156.08   13.50
   2  -3  12  119.49   12.50
   2  -3  12  138.29   12.50
  -3   3 -12   -8.40    5.40
  -3   3 -12   -3.40    5.70
  -3   3 -12    0.80    5.40
  -3   3 -12    0.60    8.30
   3  -3  12   -4.10    5.00
   3  -3  12   -2.40    9.50
   3  -3  12    6.90   10.20
  -4   3 -12   -0.40    5.30
  -4   3 -12  -16.00   11.10
  -4   3 -12    2.70    5.70
  -4   3 -12   -3.20    8.00
   4  -3  12   10.20   11.80
   4  -3  12    0.40    5.30
   4  -3  12   -2.80    9.80
   4  -3  12   -0.70    3.70
  -5   3 -12    1.20    5.80
  -5   3 -12    3.60    9.30
   5  -3  12   17.10   10.50
   5  -3  12    2.50    5.40
   5  -3  12   -5.30    4.40
   5  -3  12   11.10   10.30
   5   2 -12    1.70    7.40
   5   2 -12    9.60    9.00
   5   2 -12    4.10   11.40
  -5  -2  12   -3.20    5.20
  -5  -2  12    3.20    8.30
   4   2 -12   12.70    7.50
   4   2 -12    9.30   10.30
   4   2 -12   20.70    7.00
   4   2 -12   14.40    7.40
   4   2 -12    5.70    5.60
  -4  -2  12   10.70    4.60
  -4  -2  12   -6.30    7.50
  -4  -2  12   11.90    3.50
  -4  -2  12    7.70    6.90
  -4  -2  12    8.60    5.00
  -4  -2  12   24.80    8.70
   3   2 -12   10.50    5.60
   3   2 -12   17.30    6.50
   3   2 -12   19.30    7.30
  -3  -2  12   16.10    5.20
  -3  -2  12   14.30    4.80
  -3  -2  12   24.80    6.10
  -3  -2  12    7.10    6.90
  -3  -2  12   12.60    6.80
   2   2 -12    3.10    5.30
   2   2 -12   -5.50    5.80
   2   2 -12    2.10    5.80
   2   2 -12    0.50    7.60
  -2  -2  12    1.80    3.40
  -2  -2  12   -3.00    3.60
  -2  -2  12    2.00    5.90
  -2  -2  12   -0.90    3.80
   1   2 -12   39.50    7.80
   1   2 -12   43.80   10.40
   1   2 -12   40.90    9.90
   1   2 -12   32.20    6.60
  -1  -2  12   33.40    5.60
  -1  -2  12   25.50    7.40
  -1  -2  12   41.80    6.40
  -1  -2  12   43.20    8.10
  -1  -2  12   50.99    8.30
   0   2 -12    5.40    5.60
   0   2 -12    1.90    5.10
   0   2 -12   -0.80    6.70
   0   2 -12    1.50    6.00
   0   2 -12    6.30    6.30
   0  -2  12    0.90    4.00
   0  -2  12   -2.10    3.90
   0  -2  12    6.60    4.40
   0  -2  12    3.90    5.80
   0  -2  12    3.00    4.80
  -1   2 -12    9.40    5.20
  -1   2 -12   12.60    8.10
  -1   2 -12    6.10    6.50
  -1   2 -12    5.10    6.70
  -1   2 -12    5.10    5.50
   1  -2  12    9.00    3.60
   1  -2  12   11.30    4.90
   1  -2  12   14.90    4.90
   1  -2  12   12.00    4.10
   1  -2  12    8.30    5.80
  -2   2 -12   45.10   11.60
  -2   2 -12   26.70    5.90
  -2   2 -12   41.00    8.90
  -2   2 -12   28.20    6.00
  -2   2 -12   30.90   10.10
   2  -2  12   23.40    4.40
   2  -2  12   25.40    4.20
   2  -2  12   24.70    7.80
   2  -2  12   38.90    6.60
   2  -2  12   26.80    7.10
   2  -2  12   20.90    4.10
  -3   2 -12  101.79   11.20
  -3   2 -12  114.89   15.90
  -3   2 -12   93.39   14.50
  -3   2 -12  105.59   11.10
   3  -2  12  111.79   11.10
   3  -2  12   93.99   14.30
   3  -2  12  106.59   10.60
  -4   2 -12   32.50    6.60
  -4   2 -12   13.70    8.40
  -4   2 -12   37.10    6.70
   4  -2  12   32.70    5.80
   4  -2  12   23.90   10.10
  -5   2 -12   -1.40    8.70
  -5   2 -12    4.40    4.90
  -5   2 -12   -5.50    8.90
  -5   2 -12   -4.90    4.70
  -5   2 -12   -6.60   15.40
   5  -2  12    3.00    4.30
   5  -2  12   12.80    9.70
   5  -2  12   -2.70    4.70
   5   1 -12    9.50   10.90
   5   1 -12   12.10    8.90
   5   1 -12    2.10    8.10
  -5  -1  12    8.00    7.90
  -5  -1  12   -0.70    6.10
  -5  -1  12   -1.90    8.50
   4   1 -12   -7.40    6.00
   4   1 -12   -1.90    6.50
   4   1 -12    8.00    7.70
   4   1 -12    4.20    7.30
  -4  -1  12  -12.00    7.20
  -4  -1  12   -3.90    3.90
  -4  -1  12   -0.60    4.70
  -4  -1  12    2.00    6.90
  -4  -1  12   -3.50    6.00
   3   1 -12   17.00    7.20
   3   1 -12    5.80    5.80
  -3  -1  12    6.80    6.80
  -3  -1  12   14.80    4.40
  -3  -1  12    8.80    6.00
  -3  -1  12    7.20    4.50
  -3  -1  12    8.70    4.60
   2   1 -12  359.06   30.50
   2   1 -12  273.57   30.30
  -2  -1  12  319.17   30.10
  -2  -1  12  348.47   30.10
  -2  -1  12  356.26   30.80
   1   1 -12   -9.90    5.70
   1   1 -12    1.00    5.40
   1   1 -12   -1.60    3.90
   1   1 -12    3.00    6.10
   1   1 -12    2.80    4.90
  -1  -1  12   -7.10    3.90
  -1  -1  12    1.30    4.80
  -1  -1  12    1.80    6.80
  -1  -1  12   -3.30    5.80
  -1  -1  12   -2.00    4.60
   0   1 -12   49.20    8.20
   0   1 -12   56.79    8.30
   0   1 -12   54.09   10.60
   0   1 -12   50.69    8.20
   0  -1  12   66.49    8.80
   0  -1  12   58.59    7.70
   0  -1  12   60.99    7.30
   0  -1  12   58.19   10.50
   0  -1  12   60.39    8.90
  -1   1 -12   -1.40    4.70
  -1   1 -12   -2.70    4.60
  -1   1 -12   -1.60    7.20
  -1   1 -12   -1.50    4.20
  -1   1 -12   -1.30    5.70
   1  -1  12   -2.10    4.30
   1  -1  12    2.60    5.40
   1  -1  12    2.90    2.90
   1  -1  12    0.90    3.30
   1  -1  12   -1.70    3.20
  -2   1 -12  501.35   46.10
  -2   1 -12  496.45   43.10
  -2   1 -12  480.25   44.90
   2  -1  12  552.64   42.80
   2  -1  12  447.96   46.20
   2  -1  12  411.76   43.70
  -3   1 -12    5.60    4.70
  -3   1 -12    5.80    4.50
  -3   1 -12    4.00    7.20
  -3   1 -12    2.30    5.40
  -3   1 -12   -6.90    9.40
   3  -1  12    3.00    3.50
   3  -1  12    8.80    8.70
   3  -1  12    5.70    4.80
   3  -1  12    7.00    4.30
   3  -1  12   -6.50    5.10
  -4   1 -12   12.60    9.80
  -4   1 -12   -0.60    4.30
  -4   1 -12    2.00    7.40
  -4   1 -12   -0.70    4.40
   4  -1  12   -0.10    4.40
   4  -1  12   -2.50    4.30
   4  -1  12  -11.70    8.10
   4  -1  12    0.60    3.60
  -5   1 -12    1.40    4.20
  -5   1 -12   -3.70    8.30
  -5   1 -12    8.60   10.80
  -5   1 -12   -2.00    7.90
  -5   1 -12   -2.30    4.50
   5  -1  12   -5.20    4.10
   5  -1  12    3.30    8.80
   5  -1  12   -6.10    4.60
  -6   1 -12  -12.30    9.30
  -6   1 -12    1.70    4.20
  -6   1 -12   23.30   10.00
   6  -1  12    2.70    4.70
   6  -1  12   21.50   10.40
   4   0 -12    6.90   11.00
   4   0 -12    7.20    9.00
   4   0 -12   13.40    6.60
   4   0 -12    6.30    5.80
   4   0 -12   11.30    7.80
  -4   0  12   10.30    7.80
  -4   0  12    2.20    5.30
  -4   0  12    3.80    5.80
  -4   0  12    7.90    4.60
   3   0 -12   13.80    6.00
   3   0 -12   -6.60    5.90
   3   0 -12    2.50    9.80
  -3   0  12    5.00    4.80
  -3   0  12    7.80    6.00
  -3   0  12    4.10    6.50
  -3   0  12    2.60    4.90
  -3   0  12   -3.60    6.80
   2   0 -12    8.90    5.10
   2   0 -12    6.80    5.90
   2   0 -12    6.10    6.20
   2   0 -12  -12.70    5.80
  -2   0  12    6.60    4.90
  -2   0  12    0.00    6.00
  -2   0  12    1.10    3.50
  -2   0  12    0.50    4.30
  -2   0  12    4.10    6.70
   1   0 -12    0.90    6.50
   1   0 -12   -6.10    3.80
   1   0 -12    0.30    4.00
   1   0 -12   -4.50    5.30
   1   0 -12    5.80    5.00
  -1   0  12   -4.70    4.80
  -1   0  12    1.70    5.10
  -1   0  12    0.70    3.90
  -1   0  12    0.40    4.50
  -1   0  12   -3.80    3.40
   0   0 -12   -4.60    4.70
   0   0 -12   -4.90    5.00
   0   0 -12    5.00    6.10
   0   0 -12    2.00    5.80
   0   0 -12   -1.00    5.30
   0   0  12   -1.40    4.40
   0   0  12   -0.70    4.30
   0   0  12    4.10    4.40
   0   0  12    4.50    5.90
   0   0  12   -3.70    3.80
  -1   0 -12   71.69   10.30
  -1   0 -12   78.39    9.20
  -1   0 -12   64.49    9.00
  -1   0 -12   74.19   12.20
   1   0  12   78.49    9.00
   1   0  12   83.39    8.70
   1   0  12   66.09   11.40
   1   0  12   85.39   10.50
   1   0  12   77.59    8.30
  -2   0 -12  104.49   11.00
  -2   0 -12   97.59   10.90
  -2   0 -12   99.89   13.40
  -2   0 -12  101.39   14.60
  -2   0 -12   94.19   12.80
   2   0  12  101.09   10.30
   2   0  12  125.39   10.80
   2   0  12   86.39   12.60
   2   0  12   93.49   10.20
   2   0  12  117.89   13.60
  -3   0 -12  473.65   46.40
  -3   0 -12  486.75   47.60
  -3   0 -12  504.55   45.90
  -3   0 -12  490.85   48.10
   3   0  12  480.05   47.50
   3   0  12  544.05   46.30
   3   0  12  520.65   47.30
   3   0  12  594.04   45.90
   3   0  12  541.65   45.70
  -4   0 -12   -2.10    3.80
  -4   0 -12    6.00    9.20
  -4   0 -12   -1.00    7.20
  -4   0 -12   -5.10    5.90
  -4   0 -12   -2.80    4.30
  -4   0 -12    2.00    5.90
   4   0  12   -8.40    5.30
   4   0  12  -10.20    8.10
   4   0  12   -0.40    4.10
   4   0  12    4.50    3.00
  -5   0 -12   19.20    4.70
  -5   0 -12   11.20    7.20
  -5   0 -12   14.30    7.10
  -5   0 -12   10.40    4.00
  -5   0 -12   20.80   15.90
  -5   0 -12   12.90    8.30
   5   0  12   18.30    8.90
   5   0  12   17.10    3.80
   5   0  12   14.40    4.40
  -6   0 -12   11.70    7.90
  -6   0 -12    7.60    4.10
  -6   0 -12    4.10    5.50
  -6   0 -12    0.00    8.50
   6   0  12   23.40    9.90
   6   0  12   -1.30    3.70
   6   0  12   -2.00    4.10
   4  -1 -12   -6.90    7.20
   4  -1 -12   -0.10    7.40
   4  -1 -12    2.00   10.50
  -4   1  12   -2.50    7.80
  -4   1  12   -1.40    4.20
  -4   1  12   -5.90    5.00
   3  -1 -12   -8.90    9.70
   3  -1 -12    0.90    6.10
  -3   1  12   -1.30    4.90
  -3   1  12   -1.00    7.00
  -3   1  12  -11.10    6.90
  -3   1  12   -8.60    5.00
  -3   1  12   -5.70    6.00
   2  -1 -12  163.88   15.00
   2  -1 -12  164.48   15.70
   2  -1 -12  167.68   18.20
   2  -1 -12  147.49   18.00
  -2   1  12  154.38   17.00
  -2   1  12  165.88   15.00
  -2   1  12  124.89   17.10
  -2   1  12  148.09   15.00
  -2   1  12  125.39   17.50
   1  -1 -12   58.29    8.70
   1  -1 -12   63.89    7.40
   1  -1 -12   74.69   10.90
   1  -1 -12   76.29    9.30
   1  -1 -12   51.99   12.00
   1  -1 -12   78.69   12.00
  -1   1  12   63.89   10.60
  -1   1  12   88.09   11.80
  -1   1  12   75.79    8.20
  -1   1  12   58.99   11.90
  -1   1  12   64.29    8.40
   0  -1 -12   -2.10    5.80
   0  -1 -12    0.60    6.20
   0  -1 -12    1.90    2.00
   0  -1 -12    3.10    4.70
   0  -1 -12    0.20    5.10
   0  -1 -12    3.00    4.80
   0   1  12    4.30    5.00
   0   1  12    5.50    3.20
   0   1  12   -2.70    6.30
   0   1  12    1.10    4.40
   0   1  12   12.50    7.60
   0   1  12    1.00    5.00
  -1  -1 -12   13.60    5.90
  -1  -1 -12   14.20    4.20
  -1  -1 -12   15.80    7.40
  -1  -1 -12   11.40    6.80
  -1  -1 -12    2.70    5.70
  -1  -1 -12   16.10    5.20
   1   1  12   13.00    4.20
   1   1  12   15.50    4.50
   1   1  12   17.60    7.80
   1   1  12   10.10    5.00
   1   1  12   15.60    3.80
  -2  -1 -12  730.93   60.99
  -2  -1 -12  571.14   60.29
  -2  -1 -12  727.13   62.29
  -2  -1 -12  756.12   62.89
  -2  -1 -12  661.23   61.99
  -2  -1 -12  632.14   60.89
  -2  -1 -12  706.93   61.09
   2   1  12  768.02   60.89
   2   1  12  675.93   60.79
   2   1  12  676.53   60.89
  -3  -1 -12   51.49    7.00
  -3  -1 -12   37.50    9.00
  -3  -1 -12   67.89   11.20
  -3  -1 -12   31.10    9.30
  -3  -1 -12   34.30   11.00
  -3  -1 -12   47.00    6.40
   3   1  12   64.29    7.70
   3   1  12   52.39    6.40
   3   1  12   43.80    9.60
  -4  -1 -12   -0.90    7.20
  -4  -1 -12    2.60    4.00
  -4  -1 -12    3.10    4.40
  -4  -1 -12   -0.60    4.40
  -4  -1 -12   -6.00    6.50
  -4  -1 -12    2.30    7.20
   4   1  12    2.00    4.30
   4   1  12    0.70    3.10
   4   1  12   -5.90    4.90
   4   1  12   -7.60    7.20
  -5  -1 -12   12.60    4.10
  -5  -1 -12    5.10    7.80
  -5  -1 -12   27.80    5.50
  -5  -1 -12   15.90    6.20
  -5  -1 -12    9.00    6.90
   5   1  12   17.30    4.50
   5   1  12   14.00    3.70
   5   1  12   16.20    8.60
   5   1  12   15.60    7.30
  -6  -1 -12   10.70    3.80
  -6  -1 -12   10.80    7.30
  -6  -1 -12   25.60   11.70
  -6  -1 -12    9.00    4.40
  -6  -1 -12   -4.80    7.10
  -6  -1 -12   -7.70    7.80
   6   1  12    7.60    3.50
   6   1  12   13.20    6.20
   6   1  12   20.70    9.50
   6   1  12    5.30    4.00
   6   1  12   26.40   12.90
  -7  -1 -12    5.40    8.70
   7   1  12    8.30    5.80
   7   1  12   39.90   11.00
   7   1  12   19.60   10.90
   4  -2 -12    0.00   10.80
   4  -2 -12   -5.80    8.10
   4  -2 -12   -3.60    7.00
  -4   2  12   -8.80    8.10
  -4   2  12    2.00    5.40
   3  -2 -12   -7.30    5.50
   3  -2 -12    1.30    7.60
   3  -2 -12    4.90   10.40
   3  -2 -12   10.40    5.50
   3  -2 -12   -5.60    7.20
  -3   2  12   -9.50    4.90
  -3   2  12   -7.90    6.70
  -3   2  12    4.80    4.80
  -3   2  12   -3.20    7.10
   2  -2 -12   13.20    7.10
   2  -2 -12    4.30    6.10
   2  -2 -12    0.70    6.50
   2  -2 -12    0.30    9.50
  -2   2  12    0.30    6.50
  -2   2  12    5.40    4.70
  -2   2  12    2.80    4.80
  -2   2  12    4.00    6.80
  -2   2  12   -3.80    7.00
   1  -2 -12   56.99   13.50
   1  -2 -12   48.40    8.20
   1  -2 -12   48.00    7.80
   1  -2 -12   43.20   10.30
  -1   2  12   42.60    9.10
  -1   2  12   49.60   10.50
  -1   2  12   46.00    7.20
  -1   2  12   46.80    7.20
   0  -2 -12    0.20    5.10
   0  -2 -12   -1.00    5.00
   0  -2 -12   -4.60    4.80
   0  -2 -12    1.60    8.00
   0   2  12    1.00    5.30
   0   2  12    2.10    6.90
   0   2  12   -3.40    6.20
   0   2  12    1.50    5.50
   0   2  12   -4.10    4.20
  -1  -2 -12   46.90    9.10
  -1  -2 -12   46.10   12.50
  -1  -2 -12   41.90   10.70
  -1  -2 -12   48.20    7.40
  -1  -2 -12   43.80    7.40
   1   2  12   45.20    9.40
   1   2  12   56.59    9.20
   1   2  12   41.80    6.70
   1   2  12   33.30    9.80
   1   2  12   44.00    6.00
  -2  -2 -12   53.49    7.70
  -2  -2 -12   53.89    8.10
  -2  -2 -12   47.00   11.10
   2   2  12   38.80    9.90
   2   2  12   55.39    8.30
   2   2  12   46.40    6.90
   2   2  12   47.40    9.00
   2   2  12   51.19    7.30
  -3  -2 -12  548.95   46.50
  -3  -2 -12  532.75   48.70
  -3  -2 -12  472.05   46.40
   3   2  12  510.25   46.40
   3   2  12  597.84   46.50
   3   2  12  485.45   48.20
   3   2  12  512.55   46.30
  -4  -2 -12   93.79   10.20
  -4  -2 -12   81.29    9.60
  -4  -2 -12   86.99   13.20
  -4  -2 -12  102.29   10.30
  -4  -2 -12   89.19   14.30
  -4  -2 -12   63.99   13.70
   4   2  12  104.89   10.20
   4   2  12   89.49   12.20
   4   2  12   89.09   11.70
   4   2  12   93.89    9.70
  -5  -2 -12   21.00    4.80
  -5  -2 -12    9.30    7.70
  -5  -2 -12   15.90    3.30
  -5  -2 -12   10.90    5.40
  -5  -2 -12   17.90    4.60
   5   2  12   18.10    4.60
   5   2  12   18.50    4.20
   5   2  12   23.30    8.80
  -6  -2 -12   22.10   11.40
  -6  -2 -12   -9.90    8.30
  -6  -2 -12    3.40    6.40
  -6  -2 -12    5.80    4.10
  -6  -2 -12    7.30    4.60
   6   2  12    7.70    6.10
   6   2  12    3.00    4.10
   6   2  12   10.20    9.20
  -7  -2 -12   16.20    4.30
  -7  -2 -12   21.10   11.20
   7   2  12   27.70   11.10
   7   2  12   32.70   10.30
   3  -3 -12    3.20    8.20
   3  -3 -12   -2.80   12.00
   3  -3 -12    1.50   10.60
   3  -3 -12   -5.50    7.80
  -3   3  12   -3.90    5.50
  -3   3  12   -9.90    8.10
  -3   3  12   -4.20    5.80
   2  -3 -12   -8.40    7.40
   2  -3 -12   -1.80    8.00
   2  -3 -12   14.70    7.40
   2  -3 -12   -3.00   10.20
  -2   3  12   -7.20    7.20
  -2   3  12    3.00    5.20
  -2   3  12    8.20    5.10
  -2   3  12  -13.20    7.30
   1  -3 -12   29.80    6.50
   1  -3 -12   32.80   10.80
   1  -3 -12   54.39   11.00
   1  -3 -12   23.40    7.70
  -1   3  12   22.60    7.90
  -1   3  12   34.30    7.70
  -1   3  12   29.70    5.50
  -1   3  12   42.20    7.00
  -1   3  12   21.70    7.20
   0  -3 -12    3.00    6.90
   0  -3 -12    5.30    7.50
   0  -3 -12    5.30    6.00
   0  -3 -12    4.40    5.30
   0  -3 -12   -0.50    5.00
   0   3  12    2.60    6.30
   0   3  12    4.00    4.70
   0   3  12    7.80    6.00
   0   3  12   -2.70    9.10
   0   3  12    4.10    4.70
  -1  -3 -12   -7.30    6.40
  -1  -3 -12   -0.40    4.10
  -1  -3 -12    1.20    5.20
  -1  -3 -12    0.90    5.60
  -1  -3 -12    8.70    5.80
   1   3  12    1.90    5.70
   1   3  12    9.40    6.60
   1   3  12    2.30    6.00
   1   3  12    4.60    6.00
   1   3  12   -0.90    4.40
  -2  -3 -12  313.17   28.00
  -2  -3 -12  262.57   27.90
  -2  -3 -12  351.46   29.20
  -2  -3 -12  311.37   30.80
  -2  -3 -12  271.37   29.40
   2   3  12  299.57   27.80
   2   3  12  309.97   28.80
   2   3  12  310.77   27.80
   2   3  12  313.27   29.00
  -3  -3 -12  164.58   16.10
  -3  -3 -12  146.79   18.50
  -3  -3 -12  135.49   14.70
  -3  -3 -12  158.18   14.80
   3   3  12  145.39   14.40
   3   3  12  147.29   16.00
   3   3  12  146.59   15.10
   3   3  12  129.49   16.20
  -4  -3 -12   11.10    8.00
  -4  -3 -12    6.60    4.60
  -4  -3 -12   10.60    5.30
  -4  -3 -12    7.70    7.10
  -4  -3 -12    5.20    4.50
  -4  -3 -12   11.80   10.70
   4   3  12   11.30    4.50
   4   3  12   13.70    4.50
   4   3  12   10.10    5.60
   4   3  12   10.40    7.90
   4   3  12    7.60    8.30
  -5  -3 -12    5.30    4.40
  -5  -3 -12   13.00    5.20
  -5  -3 -12   12.10    4.90
  -5  -3 -12    6.00    8.10
   5   3  12   12.10    8.70
   5   3  12   22.00    8.80
   5   3  12   16.90    4.40
  -6  -3 -12   45.40   12.90
  -6  -3 -12   39.30    8.00
  -6  -3 -12   52.09    7.30
  -6  -3 -12   36.40   15.00
  -6  -3 -12   29.50   10.10
  -6  -3 -12   34.90    6.60
   6   3  12   51.39   12.40
   6   3  12   51.59    7.20
   6   3  12   62.09   11.40
   6   3  12   49.99    9.40
  -7  -3 -12   13.10    4.70
  -7  -3 -12  -12.90   10.20
  -7  -3 -12    4.80    4.80
   7   3  12   18.40    7.00
   7   3  12    8.80    4.40
   7   3  12   10.50   10.30
   2  -4 -12    7.30    7.30
   2  -4 -12    9.50   11.00
  -2   4  12    2.50    5.90
  -2   4  12   -9.20    8.40
  -2   4  12    3.70    5.80
   1  -4 -12   56.39   13.00
   1  -4 -12   49.50    8.70
   1  -4 -12   39.70   11.80
   1  -4 -12   59.09    9.70
  -1   4  12   48.80    7.60
  -1   4  12   54.99    8.50
  -1   4  12   53.79    8.40
   0  -4 -12   -1.80    4.50
   0  -4 -12    5.30    5.80
   0  -4 -12   -2.40    7.00
   0  -4 -12  -10.00    9.30
   0  -4 -12   -8.30    6.50
   0   4  12   -9.50    6.80
   0   4  12   -3.90    5.00
   0   4  12    1.80    5.30
   0   4  12    1.20    5.10
   0   4  12   -8.90    7.00
  -1  -4 -12   10.20    5.70
  -1  -4 -12   -4.10    6.90
  -1  -4 -12    4.10    6.80
  -1  -4 -12   -0.80    7.30
  -1  -4 -12    2.30    4.40
   1   4  12   -4.50    6.50
   1   4  12    8.50    6.00
   1   4  12   10.50    4.00
   1   4  12    4.80    4.90
  -2  -4 -12   15.50    5.70
  -2  -4 -12   18.80    5.80
  -2  -4 -12    0.30    7.30
  -2  -4 -12    7.60    6.10
  -2  -4 -12   -1.70    6.50
   2   4  12   20.30    7.10
   2   4  12   14.60    7.10
   2   4  12    5.70    6.00
   2   4  12   16.80    5.00
  -3  -4 -12  115.79   13.50
  -3  -4 -12  131.39   17.60
  -3  -4 -12  155.58   15.70
  -3  -4 -12  146.89   13.70
   3   4  12  117.19   12.60
   3   4  12  115.29   14.20
   3   4  12  128.69   14.40
  -4  -4 -12   98.89   15.60
  -4  -4 -12   97.29   16.40
  -4  -4 -12  131.59   12.70
  -4  -4 -12  100.39   12.10
  -4  -4 -12  109.69   15.60
   4   4  12  121.59   15.00
   4   4  12  113.79   11.90
   4   4  12  110.59   13.80
  -5  -4 -12   -4.40    4.60
  -5  -4 -12   -9.00    5.50
  -5  -4 -12  -18.90   13.50
   5   4  12   -3.10    8.00
   5   4  12   -9.70    8.90
   5   4  12   -4.10    5.20
   5   4  12    0.20    4.80
  -6  -4 -12    7.70    5.00
  -6  -4 -12   -8.30    8.50
  -6  -4 -12    9.00    5.30
   6   4  12   17.70    9.90
   6   4  12   13.70   10.20
   6   4  12    9.90    4.90
   6   4  12    5.80    6.60
   6   4  12   10.40    5.50
   1  -5 -12   -4.50   10.70
   1  -5 -12   -1.30    8.00
  -1   5  12    3.60    6.40
  -1   5  12  -15.80    8.60
  -1   5  12   -2.70    6.10
   0  -5 -12    7.10    7.10
   0  -5 -12   -3.00    8.30
   0  -5 -12   -4.20   10.40
   0  -5 -12    8.90    6.30
   0   5  12   -6.60    8.40
   0   5  12   -0.70    5.90
   0   5  12  -14.90    7.90
   0   5  12    2.40    5.90
  -1  -5 -12   -5.10    6.10
  -1  -5 -12   -0.50    7.50
  -1  -5 -12  -14.40    9.80
  -1  -5 -12   -2.10    6.50
   1   5  12    2.30    5.70
   1   5  12   -9.10    5.60
   1   5  12   -1.40    5.40
  -2  -5 -12   45.70   11.80
  -2  -5 -12   60.49    9.30
  -2  -5 -12   43.30    9.00
   2   5  12   38.60    6.90
   2   5  12   60.29    8.80
   2   5  12   57.59    8.90
  -3  -5 -12   96.89   10.90
  -3  -5 -12   69.49   14.30
  -3  -5 -12   80.99   15.40
  -3  -5 -12   79.59   14.20
  -3  -5 -12   78.69   10.80
   3   5  12   58.89   13.30
   3   5  12   82.19   10.10
   3   5  12   72.79   12.00
   3   5  12   95.89   13.10
   3   5  12   92.69   10.50
  -4  -5 -12   19.80    9.00
  -4  -5 -12   18.90    6.30
  -4  -5 -12    9.20    7.30
  -4  -5 -12   -4.80   10.70
  -4  -5 -12   27.20    6.20
   4   5  12   29.50    5.90
   4   5  12   17.90   10.60
   4   5  12   13.70    7.10
  -5  -5 -12   -0.60    5.90
  -5  -5 -12  -10.20    6.50
  -5  -5 -12   -5.40    8.30
  -5  -5 -12   -6.70   11.60
  -5  -5 -12    3.90    5.70
   5   5  12   -2.30    6.70
   5   5  12   -4.40   10.10
   5   5  12   -0.60    5.40
   5   5  12    7.20    4.90
  -6  -5 -12    0.80    7.20
  -6  -5 -12   35.20    9.20
  -6  -5 -12   12.40   10.00
   6   5  12   26.30    6.10
   6   5  12   14.70    7.70
   6   5  12   34.90   11.40
   0  -6 -12    3.10    8.10
   0  -6 -12    5.00   11.20
   0   6  12   -2.10    6.80
   0   6  12    1.20    6.90
  -1  -6 -12   -6.30    9.70
  -1  -6 -12    1.20    8.00
  -1  -6 -12   -3.50   10.80
  -1  -6 -12   -4.70    7.20
   1   6  12   -5.90    6.50
   1   6  12   -9.30    6.20
  -2  -6 -12    7.30    7.10
  -2  -6 -12   -9.10    8.20
  -2  -6 -12   13.00    7.00
  -2  -6 -12   -0.70   10.30
   2   6  12   10.20    6.50
   2   6  12  -10.80    7.80
   2   6  12    7.60    6.40
  -3  -6 -12    3.40    8.40
  -3  -6 -12    5.80    6.90
  -3  -6 -12   -7.00    8.30
  -3  -6 -12    2.20    6.60
  -3  -6 -12   -5.40    9.40
  -3  -6 -12   -6.80   10.00
   3   6  12    2.60   10.00
   3   6  12    6.70    6.50
   3   6  12   -1.00    7.40
  -4  -6 -12   19.30    6.90
  -4  -6 -12    2.90    8.20
  -4  -6 -12   27.60    6.90
  -4  -6 -12    5.70    9.40
   4   6  12   13.20   11.70
   4   6  12    4.80    8.80
   4   6  12   29.60    6.60
  -5  -6 -12    2.40    6.80
  -5  -6 -12  -11.50    9.30
  -5  -6 -12   -1.10    6.20
   5   6  12    0.70    7.60
   5   6  12   -4.50   11.60
   1   6 -13   15.30    9.10
   1   6 -13   20.20    8.90
  -1  -6  13   34.90   11.60
  -1  -6  13   16.00    7.70
   0   6 -13    7.00    8.10
   0   6 -13    3.40    6.90
   0   6 -13   -7.90    8.90
   0  -6  13   -2.30    7.50
   3   5 -13   -1.40    8.90
  -3  -5  13   -1.20    6.60
  -3  -5  13    5.70    5.90
   2   5 -13   -5.30    7.50
   2   5 -13   -3.80    7.80
   2   5 -13  -11.80    7.20
  -2  -5  13    5.80    7.30
  -2  -5  13    8.80    6.60
  -2  -5  13   14.20    8.60
  -2  -5  13   -7.20    5.50
   1   5 -13   17.30    7.90
   1   5 -13   18.90    8.00
   1   5 -13    3.60    7.40
   1   5 -13    7.60    7.60
  -1  -5  13    8.60    5.50
  -1  -5  13   24.00    9.30
  -1  -5  13    8.60    5.40
  -1  -5  13   -1.20    6.90
  -1  -5  13   11.00    6.50
   0   5 -13   10.60    7.40
   0   5 -13    7.60    7.30
   0   5 -13    3.80    6.60
   0   5 -13   -2.70    7.90
   0  -5  13    4.00    5.80
   0  -5  13    3.70    6.40
   0  -5  13   14.10   10.30
  -1   5 -13   -2.20    6.90
  -1   5 -13    1.50    7.30
  -1   5 -13    2.90    6.00
  -1   5 -13   -0.40    8.60
   1  -5  13   14.70   10.90
   1  -5  13    3.80    6.50
  -2   5 -13   -2.40    5.20
  -2   5 -13   -4.60    9.50
  -2   5 -13  -10.70    7.20
  -2   5 -13    6.30    7.10
   2  -5  13   16.00   12.90
   2  -5  13   -2.00    7.60
   4   4 -13    2.20    8.60
  -4  -4  13   12.50    8.30
  -4  -4  13   -1.60    5.40
  -4  -4  13   -5.90    5.90
   3   4 -13   -2.40    7.90
  -3  -4  13   -4.00    5.80
  -3  -4  13    0.80    5.10
  -3  -4  13    7.80    7.30
   2   4 -13   -2.00    6.40
   2   4 -13   -2.20    7.30
   2   4 -13    8.20    6.80
   2   4 -13    4.70    7.20
  -2  -4  13   14.30    6.20
  -2  -4  13   12.10    6.10
  -2  -4  13   12.80    5.50
   1   4 -13   41.30    8.60
   1   4 -13   49.90    9.80
   1   4 -13   45.30   12.80
  -1  -4  13   63.69    8.20
  -1  -4  13   45.60    9.20
  -1  -4  13   47.20    8.00
  -1  -4  13   57.39    8.70
   0   4 -13   -6.70    7.00
   0   4 -13   -2.70    6.10
   0   4 -13    4.30    6.60
   0   4 -13   -8.50    6.40
   0  -4  13    4.30    7.90
   0  -4  13    5.90    4.70
   0  -4  13    4.10    3.50
   0  -4  13   -0.50    5.60
   0  -4  13  -10.20    5.80
  -1   4 -13   -2.80    7.70
  -1   4 -13    0.40    6.20
  -1   4 -13   10.40    6.30
  -1   4 -13   10.00    6.50
   1  -4  13    5.90    9.10
   1  -4  13   -2.30    5.60
   1  -4  13    8.70    3.40
   1  -4  13    0.70    7.90
  -2   4 -13   58.49   15.30
  -2   4 -13   66.19   10.20
  -2   4 -13   70.69   10.20
  -2   4 -13   70.59   11.30
   2  -4  13   67.59   10.80
   2  -4  13   81.69   14.40
  -3   4 -13   77.19   16.80
  -3   4 -13   84.89   11.60
  -3   4 -13   95.59   13.20
  -3   4 -13   76.69   10.70
   3  -4  13   77.19   10.30
   3  -4  13   82.19   14.70
   3  -4  13   53.69   13.70
  -4   4 -13   19.20    7.30
   4  -4  13    5.90    6.90
   4   3 -13   -1.50    8.60
   4   3 -13   16.00    8.10
  -4  -3  13    8.40    5.70
  -4  -3  13   13.50    5.30
  -4  -3  13    6.80    8.10
   3   3 -13   13.90    7.40
   3   3 -13    4.50    6.20
   3   3 -13   -8.90    5.70
   3   3 -13    3.10    7.00
  -3  -3  13   11.60    5.10
  -3  -3  13    0.00    5.70
  -3  -3  13   14.40    7.70
  -3  -3  13    3.40    5.50
  -3  -3  13    4.30    6.70
   2   3 -13   15.80    6.40
   2   3 -13   15.20    7.50
   2   3 -13    6.70    6.60
   2   3 -13   11.70    7.00
  -2  -3  13   14.30    5.20
  -2  -3  13   25.10    7.20
  -2  -3  13    0.90    7.00
  -2  -3  13   15.60    5.50
  -2  -3  13   20.80    6.40
   1   3 -13   24.20    6.10
   1   3 -13   17.20    7.80
   1   3 -13   27.50    8.00
   1   3 -13   35.10    7.10
  -1  -3  13   39.10    7.40
  -1  -3  13   38.30    8.30
  -1  -3  13   41.30    6.80
   0   3 -13   -0.60    5.70
   0   3 -13    4.90    6.00
   0   3 -13   -3.40    6.10
   0   3 -13   -1.70    6.90
   0  -3  13    7.00    4.40
   0  -3  13   -4.20    4.60
   0  -3  13    6.90    4.60
   0  -3  13   -3.10    5.90
   0  -3  13    1.90    4.10
  -1   3 -13   -4.40    7.00
  -1   3 -13   -1.10    5.80
  -1   3 -13    1.40    5.60
  -1   3 -13   -7.50    9.00
  -1   3 -13   -3.50    5.60
   1  -3  13   -1.90    5.50
   1  -3  13    5.30    4.20
   1  -3  13   -2.70    8.10
   1  -3  13   -2.80    7.60
   1  -3  13    1.60    3.80
   1  -3  13    3.40    2.60
  -2   3 -13    0.00    5.60
  -2   3 -13   -4.00    5.90
  -2   3 -13   -6.60    5.30
  -2   3 -13   -0.90   10.00
   2  -3  13  -15.90    9.90
   2  -3  13    6.90    9.40
   2  -3  13   -0.40    5.50
   2  -3  13    5.70    2.80
  -3   3 -13   -3.60    5.20
  -3   3 -13   -3.80    5.40
  -3   3 -13    7.10    8.70
  -3   3 -13   -0.80    6.20
   3  -3  13  -10.80   10.60
   3  -3  13   -1.00    4.30
   3  -3  13    3.30   10.10
   3  -3  13   -3.10    5.30
  -4   3 -13    9.80    5.50
  -4   3 -13  -13.30   11.60
  -4   3 -13   -1.30    9.00
  -4   3 -13  -14.70    5.70
   4  -3  13    0.70    4.00
   4  -3  13   -8.00   11.80
   4  -3  13    2.80    5.90
   4  -3  13   -6.90    9.90
   4   2 -13   12.10    7.90
   4   2 -13   -7.70   11.10
  -4  -2  13   -3.80    4.60
  -4  -2  13    3.40    3.50
  -4  -2  13   -6.20    5.20
  -4  -2  13   -0.50    7.40
  -4  -2  13   13.20    8.90
   3   2 -13   -8.30    5.50
   3   2 -13   -5.50    7.80
  -3  -2  13   -3.70    6.10
  -3  -2  13    3.70    3.70
  -3  -2  13   -5.80    4.60
  -3  -2  13   -8.80    6.60
  -3  -2  13   -6.20    4.90
   2   2 -13   -5.90    6.40
   2   2 -13    3.90    5.70
   2   2 -13   -1.30    6.20
  -2  -2  13    2.20    5.20
  -2  -2  13   -2.40    4.40
  -2  -2  13   -5.70    4.90
  -2  -2  13  -11.80    6.70
  -2  -2  13    2.40    6.10
   1   2 -13   13.00    6.30
   1   2 -13    4.60    6.80
   1   2 -13    6.40    6.20
   1   2 -13    6.50    5.80
  -1  -2  13   16.10    5.30
  -1  -2  13    9.60    5.30
  -1  -2  13    6.90    6.70
  -1  -2  13   13.80    4.90
  -1  -2  13    9.90    4.70
   0   2 -13   -3.20    6.10
   0   2 -13   -7.40    5.70
   0   2 -13   -1.50    6.40
   0   2 -13   -6.00    7.00
   0   2 -13    5.30    5.60
   0  -2  13   -1.20    6.00
   0  -2  13    0.70    4.40
   0  -2  13   -0.10    4.20
   0  -2  13    0.80    6.00
   0  -2  13   -1.70    4.60
  -1   2 -13   -2.00    5.80
  -1   2 -13   -2.50    7.20
  -1   2 -13    0.30    8.40
  -1   2 -13    1.20    4.10
  -1   2 -13   -2.00    5.50
   1  -2  13   -0.70    3.50
   1  -2  13   -1.10    3.90
   1  -2  13    3.50    4.60
   1  -2  13   -0.60    7.30
  -2   2 -13  160.78   16.60
  -2   2 -13  189.48   17.30
  -2   2 -13  202.38   20.50
   2  -2  13  197.98   18.10
   2  -2  13  137.69   18.80
   2  -2  13  155.28   15.30
   2  -2  13  155.18   15.40
  -3   2 -13  475.95   45.00
  -3   2 -13  538.65   44.00
  -3   2 -13  458.15   43.90
  -3   2 -13  447.36   45.90
  -3   2 -13  525.35   47.00
   3  -2  13  421.06   45.70
   3  -2  13  572.24   43.90
  -4   2 -13    1.20    8.70
  -4   2 -13    7.10    5.10
  -4   2 -13    2.00   10.70
  -4   2 -13    1.60    5.20
   4  -2  13    7.90    5.30
   4  -2  13    5.80    3.80
   4  -2  13    9.10    9.30
  -5   2 -13    0.80    7.40
  -5   2 -13   -2.20    6.50
  -5   2 -13    4.00    5.40
  -5   2 -13   -6.10    9.80
   5  -2  13   -4.00    4.10
   5  -2  13   -2.20    4.90
   5  -2  13   13.50    9.90
   4   1 -13   12.30    8.40
   4   1 -13   -3.90   11.10
   4   1 -13    3.20    7.30
  -4  -1  13  -14.90    8.10
  -4  -1  13    5.30    7.70
  -4  -1  13   -3.80    5.10
  -4  -1  13    1.70    4.70
  -4  -1  13    6.70    6.00
   3   1 -13   -5.00    5.20
   3   1 -13  -11.30    6.40
   3   1 -13    5.70    6.60
   3   1 -13   -5.60    6.10
  -3  -1  13    1.20    6.60
  -3  -1  13   -6.80    4.40
  -3  -1  13   -7.50    4.70
   2   1 -13   51.19    7.50
   2   1 -13   54.59   11.10
   2   1 -13   37.10    8.20
   2   1 -13   28.90    7.00
  -2  -1  13   38.00    6.80
  -2  -1  13   42.70    9.60
  -2  -1  13   25.70    7.60
  -2  -1  13   45.90    7.80
  -2  -1  13   35.30    7.00
   1   1 -13   41.40    7.70
   1   1 -13   21.00    7.80
   1   1 -13   24.00    7.90
  -1  -1  13   33.60    6.30
  -1  -1  13   37.30    9.30
  -1  -1  13   41.50    6.80
  -1  -1  13   44.20    8.00
   0   1 -13   -2.20    5.60
   0   1 -13   -0.20    6.40
   0   1 -13   -3.80    5.20
   0   1 -13    2.00    6.20
   0   1 -13   -1.50    6.40
   0  -1  13    2.40    4.40
   0  -1  13    1.10    4.10
   0  -1  13   -0.40    4.80
   0  -1  13    0.00    3.80
   0  -1  13    0.20    6.00
  -1   1 -13   -3.30    6.90
  -1   1 -13   -5.50    3.80
  -1   1 -13    4.20    7.50
  -1   1 -13    0.60    6.00
  -1   1 -13   -2.20    5.00
   1  -1  13   -3.70    6.90
   1  -1  13    2.70    3.80
   1  -1  13   -2.80    3.60
   1  -1  13   -4.40    4.50
   1  -1  13   -1.30    4.60
  -2   1 -13   14.30    7.30
  -2   1 -13   16.10    5.50
  -2   1 -13   26.30    9.00
  -2   1 -13   11.80    5.30
  -2   1 -13   11.00    6.60
   2  -1  13   17.60    5.20
   2  -1  13   15.20    5.40
   2  -1  13   11.30    9.50
   2  -1  13   10.80    2.80
  -3   1 -13   43.20   12.30
  -3   1 -13   49.90    8.20
  -3   1 -13   51.79   13.60
  -3   1 -13   53.79    9.00
  -3   1 -13   64.49   11.00
   3  -1  13   53.09    7.00
   3  -1  13   60.89    8.80
   3  -1  13   61.59   10.10
   3  -1  13   61.39   11.50
   3  -1  13   65.39    7.70
  -4   1 -13   20.80    8.40
  -4   1 -13   25.90    7.50
  -4   1 -13   34.30    6.50
  -4   1 -13   30.10    6.10
   4  -1  13   40.90    7.00
   4  -1  13   43.20    6.60
   4  -1  13   39.30   10.80
  -5   1 -13   -5.50    4.70
  -5   1 -13    1.00    4.40
  -5   1 -13   -3.50    8.30
  -5   1 -13   15.70   11.70
  -5   1 -13   -6.10    8.10
   5  -1  13    7.30    4.70
   5  -1  13    0.60    4.80
   5  -1  13    9.40    9.20
  -6   1 -13    6.00    4.70
  -6   1 -13   13.60   11.00
  -6   1 -13  -12.20    9.70
   6  -1  13   20.50   10.90
   6  -1  13    0.60    3.80
   4   0 -13   -2.60    7.00
   4   0 -13   -8.90   11.30
   4   0 -13    5.80    8.10
  -4   0  13   -4.50    5.30
  -4   0  13   -6.80    5.20
  -4   0  13   -9.30    5.40
  -4   0  13   -6.30    8.10
   3   0 -13    3.70    6.40
   3   0 -13    0.10    7.20
   3   0 -13   -7.30    6.50
   3   0 -13  -10.90   10.30
  -3   0  13    0.90    5.00
  -3   0  13   -5.50    5.00
  -3   0  13    1.40    6.60
  -3   0  13   -5.30    4.40
   2   0 -13   -2.00    5.00
   2   0 -13   -3.20    6.10
   2   0 -13  -12.40    6.20
  -2   0  13   -3.20    6.00
  -2   0  13   -6.90    4.40
  -2   0  13   -4.80    4.80
  -2   0  13   -5.10    4.60
   1   0 -13   12.20    6.90
   1   0 -13   10.80    4.60
   1   0 -13   13.40    5.00
   1   0 -13   14.50    4.70
   1   0 -13    9.10    5.70
  -1   0  13   20.40    4.70
  -1   0  13   13.20    5.80
  -1   0  13   13.70    4.90
  -1   0  13    8.50    6.90
  -1   0  13   12.90    5.30
   0   0 -13    2.60    6.60
   0   0 -13    3.80    6.00
   0   0 -13   -1.30    5.10
   0   0  13    4.60    6.90
   0   0  13   -5.10    6.40
   0   0  13    3.20    5.00
   0   0  13    3.30    5.00
   0   0  13   -2.30    4.10
  -1   0 -13    5.60    5.40
  -1   0 -13    3.10    6.30
  -1   0 -13    9.10    6.60
  -1   0 -13   10.80    7.50
  -1   0 -13    2.90    3.90
   1   0  13    6.30    5.20
   1   0  13   -1.30   10.80
   1   0  13   11.20    4.10
   1   0  13    6.70    4.00
   1   0  13    6.90    4.70
  -2   0 -13  159.38   17.50
  -2   0 -13  162.18   15.10
  -2   0 -13  139.59   16.40
  -2   0 -13  126.99   16.70
  -2   0 -13  135.09   14.90
   2   0  13  158.68   16.60
   2   0  13  156.28   14.40
   2   0  13  133.89   14.20
   2   0  13  175.78   14.70
  -3   0 -13  746.43   76.39
  -3   0 -13  785.92   76.09
  -3   0 -13  936.01   74.99
  -3   0 -13  840.92   74.89
  -3   0 -13  914.91   76.99
   3   0  13  862.41   76.59
   3   0  13  857.81   74.69
  -4   0 -13   13.80    5.90
  -4   0 -13   17.10    4.80
  -4   0 -13   10.20    6.40
  -4   0 -13   27.00   10.60
  -4   0 -13    8.20    7.30
  -4   0 -13   19.70    5.30
   4   0  13   23.90    4.70
   4   0  13   18.70    4.60
   4   0  13   13.70    8.80
   4   0  13   25.20    7.10
  -5   0 -13    5.00    4.80
  -5   0 -13   -1.70    4.10
  -5   0 -13   14.70   10.30
  -5   0 -13   -9.00    7.30
  -5   0 -13    1.60    8.40
  -5   0 -13   -2.50    6.70
   5   0  13    6.20    6.10
   5   0  13    5.80    9.20
   5   0  13    6.80    4.50
   5   0  13    2.20    5.40
  -6   0 -13   13.60    8.10
  -6   0 -13    2.60    4.60
  -6   0 -13  -10.60    9.20
   6   0  13   16.00    9.70
   6   0  13    6.20    7.60
   6   0  13   -4.20    4.20
   6   0  13    2.40    4.00
   4  -1 -13    2.90   11.00
   4  -1 -13  -11.00    8.10
  -4   1  13    2.60    5.30
  -4   1  13   -7.40    5.50
  -4   1  13   -5.20    8.50
   3  -1 -13   -7.70    6.50
   3  -1 -13   -5.30    5.90
   3  -1 -13  -10.20   10.20
   3  -1 -13   -6.60    7.60
  -3   1  13  -10.70    6.40
  -3   1  13   -0.90    5.30
  -3   1  13   -0.60    7.40
  -3   1  13   -4.70    4.50
   2  -1 -13    3.00    6.10
   2  -1 -13   11.10    5.00
   2  -1 -13   -7.50    9.70
   2  -1 -13    2.10    9.60
  -2   1  13   -6.00    6.40
  -2   1  13    3.30    5.80
  -2   1  13    1.30    4.40
  -2   1  13   -8.30    6.80
  -2   1  13    8.70    5.00
   1  -1 -13   42.50    7.30
   1  -1 -13   16.00    7.20
   1  -1 -13   33.70    7.40
   1  -1 -13   27.50    5.00
   1  -1 -13   21.80    9.20
   1  -1 -13   31.90    6.70
  -1   1  13   40.00    6.60
  -1   1  13   22.30    7.60
  -1   1  13   42.70    6.60
  -1   1  13   16.10    6.60
   0  -1 -13    1.30    2.10
   0  -1 -13    0.70    6.20
   0  -1 -13    3.00    8.00
   0  -1 -13    1.80    4.10
   0   1  13    1.60    4.30
   0   1  13    2.30    4.90
   0   1  13    0.00    5.40
   0   1  13    0.60    6.40
   0   1  13    2.10    8.10
   0   1  13    2.60    3.60
  -1  -1 -13    0.70    7.20
  -1  -1 -13    0.00   10.90
  -1  -1 -13   -3.70    5.10
  -1  -1 -13   -4.20    5.10
   1   1  13   -5.80    3.90
   1   1  13   -8.00    7.90
   1   1  13   -2.00    4.60
   1   1  13    5.20    4.40
   1   1  13   -4.10    4.80
  -2  -1 -13   15.70    5.40
  -2  -1 -13   18.30    6.40
  -2  -1 -13   10.70    7.70
  -2  -1 -13   15.70    9.30
  -2  -1 -13    6.80    6.90
   2   1  13    4.20   12.40
   2   1  13   12.90    5.90
   2   1  13   14.20    4.40
   2   1  13   23.40    6.20
   2   1  13   19.90    5.10
  -3  -1 -13  196.58   22.80
  -3  -1 -13  246.28   23.30
  -3  -1 -13  203.58   19.80
  -3  -1 -13  183.88   22.10
  -3  -1 -13  200.68   20.50
  -3  -1 -13  237.08   20.60
   3   1  13  221.28   22.60
   3   1  13  254.07   20.40
  -4  -1 -13  101.59   15.00
  -4  -1 -13  102.99   15.40
  -4  -1 -13  114.29   11.90
  -4  -1 -13  108.29   11.30
  -4  -1 -13   93.69   16.10
  -4  -1 -13   95.39   11.10
   4   1  13  106.99   14.30
   4   1  13  125.99   11.80
   4   1  13  122.09   13.20
   4   1  13  109.69   10.90
  -5  -1 -13   29.80    5.80
  -5  -1 -13   40.80    7.30
  -5  -1 -13   39.80   11.50
  -5  -1 -13   44.80    7.00
   5   1  13   34.70    9.70
   5   1  13   32.80    6.70
   5   1  13   30.90   10.10
   5   1  13   42.20    8.80
  -6  -1 -13   -4.90    7.00
  -6  -1 -13   -3.30    3.80
  -6  -1 -13    0.60    4.70
  -6  -1 -13  -14.30    8.70
   6   1  13   13.30    8.90
   6   1  13   -4.70    4.40
   6   1  13   10.90    9.80
   6   1  13   -1.30    5.80
   3  -2 -13   -5.80   13.10
   3  -2 -13   -3.50    8.00
   3  -2 -13    0.40   10.00
  -3   2  13   -6.60    7.90
  -3   2  13   -3.20    6.10
  -3   2  13    0.10    5.10
   2  -2 -13   -3.20    8.70
   2  -2 -13  -11.50   10.20
   2  -2 -13    5.50    7.80
  -2   2  13   -7.30    6.70
  -2   2  13   -6.90    5.10
  -2   2  13  -11.50    4.60
  -2   2  13   -3.20    6.50
  -2   2  13   -3.00    7.00
   1  -2 -13  165.58   19.30
   1  -2 -13  178.48   18.80
   1  -2 -13  159.58   17.30
   1  -2 -13  138.29   16.20
   1  -2 -13  163.18   19.30
  -1   2  13  179.68   18.60
  -1   2  13  146.99   18.00
  -1   2  13  174.48   16.00
  -1   2  13  147.69   17.00
  -1   2  13  171.58   16.10
   0  -2 -13  -11.60    5.40
   0  -2 -13    3.60    7.40
   0  -2 -13    6.00    5.60
   0  -2 -13   -8.10    5.20
   0  -2 -13  -10.80    6.10
   0   2  13    1.70    5.60
   0   2  13   -1.50    4.90
   0   2  13    0.30    6.00
   0   2  13   -3.60    7.60
   0   2  13   -5.00    4.50
  -1  -2 -13   -3.50    5.90
  -1  -2 -13   -9.40    5.10
  -1  -2 -13   -2.80    6.90
  -1  -2 -13   -1.30    5.30
   1   2  13   -2.40    4.40
   1   2  13    2.90    3.80
   1   2  13    2.80    5.30
   1   2  13    0.60    7.10
   1   2  13   -0.70    3.40
  -2  -2 -13   12.90    4.30
  -2  -2 -13   13.60    5.30
  -2  -2 -13    0.30    7.10
  -2  -2 -13    8.40    7.80
  -2  -2 -13    5.00    4.60
   2   2  13    1.10    5.70
   2   2  13   13.40    3.60
   2   2  13   13.20    5.00
   2   2  13   10.80    7.80
   2   2  13   19.20    4.10
  -3  -2 -13  613.24   49.60
  -3  -2 -13  587.14   49.40
  -3  -2 -13  539.45   51.69
  -3  -2 -13  487.85   49.30
   3   2  13  578.24   49.30
   3   2  13  524.25   50.69
   3   2  13  544.75   49.20
  -4  -2 -13  118.39   12.50
  -4  -2 -13  112.39   12.10
  -4  -2 -13  111.39   16.60
  -4  -2 -13  120.59   11.60
  -4  -2 -13  135.39   16.40
  -4  -2 -13  106.79   15.40
  -4  -2 -13   93.99   11.30
   4   2  13  115.79   14.50
   4   2  13  106.99   12.00
   4   2  13  124.59   14.60
   4   2  13  135.49   12.00
  -5  -2 -13   13.00    8.70
  -5  -2 -13   -2.40    4.70
  -5  -2 -13   -2.70    8.00
  -5  -2 -13    3.90    5.00
  -5  -2 -13   -5.20    5.00
   5   2  13   -1.10    6.10
   5   2  13    5.00    7.90
   5   2  13   -2.20    4.00
   5   2  13    6.80    7.70
  -6  -2 -13  -10.40    8.90
  -6  -2 -13   -1.70    4.50
  -6  -2 -13    3.30    5.10
   6   2  13   12.70    8.80
   6   2  13   -2.00    3.70
   6   2  13    8.80    6.60
   6   2  13   -3.20    4.30
   6   2  13    3.20    9.40
   3  -3 -13    3.30    8.20
   3  -3 -13   -6.90    8.10
   3  -3 -13    1.90    7.90
   3  -3 -13    6.00    8.90
  -3   3  13   -3.10    5.90
  -3   3  13  -12.20    5.50
  -3   3  13   -9.40    8.70
   2  -3 -13    8.20    8.50
   2  -3 -13   -2.70   10.60
   2  -3 -13  -11.60    7.10
  -2   3  13  -10.20    6.80
  -2   3  13   -8.10    7.80
  -2   3  13   -0.80    5.40
  -2   3  13   -0.80    5.50
  -2   3  13  -15.00    8.40
   1  -3 -13   49.40    8.90
   1  -3 -13   32.20    7.20
   1  -3 -13   29.40   12.00
   1  -3 -13   64.89   12.30
  -1   3  13   49.30    7.80
  -1   3  13   41.20    7.60
  -1   3  13   23.10    8.70
  -1   3  13   29.10    8.40
  -1   3  13   49.30    8.90
   0  -3 -13    0.40    6.10
   0  -3 -13   -4.10    6.20
   0  -3 -13    1.50    7.80
   0  -3 -13    2.90    5.90
   0   3  13    1.90    3.90
   0   3  13   -1.80    5.10
   0   3  13   -1.30    3.90
   0   3  13   -1.20    6.50
  -1  -3 -13    1.70    6.00
  -1  -3 -13    3.30    5.50
  -1  -3 -13   -0.80    5.50
  -1  -3 -13    0.70    5.70
   1   3  13    2.00    6.90
   1   3  13   -2.50    5.60
   1   3  13   -3.50    3.50
   1   3  13  -10.10    6.10
   1   3  13    5.30    4.90
  -2  -3 -13   12.30    5.70
  -2  -3 -13    3.20    5.40
  -2  -3 -13    3.20    6.70
  -2  -3 -13    0.40    6.00
   2   3  13    7.60    7.10
   2   3  13    9.60    4.50
   2   3  13    3.80    4.80
   2   3  13    0.80    5.10
  -3  -3 -13  312.37   27.30
  -3  -3 -13  270.67   30.10
  -3  -3 -13  246.78   26.90
  -3  -3 -13  307.77   27.70
   3   3  13  312.87   27.60
   3   3  13  279.57   28.20
   3   3  13  316.17   26.90
  -4  -3 -13   43.50    8.10
  -4  -3 -13   20.40    9.00
  -4  -3 -13   30.10    8.60
  -4  -3 -13   30.40    6.80
  -4  -3 -13   42.90    6.90
   4   3  13   37.20   11.10
   4   3  13   47.50    9.60
   4   3  13   39.70    6.80
  -5  -3 -13   68.09   14.50
  -5  -3 -13   83.49   15.90
  -5  -3 -13   79.69   10.50
  -5  -3 -13   91.69   10.20
  -5  -3 -13   97.69    9.90
   5   3  13   75.69   12.90
   5   3  13   90.59   10.20
   5   3  13   93.99   13.10
   5   3  13   91.19   12.90
   5   3  13  107.29   10.10
  -6  -3 -13   -6.60    9.30
  -6  -3 -13   -4.40    4.80
  -6  -3 -13   -5.30    3.50
  -6  -3 -13   -0.20    5.50
   6   3  13    5.90    4.60
   6   3  13    3.00    9.10
   6   3  13    1.80    6.30
   6   3  13   -0.50    4.90
   6   3  13   22.00   10.30
   2  -4 -13   11.70   11.40
   2  -4 -13    1.80    8.10
  -2   4  13   -4.50    5.80
  -2   4  13  -14.50    8.90
  -2   4  13    4.40    6.00
  -2   4  13   11.10    4.30
   1  -4 -13  153.68   19.30
   1  -4 -13  167.98   16.90
   1  -4 -13  155.28   19.60
  -1   4  13  164.18   15.90
  -1   4  13  147.39   15.30
  -1   4  13  136.49   20.10
  -1   4  13  152.18   15.90
   0  -4 -13   -0.50    7.30
   0  -4 -13    1.10    6.80
   0  -4 -13   -8.70    9.70
   0  -4 -13    9.50    6.40
   0   4  13    0.80    5.90
   0   4  13  -11.10    7.20
   0   4  13   -3.50    4.10
   0   4  13  -10.20    5.10
  -1  -4 -13   -2.90    8.10
  -1  -4 -13   -2.10    6.60
  -1  -4 -13   -2.50    6.00
  -1  -4 -13   -6.80    6.10
   1   4  13   -2.80    6.60
   1   4  13   -0.40    6.30
   1   4  13   -3.10    5.10
   1   4  13    5.40    5.30
  -2  -4 -13   -2.70    6.70
  -2  -4 -13   -5.10    6.10
  -2  -4 -13   -1.40    5.70
  -2  -4 -13    2.50    4.50
   2   4  13    3.40    5.20
   2   4  13   -2.50    7.00
   2   4  13   -3.50    4.70
   2   4  13   -6.10    7.90
  -3  -4 -13   86.89   12.00
  -3  -4 -13   52.29    9.40
  -3  -4 -13   53.69   14.50
  -3  -4 -13   71.89    9.80
   3   4  13   63.39    9.70
   3   4  13   74.59   10.40
   3   4  13   60.09   11.00
  -4  -4 -13   84.59   13.30
  -4  -4 -13   83.39   10.90
  -4  -4 -13   97.89   10.90
  -4  -4 -13   71.49   15.70
   4   4  13  102.19   12.80
   4   4  13   82.09   13.40
   4   4  13   75.19   13.50
   4   4  13  106.39   10.70
  -5  -4 -13   -1.50    5.40
  -5  -4 -13    3.30    5.60
  -5  -4 -13   -3.90    8.50
   5   4  13    1.70    6.60
   5   4  13    0.10    5.00
   5   4  13    6.80    8.80
   5   4  13    5.60    5.70
  -6  -4 -13  -17.20    9.60
  -6  -4 -13   -0.80    6.00
   6   4  13    2.30    5.70
   6   4  13   10.60   10.10
   6   4  13    1.00    9.90
   6   4  13    8.90    7.40
   1  -5 -13   33.50    9.10
   1  -5 -13   18.70   12.00
  -1   5  13   12.20    6.80
  -1   5  13   20.80    7.40
  -1   5  13   -6.00    9.50
   0  -5 -13    4.00   11.50
   0  -5 -13   -1.70    7.50
   0  -5 -13    6.60    8.90
   0   5  13    6.50    6.30
   0   5  13    2.20    6.50
  -1  -5 -13   -0.20    5.40
  -1  -5 -13   -0.40    6.50
  -1  -5 -13   -4.10    7.90
   1   5  13  -12.90    8.30
   1   5  13    6.10    6.30
   1   5  13   -0.60    6.20
   1   5  13    1.00    5.80
  -2  -5 -13   -4.40    6.70
  -2  -5 -13   -4.80    8.90
  -2  -5 -13    1.00    6.40
  -2  -5 -13   -8.60    7.80
   2   5  13   -4.40    5.50
   2   5  13    0.00    9.20
   2   5  13    6.00    6.90
   2   5  13  -11.90    7.50
   2   5  13    1.50    5.80
  -3  -5 -13  155.58   21.40
  -3  -5 -13  142.89   16.90
  -3  -5 -13  195.58   20.10
  -3  -5 -13  178.68   17.10
   3   5  13  174.88   16.70
   3   5  13  151.48   17.40
   3   5  13  156.68   19.00
   3   5  13  154.58   16.50
  -4  -5 -13  -13.10    8.70
  -4  -5 -13    7.20    6.20
  -4  -5 -13    1.80    6.20
  -4  -5 -13  -13.30    7.10
  -4  -5 -13    0.30    8.90
   4   5  13  -13.30   10.10
   4   5  13   -1.50    5.60
   4   5  13    0.60    7.20
   4   5  13   14.50    9.10
   4   5  13   -4.60    7.00
  -5  -5 -13   -5.40   13.70
  -5  -5 -13   32.50    6.80
  -5  -5 -13   32.30    7.20
  -5  -5 -13    2.70    9.20
  -5  -5 -13   12.80    7.60
   5   5  13   25.90   11.40
   5   5  13   38.50    7.30
   5   5  13   15.50    8.40
  -6  -5 -13   -1.00    6.80
   6   5  13    9.50    7.20
  -1  -6 -13   -8.60   11.30
  -1  -6 -13   11.00    8.20
   1   6  13    4.30    7.10
  -2  -6 -13   -4.40    7.10
  -2  -6 -13  -12.30    9.30
  -2  -6 -13    2.00    7.60
  -2  -6 -13  -17.40   11.20
   2   6  13   -1.30    6.80
  -3  -6 -13    0.30    6.90
  -3  -6 -13  -10.00    9.50
  -3  -6 -13   13.70    7.30
  -3  -6 -13   -4.60    9.20
   3   6  13    8.10    6.80
   3   6  13  -12.30    8.20
  -4  -6 -13    7.60   10.20
  -4  -6 -13    6.70    9.70
  -4  -6 -13   29.50    7.50
  -4  -6 -13   33.60    7.80
   4   6  13   25.90    7.10
   2   5 -14    6.30    8.90
  -2  -5  14    3.60    7.10
  -2  -5  14   17.70    7.30
  -2  -5  14    2.20    8.10
  -2  -5  14    6.20    7.40
   1   5 -14   -0.40    6.50
   1   5 -14   -7.00    9.00
   1   5 -14   -4.30    7.40
   1   5 -14    7.10   14.60
  -1  -5  14   15.80    9.30
  -1  -5  14    2.70    5.30
  -1  -5  14   -3.60    5.50
   0   5 -14   -7.20    9.10
   0   5 -14    0.90    7.90
   0   5 -14   -6.60    7.90
   0   5 -14   -0.50    6.80
   0  -5  14    9.10   10.30
   0  -5  14   -1.20    6.60
  -1   5 -14   -7.80   10.00
  -1   5 -14    4.60    7.60
  -1   5 -14   -2.50    6.40
  -1   5 -14   -0.80    8.00
   1  -5  14    1.80    7.10
   1  -5  14   27.80   12.50
   3   4 -14   17.30    8.90
  -3  -4  14    3.70    5.90
  -3  -4  14    2.90    6.30
   2   4 -14    1.50    8.10
   2   4 -14   -1.50    8.10
  -2  -4  14   -6.40    5.30
  -2  -4  14    6.10    6.60
  -2  -4  14    3.60    6.10
   1   4 -14    0.50    8.30
   1   4 -14   21.80    7.60
   1   4 -14   15.20    8.10
   1   4 -14   14.50    7.70
  -1  -4  14   15.20    4.70
  -1  -4  14    8.60    6.50
   0   4 -14    0.20    8.40
   0   4 -14    2.90    6.80
   0   4 -14    3.00    7.00
   0   4 -14    4.30    7.40
   0  -4  14    8.90    5.30
   0  -4  14   -0.90    6.10
   0  -4  14   10.10    5.30
   0  -4  14   11.10    8.70
  -1   4 -14   -0.60    6.80
  -1   4 -14    1.20    6.00
  -1   4 -14   -3.50    8.50
  -1   4 -14   -5.30    6.70
   1  -4  14   -9.20    6.00
   1  -4  14   18.00   10.50
   1  -4  14   -1.10    4.90
   1  -4  14   -4.50    5.80
  -2   4 -14    8.50    7.70
  -2   4 -14    3.60    6.00
  -2   4 -14    4.40    9.50
  -2   4 -14    8.30    6.90
   2  -4  14    3.00    6.40
   2  -4  14   27.70   12.40
  -3   4 -14  -12.70    7.30
  -3   4 -14   -4.00    5.60
  -3   4 -14   -0.50    6.80
  -3   4 -14    4.40    9.70
   3  -4  14   -6.60   10.90
   3  -4  14    5.10    7.70
   3  -4  14   22.70   13.20
   3   3 -14   10.50    8.20
  -3  -3  14    0.80    5.70
  -3  -3  14    4.50    5.40
  -3  -3  14    4.90    7.40
   2   3 -14   -2.40    6.60
   2   3 -14   -1.10    7.30
   2   3 -14  -14.70    7.00
  -2  -3  14    7.50    6.60
  -2  -3  14    7.50    6.30
  -2  -3  14   -2.60    5.60
  -2  -3  14   -1.30    5.10
   1   3 -14   -8.60    7.40
   1   3 -14    0.50    5.20
   1   3 -14   -9.80    7.10
   1   3 -14    1.40    7.00
  -1  -3  14   -8.00    6.30
  -1  -3  14   -8.40    5.00
  -1  -3  14    2.80    6.40
  -1  -3  14    8.60    6.10
  -1  -3  14    7.80    4.30
  -1  -3  14   -3.20    5.40
   0   3 -14   27.60    7.50
   0   3 -14   23.50    7.50
   0  -3  14   36.10    7.60
   0  -3  14   34.80    8.40
   0  -3  14   35.90    6.90
   0  -3  14   40.50    7.10
  -1   3 -14   -1.20    7.70
  -1   3 -14    7.10    6.40
  -1   3 -14    4.80    6.50
  -1   3 -14    5.60    6.30
  -1   3 -14  -15.10    9.80
   1  -3  14    5.80    4.10
   1  -3  14   12.00    4.70
   1  -3  14   -3.10    6.60
   1  -3  14   12.70    5.70
  -2   3 -14   -1.40    5.90
  -2   3 -14  -12.40    8.00
  -2   3 -14   -7.40    5.70
  -2   3 -14    9.50    6.10
   2  -3  14    1.40    2.70
   2  -3  14    7.80    5.70
  -3   3 -14   -9.90    6.30
  -3   3 -14   -1.70    6.10
  -3   3 -14   -4.10    9.20
   3  -3  14    1.10    4.40
   3  -3  14   -9.20   10.30
   3  -3  14    0.50    6.40
  -4   3 -14    7.10    7.00
  -4   3 -14    8.90   10.20
  -4   3 -14   -2.00    6.60
   4  -3  14    9.10   10.90
   4  -3  14    4.90    5.80
   4   2 -14   -2.40    8.20
   4   2 -14    5.40    9.40
  -4  -2  14   -0.50    5.10
  -4  -2  14    2.50    6.50
  -4  -2  14    3.50    8.40
   3   2 -14   -0.50    7.60
   3   2 -14   -4.80    6.50
   3   2 -14    6.80    8.00
  -3  -2  14    3.20    5.20
  -3  -2  14    4.70    7.20
  -3  -2  14    0.30    6.10
   2   2 -14   -8.80    6.70
   2   2 -14   -4.40    6.60
   2   2 -14   -2.80    5.80
   2   2 -14   -4.20    6.70
  -2  -2  14   -7.80    4.70
  -2  -2  14    1.00    6.00
  -2  -2  14    6.20    4.20
  -2  -2  14    4.00    5.40
   1   2 -14   53.69    9.30
   1   2 -14   32.30    7.20
   1   2 -14   51.39   12.90
  -1  -2  14   51.99    9.10
  -1  -2  14   42.40    7.80
  -1  -2  14   40.80    7.50
  -1  -2  14   54.39    8.50
   0   2 -14   41.90   12.90
   0   2 -14   56.39    9.10
   0   2 -14   47.40    9.10
   0  -2  14   50.19    7.80
   0  -2  14   61.79   10.60
   0  -2  14   57.49    8.40
   0  -2  14   59.29   11.50
   0  -2  14   58.99    9.90
  -1   2 -14    5.20    5.70
  -1   2 -14    6.10    9.80
  -1   2 -14   -1.00    6.40
  -1   2 -14   16.40    5.90
  -1   2 -14    2.90    7.40
   1  -2  14    5.70    4.10
   1  -2  14   -5.00    6.00
   1  -2  14    5.40    7.20
   1  -2  14    6.10    5.00
   1  -2  14    5.20    3.80
  -2   2 -14    2.00    7.00
  -2   2 -14    4.70    5.80
  -2   2 -14   -2.50    5.20
  -2   2 -14   -3.40    7.90
  -2   2 -14   18.40    9.60
   2  -2  14   -2.90    3.70
   2  -2  14   10.80    5.60
   2  -2  14    2.00    2.50
   2  -2  14   13.90    5.20
   2  -2  14    1.70    9.80
   2  -2  14   -2.40    2.40
  -3   2 -14   -6.30    5.90
  -3   2 -14    2.50    6.00
  -3   2 -14    1.50   10.10
  -3   2 -14    3.20    8.60
  -3   2 -14   -4.10    5.40
   3  -2  14   -1.30    5.10
   3  -2  14    0.20    9.50
   3  -2  14    7.00    2.80
   3  -2  14    4.70    3.40
  -4   2 -14   -9.10    5.80
  -4   2 -14    0.10    9.00
  -4   2 -14   -9.00   11.80
  -4   2 -14   -7.00    5.60
   4  -2  14    3.20    5.00
   4  -2  14    0.70    4.00
   4  -2  14   13.50    9.10
  -5   2 -14   -6.00   10.10
  -5   2 -14    9.30    9.80
  -5   2 -14    6.00    6.40
   5  -2  14   -4.80    5.60
   5  -2  14   29.10   11.30
   4   1 -14   -8.70   12.20
   4   1 -14   -0.20    8.20
   4   1 -14    6.60    8.60
  -4  -1  14    6.50    5.90
  -4  -1  14   -2.70    7.40
  -4  -1  14    5.00    8.70
  -4  -1  14   -8.70    5.10
   3   1 -14   -3.20    7.20
   3   1 -14   -6.70    7.00
   3   1 -14   -9.40    6.70
  -3  -1  14    1.00    4.60
  -3  -1  14   -5.20    4.80
  -3  -1  14   -1.40    5.20
  -3  -1  14    5.20    7.30
   2   1 -14   14.40    6.10
   2   1 -14    8.70    6.20
   2   1 -14    0.10    7.10
   2   1 -14    4.70    6.80
  -2  -1  14    8.40    4.90
  -2  -1  14   -6.70    7.20
  -2  -1  14    7.40    6.30
  -2  -1  14   15.30    5.20
  -2  -1  14   -0.80    5.10
   1   1 -14    3.60    7.70
   1   1 -14    7.40    5.20
   1   1 -14    0.90    4.70
  -1  -1  14    5.30    5.30
  -1  -1  14    4.20    5.90
  -1  -1  14    6.60    5.00
  -1  -1  14    4.10    6.90
  -1  -1  14    9.10    5.00
   0   1 -14   84.79   11.00
   0   1 -14   86.29   11.10
   0   1 -14   92.09   13.90
   0   1 -14   80.89   10.90
   0  -1  14   93.89   12.00
   0  -1  14   83.59   13.30
   0  -1  14   74.29   10.60
   0  -1  14   94.59    9.90
   0  -1  14   95.39   10.20
  -1   1 -14    5.60    5.70
  -1   1 -14    9.40    7.70
  -1   1 -14   -4.80    6.50
  -1   1 -14   -2.50    7.00
  -1   1 -14    1.30    5.50
   1  -1  14  -12.70    9.30
   1  -1  14    3.30    3.90
   1  -1  14    0.70    4.70
   1  -1  14   -6.90    5.60
   1  -1  14   -4.50    4.10
   1  -1  14   -1.40    5.10
  -2   1 -14    8.10    5.40
  -2   1 -14    4.90    6.10
  -2   1 -14    2.20    7.80
  -2   1 -14   25.30    9.80
  -2   1 -14    2.90    6.70
   2  -1  14   10.30    5.20
   2  -1  14    3.60    7.30
   2  -1  14    3.40    2.80
  -3   1 -14  -11.10    5.30
  -3   1 -14   -6.80    7.90
  -3   1 -14   -5.90    6.30
  -3   1 -14   -8.00    9.30
   3  -1  14    3.10    9.20
   3  -1  14    0.10    4.60
   3  -1  14    7.70    5.30
  -4   1 -14   17.90    5.20
  -4   1 -14   18.30    9.30
  -4   1 -14   16.00    7.10
  -4   1 -14   22.10    6.20
   4  -1  14   19.30    4.40
   4  -1  14   34.40   10.50
   4  -1  14   20.80    5.80
  -5   1 -14    6.60    5.70
  -5   1 -14   -0.70    9.60
  -5   1 -14    3.60    8.70
  -5   1 -14   -3.30    4.90
   5  -1  14   -3.20    4.20
   5  -1  14    7.20    9.90
   5  -1  14    0.20    4.80
   3   0 -14  -10.60    9.40
   3   0 -14    0.40    8.30
   3   0 -14   10.50    6.90
  -3   0  14   -2.00    7.20
  -3   0  14    0.30    5.50
  -3   0  14   -6.30    5.30
  -3   0  14   -0.60    5.60
   2   0 -14   -8.10    5.50
   2   0 -14    3.20    5.20
   2   0 -14  -11.70    9.50
   2   0 -14   -2.80    5.40
   2   0 -14   -2.30    6.60
  -2   0  14   -9.20    5.10
  -2   0  14   -7.90    4.70
  -2   0  14   -3.30    6.80
  -2   0  14   -4.10    5.70
  -2   0  14   -6.60    5.30
   1   0 -14   43.00   13.60
   1   0 -14   54.59    9.00
   1   0 -14   44.50    7.00
   1   0 -14   75.09    9.70
   1   0 -14   62.39    7.60
  -1   0  14   70.89   11.40
  -1   0  14   65.99    8.10
  -1   0  14   39.30   11.80
  -1   0  14   42.70   11.50
  -1   0  14   74.49    8.50
   0   0 -14   60.89   10.20
   0   0 -14   75.99   10.50
   0   0 -14   81.99   13.90
   0   0 -14   76.29   10.30
   0   0  14   68.69   12.60
   0   0  14   86.29    9.60
   0   0  14   99.89   11.80
   0   0  14   75.19   11.00
   0   0  14   79.79    9.30
  -1   0 -14   -2.60    6.60
  -1   0 -14    2.70    5.50
  -1   0 -14    7.80    7.40
  -1   0 -14   -2.00    7.20
  -1   0 -14   -1.70    5.40
   1   0  14   -2.10    5.20
   1   0  14    0.90    4.20
   1   0  14   -4.50    3.90
   1   0  14   -5.30    4.90
  -2   0 -14   -9.70    5.10
  -2   0 -14    3.90    8.10
  -2   0 -14   -9.20    6.40
  -2   0 -14   -8.40    7.30
  -2   0 -14   -8.10    5.00
   2   0  14  -10.50    4.70
   2   0  14   -8.20    8.30
   2   0  14   -6.70    5.30
  -3   0 -14   25.90    6.20
  -3   0 -14   34.40    9.90
  -3   0 -14   35.60    7.00
  -3   0 -14   19.50    8.80
   3   0  14   36.10   10.40
   3   0  14   28.80    7.20
   3   0  14   34.00    6.50
  -4   0 -14    3.50    7.80
  -4   0 -14    8.00    5.60
  -4   0 -14   14.80    6.00
  -4   0 -14   -3.50    8.40
  -4   0 -14   22.20    6.10
   4   0  14   19.70    9.50
   4   0  14    9.10    5.30
  -5   0 -14   32.60   12.00
  -5   0 -14   19.70    5.80
  -5   0 -14   16.30    5.00
  -5   0 -14    3.20    9.00
  -5   0 -14   30.40    7.00
   5   0  14   15.20    4.50
   5   0  14   13.00    4.80
   5   0  14   13.00    6.30
   5   0  14   30.30    7.80
   5   0  14   23.30    9.40
  -6   0 -14   -5.70   10.40
  -6   0 -14   22.20    9.10
  -6   0 -14    6.80    5.50
   6   0  14   21.80   10.60
   6   0  14    6.80    4.50
   3  -1 -14    5.00    8.40
   3  -1 -14  -14.00   10.30
  -3   1  14   -0.10    4.90
  -3   1  14   -6.20    5.60
  -3   1  14   -4.00    7.60
   2  -1 -14    6.60    7.80
   2  -1 -14   22.80    8.30
   2  -1 -14    8.30    6.20
   2  -1 -14    9.80    7.00
   2  -1 -14    2.80   11.00
  -2   1  14    8.10    7.20
  -2   1  14    2.60    7.60
  -2   1  14    8.30    5.60
  -2   1  14   16.30    5.20
  -2   1  14    8.20    6.50
   1  -1 -14  107.09   11.50
   1  -1 -14  120.89   15.10
   1  -1 -14   74.99    9.40
   1  -1 -14   90.99   10.70
   1  -1 -14   90.89   11.70
  -1   1  14  108.59   10.70
  -1   1  14   82.69   12.70
  -1   1  14   74.29   13.80
  -1   1  14  106.19   13.40
  -1   1  14   96.09   10.80
   0  -1 -14   33.30    8.10
   0  -1 -14   27.90    8.40
   0  -1 -14   41.10    8.00
   0  -1 -14   28.40    3.70
   0  -1 -14   31.90    6.70
   0   1  14   38.90    6.90
   0   1  14   28.80   16.00
   0   1  14   30.90    8.40
   0   1  14   18.80    6.40
   0   1  14   35.90    6.70
  -1  -1 -14    0.30    5.50
  -1  -1 -14    5.20    7.40
  -1  -1 -14    4.70    5.70
  -1  -1 -14    2.90    7.60
   1   1  14   -0.30    5.30
   1   1  14   -7.10    7.90
   1   1  14   -4.40    7.00
   1   1  14   -0.80    4.80
   1   1  14    7.90    4.40
  -2  -1 -14    3.10    2.40
  -2  -1 -14   14.90    8.70
  -2  -1 -14    7.80    5.50
  -2  -1 -14    7.70    8.00
  -2  -1 -14   -5.80    6.70
  -2  -1 -14    6.30    5.20
   2   1  14    7.80    6.10
   2   1  14    2.90    8.20
   2   1  14   13.40    5.00
   2   1  14    5.50    4.20
   2   1  14    8.90    5.60
  -3  -1 -14    9.10    7.80
  -3  -1 -14   21.40    5.90
  -3  -1 -14   20.90    4.50
  -3  -1 -14   24.90    6.00
  -3  -1 -14   14.60    8.10
  -3  -1 -14   20.90   10.10
   3   1  14   18.20    5.40
   3   1  14   22.80    7.10
  -4  -1 -14  142.49   14.40
  -4  -1 -14  136.19   19.70
  -4  -1 -14  118.89   18.50
  -4  -1 -14  102.09   17.60
  -4  -1 -14  137.19   13.90
  -4  -1 -14  134.49   13.60
   4   1  14  148.59   15.40
   4   1  14  154.88   14.30
  -5  -1 -14   -0.60    8.80
  -5  -1 -14   28.60   11.90
  -5  -1 -14    9.20    5.80
  -5  -1 -14   12.30    5.40
  -5  -1 -14   -2.50    4.70
   5   1  14    2.00    6.30
   5   1  14   19.80    9.10
   5   1  14    3.20    3.70
   5   1  14   19.90    7.40
   5   1  14    7.00    5.10
  -6  -1 -14    5.90    5.10
  -6  -1 -14    0.50    6.10
  -6  -1 -14  -12.50    9.70
  -6  -1 -14    9.50    7.40
   6   1  14    2.50    4.70
   6   1  14   15.70    8.50
   6   1  14   15.60   10.20
   6   1  14   -2.90    4.20
   3  -2 -14   -7.60    8.90
   3  -2 -14   -9.70   11.80
  -3   2  14   -6.20    6.70
  -3   2  14   -9.30    8.40
  -3   2  14  -14.70    8.50
  -3   2  14  -11.10    5.30
   2  -2 -14   -1.90    7.20
   2  -2 -14  -16.40   10.80
   2  -2 -14    9.80    8.20
  -2   2  14   -6.60    5.30
  -2   2  14  -10.10    6.90
  -2   2  14   -3.50    7.40
  -2   2  14   -8.70    5.50
   1  -2 -14   57.79   13.30
   1  -2 -14   43.90    8.10
   1  -2 -14   68.59   12.30
   1  -2 -14   55.79    9.40
  -1   2  14   70.79    8.80
  -1   2  14   62.29   14.10
  -1   2  14   60.09   11.60
  -1   2  14   66.49    8.60
  -1   2  14   44.40   11.10
   0  -2 -14   20.40    7.00
   0  -2 -14   10.70    7.60
   0  -2 -14   10.80    6.20
   0  -2 -14   19.80    6.60
   0   2  14   15.50    5.60
   0   2  14    6.70    6.70
   0   2  14    3.60    8.60
   0   2  14   18.90    5.40
   0   2  14   20.90    8.30
  -1  -2 -14   -0.40    5.60
  -1  -2 -14    3.30    5.10
  -1  -2 -14   -2.10    5.50
  -1  -2 -14  -10.30    7.60
   1   2  14    2.50    3.90
   1   2  14    1.90    4.60
   1   2  14   -9.00    8.10
   1   2  14    5.30    6.00
   1   2  14   -3.70    5.10
  -2  -2 -14    0.00    4.10
  -2  -2 -14   -9.90    5.50
  -2  -2 -14   -2.70    4.70
  -2  -2 -14   -1.70    7.90
   2   2  14   -8.70    7.80
   2   2  14   -4.40    5.60
   2   2  14   -6.20    4.90
   2   2  14   -6.60    4.60
   2   2  14   -2.60    4.30
  -3  -2 -14   74.69   15.00
  -3  -2 -14   86.19   10.30
  -3  -2 -14   89.69   10.30
  -3  -2 -14   71.79   13.00
  -3  -2 -14   87.49   10.90
   3   2  14   80.19   10.20
   3   2  14   99.69   10.10
   3   2  14   87.19   12.50
  -4  -2 -14  104.79   12.60
  -4  -2 -14  116.39   17.00
  -4  -2 -14  124.19   12.70
  -4  -2 -14  116.69   18.00
  -4  -2 -14  119.19   11.80
   4   2  14  128.29   15.20
   4   2  14  122.39   12.40
   4   2  14  115.39   15.10
  -5  -2 -14    4.90    9.00
  -5  -2 -14   -5.10    5.10
  -5  -2 -14    4.10    5.50
  -5  -2 -14    3.60    5.30
  -5  -2 -14   23.80   11.60
  -5  -2 -14   -6.60    7.50
   5   2  14    7.00    7.90
   5   2  14    6.80    6.40
   5   2  14    5.60    4.50
   5   2  14   14.20    9.10
   5   2  14    3.10    5.10
  -6  -2 -14  -13.20    9.60
  -6  -2 -14   -1.00    5.40
  -6  -2 -14    1.20    8.00
   6   2  14   17.90   10.10
   6   2  14   -3.50    4.20
   6   2  14   13.80    8.50
   6   2  14   -3.90    4.80
   2  -3 -14    9.30    8.00
   2  -3 -14    9.20   12.00
  -2   3  14   -1.40    7.90
  -2   3  14   10.90    6.00
  -2   3  14    5.10    6.10
  -2   3  14   -5.90    7.40
   1  -3 -14   76.89   14.20
   1  -3 -14   63.19   14.30
   1  -3 -14   55.19    9.10
   1  -3 -14   67.69   10.30
   1  -3 -14   60.99   13.90
  -1   3  14   78.29   11.30
  -1   3  14   72.39    9.60
  -1   3  14   73.79    9.60
  -1   3  14   54.09   14.30
  -1   3  14   61.39   13.10
   0  -3 -14    4.70    7.30
   0  -3 -14   -4.90    6.10
   0  -3 -14   -7.60    8.20
   0  -3 -14   -1.60    6.60
   0  -3 -14   -5.10    9.00
   0   3  14    1.60    5.50
   0   3  14   -9.40    6.40
   0   3  14   -6.70    7.10
   0   3  14    0.80    7.10
   0   3  14    2.10    5.40
  -1  -3 -14    2.90    6.10
  -1  -3 -14    2.70    6.00
  -1  -3 -14  -11.60    7.70
  -1  -3 -14   -9.10    5.70
   1   3  14    5.90    5.10
   1   3  14   -0.70    7.80
   1   3  14   -4.40    4.90
  -2  -3 -14    0.60    5.50
  -2  -3 -14   -0.60    5.80
  -2  -3 -14   -4.90    8.10
  -2  -3 -14   -2.30    5.00
   2   3  14   -3.50    4.70
   2   3  14   -4.00    4.80
   2   3  14    0.20    8.70
  -3  -3 -14   75.39    9.50
  -3  -3 -14   66.49    9.50
  -3  -3 -14   73.89   10.70
  -3  -3 -14   53.69   11.70
   3   3  14   75.09   11.90
   3   3  14   48.70    9.50
   3   3  14   74.49    8.90
  -4  -3 -14   73.59   16.00
  -4  -3 -14   80.19   11.30
  -4  -3 -14   73.79    9.80
  -4  -3 -14   79.99   10.60
  -4  -3 -14   60.79   14.60
   4   3  14   60.09   12.10
   4   3  14   80.29   11.70
   4   3  14   88.39    9.60
   4   3  14   71.29   12.00
  -5  -3 -14   17.60    5.80
  -5  -3 -14   18.80    6.00
  -5  -3 -14   10.40    4.20
  -5  -3 -14    5.80    9.70
   5   3  14   12.10    7.00
   5   3  14   20.10    4.90
   5   3  14   34.40    9.90
   5   3  14   20.50   10.30
   5   3  14   20.30    5.30
  -6  -3 -14    0.70    6.10
  -6  -3 -14   -1.60    4.20
  -6  -3 -14   -1.60    7.10
  -6  -3 -14  -15.60    9.00
   6   3  14    1.00    5.40
   6   3  14    9.70    9.50
   6   3  14    7.20    9.20
   1  -4 -14   19.30   10.20
   1  -4 -14   53.99   10.40
  -1   4  14    6.80    9.30
  -1   4  14   48.40    8.30
  -1   4  14   28.20    7.30
   0  -4 -14    6.70    7.80
   0  -4 -14    1.40    7.20
   0  -4 -14    1.40    6.70
   0   4  14    3.80    6.00
   0   4  14    4.90    6.00
   0   4  14   12.10    6.80
  -1  -4 -14   -6.70    6.80
  -1  -4 -14   -5.40    6.60
  -1  -4 -14    5.10    5.20
  -1  -4 -14  -10.20    8.60
   1   4  14   -1.60    4.20
   1   4  14   -3.70    7.20
   1   4  14   -0.40    5.80
   1   4  14   13.80    6.90
  -2  -4 -14   -5.10    6.30
  -2  -4 -14   -6.90    6.30
  -2  -4 -14   -3.60    6.30
   2   4  14   -6.80    3.80
   2   4  14    8.10   10.50
   2   4  14   -3.90    4.10
  -3  -4 -14   69.49    9.80
  -3  -4 -14   53.39    9.60
  -3  -4 -14   67.69   11.80
   3   4  14   57.29    8.70
   3   4  14   50.69   11.00
   3   4  14   62.29    9.10
   3   4  14   63.19   10.40
  -4  -4 -14  150.98   16.20
  -4  -4 -14  108.79   19.30
  -4  -4 -14  126.09   14.40
  -4  -4 -14  115.09   18.70
  -4  -4 -14  160.48   14.40
   4   4  14  115.89   17.20
   4   4  14  119.79   17.10
   4   4  14  160.18   14.90
   4   4  14  128.79   15.80
  -5  -4 -14   10.10    6.30
  -5  -4 -14   -8.10    9.60
  -5  -4 -14   -5.30    5.20
  -5  -4 -14   -5.20    5.90
   5   4  14   -2.60    8.00
   5   4  14   20.30    9.90
   5   4  14    1.40   10.20
   5   4  14    2.00    6.20
  -6  -4 -14    1.40    6.40
   6   4  14   19.20   10.80
   6   4  14   -7.90    6.20
   6   4  14   20.70   10.70
   0  -5 -14    0.60   12.10
   0  -5 -14    3.40    8.60
   0   5  14    6.10    7.00
   0   5  14    1.60    6.70
  -1  -5 -14  -11.10    7.60
  -1  -5 -14   -1.50    7.60
  -1  -5 -14   -4.00    8.20
   1   5  14  -11.80    6.30
   1   5  14    7.00    6.70
   1   5  14   -3.40    6.30
  -2  -5 -14   -2.40    6.80
  -2  -5 -14   -2.50    6.80
  -2  -5 -14   -3.40    7.40
   2   5  14    0.10    7.10
   2   5  14   -7.90    6.10
   2   5  14   12.00    7.40
  -3  -5 -14   22.10    8.20
  -3  -5 -14   21.20    7.30
  -3  -5 -14   23.80   10.70
   3   5  14   43.30    8.20
   3   5  14   17.30    7.40
  -4  -5 -14   -0.90    6.80
  -4  -5 -14   -3.90    9.60
  -4  -5 -14    8.60    6.80
  -4  -5 -14    1.70    7.60
   4   5  14   18.10    6.40
  -5  -5 -14    4.50    7.20
  -5  -5 -14    5.40    7.00
  -5  -5 -14  -11.20    9.70
   5   5  14   21.90   10.90
   5   5  14   -8.50   11.60
  -2  -6 -14   -8.20    7.70
   2   6  14   -6.10    7.20
  -3  -6 -14   29.50    7.90
  -3  -6 -14   -8.40   11.90
  -3  -6 -14    7.60    9.20
  -3  -6 -14   14.50    7.90
   3   6  14   20.90    7.50
   2   4 -15    2.30    8.90
  -2  -4  15    1.80    5.90
  -2  -4  15   -4.30    6.40
  -2  -4  15   15.40    7.50
   1   4 -15    4.30    8.30
   1   4 -15   -4.40    8.80
   1   4 -15    8.60    9.30
   1   4 -15   -5.30    7.70
  -1  -4  15    0.40    6.20
  -1  -4  15    7.40    6.80
  -1  -4  15    7.10    6.60
   0   4 -15    6.50    8.00
   0   4 -15    0.90    9.50
   0   4 -15   11.70    7.80
   0   4 -15    1.70    7.40
   0  -4  15   17.30    6.10
   0  -4  15    5.40    6.70
  -1   4 -15   10.30    7.40
  -1   4 -15   20.80    7.60
  -1   4 -15   -4.60    9.30
  -1   4 -15    0.30    7.00
   1  -4  15   14.00   10.90
   1  -4  15   10.30    4.90
   1  -4  15   15.10    6.90
  -2   4 -15  -13.10   10.00
  -2   4 -15   -1.20    6.50
  -2   4 -15   -6.10    7.00
  -2   4 -15    4.10    7.30
   2  -4  15   -2.90    6.60
   2  -4  15    3.50    3.60
   2  -4  15   11.90   12.80
   3   3 -15    7.90    8.70
  -3  -3  15   -2.50    6.20
  -3  -3  15   22.60    9.20
  -3  -3  15    7.80    6.20
  -3  -3  15    8.80    7.90
   2   3 -15   -6.00    8.10
  -2  -3  15   10.90    7.30
  -2  -3  15    1.20    6.00
  -2  -3  15    9.30    6.80
  -2  -3  15    2.20    5.60
  -2  -3  15   -9.60    6.00
   1   3 -15   17.80    6.40
   1   3 -15   19.40    9.00
   1   3 -15   30.80    8.40
   1   3 -15   17.20    8.80
  -1  -3  15   24.10    7.30
  -1  -3  15   39.20    7.50
  -1  -3  15   35.60    7.60
  -1  -3  15   26.00    6.90
   0   3 -15    9.20    7.30
   0   3 -15    5.10    8.10
   0   3 -15   14.00    7.40
   0   3 -15    4.80    7.90
   0  -3  15   13.00    6.30
   0  -3  15   15.60    5.60
   0  -3  15   15.60    5.70
   0  -3  15    2.70    7.20
  -1   3 -15    8.80    8.60
  -1   3 -15   -1.10    6.90
  -1   3 -15   10.60    6.80
  -1   3 -15   19.00    6.70
   1  -3  15   21.60    6.20
   1  -3  15    5.40    4.90
   1  -3  15   -2.40    7.30
   1  -3  15   11.50    4.50
  -2   3 -15   -6.00    8.90
  -2   3 -15    0.90    6.70
  -2   3 -15   -4.60    6.40
  -2   3 -15    0.10    6.20
   2  -3  15  -15.70   10.40
   2  -3  15    0.20    2.70
   2  -3  15    2.90    6.00
  -3   3 -15    4.90    7.50
  -3   3 -15    5.40    7.10
  -3   3 -15  -10.20    6.70
  -3   3 -15   -1.50    9.90
   3  -3  15  -11.10   10.90
   3  -3  15   -5.10    6.10
   3   2 -15    4.20    8.40
   3   2 -15  -10.80    7.10
   3   2 -15   -0.10    8.40
  -3  -2  15    0.10    5.70
  -3  -2  15    1.90    8.20
  -3  -2  15    6.80    4.50
  -3  -2  15   -3.20    5.80
   2   2 -15  -12.00    7.20
   2   2 -15    2.00    7.40
   2   2 -15   -1.40    8.20
  -2  -2  15   -3.40    6.40
  -2  -2  15   -4.90    5.30
  -2  -2  15    3.70    4.70
  -2  -2  15    2.70    5.50
   1   2 -15   -7.40    5.30
   1   2 -15   -9.50    7.30
   1   2 -15  -12.30    7.00
   1   2 -15   -7.00    6.60
  -1  -2  15    0.20    5.50
  -1  -2  15    9.00    5.20
  -1  -2  15    1.70    5.60
  -1  -2  15   -5.20    5.20
   0   2 -15    7.90    7.70
   0   2 -15   -8.20    8.40
   0   2 -15    2.30    7.30
   0   2 -15   11.30    7.00
   0   2 -15    6.10    6.80
   0  -2  15   18.20    5.70
   0  -2  15   -1.80    6.80
   0  -2  15   20.60    5.40
   0  -2  15   11.40    5.30
  -1   2 -15   18.10    6.40
  -1   2 -15    4.90    7.40
  -1   2 -15    8.60    9.30
  -1   2 -15    4.70    8.30
  -1   2 -15    9.50    6.60
   1  -2  15   15.00    5.80
   1  -2  15   14.50    4.70
   1  -2  15   13.00    5.60
   1  -2  15   -1.00    6.60
   1  -2  15    8.60    4.40
  -2   2 -15   -2.80    6.70
  -2   2 -15   -3.60    5.70
  -2   2 -15   -0.10   10.80
  -2   2 -15  -10.50    6.60
  -2   2 -15  -10.70    8.40
   2  -2  15    7.90    5.80
   2  -2  15   -9.10    8.90
   2  -2  15   -4.70    2.50
  -3   2 -15    6.90    9.50
  -3   2 -15   16.80    6.70
  -3   2 -15   24.00    6.30
   3  -2  15   22.10    6.10
   3  -2  15   17.90   10.90
   3  -2  15   22.00    3.10
   3  -2  15   21.50    5.00
  -4   2 -15    2.30    9.20
  -4   2 -15    2.00    6.60
  -4   2 -15   -0.50    5.90
  -4   2 -15   -5.30   12.90
   4  -2  15    6.30    9.90
   4  -2  15   -1.80    5.50
   3   1 -15  -13.00    7.30
   3   1 -15   -5.40    8.10
   3   1 -15    1.00    9.80
  -3  -1  15    5.00    5.20
  -3  -1  15    0.50    5.50
  -3  -1  15   -0.80    5.70
  -3  -1  15   -0.80    7.50
   2   1 -15   -3.00    7.40
   2   1 -15   -8.50    7.40
   2   1 -15  -10.00    6.50
   2   1 -15   -0.20    6.00
  -2  -1  15   -5.30    5.00
  -2  -1  15    4.30    6.60
  -2  -1  15   -3.10    5.40
  -2  -1  15   -4.80    5.00
   1   1 -15    9.40    6.80
   1   1 -15   -6.00    8.00
   1   1 -15    0.70    7.20
   1   1 -15   12.60    7.00
  -1  -1  15    3.00    5.70
  -1  -1  15    7.10    5.60
  -1  -1  15    4.10    5.10
  -1  -1  15  -10.00    6.60
  -1  -1  15    5.00    5.60
   0   1 -15   64.49   13.30
   0   1 -15   57.09   10.30
   0   1 -15   77.39   10.20
   0   1 -15   74.19   10.10
   0  -1  15   57.09    8.90
   0  -1  15   79.19   11.90
   0  -1  15   57.89    8.40
   0  -1  15   45.70   12.70
   0  -1  15   58.29   10.40
  -1   1 -15    7.40    9.10
  -1   1 -15    2.30    7.70
  -1   1 -15   -2.00    6.20
  -1   1 -15   -1.00    7.60
  -1   1 -15   11.60    6.50
   1  -1  15    6.50    5.80
   1  -1  15   11.60    5.40
   1  -1  15   -8.90    9.90
   1  -1  15    6.30    4.30
   1  -1  15    1.90    6.80
   1  -1  15    5.20    3.60
  -2   1 -15   -7.60    6.90
  -2   1 -15   10.50   10.20
  -2   1 -15    7.20    5.70
  -2   1 -15    0.20    5.90
  -2   1 -15   -1.70    8.30
   2  -1  15    1.80    5.20
   2  -1  15   -2.60    2.80
   2  -1  15    3.40    4.40
   2  -1  15  -11.00    9.50
  -3   1 -15   -3.60    6.40
  -3   1 -15   -0.80   10.20
  -3   1 -15    1.70    5.80
  -3   1 -15   -0.20    8.40
   3  -1  15    2.70    5.40
   3  -1  15   -0.70    9.50
   3  -1  15    1.50    3.00
   3  -1  15   -4.50    5.20
   3  -1  15   -7.10    5.00
  -4   1 -15   -0.50    8.70
  -4   1 -15    4.50    6.40
  -4   1 -15   15.40   11.60
  -4   1 -15    1.00    5.60
   4  -1  15   10.70    8.00
   4  -1  15    8.50    4.20
   4  -1  15    5.60    5.80
  -5   1 -15    3.20    8.50
  -5   1 -15    0.80    6.50
  -5   1 -15    4.90    7.50
  -5   1 -15   -7.60    9.60
   5  -1  15   22.90   10.80
   5  -1  15    8.50    5.70
   3   0 -15   -1.50    8.20
   3   0 -15    7.00    7.30
  -3   0  15   -4.30    5.70
  -3   0  15   -5.50    8.40
  -3   0  15    2.50    5.50
  -3   0  15    8.40    6.10
   2   0 -15   -9.20    7.50
   2   0 -15   -5.50    7.10
   2   0 -15    1.20    5.60
   2   0 -15   -1.60    7.10
  -2   0  15    1.00    4.40
  -2   0  15   -6.30    6.50
  -2   0  15   -3.30    5.10
  -2   0  15   -3.40    5.50
   1   0 -15    4.00    4.60
   1   0 -15    0.30    4.50
   1   0 -15   -3.30    7.50
   1   0 -15  -10.40    4.60
   1   0 -15    1.90    6.80
  -1   0  15   -4.80    4.90
  -1   0  15   -9.50    7.20
  -1   0  15   -4.10    6.20
  -1   0  15   -1.60    5.80
  -1   0  15   -0.10    5.20
   0   0 -15    6.80    5.10
   0   0 -15    4.60    7.10
   0   0 -15   -6.10    6.10
   0   0 -15   -0.90    8.20
   0   0  15    2.60    5.90
   0   0  15   -3.10    5.00
   0   0  15   -3.20    3.90
   0   0  15    2.60    3.80
   0   0  15    1.20    6.70
  -1   0 -15   17.30    6.50
  -1   0 -15   27.90    8.50
  -1   0 -15   -0.20    8.10
  -1   0 -15    7.30    4.80
  -1   0 -15   -3.70    7.40
   1   0  15   -3.60    9.80
   1   0  15    8.70    5.60
   1   0  15    9.20    5.20
   1   0  15   12.70    3.70
   1   0  15   11.50    4.80
  -2   0 -15    5.00    5.80
  -2   0 -15    6.50    8.40
  -2   0 -15   -6.30    7.80
  -2   0 -15   -1.20    5.70
   2   0  15   -2.60    5.40
   2   0  15   -2.20    5.00
   2   0  15   -7.80    9.30
  -3   0 -15   -7.60    7.90
  -3   0 -15    6.00    7.50
  -3   0 -15  -10.40    6.10
  -3   0 -15   20.90   10.10
   3   0  15    9.50    5.80
   3   0  15   -0.20    4.20
   3   0  15    3.60    9.40
  -4   0 -15   21.70    6.10
  -4   0 -15   12.20    9.30
  -4   0 -15   34.80   18.30
  -4   0 -15   30.30    7.30
  -4   0 -15   15.90    6.30
   4   0  15   24.70   10.50
   4   0  15   16.00    8.60
   4   0  15   27.10    5.60
   4   0  15   28.20    7.50
   4   0  15   20.80    5.60
  -5   0 -15    3.90   10.30
  -5   0 -15   17.20    7.50
  -5   0 -15   10.40    6.20
  -5   0 -15   14.60    5.60
   5   0  15    9.70    4.50
   5   0  15    6.90    5.70
  -3   1  15    1.90    6.10
   2  -1 -15   -8.80    7.50
   2  -1 -15   -9.50    8.40
  -2   1  15   -8.30    7.90
  -2   1  15   -5.20    5.10
  -2   1  15   -2.80    7.50
  -2   1  15   -4.90    6.40
  -2   1  15   -5.90    5.80
   1  -1 -15   -5.10    6.80
   1  -1 -15   -6.20    6.90
   1  -1 -15    5.70    6.30
   1  -1 -15    7.70    5.80
   1  -1 -15   -3.60    8.50
  -1   1  15   -3.60    6.30
  -1   1  15   -3.60    7.20
  -1   1  15   -6.70    5.00
  -1   1  15    1.70    5.40
  -1   1  15   -0.80    6.80
   0  -1 -15   49.30   10.10
   0  -1 -15   61.39    9.60
   0  -1 -15   62.99    9.60
   0   1  15   55.19   11.10
   0   1  15   52.79    8.40
   0   1  15   51.69    8.20
   0   1  15   39.80   11.90
   0   1  15   63.39   11.10
  -1  -1 -15   -4.80    6.00
  -1  -1 -15    1.20    6.10
  -1  -1 -15    7.30    9.10
   1   1  15    0.40    5.70
   1   1  15   -8.10    5.10
   1   1  15   -8.70    8.80
   1   1  15    3.00    5.10
   1   1  15    2.90    4.60
  -2  -1 -15    2.50    1.90
  -2  -1 -15   -2.20    5.70
  -2  -1 -15  -10.20    7.30
  -2  -1 -15   15.40    9.60
  -2  -1 -15   -3.60    5.80
  -2  -1 -15   -8.00    8.10
   2   1  15   -3.90    8.20
   2   1  15    2.60    4.60
   2   1  15   -2.60    4.30
   2   1  15   -5.40    4.40
  -3  -1 -15   -2.10    3.40
  -3  -1 -15   -8.90    5.30
  -3  -1 -15   16.30   10.70
  -3  -1 -15    0.60    5.40
   3   1  15  -10.20    4.90
   3   1  15    0.30    8.60
  -4  -1 -15   -3.90    8.00
  -4  -1 -15    4.60    6.10
  -4  -1 -15   -0.80    6.00
  -4  -1 -15    3.20    4.50
   4   1  15    1.40    4.00
   4   1  15   -9.10    7.20
   4   1  15   -2.90    4.90
   4   1  15    8.50    9.50
  -5  -1 -15   -7.70    9.50
  -5  -1 -15   14.60    6.00
  -5  -1 -15    2.30    5.60
  -5  -1 -15   21.10   13.50
  -5  -1 -15    7.30    5.90
   5   1  15    7.80    4.80
   5   1  15    8.00    5.70
   5   1  15   25.10   11.40
   5   1  15   26.50   10.20
   2  -2 -15   -8.40    8.00
  -2   2  15   -8.10    8.10
  -2   2  15   -7.70    5.90
  -2   2  15   -7.10    5.90
   1  -2 -15    0.60    8.30
   1  -2 -15    7.30    7.90
   1  -2 -15   -0.40    6.40
   1  -2 -15  -10.90    7.10
  -1   2  15    4.50    4.50
  -1   2  15   -5.10    7.40
  -1   2  15   -2.90    7.40
  -1   2  15    8.20    5.80
   0  -2 -15   25.00    7.70
   0  -2 -15   15.30    9.00
   0  -2 -15    2.80    5.50
   0  -2 -15   26.90    7.10
   0  -2 -15   14.60    6.90
   0   2  15    9.20    7.10
   0   2  15    9.00    6.60
   0   2  15   22.20    5.90
   0   2  15   12.20    9.90
   0   2  15   23.00    5.90
  -1  -2 -15  -10.00    7.90
  -1  -2 -15    4.30    6.40
  -1  -2 -15    5.50    5.90
  -1  -2 -15   -3.80    6.10
   1   2  15   -2.10    5.20
   1   2  15    2.80    8.10
   1   2  15   -6.70    6.00
   1   2  15    1.50    6.50
   1   2  15    2.70    4.00
  -2  -2 -15   -4.30    4.80
  -2  -2 -15   -3.80    5.70
  -2  -2 -15    0.60    6.50
  -2  -2 -15  -12.40    5.70
  -2  -2 -15    1.00    8.90
   2   2  15   -6.80    5.00
   2   2  15   -8.70    5.10
   2   2  15   -0.80    8.40
   2   2  15    2.50    6.20
   2   2  15    4.60    3.60
  -3  -2 -15   -4.70    5.60
  -3  -2 -15   12.10   10.40
  -3  -2 -15    0.70    4.00
  -3  -2 -15   -5.20    8.30
  -3  -2 -15   -4.50    5.60
   3   2  15   -2.80    5.10
   3   2  15    0.10    8.40
   3   2  15   -5.10    4.00
  -4  -2 -15   84.39   11.00
  -4  -2 -15   80.49   15.80
  -4  -2 -15   81.49   16.90
  -4  -2 -15   89.09   11.00
   4   2  15   91.89   13.60
   4   2  15   87.59   10.40
   4   2  15  105.19   10.70
  -5  -2 -15    6.10    5.20
  -5  -2 -15    2.10    6.00
  -5  -2 -15   29.30   13.20
  -5  -2 -15  -15.50    9.50
   5   2  15   10.60    9.60
   5   2  15    4.90    9.00
   5   2  15   -1.90    4.90
   5   2  15    0.10    4.90
  -6  -2 -15    3.80    6.20
   1  -3 -15   16.30    9.20
   1  -3 -15  -10.80   12.40
   1  -3 -15   -5.00    7.50
  -1   3  15  -10.50    8.50
  -1   3  15    6.40    6.20
  -1   3  15   -8.80    8.30
  -1   3  15   -2.10    8.20
  -1   3  15    1.00    6.00
   0  -3 -15   -5.40    8.20
   0  -3 -15   29.00    7.70
   0  -3 -15   26.30    8.00
   0  -3 -15   15.00    9.60
   0  -3 -15   16.10    7.20
   0   3  15   21.10    8.10
   0   3  15   14.50    6.10
   0   3  15    6.50    7.50
   0   3  15    0.40    7.90
   0   3  15   12.90    6.20
  -1  -3 -15   -3.20    6.70
  -1  -3 -15  -12.80    8.60
  -1  -3 -15   -4.10    6.90
  -1  -3 -15  -13.30    6.40
   1   3  15   -6.80    6.70
   1   3  15   10.80    9.50
   1   3  15   -2.50    4.20
   1   3  15   -4.10    5.50
  -2  -3 -15   -2.50    6.10
  -2  -3 -15   -6.90    6.00
  -2  -3 -15   -7.10    8.80
  -2  -3 -15   -5.90    6.10
   2   3  15   -6.30    4.70
   2   3  15    4.00    7.90
   2   3  15   -2.30    4.10
  -3  -3 -15    3.10    6.10
  -3  -3 -15   -3.40    6.00
  -3  -3 -15   -1.00    5.80
  -3  -3 -15   -9.60    9.00
   3   3  15   16.50    8.90
   3   3  15    1.40    5.40
  -4  -3 -15   -4.60    7.30
  -4  -3 -15   15.60    7.00
  -4  -3 -15   -3.20    8.70
  -4  -3 -15   11.10    4.70
  -4  -3 -15   14.60    6.10
   4   3  15   13.80    4.80
   4   3  15   11.30    6.30
   4   3  15   12.90    6.90
   4   3  15   24.20    9.40
  -5  -3 -15   69.89   10.10
  -5  -3 -15   66.29    8.90
  -5  -3 -15   67.99   10.60
   5   3  15   74.49   12.80
   5   3  15   71.59   10.20
   5   3  15   53.59   12.00
   0  -4 -15   79.69   13.00
   0  -4 -15   87.29   15.90
   0   4  15  100.59   12.30
   0   4  15   98.19   11.80
   0   4  15   78.29   11.90
  -1  -4 -15   -0.20    7.40
  -1  -4 -15   -5.40    9.50
  -1  -4 -15   -1.90    7.30
  -1  -4 -15   13.50    7.70
   1   4  15   -6.30    6.30
   1   4  15   -4.70    6.00
   1   4  15    8.40    7.90
  -2  -4 -15  -15.00    8.80
  -2  -4 -15   16.00    7.30
  -2  -4 -15   -0.40    7.20
  -2  -4 -15    3.50    6.80
   2   4  15   -0.10    5.40
   2   4  15   -6.80    5.80
   2   4  15    3.50    7.90
  -3  -4 -15    1.50    6.70
  -3  -4 -15   -6.50    7.20
  -3  -4 -15   -5.80    9.30
  -3  -4 -15   -4.80    6.50
   3   4  15   12.20    9.20
   3   4  15    0.70    5.70
  -4  -4 -15   64.39   11.70
  -4  -4 -15   67.69   11.90
  -4  -4 -15  101.79   10.90
   4   4  15   80.89   12.70
   4   4  15   68.89   10.40
  -5  -4 -15    2.50    6.50
  -5  -4 -15   15.50    6.10
  -5  -4 -15    9.00    6.20
  -5  -4 -15   -5.90   10.80
   5   4  15   -4.30   11.70
   5   4  15    7.30    6.00
  -1  -5 -15   -4.40    6.30
  -1  -5 -15    7.60   13.60
   1   5  15   13.30    7.40
   1   5  15   -5.40    6.60
  -2  -5 -15  -14.60   10.10
  -2  -5 -15  -15.30    7.60
  -2  -5 -15   -6.80    8.20
  -2  -5 -15   -6.80    7.60
   2   5  15   -2.90    6.20
   2   5  15   12.40    8.30
  -3  -5 -15  -13.80   10.20
  -3  -5 -15  -17.70    7.10
  -3  -5 -15   -0.20    8.40
  -3  -5 -15   -0.60    7.50
   3   5  15   15.60    9.50
   3   5  15   -5.30    6.60
  -4  -5 -15   25.60    8.50
  -4  -5 -15   24.10    7.50
  -4  -5 -15   16.30    8.20
   4   5  15   15.20    7.20
  -1  -4  16   -1.00    5.50
   0   4 -16    1.20    8.60
   0   4 -16    6.10    8.70
   0   4 -16   -6.30    8.70
   0  -4  16   -0.90    5.60
   0  -4  16    9.90    7.50
  -1   4 -16   -1.20    8.20
  -1   4 -16    2.80    8.40
  -1   4 -16   -8.00    7.60
  -1   4 -16   -8.30   10.20
   1  -4  16  -12.80    7.20
   2   3 -16  -11.90    8.70
  -2  -3  16    3.40    6.60
  -2  -3  16    9.00    6.10
  -2  -3  16   -2.10    7.20
   1   3 -16    9.40    8.40
  -1  -3  16    5.30    6.90
  -1  -3  16   11.40    6.50
  -1  -3  16   14.40    7.30
  -1  -3  16    2.40    5.10
   0   3 -16   -4.50    8.70
   0   3 -16   -3.00    7.90
   0   3 -16   -0.70    7.90
   0   3 -16    1.90    7.60
   0  -3  16   -1.30    5.00
   0  -3  16    8.00    5.80
  -1   3 -16   -7.50    6.80
  -1   3 -16   13.10    7.60
  -1   3 -16  -13.90    9.00
  -1   3 -16  -11.30    8.00
   1  -3  16    3.10    4.60
   1  -3  16    2.50    6.50
  -2   3 -16   -6.60    7.80
  -2   3 -16    9.90    7.10
  -2   3 -16   12.60    8.20
  -2   3 -16   -7.80   10.20
   2  -3  16   -3.20    2.80
   2  -3  16    1.80    6.70
  -3   3 -16   24.30    7.80
  -3   3 -16    8.20   11.00
  -3   3 -16   26.50    7.50
   3  -3  16   18.80    7.20
   2   2 -16  -10.20    8.70
   2   2 -16    8.50    8.70
   2   2 -16  -10.10    8.10
  -2  -2  16   13.20    6.00
  -2  -2  16    6.60    7.80
  -2  -2  16    9.20    6.20
  -2  -2  16   -5.60    6.40
   1   2 -16   -3.40    7.30
   1   2 -16  -13.60    7.70
  -1  -2  16    6.10    5.60
  -1  -2  16    3.60    6.10
  -1  -2  16    2.40    4.40
  -1  -2  16   -3.20    6.00
  -1  -2  16  -12.90    7.90
   0   2 -16   -6.20    7.20
   0   2 -16  -14.00    8.10
   0   2 -16    5.80    5.70
   0  -2  16    4.00    5.40
   0  -2  16    2.90    5.30
   0  -2  16   -2.10    6.00
   0  -2  16   -4.40    5.50
  -1   2 -16   -7.90    9.80
  -1   2 -16  -10.10    6.60
  -1   2 -16   -2.90    6.90
   1  -2  16   -9.50    5.60
   1  -2  16   -2.50    4.90
   1  -2  16    4.70    5.80
   1  -2  16   -2.40    4.40
  -2   2 -16  -12.30   10.80
  -2   2 -16  -13.40    9.00
  -2   2 -16    2.80    6.80
   2  -2  16    1.40    6.00
   2  -2  16    2.50    5.80
  -3   2 -16   -0.50   12.20
  -3   2 -16    2.20    7.70
  -3   2 -16    9.80    6.30
  -3   2 -16    1.90    6.50
   3  -2  16   -0.40   10.90
  -4   2 -16   10.10    7.70
   4  -2  16   19.20    7.40
   2   1 -16    6.10    6.90
   2   1 -16  -13.30    8.30
  -2  -1  16   -5.30    5.80
  -2  -1  16    3.70    5.90
  -2  -1  16    1.80    5.80
  -2  -1  16   -8.10    6.40
  -2  -1  16   -6.10    7.00
   1   1 -16   -9.70    7.50
   1   1 -16    9.00    7.10
   1   1 -16  -12.90    8.70
   1   1 -16   -3.60   11.40
  -1  -1  16   -1.50    6.80
  -1  -1  16    7.10    6.10
  -1  -1  16    1.00    5.50
  -1  -1  16    7.70    5.90
   0   1 -16   10.90    7.20
   0   1 -16    4.10    8.10
   0   1 -16   -0.70    8.40
   0   1 -16    5.90    7.80
   0   1 -16   -1.30    7.10
   0  -1  16   12.30    6.00
   0  -1  16    3.80    5.90
   0  -1  16    9.60    5.50
   0  -1  16    1.40    7.40
   0  -1  16   10.00    6.10
  -1   1 -16  -11.30    7.90
  -1   1 -16    1.00    8.80
  -1   1 -16   -7.20    8.30
  -1   1 -16   -3.40    6.60
  -1   1 -16   -4.80    6.40
   1  -1  16   -1.00    5.60
   1  -1  16  -15.70    9.80
   1  -1  16   -3.40    4.50
   1  -1  16    1.70    5.80
   1  -1  16    2.80    4.90
  -2   1 -16   -0.10    6.20
  -2   1 -16    1.80   10.40
  -2   1 -16    2.70    6.40
  -2   1 -16   -1.30    8.40
   2  -1  16    5.90    6.00
   2  -1  16   -1.60    4.50
   2  -1  16   -3.80    9.90
   2  -1  16   -1.20    5.50
  -3   1 -16    3.50    7.90
  -3   1 -16   10.70    6.60
  -3   1 -16    3.20    9.70
  -3   1 -16   19.20    7.00
   3  -1  16   16.70    6.20
   3  -1  16   22.20    8.40
   3  -1  16   18.50    6.00
   3  -1  16   25.80   10.90
  -4   1 -16   -4.70    6.20
  -4   1 -16    0.70    6.80
  -4   1 -16   -3.30    9.90
  -4   1 -16   16.20   12.90
  -4   1 -16    9.10    8.10
   4  -1  16   11.80   10.00
   4  -1  16    4.40    6.40
   2   0 -16   18.30    6.40
   2   0 -16   -3.50    8.10
   2   0 -16   13.40    8.50
  -2   0  16    7.80    6.90
  -2   0  16  -12.50    8.50
  -2   0  16    3.00    6.30
  -2   0  16    8.70    6.00
  -2   0  16    9.90    7.80
   1   0 -16   -2.60    7.60
   1   0 -16   -2.40    6.90
   1   0 -16    9.80    4.90
   1   0 -16   -7.30    4.60
  -1   0  16    6.20    5.70
  -1   0  16   -9.20    7.80
  -1   0  16   -2.30    6.40
  -1   0  16    0.70    6.00
  -1   0  16    1.00    4.60
   0   0 -16    2.30    6.80
   0   0 -16   -1.40    4.10
   0   0 -16    7.60    7.40
   0   0 -16   -6.20    7.70
   0   0 -16   -6.50    8.90
   0   0 -16   -5.30    6.70
   0   0  16    3.50    5.60
   0   0  16    1.20    6.20
   0   0  16   -2.60    5.10
   0   0  16   -8.00    5.40
   0   0  16   -4.30    5.90
  -1   0 -16   13.60    6.90
  -1   0 -16  -10.20    8.70
  -1   0 -16   24.10   14.60
  -1   0 -16  -10.80    7.60
  -1   0 -16   13.50    6.70
   1   0  16    6.50    6.40
   1   0  16   -2.60    4.90
   1   0  16   -9.50    9.70
   1   0  16   12.90    5.70
   1   0  16    1.00    4.70
  -2   0 -16  -13.20    7.60
  -2   0 -16   17.80    9.80
  -2   0 -16   -7.20    6.30
  -2   0 -16   -3.40    6.50
   2   0  16   -4.90    4.40
   2   0  16    4.50    6.20
   2   0  16  -10.00    9.70
   2   0  16   -1.20    5.20
  -3   0 -16    2.70    6.20
  -3   0 -16  -12.10    8.60
  -3   0 -16   18.10   10.30
  -3   0 -16   -1.90    5.20
  -3   0 -16   -2.40    6.00
   3   0  16    0.00    9.80
   3   0  16   -0.50    5.50
   3   0  16   -0.20    5.80
   3   0  16   -1.40    4.10
  -4   0 -16   36.50    7.90
  -4   0 -16   31.50    7.70
  -4   0 -16   51.99    8.10
  -4   0 -16   60.59   13.20
   4   0  16   59.09    9.50
   4   0  16   52.89   12.40
   4   0  16   55.39    9.30
  -5   0 -16   -8.40   10.40
  -5   0 -16    4.90    7.10
  -5   0 -16   10.20    6.80
  -5   0 -16    1.30    8.00
   5   0  16   19.10   10.80
   5   0  16   -2.40    5.40
   2  -1 -16    1.50    8.50
   2  -1 -16   -8.20    9.20
  -2   1  16  -12.80    7.60
  -2   1  16  -15.30    8.60
  -2   1  16   -5.60    5.90
  -2   1  16    0.10    6.40
  -2   1  16   -9.20    8.10
   1  -1 -16   -8.00    7.10
   1  -1 -16   -6.50    8.60
  -1   1  16    1.50    6.20
  -1   1  16   -5.60    6.00
  -1   1  16   -1.80    5.60
  -1   1  16   -3.50    6.90
  -1   1  16   -1.10    6.80
   0  -1 -16   16.70    8.20
   0  -1 -16  -10.30    8.70
   0  -1 -16   -2.60    7.00
   0  -1 -16   -4.10    7.00
   0   1  16   -9.60    9.80
   0   1  16   -4.60    6.70
   0   1  16   -2.40    6.50
   0   1  16    0.00    5.40
   0   1  16   -8.00    5.70
  -1  -1 -16    5.60    6.40
  -1  -1 -16   43.30    8.40
  -1  -1 -16   26.80    7.30
  -1  -1 -16   14.70    7.50
   1   1  16   39.20    7.30
   1   1  16   12.30    6.10
   1   1  16   21.60    7.00
   1   1  16   18.50    9.90
  -2  -1 -16   -8.30    6.40
  -2  -1 -16   14.40    9.40
  -2  -1 -16    7.00    6.30
  -2  -1 -16   -3.10    8.80
   2   1  16   -4.70    9.20
   2   1  16    3.20    5.60
   2   1  16   -3.30    4.50
   2   1  16    1.50    6.10
  -3  -1 -16   -7.70    6.60
  -3  -1 -16  -10.10    8.90
  -3  -1 -16   25.90   11.50
  -3  -1 -16    8.40    3.30
  -3  -1 -16   -0.80    5.90
   3   1  16   -0.60    6.00
   3   1  16    9.70    9.40
   3   1  16   -0.60    7.90
  -4  -1 -16   -9.10    8.60
  -4  -1 -16   -4.10    6.60
  -4  -1 -16   10.50    4.70
  -4  -1 -16    8.50    7.10
  -4  -1 -16   26.30   12.50
   4   1  16    3.00    5.70
   4   1  16   -3.60   11.80
   4   1  16   14.00   10.40
  -5  -1 -16   -1.60    5.70
  -5  -1 -16   -0.50    6.60
   5   1  16    5.30    6.30
   5   1  16   17.60    8.30
   5   1  16   20.50   10.00
   1  -2 -16   13.20    7.80
   1  -2 -16  -15.50    9.10
   1  -2 -16   -5.60    8.10
  -1   2  16   -1.20    6.10
  -1   2  16   -2.70    7.70
  -1   2  16   -4.50    5.90
  -1   2  16   -8.10    7.50
   0  -2 -16   -6.80    9.20
   0  -2 -16    2.30    7.10
   0  -2 -16   22.50    9.10
   0  -2 -16   -7.80    7.50
   0  -2 -16   10.40    7.20
   0  -2 -16    2.10    7.20
   0   2  16   -4.50    6.60
   0   2  16    5.30    5.70
   0   2  16    7.40    4.70
   0   2  16   -4.30    8.90
   0   2  16  -10.20    7.30
  -1  -2 -16   31.20   10.30
  -1  -2 -16   23.40    7.60
  -1  -2 -16    4.30    9.60
  -1  -2 -16   19.60    7.10
  -1  -2 -16    1.30    8.70
  -1  -2 -16   19.40    6.80
   1   2  16   19.80    9.50
   1   2  16   17.80    6.30
   1   2  16    3.30    7.20
   1   2  16    7.40    5.70
   1   2  16   11.80    7.40
  -2  -2 -16    0.30    6.70
  -2  -2 -16   -3.90    6.30
  -2  -2 -16    1.60    6.40
  -2  -2 -16   17.50    9.70
  -2  -2 -16   -9.30    9.00
   2   2  16   -6.60    5.60
   2   2  16    1.80    9.00
   2   2  16   -6.20    6.60
  -3  -2 -16   28.70   12.50
  -3  -2 -16    8.50    6.50
  -3  -2 -16    6.10    6.40
  -3  -2 -16  -10.70    9.20
   3   2  16   -4.40    4.30
   3   2  16    5.70    5.60
   3   2  16    6.40    6.70
   3   2  16    5.80    4.90
   3   2  16    5.50    9.20
  -4  -2 -16   52.89   13.30
  -4  -2 -16   58.59    9.10
  -4  -2 -16   48.50    9.20
   4   2  16   54.99   11.60
   4   2  16   56.19    8.80
  -5  -2 -16   -6.30    5.90
  -5  -2 -16    1.60    5.80
   5   2  16   10.30    8.80
   5   2  16   -8.00    5.30
   5   2  16   14.10   10.10
   1  -3 -16    7.10    8.70
  -1   3  16   -1.10    6.60
  -1   3  16   -0.20    6.40
   0  -3 -16   11.80    8.10
   0  -3 -16   -9.80    9.70
   0  -3 -16    6.90    8.00
   0   3  16   -0.80    6.30
   0   3  16    2.80    8.80
   0   3  16    9.80    6.40
  -1  -3 -16   13.10   10.20
  -1  -3 -16   12.90    6.20
  -1  -3 -16   25.80    8.40
  -1  -3 -16   32.50    7.90
   1   3  16   30.40    9.80
   1   3  16   19.50    6.40
   1   3  16   22.70    5.40
  -2  -3 -16   -6.40    6.90
  -2  -3 -16  -12.30    9.10
  -2  -3 -16    2.80    6.10
  -2  -3 -16    0.30    6.80
   2   3  16    2.20    5.60
   2   3  16   11.60    8.80
   2   3  16   -3.70    4.40
  -3  -3 -16    2.60    5.40
  -3  -3 -16   -6.20    6.60
  -3  -3 -16    3.50    6.60
  -3  -3 -16  -16.40    9.00
   3   3  16   -0.60    5.80
   3   3  16   12.70    9.20
  -4  -3 -16   -1.50    6.20
  -4  -3 -16   15.90   12.60
  -4  -3 -16    2.80    4.60
  -4  -3 -16  -10.40    6.20
  -4  -3 -16  -17.10   10.00
   4   3  16   -2.70    5.90
  -5  -3 -16   26.70    8.70
  -5  -3 -16   21.10    7.60
   5   3  16   17.60   11.90
   5   3  16   26.40   10.10
   5   3  16   21.70    6.60
  -1  -4 -16   21.80    8.90
  -1  -4 -16   17.50    8.50
   1   4  16    3.10    6.90
   1   4  16   31.10    9.20
  -2  -4 -16    3.40    7.20
  -2  -4 -16    7.50    7.30
  -2  -4 -16    8.50    7.60
  -2  -4 -16   -2.80   10.40
   2   4  16    2.30    6.50
   2   4  16   13.40    8.40
  -3  -4 -16    9.10    6.90
  -3  -4 -16    4.00    7.50
  -3  -4 -16   -3.40    6.80
   3   4  16   15.60    9.00
   3   4  16    3.40    6.40
  -4  -4 -16    9.20    8.00
  -4  -4 -16   17.10    6.50
  -4  -4 -16   14.60    7.40
   4   4  16   18.10    7.40
   0   3 -17  -17.40    9.60
   0   3 -17    1.90    8.50
   0  -3  17   10.90    7.40
   0  -3  17   -0.50    7.10
  -1   3 -17    7.80    7.90
  -1   3 -17    7.30    8.20
  -1   3 -17   -6.30   10.40
  -1   3 -17   -8.00   11.10
   1  -3  17   -5.80    5.40
   1  -3  17   -2.30    5.00
   1   2 -17    5.70    9.00
  -1  -2  17   12.00    6.40
  -1  -2  17    1.80    7.10
  -1  -2  17   -8.00    6.40
   0   2 -17    2.70    6.30
   0   2 -17   -3.30    7.90
   0  -2  17   -0.50    6.10
   0  -2  17   -3.50    6.50
   0  -2  17   12.30    6.60
  -1   2 -17    0.80    7.70
  -1   2 -17    1.50    5.80
   1  -2  17   -2.00    6.40
   1  -2  17    8.10    6.40
   1  -2  17   -3.80    4.80
  -2   2 -17    3.30    7.40
  -2   2 -17    2.40    7.10
  -2   2 -17  -11.00    9.70
  -2   2 -17   -9.90   11.60
  -2   2 -17  -12.80    8.20
   2  -2  17    1.70    6.60
  -3   2 -17   -4.00    6.70
  -3   2 -17   -6.10    8.10
  -3   2 -17   -8.30   13.80
  -3   2 -17   -7.90   10.80
   3  -2  17   -0.40    6.60
   3  -2  17  -12.40   10.60
   1   1 -17   -3.80    8.40
  -1  -1  17   -9.50    8.50
  -1  -1  17   -2.90    6.90
  -1  -1  17    2.90    6.40
  -1  -1  17    5.10    6.80
  -1  -1  17   -0.40    6.00
   0   1 -17   -3.00    7.50
   0   1 -17    8.90    8.00
   0  -1  17   -2.30    7.10
   0  -1  17    6.70    6.30
   0  -1  17   -2.40    6.30
   0  -1  17   -6.80    5.50
  -1   1 -17   -7.10    7.40
  -1   1 -17  -12.50    9.20
  -1   1 -17    5.70    9.60
  -1   1 -17  -15.30    7.20
   1  -1  17  -17.10   11.00
   1  -1  17   -4.50    5.10
   1  -1  17    3.80    6.30
   1  -1  17   -1.70    4.60
  -2   1 -17   -0.20    6.50
  -2   1 -17   15.90   11.70
  -2   1 -17   -5.60    6.80
  -2   1 -17   -7.80    9.60
   2  -1  17    1.70    8.30
   2  -1  17    5.90    6.00
   2  -1  17  -13.40   10.70
  -3   1 -17    5.30    7.00
  -3   1 -17  -14.40    9.60
  -3   1 -17   -3.00    6.40
  -3   1 -17   14.70   17.20
   3  -1  17    1.70   10.10
   3  -1  17    7.10    6.40
  -4   1 -17   25.10    7.80
   1   0 -17    4.80    5.10
   1   0 -17    2.50    8.60
  -1   0  17    1.00    6.50
  -1   0  17   -0.20    6.70
  -1   0  17   -5.40    6.90
  -1   0  17  -13.10    5.90
   0   0 -17   -3.70    7.80
   0   0 -17    6.60    7.80
   0   0 -17  -16.90    9.60
   0   0 -17   12.40    7.90
   0   0 -17    0.30    4.10
   0   0  17    1.30    6.60
   0   0  17    1.10    5.80
   0   0  17   -1.80    6.60
   0   0  17    2.70    6.20
  -1   0 -17   -5.80   10.60
  -1   0 -17   12.80    7.60
  -1   0 -17   -0.50    7.20
  -1   0 -17  -15.10    9.20
   1   0  17   12.00    5.50
   1   0  17    9.10    5.80
   1   0  17   -6.00   10.90
   1   0  17    0.30    6.80
   1   0  17   -2.80    5.40
  -2   0 -17   -2.10    6.90
  -2   0 -17   -1.00    6.70
  -2   0 -17   28.80   11.30
   2   0  17   -7.80    4.40
   2   0  17    4.40    6.40
  -3   0 -17    3.40    7.50
  -3   0 -17    2.40    6.80
  -3   0 -17    0.40    5.20
  -3   0 -17  -13.60    9.60
   3   0  17   -0.90    6.10
   3   0  17    7.50   10.40
  -4   0 -17    3.60    6.80
  -4   0 -17   22.90    6.60
  -4   0 -17   -9.10   10.40
  -4   0 -17   -0.50    6.00
  -4   0 -17   32.20   12.80
   4   0  17    5.30    6.20
   4   0  17   11.80    7.40
   4   0  17   24.40   11.30
   1  -1 -17   -2.60    8.70
  -1   1  17   -5.10    6.50
  -1   1  17    2.00    6.20
  -1   1  17   -9.50    7.80
  -1   1  17   -9.30    7.50
   0  -1 -17   16.40    8.40
   0  -1 -17  -16.00    9.20
   0  -1 -17   -7.90    8.00
   0  -1 -17  -11.40    7.30
   0   1  17   -7.00    7.00
   0   1  17    0.00    4.90
   0   1  17    0.90    7.00
   0   1  17   -0.20    5.60
   0   1  17  -16.10   10.70
  -1  -1 -17    7.70    7.50
  -1  -1 -17   20.60    7.60
  -1  -1 -17    0.50    9.60
   1   1  17   10.70    5.70
   1   1  17   -3.30    6.30
   1   1  17   10.90   10.80
   1   1  17    2.40    6.70
   1   1  17   14.80    6.30
  -2  -1 -17    0.70    6.80
  -2  -1 -17   -2.30    7.00
  -2  -1 -17  -12.20    9.60
   2   1  17   -4.30    5.90
   2   1  17   -0.60    8.60
   2   1  17    6.20   10.50
  -3  -1 -17    4.00    6.70
  -3  -1 -17   -7.60   10.00
  -3  -1 -17    3.70    3.10
  -3  -1 -17   -1.90    6.60
   3   1  17   15.10    9.80
   3   1  17    1.30    6.10
  -4  -1 -17   45.10   13.00
  -4  -1 -17   13.10    7.20
  -4  -1 -17   28.40    7.40
   4   1  17   22.20   11.50
   4   1  17   41.30   11.90
   0  -2 -17  -11.00    9.90
   0  -2 -17  -12.00    7.90
   0  -2 -17   19.60   13.40
   0   2  17   -6.90    7.10
   0   2  17  -12.70    8.10
   0   2  17    1.50    9.90
   0   2  17    0.10    6.50
  -1  -2 -17    9.10    7.40
  -1  -2 -17   12.70    7.80
  -1  -2 -17   -7.70    9.40
  -1  -2 -17   32.10   11.20
   1   2  17   12.20    6.60
   1   2  17   15.10   10.90
  -2  -2 -17  -16.50   10.00
  -2  -2 -17   -3.10    7.00
  -2  -2 -17    0.50    7.40
  -2  -2 -17   25.40   11.90
   2   2  17    3.10    9.70
   2   2  17   -5.00    6.10
  -3  -2 -17    0.60    7.10
  -3  -2 -17   -5.40    6.70
   3   2  17   12.20   10.00
   3   2  17   -1.70    5.90
  -4  -2 -17    0.10    6.50
  -4  -2 -17    0.70    6.70
  -4  -2 -17  -13.60   10.30
   4   2  17   -7.70    6.00
   4   2  17   15.30   10.00
  -1  -3 -17   -6.70   10.20
  -1  -3 -17    5.10    8.30
   1   3  17    8.00    6.60
   1   3  17  -12.30    8.20
  -2  -3 -17  -10.00    7.40
  -2  -3 -17   10.80    7.10
  -2  -3 -17   -1.50    7.50
   2   3  17   -0.80    6.20
   2   3  17   16.20    9.50
  -3  -3 -17   12.10    7.40
  -3  -3 -17   15.60    5.80
  -3  -3 -17  -17.80   10.30
  -3  -3 -17    4.80    7.80
  -3  -3 -17   15.10   12.70
   3   3  17   21.60   10.00
   3   3  17    0.10    6.60
  -4  -3 -17   22.00    6.80
  -4  -3 -17    1.60    7.00
  -4  -3 -17   10.10    7.30
   4   3  17   21.20   10.40
   4   3  17    6.30    6.60
   0   1 -18  -12.40    8.60
   0  -1  18   -1.00    6.30
   0  -1  18    6.20    6.80
   0  -1  18   -4.40    6.70
  -1   1 -18   -8.90   10.60
  -1   1 -18  -10.40    7.90
  -1   1 -18   -5.00    8.10
   1  -1  18    2.80    6.60
   1  -1  18   -8.70    5.50
  -2   1 -18   12.50    8.30
  -2   1 -18   31.40   13.30
  -2   1 -18   10.10    8.00
   2  -1  18   13.10    6.90
   2  -1  18    1.50   11.50
   0   0 -18    5.90    4.40
   0   0 -18   -2.70    8.70
   0   0  18  -11.20    6.60
   0   0  18    9.20    9.60
   0   0  18   -3.00    6.80
  -1   0 -18   22.50   10.60
  -1   0 -18   10.50    8.20
  -1   0 -18   -7.30   10.40
  -1   0 -18   13.90    8.50
   1   0  18   11.30    6.70
  -2   0 -18   24.00   11.80
  -2   0 -18   -4.50    7.70
  -2   0 -18    3.00    7.30
   2   0  18    3.90    6.60
   2   0  18   -9.30   11.30
  -3   0 -18   -0.90    7.30
  -3   0 -18    9.40    8.50
   3   0  18   11.40   10.50
   3   0  18   10.20    6.80
   0  -1 -18   -7.60    8.60
   0   1  18    0.00    7.00
  -1  -1 -18   -3.30    8.00
  -1  -1 -18   -1.70    8.00
  -1  -1 -18   24.60   10.60
   1   1  18   -6.70   11.00
   1   1  18    4.10    5.40
  -2  -1 -18   13.00    8.20
  -2  -1 -18   19.00    7.60
  -2  -1 -18   -8.10   10.80
   2   1  18   10.40    6.80
   2   1  18   15.40   10.80
  -3  -1 -18   19.40    7.60
  -3  -1 -18   16.10    8.90
   3   1  18   11.70    7.20
   3   1  18   42.60   12.40
  -1  -2 -18    9.60    8.50
  -1  -2 -18   30.00   11.70
   1   2  18    7.50    7.00
  -2  -2 -18   23.70   13.60
  -2  -2 -18   -1.50    7.50
  -2  -2 -18    8.30    8.30
   2   2  18   10.60   11.40
   2   2  18    9.70    6.60
  -3  -2 -18    1.70    7.80
  -3  -2 -18  -11.20    7.20
   3   2  18   -3.00    6.80
   0   0   0    0.00    0.00
_computing_structure_solution     'SHELXT 2014/5 (Sheldrick, 2014)'
;
_shelx_hkl_checksum              7449
_shelx_res_file
;
    shelx.res created by SHELXL-2014/7
TITL C4NEW1_a.res in P-1
CELL  0.71073   6.8573   7.4073  15.5499   87.843   78.892   72.347
ZERR     2.00   0.0012   0.0014   0.0030    0.006    0.005    0.005
LATT   1
SFAC  C    H    O
UNIT  38 32 6
MERG   2
OMIT    -3.00  50.00
OMIT     0  -1   1
FMAP   2
PLAN   20
SIZE     0.100   0.150   0.150
ACTA
HTAB C17 O3_$1
EQIV $1 1+X, Y, Z
HTAB C8 O2_$2
EQIV $2 2-X, -Y, 1-Z
HTAB C10 O2
BOND   $H
CONF
L.S.   4
TEMP    23.00
WGHT    0.087900    0.756100
EXTI    0.086657
FVAR       1.51304
C1    1   -0.301576    0.301835    0.857241    11.00000    0.09968    0.07692 =
         0.08315    0.00450    0.00563   -0.01551
AFIX 137
H1A   2   -0.232522    0.374426    0.883256    11.00000   -1.50000
H1B   2   -0.245420    0.170140    0.869345    11.00000   -1.50000
H1C   2   -0.448144    0.343958    0.881370    11.00000   -1.50000
AFIX   0
C2    1   -0.072503    0.288866    0.719702    11.00000    0.06109    0.04962 =
         0.07048   -0.00131   -0.01304   -0.01909
C3    1   -0.053158    0.331435    0.632011    11.00000    0.05989    0.05475 =
         0.07588    0.00365   -0.02424   -0.01381
AFIX  43
H3    2   -0.172510    0.383342    0.608518    11.00000   -1.20000
AFIX   0
C4    1    0.136860    0.298961    0.579382    11.00000    0.06276    0.05433 =
         0.06699    0.00417   -0.01833   -0.01821
AFIX  43
H4    2    0.145095    0.329100    0.520458    11.00000   -1.20000
AFIX   0
C5    1    0.320266    0.221366    0.611634    11.00000    0.06039    0.03708 =
         0.06867   -0.00161   -0.01653   -0.01839
C8    1    0.525029    0.192825    0.558513    11.00000    0.06324    0.04411 =
         0.07658    0.00222   -0.02193   -0.01846
AFIX  43
H8    2    0.637759    0.136453    0.585549    11.00000   -1.20000
AFIX   0
C9    1    0.569943    0.238742    0.474636    11.00000    0.05841    0.04316 =
         0.07869   -0.00064   -0.02267   -0.01281
AFIX  43
H9    2    0.459350    0.293674    0.446190    11.00000   -1.20000
AFIX   0
C10   1    0.775478    0.209200    0.426030    11.00000    0.05627    0.04209 =
         0.07440   -0.00179   -0.02139   -0.01291
AFIX  43
H10   2    0.883796    0.156598    0.456001    11.00000   -1.20000
AFIX   0
C11   1    0.829745    0.248789    0.342065    11.00000    0.05546    0.03778 =
         0.06848   -0.00203   -0.02108   -0.01455
C19   1    1.048552    0.216983    0.301372    11.00000    0.05443    0.03648 =
         0.08157    0.00100   -0.02392   -0.01562
C18   1    1.092666    0.230584    0.205459    11.00000    0.05553    0.03954 =
         0.07141    0.00133   -0.01919   -0.01806
C17   1    1.293811    0.210776    0.160127    11.00000    0.06775    0.05885 =
         0.08583    0.00362   -0.02326   -0.02558
AFIX  43
H17   2    1.400041    0.198201    0.191254    11.00000   -1.20000
AFIX   0
C16   1    1.338327    0.209460    0.070189    11.00000    0.07779    0.09007 =
         0.08635    0.00151   -0.00816   -0.03703
AFIX  43
H16   2    1.473109    0.197625    0.040459    11.00000   -1.20000
AFIX   0
C15   1    1.180740    0.225896    0.024635    11.00000    0.10029    0.11992 =
         0.07294    0.00516   -0.01418   -0.04724
AFIX  43
H15   2    1.210482    0.223393   -0.036321    11.00000   -1.20000
AFIX   0
C7    1    0.105677    0.208295    0.753353    11.00000    0.08318    0.05702 =
         0.06199    0.00670   -0.01864   -0.02894
AFIX  43
H7    2    0.095819    0.175656    0.812024    11.00000   -1.20000
AFIX   0
C6    1    0.298604    0.176351    0.699559    11.00000    0.07069    0.04914 =
         0.07534    0.00748   -0.02785   -0.01949
AFIX  43
H6    2    0.417715    0.122981    0.723038    11.00000   -1.20000
AFIX   0
C14   1    0.982257    0.245737    0.067112    11.00000    0.08776    0.11202 =
         0.07463    0.00573   -0.02925   -0.03942
AFIX  43
H14   2    0.877501    0.256680    0.035350    11.00000   -1.20000
AFIX   0
C13   1    0.937022    0.249558    0.157542    11.00000    0.06090    0.06206 =
         0.07393    0.00423   -0.02009   -0.02376
C12   1    0.674004    0.335264    0.285555    11.00000    0.05805    0.06975 =
         0.08125    0.00098   -0.02055   -0.01624
AFIX  23
H12A  2    0.544064    0.310228    0.310572    11.00000   -1.20000
H12B  2    0.647573    0.471532    0.286225    11.00000   -1.20000
AFIX   0
O1    3   -0.270239    0.326748    0.765914    11.00000    0.07372    0.08989 =
         0.08047    0.00347   -0.00683   -0.02013
O2    3    1.189405    0.178972    0.343457    11.00000    0.06370    0.08990 =
         0.08713    0.00815   -0.03104   -0.02003
O3    3    0.737257    0.266828    0.195990    11.00000    0.06519    0.09177 =
         0.07429    0.00662   -0.02786   -0.02803
HKLF 4  1.0  1.00  0.00  0.00  0.00  1.00  0.00  0.00  0.00  1.00
REM  C4NEW1_a.res in P-1
REM R1 =  0.0798 for    1609 Fo > 4sig(Fo)  and  0.1265 for all    2580 data
REM    201 parameters refined using      0 restraints
END
WGHT      0.0879      0.7561
REM Highest difference peak  0.237,  deepest hole -0.250,  1-sigma level  0.061
Q1    1   1.4323  0.1786  0.2081  11.00000  0.05    0.24
Q2    1   1.3713  0.1622  0.3055  11.00000  0.05    0.22
Q3    1   1.0064  0.2056  0.3835  11.00000  0.05    0.21
Q4    1   0.3907  0.2541  0.6375  11.00000  0.05    0.21
Q5    1   0.4908  0.1517  0.4583  11.00000  0.05    0.20
Q6    1   1.3063  0.1861  0.3584  11.00000  0.05    0.20
Q7    1   0.5318  0.3505  0.2673  11.00000  0.05    0.19
Q8    1  -0.4884  0.3252  0.8954  11.00000  0.05    0.19
Q9    1  -0.1413  0.3022  0.8001  11.00000  0.05    0.19
Q10   1   0.5118  0.3814  0.2972  11.00000  0.05    0.19
Q11   1   0.7000  0.2135  0.4995  11.00000  0.05    0.19
Q12   1  -0.4566  0.3436  0.8203  11.00000  0.05    0.19
Q13   1   0.6302  0.2449  0.1672  11.00000  0.05    0.18
Q14   1   0.3922  0.2109  0.5387  11.00000  0.05    0.18
Q15   1   0.4347  0.3455  0.4245  11.00000  0.05    0.18
Q16   1   1.5392  0.1609  0.0362  11.00000  0.05    0.18
Q17   1  -0.3698  0.3095  0.7441  11.00000  0.05    0.17
Q18   1   0.8684  0.2750  0.2323  11.00000  0.05    0.17
Q19   1  -0.2320  0.3442  0.6756  11.00000  0.05    0.17
Q20   1   0.2408  0.1858  0.7970  11.00000  0.05    0.16
;
_shelx_res_checksum              90461
loop_
_space_group_symop_operation_xyz
'x, y, z'
'-x, -y, -z'
loop_
_atom_site_type_symbol
_atom_site_label
_atom_site_fract_x
_atom_site_fract_y
_atom_site_fract_z
_atom_site_U_iso_or_equiv
_atom_site_adp_type
_atom_site_calc_flag
_atom_site_occupancy
C C1 -0.3016(8) 0.3018(7) 0.8572(3) 0.0924(15) Uani d 1
H H1A -0.2325 0.3744 0.8833 0.139 Uiso calc 1
H H1B -0.2454 0.1701 0.8693 0.139 Uiso calc 1
H H1C -0.4481 0.3440 0.8814 0.139 Uiso calc 1
C C2 -0.0725(6) 0.2889(5) 0.7197(3) 0.0597(10) Uani d 1
C C3 -0.0532(6) 0.3314(5) 0.6320(3) 0.0628(10) Uani d 1
H H3 -0.1725 0.3833 0.6085 0.075 Uiso calc 1
C C4 0.1369(6) 0.2990(5) 0.5794(3) 0.0605(10) Uani d 1
H H4 0.1451 0.3291 0.5205 0.073 Uiso calc 1
C C5 0.3203(6) 0.2214(5) 0.6116(2) 0.0539(9) Uani d 1
C C8 0.5250(6) 0.1928(5) 0.5585(3) 0.0596(10) Uani d 1
H H8 0.6378 0.1365 0.5855 0.072 Uiso calc 1
C C9 0.5699(6) 0.2387(5) 0.4746(3) 0.0593(10) Uani d 1
H H9 0.4594 0.2937 0.4462 0.071 Uiso calc 1
C C10 0.7755(6) 0.2092(5) 0.4260(3) 0.0567(10) Uani d 1
H H10 0.8838 0.1566 0.4560 0.068 Uiso calc 1
C C11 0.8297(5) 0.2488(5) 0.3421(2) 0.0524(9) Uani d 1
C C19 1.0486(6) 0.2170(5) 0.3014(3) 0.0555(10) Uani d 1
C C18 1.0927(5) 0.2306(5) 0.2055(2) 0.0537(9) Uani d 1
C C17 1.2938(6) 0.2108(6) 0.1601(3) 0.0682(11) Uani d 1
H H17 1.4000 0.1982 0.1913 0.082 Uiso calc 1
C C16 1.3383(8) 0.2095(7) 0.0702(3) 0.0831(13) Uani d 1
H H16 1.4731 0.1976 0.0405 0.100 Uiso calc 1
C C15 1.1807(9) 0.2259(8) 0.0246(3) 0.0949(16) Uani d 1
H H15 1.2105 0.2234 -0.0363 0.114 Uiso calc 1
C C7 0.1057(7) 0.2083(5) 0.7534(3) 0.0651(11) Uani d 1
H H7 0.0958 0.1757 0.8120 0.078 Uiso calc 1
C C6 0.2986(6) 0.1764(5) 0.6996(3) 0.0629(11) Uani d 1
H H6 0.4177 0.1230 0.7230 0.076 Uiso calc 1
C C14 0.9823(8) 0.2457(8) 0.0671(3) 0.0875(14) Uani d 1
H H14 0.8775 0.2567 0.0353 0.105 Uiso calc 1
C C13 0.9370(6) 0.2496(6) 0.1575(3) 0.0635(10) Uani d 1
C C12 0.6740(6) 0.3353(6) 0.2856(3) 0.0693(11) Uani d 1
H H12A 0.5441 0.3102 0.3106 0.083 Uiso calc 1
H H12B 0.6476 0.4715 0.2862 0.083 Uiso calc 1
O O1 -0.2702(5) 0.3267(5) 0.7659(2) 0.0835(10) Uani d 1
O O2 1.1894(4) 0.1790(4) 0.3435(2) 0.0788(10) Uani d 1
O O3 0.7373(4) 0.2668(4) 0.19599(18) 0.0742(9) Uani d 1
loop_
_atom_site_aniso_label
_atom_site_aniso_U_11
_atom_site_aniso_U_22
_atom_site_aniso_U_33
_atom_site_aniso_U_12
_atom_site_aniso_U_13
_atom_site_aniso_U_23
C1 0.100(4) 0.077(3) 0.083(3) -0.016(3) 0.006(3) 0.005(3)
C2 0.061(2) 0.050(2) 0.070(3) -0.0191(17) -0.0130(19) -0.0013(18)
C3 0.060(2) 0.055(2) 0.076(3) -0.0138(17) -0.024(2) 0.0037(19)
C4 0.063(2) 0.054(2) 0.067(2) -0.0182(18) -0.0183(19) 0.0042(18)
C5 0.060(2) 0.0371(18) 0.069(2) -0.0184(16) -0.0165(18) -0.0016(16)
C8 0.063(2) 0.044(2) 0.077(3) -0.0185(17) -0.0219(19) 0.0022(18)
C9 0.058(2) 0.043(2) 0.079(3) -0.0128(16) -0.0227(19) -0.0006(18)
C10 0.056(2) 0.0421(19) 0.074(3) -0.0129(16) -0.0214(18) -0.0018(17)
C11 0.055(2) 0.0378(18) 0.068(2) -0.0145(15) -0.0211(17) -0.0020(16)
C19 0.054(2) 0.0365(18) 0.082(3) -0.0156(15) -0.0239(19) 0.0010(16)
C18 0.056(2) 0.0395(18) 0.071(2) -0.0181(15) -0.0192(18) 0.0013(16)
C17 0.068(3) 0.059(2) 0.086(3) -0.0256(19) -0.023(2) 0.004(2)
C16 0.078(3) 0.090(3) 0.086(3) -0.037(3) -0.008(2) 0.002(3)
C15 0.100(4) 0.120(4) 0.073(3) -0.047(3) -0.014(3) 0.005(3)
C7 0.083(3) 0.057(2) 0.062(2) -0.029(2) -0.019(2) 0.0067(18)
C6 0.071(3) 0.049(2) 0.075(3) -0.0195(18) -0.028(2) 0.0075(18)
C14 0.088(3) 0.112(4) 0.075(3) -0.039(3) -0.029(3) 0.006(3)
C13 0.061(2) 0.062(2) 0.074(3) -0.0238(18) -0.020(2) 0.0042(19)
C12 0.058(2) 0.070(3) 0.081(3) -0.0162(19) -0.021(2) 0.001(2)
O1 0.074(2) 0.090(2) 0.080(2) -0.0201(16) -0.0068(16) 0.0035(16)
O2 0.0637(18) 0.090(2) 0.087(2) -0.0200(15) -0.0310(15) 0.0082(16)
O3 0.0652(18) 0.092(2) 0.0743(19) -0.0280(15) -0.0279(14) 0.0066(15)
loop_
_atom_type_symbol
_atom_type_description
_atom_type_scat_dispersion_real
_atom_type_scat_dispersion_imag
_atom_type_scat_source
C C 0.0033 0.0016 'International Tables Vol C Tables 4.2.6.8 and 6.1.1.4'
H H 0.0000 0.0000 'International Tables Vol C Tables 4.2.6.8 and 6.1.1.4'
O O 0.0106 0.0060 'International Tables Vol C Tables 4.2.6.8 and 6.1.1.4'
loop_
_geom_angle_atom_site_label_1
_geom_angle_atom_site_label_2
_geom_angle_atom_site_label_3
_geom_angle
O1 C1 H1A 109.5
O1 C1 H1B 109.5
H1A C1 H1B 109.5
O1 C1 H1C 109.5
H1A C1 H1C 109.5
H1B C1 H1C 109.5
O1 C2 C3 116.0(3)
O1 C2 C7 125.1(4)
C3 C2 C7 118.9(4)
C4 C3 C2 121.2(4)
C4 C3 H3 119.4
C2 C3 H3 119.4
C3 C4 C5 121.5(4)
C3 C4 H4 119.3
C5 C4 H4 119.3
C6 C5 C4 116.8(4)
C6 C5 C8 120.2(3)
C4 C5 C8 123.0(4)
C9 C8 C5 127.0(4)
C9 C8 H8 116.5
C5 C8 H8 116.5
C8 C9 C10 124.4(4)
C8 C9 H9 117.8
C10 C9 H9 117.8
C11 C10 C9 127.0(4)
C11 C10 H10 116.5
C9 C10 H10 116.5
C10 C11 C19 121.0(3)
C10 C11 C12 122.8(3)
C19 C11 C12 116.1(3)
O2 C19 C11 123.0(4)
O2 C19 C18 121.0(3)
C11 C19 C18 116.0(3)
C13 C18 C17 118.3(4)
C13 C18 C19 120.5(3)
C17 C18 C19 121.0(3)
C16 C17 C18 121.1(4)
C16 C17 H17 119.4
C18 C17 H17 119.4
C17 C16 C15 119.1(4)
C17 C16 H16 120.5
C15 C16 H16 120.5
C14 C15 C16 121.2(5)
C14 C15 H15 119.4
C16 C15 H15 119.4
C2 C7 C6 119.7(4)
C2 C7 H7 120.1
C6 C7 H7 120.1
C7 C6 C5 122.0(4)
C7 C6 H6 119.0
C5 C6 H6 119.0
C15 C14 C13 119.7(4)
C15 C14 H14 120.1
C13 C14 H14 120.1
O3 C13 C14 116.9(4)
O3 C13 C18 122.5(4)
C14 C13 C18 120.6(4)
O3 C12 C11 114.2(3)
O3 C12 H12A 108.7
C11 C12 H12A 108.7
O3 C12 H12B 108.7
C11 C12 H12B 108.7
H12A C12 H12B 107.6
C2 O1 C1 119.0(4)
C13 O3 C12 116.3(3)
loop_
_geom_bond_atom_site_label_1
_geom_bond_atom_site_label_2
_geom_bond_distance
C1 O1 1.408(5)
C1 H1A 0.9600
C1 H1B 0.9600
C1 H1C 0.9600
C2 O1 1.357(5)
C2 C3 1.378(5)
C2 C7 1.380(6)
C3 C4 1.356(5)
C3 H3 0.9300
C4 C5 1.395(5)
C4 H4 0.9300
C5 C6 1.386(5)
C5 C8 1.444(5)
C8 C9 1.337(5)
C8 H8 0.9300
C9 C10 1.421(5)
C9 H9 0.9300
C10 C11 1.334(5)
C10 H10 0.9300
C11 C19 1.462(5)
C11 C12 1.492(5)
C19 O2 1.227(4)
C19 C18 1.469(5)
C18 C13 1.386(5)
C18 C17 1.390(5)
C17 C16 1.373(6)
C17 H17 0.9300
C16 C15 1.376(7)
C16 H16 0.9300
C15 C14 1.360(6)
C15 H15 0.9300
C7 C6 1.380(5)
C7 H7 0.9300
C6 H6 0.9300
C14 C13 1.380(6)
C14 H14 0.9300
C13 O3 1.354(4)
C12 O3 1.439(5)
C12 H12A 0.9700
C12 H12B 0.9700
loop_
_geom_hbond_atom_site_label_D
_geom_hbond_atom_site_label_H
_geom_hbond_atom_site_label_A
_geom_hbond_site_symmetry_A
_geom_hbond_distance_DH
_geom_hbond_distance_HA
_geom_hbond_distance_DA
_geom_hbond_angle_DHA
C8 H8 O2 2_756 0.93 2.59 3.362(5) 141
C17 H17 O3 1_655 0.93 2.53 3.342(5) 146
loop_
_geom_torsion_atom_site_label_1
_geom_torsion_atom_site_label_2
_geom_torsion_atom_site_label_3
_geom_torsion_atom_site_label_4
_geom_torsion
O1 C2 C3 C4 -179.8(3)
C7 C2 C3 C4 -1.3(6)
C2 C3 C4 C5 0.0(6)
C3 C4 C5 C6 1.0(5)
C3 C4 C5 C8 -177.1(3)
C6 C5 C8 C9 -176.1(3)
C4 C5 C8 C9 2.0(6)
C5 C8 C9 C10 179.1(3)
C8 C9 C10 C11 178.7(3)
C9 C10 C11 C19 177.7(3)
C9 C10 C11 C12 0.6(6)
C10 C11 C19 O2 -10.5(5)
C12 C11 C19 O2 166.8(3)
C10 C11 C19 C18 168.7(3)
C12 C11 C19 C18 -14.0(4)
O2 C19 C18 C13 171.7(3)
C11 C19 C18 C13 -7.5(5)
O2 C19 C18 C17 -3.5(5)
C11 C19 C18 C17 177.3(3)
C13 C18 C17 C16 -0.2(6)
C19 C18 C17 C16 175.2(4)
C18 C17 C16 C15 -0.8(7)
C17 C16 C15 C14 0.8(8)
O1 C2 C7 C6 179.9(3)
C3 C2 C7 C6 1.6(6)
C2 C7 C6 C5 -0.6(6)
C4 C5 C6 C7 -0.8(5)
C8 C5 C6 C7 177.4(3)
C16 C15 C14 C13 0.0(8)
C15 C14 C13 O3 -179.1(4)
C15 C14 C13 C18 -0.9(7)
C17 C18 C13 O3 179.0(3)
C19 C18 C13 O3 3.7(5)
C17 C18 C13 C14 1.0(6)
C19 C18 C13 C14 -174.3(4)
C10 C11 C12 O3 -143.7(3)
C19 C11 C12 O3 39.0(5)
C3 C2 O1 C1 -174.7(4)
C7 C2 O1 C1 7.0(6)
C14 C13 O3 C12 -159.3(4)
C18 C13 O3 C12 22.6(5)
C11 C12 O3 C13 -43.5(5)

_cod_database_fobs_code 1549528
