#------------------------------------------------------------------------------
#$Date: 2018-04-30 20:04:43 +0300 (Mon, 30 Apr 2018) $
#$Revision: 207576 $
#$URL: file:///home/coder/svn-repositories/cod/cif/1/54/93/1549345.cif $
#------------------------------------------------------------------------------
#
# This file is available in the Crystallography Open Database (COD),
# http://www.crystallography.net/. The original data for this entry
# were provided by IUCr Journals, http://journals.iucr.org/.
#
# The file may be used within the scientific community so long as
# proper attribution is given to the journal article from which the
# data were obtained.
#
data_1549345
loop_
_publ_author_name
'Zhong, Ling'
'Shi, Jianyou'
'Zhong, Lei'
'Wei, Xin'
'Xhang, Hongjia'
'Cheng, Liang'
'Bai, Lan'
_publ_section_title
;
 2-(3-Chlorophenyl)-3,4-dihydrobenzo[<i>f</i>][1,4]oxazepin-5(2<i>H</i>)-one
;
_journal_coeditor_code           LH5867
_journal_issue                   4
_journal_name_full               IUCrData
_journal_page_first              x180587
_journal_paper_doi               10.1107/S2414314618005874
_journal_volume                  3
_journal_year                    2018
_chemical_formula_iupac          'C15 H12 Cl N O2'
_chemical_formula_moiety         'C15 H12 Cl N O2'
_chemical_formula_sum            'C15 H12 Cl N O2'
_chemical_formula_weight         273.71
_chemical_name_systematic
;
2-(3-Chlorophenyl)-3,4-dihydrobenzo[<i>f</i>][1,4]oxazepin-5(2<i>H</i>)-one
;
_space_group_crystal_system      triclinic
_space_group_IT_number           2
_space_group_name_Hall           '-P 1'
_space_group_name_H-M_alt        'P -1'
_symmetry_space_group_name_Hall  '-P 1'
_symmetry_space_group_name_H-M   'P -1'
_atom_sites_solution_hydrogens   mixed
_atom_sites_solution_primary     direct
_audit_creation_method
;
Olex2 1.2
(compiled 2016.09.09 svn.r3337 for OlexSys, GUI svn.r5227)
;
_cell_angle_alpha                80.123(17)
_cell_angle_beta                 84.570(18)
_cell_angle_gamma                88.084(15)
_cell_formula_units_Z            2
_cell_length_a                   7.2162(15)
_cell_length_b                   8.0068(14)
_cell_length_c                   11.650(3)
_cell_measurement_reflns_used    1590
_cell_measurement_temperature    293(2)
_cell_measurement_theta_max      27.5840
_cell_measurement_theta_min      3.4660
_cell_volume                     660.1(3)
_computing_cell_refinement
;
CrysAlis PRO (Agilent, 2014)
;
_computing_data_collection
;
CrysAlis PRO (Agilent, 2014)
;
_computing_data_reduction
;
CrysAlis PRO (Agilent, 2014)
;
_computing_molecular_graphics
;
<i>OLEX2</i> (Dolomanov <i>et al.</i>,  2009)
;
_computing_publication_material
;
<i>OLEX2</i> (Dolomanov <i>et al.</i>,  2009)
;
_computing_structure_refinement
;
SHELXL2014 (Sheldrick, 2015)
;
_computing_structure_solution
;
SHELXS97 (Sheldrick, 2008)
;
_diffrn_ambient_temperature      293.15
_diffrn_detector_area_resol_mean 16.0874
_diffrn_measured_fraction_theta_full 0.998
_diffrn_measured_fraction_theta_max 0.997
_diffrn_measurement_device       'four-circle diffractometer'
_diffrn_measurement_device_type  'Agilent Xcalibur, Eos'
_diffrn_measurement_method       '\w scans'
_diffrn_radiation_monochromator  graphite
_diffrn_radiation_type           MoK\a
_diffrn_radiation_wavelength     0.71073
_diffrn_reflns_av_R_equivalents  0.0163
_diffrn_reflns_limit_h_max       8
_diffrn_reflns_limit_h_min       -9
_diffrn_reflns_limit_k_max       9
_diffrn_reflns_limit_k_min       -7
_diffrn_reflns_limit_l_max       14
_diffrn_reflns_limit_l_min       -14
_diffrn_reflns_number            4864
_diffrn_reflns_theta_full        25.242
_diffrn_reflns_theta_max         26.369
_diffrn_reflns_theta_min         3.211
_exptl_absorpt_coefficient_mu    0.286
_exptl_absorpt_correction_T_max  1.00000
_exptl_absorpt_correction_T_min  0.89610
_exptl_absorpt_correction_type   multi-scan
_exptl_absorpt_process_details
;
(CrysAlis PRO; Agilent, 2014)
;
_exptl_crystal_colour            Colorless
_exptl_crystal_density_diffrn    1.377
_exptl_crystal_density_method    'not measured'
_exptl_crystal_description       ' '
_exptl_crystal_F_000             284
_exptl_crystal_size_max          0.4
_exptl_crystal_size_mid          0.35
_exptl_crystal_size_min          0.3
_refine_diff_density_max         0.289
_refine_diff_density_min         -0.324
_refine_ls_extinction_method     none
_refine_ls_goodness_of_fit_ref   1.031
_refine_ls_hydrogen_treatment    mixed
_refine_ls_matrix_type           full
_refine_ls_number_parameters     176
_refine_ls_number_reflns         2678
_refine_ls_number_restraints     0
_refine_ls_restrained_S_all      1.031
_refine_ls_R_factor_all          0.0653
_refine_ls_R_factor_gt           0.0461
_refine_ls_shift/su_max          0.000
_refine_ls_shift/su_mean         0.000
_refine_ls_structure_factor_coef Fsqd
_refine_ls_weighting_details
'w=1/[\s^2^(Fo^2^)+(0.0452P)^2^+0.2184P] where P=(Fo^2^+2Fc^2^)/3'
_refine_ls_weighting_scheme      calc
_refine_ls_wR_factor_gt          0.1042
_refine_ls_wR_factor_ref         0.1183
_reflns_number_gt                2002
_reflns_number_total             2678
_reflns_threshold_expression     'I > 2\s(I)'
_cod_data_source_file            lh5867sup1.cif
_cod_data_source_block           I
_cod_original_cell_volume        660.0(2)
_cod_database_code               1549345
_shelx_space_group_comment
;
The symmetry employed for this shelxl refinement is uniquely defined
by the following loop, which should always be used as a source of
symmetry information in preference to the above space-group names.
They are only intended as comments.
;
_shelx_estimated_absorpt_t_min   0.894
_shelx_estimated_absorpt_t_max   0.919
_shelx_hkl_file
;
   0   0   2 268967. 1598.72   5
   0   0  -2 268662. 1637.80   5
   0   0   3 104475. 1220.58   5
   0   0  -3 103032. 1240.46   5
   0   0  -4 1544.56 185.579   5
   0   0   4 1397.95 169.678   5
   0   0  -5 125121. 1808.36   5
   0   0   5 126267. 1751.62   5
   0   0   5 124633. 1376.76   1
   0   0  -6 10562.8 581.615   5
   0   0   6 9783.65 541.704   5
   0   0   6 10205.0 429.760   1
   0   0   7 2265.62 220.899   1
   0   0  -7 2150.86 294.901   5
   0   0  -8 2551.82 347.752   5
   0   0   8 2346.61 239.606   1
   0   0  -9-114.401 150.961   5
   0   0   9 68.5942 78.3543   1
   0   0  10 565.237 147.414   1
   0   0 -10 419.198 183.152   5
   0   0 -11 322.827 202.722   5
   0   0  11 498.765 135.689   1
   0   0 -12 1970.26 413.892   5
   0   0 -13 238.544 218.221   5
   0   0 -14 956.992 345.888   5
   0   1 -14 654.292 316.564   5
   0   1 -13 956.232 244.764   3
   0   1 -13 282.534 195.001   5
   0   1 -12 241.522 180.644   5
   0   1 -12 220.582 113.159   3
   0   1 -11 898.385 216.659   3
   0  -1  11 1352.48 209.993   1
   0   1 -11 1499.97 345.083   5
   0   1 -10-10.5746 199.149   5
   0  -1  10 120.331 69.5811   1
   0  -1   9 1103.87 182.177   1
   0  -1   9 1034.96 144.317   2
   0   1  -9 937.043 222.525   5
   0  -1   8 439.385 96.6425   2
   0   1  -8 345.915 167.347   5
   0   1  -7 490.779 165.781   5
   0  -1   7 888.806 134.772   2
   0   1  -6 9853.71 601.831   5
   0  -1   6 9561.00 399.980   2
   0  -1   5 2572.56 199.856   2
   0  -1   5 2678.27 274.301   5
   0   1  -5 2648.08 294.491   5
   0   1  -4 59879.8 1216.96   5
   0  -1   4 59631.4 1179.63   5
   0  -1   4 60829.1 898.840   2
   0  -1   3 81732.8 1218.75   5
   0   1  -3 81035.4 1034.52   3
   0  -1   3 79432.1 962.002   2
   0   1  -3 82517.3 1266.83   5
   0  -1   2 691773. 3021.01   5
   0   1  -2 686333. 2685.78   3
   0  -1   2 687962. 2653.78   2
   0   1  -2 694203. 3075.09   5
   0   1  -1 243403. 1491.09   5
   0   1  -1 239547. 1420.15   3
   0  -1   1 242181. 1452.86   5
   0   1  -1 243154. 1499.33   2
   0  -1   1 242191. 1392.43   3
   0  -1   1 245702. 1493.33   2
   0  -1  -2 33984.5 583.704   1
   0  -1  -2 33013.3 502.721   5
   0  -1  -2 32925.2 501.791   4
   0   1   2 33394.1 581.930   1
   0  -1  -3 296577. 1918.27   1
   0   1   3 290953. 1869.98   5
   0   1   3 292543. 1891.58   1
   0  -1  -3 292711. 1899.91   5
   0  -1  -4 72390.8 1053.38   1
   0  -1  -4 71270.9 1111.26   5
   0   1   4 72426.6 1038.17   1
   0   1   4 71341.1 1094.51   5
   0  -1  -5 41945.7 984.321   5
   0   1   5 43723.5 879.972   1
   0   1   5 41752.9 950.733   5
   0  -1  -6 25081.1 843.772   5
   0   1   6 24272.8 803.543   5
   0   1   6 24566.1 712.812   1
   0   1   7 149.702 73.5175   1
   0  -1  -7 6.11009 85.5540   5
   0  -1  -8 6322.26 515.658   5
   0   1   8 7367.96 446.924   1
   0   1   9 5618.03 411.840   1
   0  -1  -9 5313.71 510.861   5
   0   1  10 1220.19 206.354   1
   0  -1 -10 1232.49 282.853   5
   0   1  11 2128.25 284.746   1
   0  -1 -11 2055.52 381.939   5
   0   1  12 1743.07 275.028   1
   0  -1 -12 2345.65 427.786   5
   0  -1 -13-78.1282 191.041   5
   0  -1 -14 808.459 309.059   5
   0   2 -13-509.621 256.572   5
   0   2 -12 826.139 324.982   5
   0   2 -12 700.534 197.847   3
   0   2 -11 158.362 131.286   3
   0   2 -11 217.087 200.655   5
   0   2 -10 633.599 192.548   3
   0   2 -10 582.529 219.129   5
   0   2  -9 3988.09 416.482   3
   0   2  -9 3679.85 488.381   5
   0   2  -8 2008.14 269.700   3
   0  -2   8 1901.19 220.947   2
   0   2  -8 2389.38 385.941   5
   0  -2   7 11210.0 518.721   2
   0   2  -7 10929.5 723.350   5
   0   2  -7 11014.8 599.457   3
   0   2  -6 9.08589 68.3228   3
   0  -2   6 1.02933 49.7661   2
   0   2  -6 179.872 128.570   5
   0   2  -5 21029.6 720.240   3
   0   2  -5 20110.2 837.454   5
   0  -2   5 21800.3 687.975   2
   0  -2   4 43332.7 941.470   2
   0   2  -4 41594.4 948.255   3
   0   2  -4 43258.7 1126.62   5
   0  -2   4 43444.0 1089.34   5
   0   2  -3 116644. 1672.61   5
   0  -2   3 118439. 1597.26   5
   0   2  -3 112629. 1471.41   3
   0  -2   3 112762. 1472.52   2
   0  -2   3 116724. 1462.30   3
   0  -2   2 995353. 4232.30   2
   0   2  -2 992284. 4324.39   5
   0  -2   2 985015. 3981.85   3
   0   2  -2 999999. 4295.34   2
   0   2  -2 978538. 4120.99   3
   0  -2   2 983931. 4217.60   5
   0  -2   1 1251.50 146.131   1
   0  -2   1 1473.43 145.351   5
   0   2  -1 1386.20 156.459   3
   0  -2   1 1174.16 144.506   2
   0  -2   1 1401.55 147.091   3
   0   2  -1 1388.25 147.293   5
   0   2  -1 1240.25 154.053   2
   0  -2   0 201010. 1819.39   1
   0   2   0 197718. 1840.33   1
   0   2   0 197576. 1409.01   5
   0  -2   0 197592. 1387.46   5
   0   2   0 198412. 1858.85   2
   0  -2  -1 29455.6 512.078   4
   0   2   1 30531.8 726.496   1
   0   2   1 30227.8 486.073   4
   0  -2  -1 29194.8 693.804   1
   0  -2  -2 17531.0 546.616   1
   0  -2  -2 17567.6 380.668   4
   0   2   2 17154.3 555.658   1
   0   2   2 17557.0 373.164   4
   0   2   3 351.750 69.6025   4
   0  -2  -3 244.357 56.1404   5
   0   2   3 297.092 76.8268   1
   0  -2  -3 287.163 61.1571   4
   0  -2  -3 253.402 75.5514   1
   0  -2  -4 6686.53 368.975   1
   0   2   4 7251.86 390.042   1
   0  -2  -4 6750.92 326.265   4
   0  -2  -4 6832.69 328.944   5
   0  -2  -5 18551.0 617.820   5
   0   2   5 19307.3 668.834   1
   0  -2  -5 19442.7 666.465   1
   0  -2  -5 19082.3 618.017   4
   0   2   6 6018.92 396.385   1
   0  -2  -6 6151.26 398.165   1
   0  -2  -6 5878.84 395.018   5
   0  -2  -6 6381.54 401.533   4
   0  -2  -7 8146.62 515.765   4
   0  -2  -7 8153.38 511.522   5
   0   2   7 8222.43 487.416   1
   0   2   8 4981.90 400.125   1
   0  -2  -8 5216.26 446.193   5
   0  -2  -9 258.829 162.884   5
   0   2   9 140.704 93.8608   1
   0   2  10 32.9856 85.0446   1
   0  -2 -10 40.7560 115.814   5
   0   2  11 4120.03 417.358   1
   0  -2 -11 3272.49 449.790   5
   0  -2 -12 2639.46 444.567   5
   0   2  12 2787.73 360.984   1
   0  -2 -13 3836.33 558.126   5
   0  -2 -14 103.600 148.049   5
   0  -2 -15 272.695 188.231   5
   0   3 -12 4089.90 648.027   5
   0   3 -12 4366.86 521.795   3
   0   3 -11 2011.50 348.817   3
   0   3 -11 1589.15 402.948   5
   0   3 -10-31.5934 116.507   3
   0   3 -10 134.636 206.262   5
   0   3  -9 1780.08 300.818   3
   0   3  -9 2652.72 434.115   5
   0  -3   8 2148.64 265.383   2
   0   3  -8 2492.47 420.666   5
   0   3  -8 1959.16 285.357   3
   0  -3   7 1097.95 198.176   2
   0   3  -7 1121.58 270.777   5
   0   3  -7 1188.73 226.342   3
   0   3  -6 10685.6 611.096   3
   0   3  -6 10551.0 713.122   5
   0  -3   6 10911.6 579.291   2
   0  -3   5 93167.5 1648.02   2
   0   3  -5 92698.6 1942.75   5
   0   3  -5 92538.1 1708.14   3
   0  -3   4 141250. 2107.70   5
   0   3  -4 139323. 2007.20   3
   0   3  -4 140207. 2198.56   5
   0  -3   4 142098. 2009.48   2
   0  -3   4 139887. 1934.06   3
   0  -3   3 86554.7 1546.98   2
   0  -3   3 85731.4 1467.25   3
   0  -3   3 83652.5 1503.39   5
   0   3  -3 85028.1 1575.65   5
   0   3  -3 84143.0 1610.52   2
   0   3  -3 83457.4 1475.97   3
   0  -3   3 83760.4 1493.34   1
   0  -3   2 21769.2 691.156   5
   0  -3   2 22149.4 749.624   1
   0   3  -2 21289.7 780.938   2
   0  -3   2 21303.5 699.991   3
   0   3  -2 22224.9 735.815   5
   0  -3   2 22212.6 773.789   2
   0   3  -2 20027.3 702.172   3
   0  -3   1 44016.5 892.370   5
   0   3  -1 43874.6 921.212   5
   0  -3   1 44538.5 1049.80   1
   0  -3   1 44654.2 999.453   3
   0   3  -1 44544.0 1126.40   2
   0  -3   0 1863.57 170.070   5
   0  -3   0 2039.27 217.413   3
   0   3   0 1807.07 225.067   1
   0   3   0 1817.51 183.691   4
   0   3   0 2142.46 251.551   2
   0  -3   0 2554.01 251.702   1
   0   3   1 73973.2 1400.84   1
   0   3   1 73346.4 1394.49   2
   0   3   1 74913.4 996.381   4
   0  -3  -1 73011.5 966.729   5
   0  -3  -1 74502.8 1346.19   1
   0  -3  -2 196258. 1605.21   4
   0   3   2 195463. 2284.33   1
   0   3   2 193960. 2291.57   2
   0   3   2 194855. 1474.18   4
   0  -3  -2 197177. 2202.42   1
   0  -3  -3 363.726 102.464   1
   0   3   3 289.852 108.541   1
   0  -3  -3 274.327 66.1547   4
   0   3   3 239.275 61.5984   4
   0  -3  -4 3391.69 305.260   1
   0   3   4 3283.93 233.347   4
   0  -3  -4 3453.82 231.076   4
   0  -3  -4 3114.08 219.492   5
   0   3   4 3007.58 295.649   1
   0  -3  -5 62886.2 1352.24   1
   0  -3  -5 62291.8 1076.52   4
   0   3   5 63199.0 1385.04   1
   0  -3  -5 61326.0 1091.79   5
   0  -3  -6 2269.01 275.994   1
   0   3   6 2029.71 259.527   1
   0  -3  -6 2155.06 232.500   5
   0  -3  -6 2641.04 249.483   4
   0   3   7 1512.68 240.710   1
   0  -3  -7 1708.65 220.825   4
   0  -3  -7 1560.36 228.518   5
   0  -3  -8 4563.88 407.127   5
   0   3   8 4358.05 407.278   1
   0   3   9 775.463 186.160   1
   0  -3  -9 887.134 217.555   5
   0  -3 -10 4725.28 492.603   5
   0   3  10 5280.63 489.208   1
   0  -3 -11 735.195 235.025   5
   0   3  11 841.968 217.280   1
   0   3  12 269.732 147.801   1
   0  -3 -12 351.746 196.223   5
   0   3  13 96.1134 104.280   1
   0  -3 -13 266.573 176.572   5
   0  -3 -14 485.134 257.501   5
   0  -3 -15 436.309 240.833   5
   0   4 -12-65.5199 266.007   5
   0   4 -11 1314.37 300.354   3
   0   4 -11 1191.58 395.682   5
   0   4 -10 2868.77 522.489   5
   0   4 -10 2588.18 413.088   3
   0   4  -9 70.8394 166.122   5
   0   4  -9 472.970 208.569   3
   0   4  -8 165.411 150.653   3
   0   4  -8 512.563 232.517   5
   0   4  -7 55405.8 1598.43   3
   0   4  -7 52057.7 1794.24   5
   0   4  -6 277.425 187.465   5
   0   4  -6 38.4618 120.677   3
   0   4  -5 20045.5 976.295   5
   0  -4   5 19333.9 851.289   1
   0   4  -5 18393.1 852.578   3
   0   4  -4 11149.8 638.498   3
   0  -4   4 11183.7 632.798   1
   0   4  -4 11252.6 684.548   5
   0   4  -3 2405.70 301.710   5
   0  -4   3 1976.43 243.865   5
   0  -4   3 2278.26 280.286   1
   0   4  -3 2250.50 313.375   2
   0   4  -3 2153.35 278.812   3
   0  -4   2 4324.57 340.511   5
   0   4  -2 4180.32 359.951   5
   0  -4   2 4855.27 406.164   1
   0   4  -2 3848.78 384.876   2
   0   4  -1 1637.02 258.187   2
   0  -4   1 1349.20 184.498   5
   0  -4   1 1260.35 196.966   3
   0   4  -1 1474.60 195.982   5
   0  -4   1 1454.04 228.518   1
   0   4   0 12202.8 665.099   1
   0  -4   0 13219.8 506.152   5
   0   4   0 12680.6 542.233   4
   0  -4   0 11945.7 598.022   3
   0  -4   0 12220.4 634.150   1
   0   4   0 12611.2 691.233   2
   0  -4  -1 1690.16 173.596   5
   0   4   1 1502.25 243.043   2
   0  -4  -1 1718.69 239.003   1
   0   4   1 1589.98 240.426   1
   0   4   1 1797.05 191.534   4
   0   4   2 614.492 165.658   1
   0  -4  -2 592.006 145.668   1
   0   4   2 325.345 113.325   2
   0   4   3 30940.2 1070.35   2
   0   4   3 29998.1 1059.72   1
   0   4   3 32377.1 693.453   4
   0  -4  -3 32416.3 765.242   4
   0   4   4 212.894 72.6023   4
   0  -4  -4 129.839 51.3682   4
   0   4   4 181.652 110.490   1
   0   4   5 6260.23 354.270   4
   0  -4  -5 6169.41 344.357   5
   0  -4  -5 6359.83 356.631   4
   0   4   5 5748.92 480.482   1
   0   4   6 21203.3 947.908   1
   0  -4  -6 22416.5 718.904   5
   0  -4  -6 22164.1 717.496   4
   0  -4  -7 1595.82 215.238   4
   0  -4  -7 1482.91 212.258   5
   0   4   7 1763.45 292.838   1
   0  -4  -8 48084.5 1282.28   5
   0   4   8 53109.1 1566.13   1
   0   4   9 16869.1 925.967   1
   0  -4  -9 17054.1 829.338   5
   0   4  10 332.048 157.164   1
   0  -4 -10 585.149 186.132   5
   0   4  11 2958.94 415.590   1
   0   4  11 2819.14 355.619   2
   0  -4 -11 2830.91 399.977   5
   0  -4 -12-202.176 145.685   5
   0   4  12-39.1096 107.356   1
   0   4  13 487.067 209.685   1
   0  -4 -13 797.562 276.461   5
   0  -4 -14 230.873 197.065   5
   0  -4 -15 1024.37 332.753   5
   0   5 -11 349.548 206.196   3
   0   5 -11 131.002 224.474   5
   0   5 -10 1022.33 369.482   5
   0   5 -10 756.362 249.216   3
   0   5  -9 150.476 188.603   5
   0   5  -9 384.049 209.279   3
   0   5  -8-58.9206 140.299   5
   0   5  -8-6.86540 121.376   3
   0   5  -7 213.501 172.086   3
   0   5  -7 82.6250 180.618   5
   0   5  -6 607.086 202.424   3
   0   5  -6 546.313 254.657   5
   0   5  -5 1930.20 309.050   3
   0   5  -5 1867.34 339.770   5
   0   5  -4 31.9899 99.1158   2
   0   5  -4 106.857 129.020   5
   0   5  -3 2476.38 362.364   2
   0   5  -3 2265.72 315.923   5
   0  -5   2 7417.67 488.407   5
   0   5  -2 7679.19 615.027   2
   0   5  -2 7761.94 530.839   5
   0   5  -1 3567.59 427.909   2
   0   5  -1 3864.71 374.345   4
   0  -5   1 4392.75 350.348   5
   0   5   0 21301.0 787.338   4
   0  -5   0 21188.7 721.191   5
   0   5   0 21156.3 1019.95   2
   0   5   1 15702.1 856.583   1
   0  -5  -1 16135.5 594.503   5
   0   5   1 16586.0 634.242   4
   0   5   1 15273.6 852.205   2
   0   5   2 5913.79 532.077   1
   0   5   2 5629.86 339.887   4
   0  -5  -2 5693.81 341.067   5
   0   5   2 6205.96 553.377   2
   0   5   3 2525.54 345.027   1
   0   5   3 2816.62 232.773   4
   0   5   3 2784.53 365.324   2
   0  -5  -3 2604.78 254.560   4
   0   5   4 13040.5 496.707   4
   0   5   4 12774.0 793.170   1
   0  -5  -4 12399.8 540.485   4
   0   5   4 13069.6 789.509   2
   0   5   5 26584.1 754.627   4
   0  -5  -5 27977.0 818.941   4
   0   5   5 26367.1 1152.87   1
   0   5   5 27220.4 1149.21   2
   0  -5  -5 26861.6 723.477   5
   0  -5  -6 98.1058 77.5409   4
   0  -5  -6 142.729 80.4211   5
   0   5   6 28.6488 107.217   2
   0   5   6 26.7525 87.6036   1
   0   5   7 22089.9 1069.41   2
   0  -5  -7 21173.6 774.497   4
   0   5   7 22970.7 1113.71   1
   0  -5  -7 22457.6 781.777   5
   0  -5  -8 2745.53 303.432   5
   0   5   8 2725.33 388.418   2
   0   5   8 2764.77 414.523   1
   0   5   9 9047.15 696.680   2
   0  -5  -9 8583.85 578.108   5
   0   5   9 7898.61 687.232   1
   0   5  10 2609.60 389.344   2
   0   5  10 2282.48 386.632   1
   0  -5 -10 2493.64 336.687   5
   0  -5 -11 330.543 169.339   5
   0   5  11 199.625 159.985   1
   0   5  11 291.181 145.092   2
   0   5  12 295.579 162.139   1
   0  -5 -12 163.106 108.219   5
   0  -5 -13 439.618 199.868   5
   0   5  13 470.555 230.741   1
   0   6 -10 606.441 276.944   5
   0   6  -9 9675.35 953.736   5
   0   6  -8 387.510 229.008   5
   0   6  -7 4404.85 594.272   5
   0   6  -6 3963.45 535.160   5
   0   6  -5 112.137 165.413   5
   0   6  -4 527.617 213.295   5
   0   6  -4 457.134 225.241   2
   0   6  -3 3902.60 506.209   2
   0   6  -3 3426.54 420.428   5
   0   6  -2 1730.33 323.137   2
   0   6  -2 1292.01 240.898   5
   0   6  -1 295.759 175.308   2
   0  -6   1 236.169 101.701   5
   0   6  -1 546.993 184.059   4
   0  -6   0 10578.1 566.400   5
   0   6   0 10862.3 617.291   4
   0   6   0 10319.3 797.014   2
   0   6   1 2574.15 409.261   2
   0  -6  -1 2687.70 270.892   5
   0   6   1 2608.75 404.058   1
   0   6   1 2728.13 289.344   4
   0   6   2 4125.52 493.306   1
   0  -6  -2 4072.23 321.576   5
   0   6   2 3840.54 484.717   2
   0   6   2 4125.25 324.612   4
   0   6   3 444.255 208.524   2
   0   6   3 502.848 118.260   4
   0  -6  -3 495.337 119.975   5
   0   6   3 401.142 197.823   1
   0   6   4 521.114 115.220   4
   0   6   4 369.129 201.445   2
   0   6   4 223.043 124.516   1
   0   6   5 7809.65 696.263   1
   0   6   5 9407.89 747.813   2
   0  -6  -5 9488.56 522.406   4
   0   6   5 9169.75 465.171   4
   0   6   6 1426.56 202.325   4
   0  -6  -6 1534.10 216.258   4
   0   6   6 1646.19 330.227   2
   0  -6  -6 1621.99 202.076   5
   0   6   6 1726.39 336.978   1
   0   6   7 9530.73 770.069   2
   0  -6  -7 10930.1 543.060   5
   0   6   7 11451.0 873.680   1
   0   6   8-17.0347 130.991   2
   0   6   8 80.4800 126.015   1
   0  -6  -8 83.1213 99.9587   5
   0   6   9 162.865 138.191   1
   0   6   9 252.293 171.614   2
   0  -6  -9 10.5441 81.4009   5
   0  -6 -10 128.060 104.842   5
   0   6  10 142.742 144.892   2
   0   6  10 76.9161 120.989   1
   0   6  11 179.145 167.863   2
   0   6  11-15.6018 151.817   1
   0   6  12 1831.82 407.329   1
   0   6  13-670.310 265.220   1
   0   7  -9 2163.92 512.878   5
   0   7  -8 495.719 265.202   5
   0   7  -7 481.778 241.054   5
   0   7  -6 4234.42 586.155   5
   0   7  -5 7455.51 729.884   5
   0   7  -4 870.977 261.333   5
   0   7  -3 641.600 247.618   2
   0   7  -3 213.802 154.996   4
   0   7  -2 10824.1 905.873   2
   0   7  -2 12319.9 818.538   4
   0   7  -1 2673.93 358.704   4
   0   7  -1 3078.71 494.019   2
   0   7   0 1426.76 346.250   2
   0   7   0 1215.22 238.210   4
   0   7   1 431.120 150.990   4
   0  -7  -1 597.615 157.640   5
   0   7   1 276.570 176.355   2
   0   7   2 10705.6 879.007   2
   0   7   2 10067.3 553.455   4
   0   7   2 10666.9 869.072   1
   0   7   3 53594.2 1974.96   2
   0   7   3 54480.8 1222.23   4
   0   7   3 53458.3 1954.11   1
   0   7   4 33.0772 147.471   2
   0   7   4-38.8396 103.731   4
   0   7   4-252.208 182.325   1
   0   7   5 17748.5 1148.28   1
   0   7   5 18746.6 1177.15   2
   0   7   6 323.749 242.496   2
   0  -7  -6 189.191 87.4191   5
   0   7   6-58.4678 89.5846   4
   0   7   6-42.5420 129.178   1
   0   7   7 2069.30 419.483   1
   0   7   7 2817.90 472.691   2
   0   7   8 1837.57 395.502   2
   0   7   8 2442.51 457.921   1
   0   7   9 197.299 114.925   2
   0   7   9 87.4967 137.959   1
   0   7  10 1246.67 335.477   1
   0   7  10 1090.80 316.678   2
   0   7  11 757.321 287.309   2
   0   7  11 687.578 258.257   1
   0   7  12 435.926 220.237   1
   0   7  13 6.43252 126.511   1
   0   8  -8 899.750 351.970   5
   0   8  -7 241.002 231.720   5
   0   8  -6 643.420 264.937   5
   0   8  -5 705.522 235.842   4
   0   8  -5 591.666 230.381   5
   0   8  -4 2803.38 473.352   4
   0   8  -3 415.447 221.676   4
   0   8  -3 259.885 228.862   2
   0   8  -2 872.067 284.527   2
   0   8  -2 649.676 224.242   4
   0   8  -1 22.3063 158.349   2
   0   8  -1 182.185 127.268   4
   0   8   0 2296.32 335.896   4
   0   8   0 2419.22 480.730   2
   0   8   1 15645.9 1167.59   2
   0   8   1 16224.7 808.135   4
   0   8   2 12820.9 1058.98   2
   0   8   2 13657.0 691.523   4
   0   8   3 1407.56 368.940   2
   0   8   3 1138.89 207.061   4
   0   8   3 1292.52 364.791   1
   0   8   4 4078.14 609.947   1
   0   8   4 3677.00 581.086   2
   0   8   5 6290.35 753.748   1
   0   8   5 6526.88 768.486   2
   0   8   6 1151.91 345.117   2
   0   8   6 1748.75 394.011   1
   0   8   7-214.513 236.223   1
   0   8   7 313.952 231.921   2
   0   8   8 304.339 224.334   2
   0   8   8 768.023 307.630   1
   0   8   9 144.461 144.668   2
   0   8   9 32.2062 142.647   1
   0   8  10 667.166 271.312   2
   0   8  10 691.743 313.705   1
   0   8  11 361.499 231.527   2
   0   8  11 754.050 295.129   1
   0   8  12 920.588 354.722   1
   0   9  -6 503.715 306.590   4
   0   9  -5 794.640 295.599   4
   0   9  -4 2040.33 434.174   4
   0   9  -3 396.788 174.151   4
   0   9  -2 475.097 251.867   2
   0   9  -1-7.32303 229.489   2
   0   9   0 672.596 261.919   2
   0   9   1 833.027 335.798   2
   0   9   2 19.1891 158.379   2
   0   9   3 3380.28 601.347   2
   0   9   4 123.042 177.478   2
   0   9   5 1066.55 345.939   2
   0   9   5 1050.63 357.648   1
   0   9   6-422.590 249.869   2
   0   9   6 247.267 226.516   1
   0   9   7 240.673 224.594   1
   0   9   7 597.239 243.699   2
   0   9   8 1809.15 428.582   2
   0   9   8 3127.96 598.919   1
   0   9   9-30.6901 166.380   1
   0   9   9 177.218 162.725   2
   0   9  10-20.6848 245.857   2
   0   9  11-466.015 259.306   2
   0  10   2 995.495 397.913   2
   0  10   3 737.210 305.845   2
  -1   9  10 1595.73 432.121   2
  -1   9   9 683.989 292.708   2
  -1   9   9 772.505 322.927   1
  -1   9   8 1148.63 384.448   2
  -1   9   8 1549.18 438.125   1
  -1   9   7 1005.97 342.328   2
  -1   9   6 2158.17 487.203   2
  -1   9   5 2875.52 549.564   2
  -1   9   4-22.3069 134.206   2
  -1   9   3 926.608 353.563   2
  -1   9   2 142.393 191.689   2
  -1   9   1 280.611 164.464   4
  -1   9   1 315.323 233.720   2
  -1   9   0 159.626 201.729   2
  -1   9   0 93.0737 118.701   4
  -1   9  -1-140.920 131.416   4
  -1   9  -2 2561.53 436.997   4
  -1   9  -3-173.815 211.518   4
  -1   9  -4 492.451 253.625   4
  -1   9  -5 266.295 207.465   4
  -1   9  -6-168.928 198.523   4
  -1   8  12 55.5818 185.195   1
  -1   8  11 7234.23 876.861   1
  -1   8  10-362.009 224.857   1
  -1   8  10 344.333 197.927   2
  -1   8   9 322.329 268.082   1
  -1   8   9 276.784 239.124   2
  -1   8   8 354.264 247.665   2
  -1   8   8 1057.63 325.506   1
  -1   8   7 163.049 163.251   2
  -1   8   7 192.537 194.800   1
  -1   8   6 1763.25 417.416   2
  -1   8   6 1182.92 340.866   1
  -1   8   5 847.749 195.362   4
  -1   8   5 695.809 279.774   2
  -1   8   4-91.4427 197.830   2
  -1   8   4 182.244 119.674   4
  -1   8   3 513.892 158.308   4
  -1   8   3 491.443 239.534   2
  -1   8   2 1356.05 255.454   4
  -1   8   2 1141.99 350.273   2
  -1   8   1 2019.08 429.658   2
  -1   8   1 1062.98 228.103   4
  -1   8   0-273.637 243.637   2
  -1   8   0 62.7654 108.563   4
  -1   8  -1 125.655 148.227   4
  -1   8  -1 277.325 196.211   2
  -1   8  -2 112.174 129.266   4
  -1   8  -3 379.310 209.716   4
  -1   8  -4 269.538 202.449   4
  -1   8  -5 2776.25 515.619   4
  -1   8  -6 29.0565 179.494   4
  -1   8  -7-71.4101 239.895   4
  -1   8  -8 290.620 241.004   5
  -1   7  12 1614.76 395.643   1
  -1   7  11 151.003 180.123   1
  -1   7  10 998.355 323.482   1
  -1   7  10 1401.47 348.632   2
  -1   7   9 1793.84 399.284   1
  -1   7   9 2824.55 484.700   2
  -1   7   8 5342.58 671.494   1
   1  -7  -8 4838.40 437.761   5
  -1   7   8 5691.67 666.773   2
  -1   7   7 19141.1 887.291   4
  -1   7   7 18671.6 1205.67   2
   1  -7  -7 19205.0 833.107   5
  -1   7   7 19599.9 1252.06   1
  -1   7   6 178.333 211.274   2
  -1   7   6 108.125 218.909   1
  -1   7   6 22.8232 87.4052   4
  -1   7   5 158.449 118.180   4
  -1   7   5 8.55986 149.435   1
  -1   7   5 317.503 174.754   2
  -1   7   4 3683.12 369.155   4
  -1   7   4 5263.55 637.630   2
  -1   7   4 5345.40 643.555   1
  -1   7   3 5993.51 678.612   2
  -1   7   3 4043.21 386.839   4
  -1   7   2 1777.45 263.969   4
  -1   7   2 2126.27 402.459   2
  -1   7   1 119.781 102.547   4
  -1   7   1 201.352 154.077   2
  -1   7   0 9509.80 670.981   4
  -1   7   0 11023.9 925.362   2
  -1   7  -1 14783.9 1079.60   2
  -1   7  -1 14390.2 868.037   4
  -1   7  -2-15.7477 135.769   4
  -1   7  -3 2344.11 404.585   4
  -1   7  -4 1792.34 393.903   4
  -1   7  -5-172.204 177.153   4
  -1   7  -5 123.734 204.397   5
  -1   7  -6 3726.03 566.023   5
  -1   7  -7 548.715 274.253   5
  -1   7  -8 1051.41 349.982   5
  -1   7  -9 1078.25 366.812   5
   1  -6 -12 446.337 177.760   5
  -1   6  12 184.606 160.848   1
  -1   6  11 628.518 224.014   1
   1  -6 -11 983.556 252.695   5
  -1   6  10 138.665 107.848   2
  -1   6  10 416.896 213.537   1
   1  -6 -10 477.851 186.155   5
  -1   6   9 146.656 152.151   1
  -1   6   9-16.8843 105.542   2
   1  -6  -9-34.8290 116.957   5
  -1   6   8 1870.66 364.393   2
  -1   6   8 2158.26 388.259   1
   1  -6  -8 2156.60 302.240   5
   1  -6  -7 16.5133 77.6989   5
  -1   6   7 206.148 143.938   4
  -1   6   7-32.1349 139.810   1
  -1   6   7-9.91715 135.873   2
  -1   6   6 150.325 85.8304   4
  -1   6   6 384.350 173.580   2
  -1   6   6 324.570 191.215   1
  -1   6   5 4287.66 373.510   4
  -1   6   5 5723.26 602.407   2
  -1   6   5 5527.45 601.593   1
  -1   6   4 75.8262 113.075   2
  -1   6   4 181.618 178.893   1
  -1   6   4 133.859 62.7590   4
  -1   6   3 9529.96 547.010   4
  -1   6   3 10675.1 820.494   1
   1  -6  -2 4607.88 409.504   5
  -1   6   2 4876.79 569.739   2
  -1   6   2 3977.43 359.146   4
  -1   6   1 41112.0 1580.56   2
   1  -6  -1 39679.8 1201.12   5
  -1   6   1 39993.4 1191.34   4
  -1   6   0 39302.0 1257.46   4
  -1   6   0 41227.5 1615.81   2
  -1   6  -1 4197.56 533.898   2
  -1   6  -1 4652.91 468.583   4
  -1   6  -2 12661.7 807.336   4
  -1   6  -2 13657.8 956.199   2
  -1   6  -3 12765.5 860.699   4
  -1   6  -4-12.9017 156.775   5
  -1   6  -5 2009.40 383.989   5
  -1   6  -6 2421.66 435.960   5
  -1   6  -7 3815.68 578.268   5
  -1   6  -8 1870.49 423.127   5
  -1   6  -9 4032.92 637.537   5
  -1   6 -10 900.591 343.148   5
   1  -5 -14 1310.67 327.892   5
   1  -5 -13 1.62460 161.520   5
  -1   5  12 443.161 219.117   1
   1  -5 -12 498.669 209.967   5
  -1   5  11-88.6941 110.709   1
   1  -5 -11 28.9755 85.4284   5
  -1   5  10 2266.53 396.179   1
  -1   5  10 1598.32 293.387   2
   1  -5 -10 2075.62 338.443   5
  -1   5   9 22542.8 1091.06   2
  -1   5   9 23988.7 1196.32   1
   1  -5  -9 23818.5 1023.09   5
  -1   5   8 5886.86 555.186   2
   1  -5  -8 5060.58 452.634   5
  -1   5   8 4790.21 533.228   1
   1  -5  -7 3801.09 368.135   5
  -1   5   7 3683.01 444.242   2
  -1   5   7 4017.96 483.993   1
  -1   5   6 5706.65 555.920   1
  -1   5   6 6564.72 469.488   4
   1  -5  -5 24.6533 62.8359   4
  -1   5   5-105.209 108.726   2
  -1   5   5 30.2321 98.4357   1
  -1   5   5 124.710 88.7581   4
   1  -5  -4 135.285 82.8869   4
  -1   5   4 82.2104 110.041   2
  -1   5   4 151.852 79.0495   4
  -1   5   4 77.7362 128.955   1
   1  -5  -3 1348.58 215.381   4
  -1   5   3 1142.57 243.058   2
  -1   5   3 1821.82 316.527   1
  -1   5   3 1379.75 193.957   4
   1  -5  -2 69851.7 1529.18   4
  -1   5   2 70384.9 1377.83   4
  -1   5   2 71163.2 1877.60   2
  -1   5   1 11092.4 751.276   2
  -1   5   1 11140.7 576.242   4
   1  -5  -1 10980.3 583.992   5
  -1   5   0 28250.6 976.645   4
  -1   5   0 28820.9 1208.64   2
   1  -5   0 27173.8 946.919   5
  -1   5  -1 13705.3 856.370   2
  -1   5  -1 13185.6 714.938   4
   1  -5   1 13091.3 684.498   5
  -1   5  -2 7334.77 576.786   4
  -1   5  -2 7042.38 627.949   2
  -1   5  -3 11975.0 750.966   5
  -1   5  -4 11828.4 793.107   5
  -1   5  -5 1753.59 337.157   5
  -1   5  -6 10678.4 839.564   5
  -1   5  -7 1581.09 346.522   5
  -1   5  -8 419.916 232.389   5
  -1   5  -9 139.667 220.626   5
  -1   5 -10 4513.15 687.424   5
  -1   5 -11-0.79606 168.537   5
   1  -4 -15 2619.75 508.692   5
   1  -4 -14 176.399 133.830   5
   1  -4 -13 284.712 182.710   5
  -1   4  12 2054.90 351.252   1
   1  -4 -12 2490.69 411.305   5
  -1   4  11 5968.30 576.998   1
   1  -4 -11 5923.17 602.617   5
  -1   4  10 16439.9 935.574   1
   1  -4 -10 16240.4 913.720   5
  -1   4  10 16129.6 810.013   2
   1  -4  -9 4187.40 454.255   5
  -1   4   9 4083.98 448.718   1
  -1   4   9 4630.71 436.552   2
  -1   4   8 9257.98 666.341   1
   1  -4  -8 10021.8 629.185   5
  -1   4   8 8909.42 602.299   2
   1  -4  -7 7518.77 507.757   5
  -1   4   7 7986.19 568.949   2
  -1   4   7 7757.23 593.056   1
   1  -4  -6 703.505 149.026   5
  -1   4   6 461.965 131.470   4
  -1   4   6 497.471 151.689   1
   1  -4  -6 630.133 144.385   4
  -1   4   6 531.433 160.269   2
   1  -4  -5 4159.39 341.509   4
  -1   4   5 4058.04 402.821   2
  -1   4   5 4083.52 333.040   4
  -1   4   5 3661.52 392.866   1
   1  -4  -4 2900.20 279.073   4
  -1   4   4 2707.96 257.661   4
  -1   4   4 2974.29 344.144   2
  -1   4   4 2501.85 327.100   1
  -1   4   3 85433.8 1375.58   4
  -1   4   3 83983.3 1820.39   2
   1  -4  -3 83379.5 1474.35   4
  -1   4   3 84437.3 1827.48   1
   1  -4  -2 112383. 1737.11   4
  -1   4   2 109412. 1552.13   4
  -1   4   2 111255. 2104.75   1
  -1   4   2 113307. 2097.28   2
  -1   4   1 2803.95 261.408   4
   1  -4  -1 2640.37 279.348   4
  -1   4   1 2505.98 319.882   2
   1  -4   0 56348.3 1234.51   5
  -1   4   0 55592.1 1488.60   2
  -1   4   0 55571.6 1249.19   4
   1  -4   1 3600.19 332.633   5
  -1   4  -1 3884.51 410.609   2
   1  -4   1 3228.51 310.711   3
  -1   4  -1 3914.05 362.199   4
  -1   4  -2 3783.32 368.918   5
   1  -4   2 4080.31 352.283   3
   1  -4   2 3736.60 354.484   5
  -1   4  -3 986.141 220.508   5
  -1   4  -4 1106.61 249.179   5
  -1   4  -5 17552.8 946.852   5
  -1   4  -6 343.944 166.959   5
  -1   4  -6 341.072 143.888   3
  -1   4  -7 22445.6 1196.49   5
  -1   4  -7 22084.8 951.526   3
  -1   4  -8 4709.61 590.725   5
  -1   4  -8 4825.53 469.659   3
  -1   4  -9 1237.11 338.611   5
  -1   4  -9 1581.18 287.102   3
  -1   4 -10 924.800 328.807   5
  -1   4 -10 1287.94 266.172   3
  -1   4 -11 1075.10 349.215   5
  -1   4 -12 1077.14 388.975   5
   1  -3 -15 393.434 309.381   5
   1  -3 -14 2955.46 523.286   5
   1  -3 -13 311.835 188.217   5
   1  -3 -12 3075.57 464.504   5
  -1   3  12 3316.78 401.344   1
   1  -3 -11 86.2233 136.389   5
  -1   3  11 0.22616 92.6955   1
   1  -3 -10 232.224 168.179   5
  -1   3  10 17.4701 77.5229   1
  -1   3  10 77.2179 62.8612   2
  -1   3   9 14138.1 646.259   2
   1  -3  -9 13798.7 800.966   5
  -1   3   9 12287.5 699.221   1
  -1   3   8 2299.02 266.983   2
  -1   3   8 2124.24 293.963   1
   1  -3  -8 2744.99 342.652   5
  -1   3   7 11766.0 642.092   1
   1  -3  -7 10875.5 617.797   5
  -1   3   7 11451.1 582.990   2
  -1   3   6 13418.4 627.098   2
   1  -3  -6 13357.4 632.599   1
   1  -3  -6 13154.3 620.671   5
  -1   3   6 14298.9 692.174   1
   1  -3  -6 14119.3 638.228   4
  -1   3   5 433.241 137.594   1
  -1   3   5 479.084 118.579   4
  -1   3   5 537.967 137.915   2
   1  -3  -5 739.379 144.624   4
   1  -3  -5 463.527 128.648   1
  -1   3   4 277976. 2842.72   2
   1  -3  -4 280256. 2528.38   4
  -1   3   4 273957. 2466.67   4
  -1   3   4 276992. 2917.90   1
   1  -3  -4 274681. 2765.84   1
   1  -3  -3 8199.69 416.426   4
   1  -3  -3 8585.81 492.537   1
  -1   3   3 8405.87 497.860   2
  -1   3   3 9407.43 531.866   1
  -1   3   3 8097.51 392.464   4
   1  -3  -2 164449. 2144.65   2
  -1   3   2 165093. 1729.58   4
  -1   3   2 164319. 2230.92   1
  -1   3   2 170492. 2216.57   2
   1  -3  -2 167196. 1865.03   4
   1  -3  -2 164951. 2150.72   1
  -1   3   1 9689.27 432.924   4
   1  -3  -1 9637.94 524.013   1
   1  -3  -1 9769.95 523.059   2
  -1   3   1 10138.0 548.513   2
   1  -3  -1 10179.0 474.342   4
   1  -3   0 11573.5 502.515   5
   1  -3   0 11947.5 589.302   1
   1  -3   0 10663.1 562.160   2
  -1   3   0 11251.5 594.332   2
  -1   3   0 11430.7 505.743   4
   1  -3   1 1025.23 162.457   5
   1  -3   1 913.762 171.497   1
   1  -3   1 975.103 177.795   2
  -1   3  -1 1068.23 181.902   4
  -1   3  -1 910.303 189.360   2
   1  -3   2 59009.3 1369.30   2
   1  -3   2 56575.3 1250.21   5
  -1   3  -2 55694.4 1267.50   5
   1  -3   2 58848.1 1121.95   3
   1  -3   3 74947.1 1287.96   3
   1  -3   3 72731.1 1554.13   2
   1  -3   3 73844.9 1512.12   5
  -1   3  -3 73901.3 1570.37   5
   1  -3   4 1436.44 231.720   2
   1  -3   4 1983.43 221.458   3
  -1   3  -4 2398.99 310.580   5
   1  -3   5 97.8436 70.2315   2
  -1   3  -5 284.726 118.998   3
  -1   3  -5 160.113 124.786   5
  -1   3  -6 3462.30 429.264   5
  -1   3  -6 3452.06 331.710   3
   1  -3   6 3077.47 350.041   2
  -1   3  -7 293.449 153.091   5
  -1   3  -7 92.2444 85.0100   3
  -1   3  -8 47004.8 1735.97   5
  -1   3  -8 46700.7 1304.85   3
  -1   3  -9 5319.99 634.638   5
  -1   3  -9 5455.07 470.409   3
  -1   3 -10 604.196 197.139   3
  -1   3 -10 593.989 247.116   5
  -1   3 -11 7151.33 594.185   3
  -1   3 -11 6711.79 788.668   5
  -1   3 -12 1060.47 356.751   5
   1  -2 -14 35.4546 131.698   5
   1  -2 -13-274.305 187.815   5
   1  -2 -12 4716.03 596.727   5
  -1   2  11 25.5536 66.3636   1
   1  -2 -11-27.1658 114.737   5
  -1   2  10 5.73308 36.1569   2
  -1   2  10-0.16945 64.2484   1
   1  -2 -10 8.14043 125.020   5
  -1   2   9 1732.53 176.652   2
   1  -2  -9 1585.36 286.762   5
  -1   2   9 1812.75 245.699   1
  -1   2   8-4.81399 56.9193   1
   1  -2  -8 72.6763 112.400   5
  -1   2   8 38.8689 45.2790   2
   1  -2  -7 25523.2 960.391   5
  -1   2   7 24776.9 682.852   2
   1  -2  -7 25175.5 788.887   1
  -1   2   7 24552.7 808.547   1
   1  -2  -6 48725.5 1049.54   1
  -1   2   6 47804.6 954.180   2
   1  -2  -6 48727.8 1196.29   4
   1  -2  -6 47787.4 1192.91   5
  -1   2   6 47393.0 1078.41   1
  -1   2   5 20915.0 632.989   2
   1  -2  -5 20767.7 718.669   5
   1  -2  -5 20455.2 712.239   4
   1  -2  -5 20767.1 657.518   1
  -1   2   5 21060.3 692.253   1
  -1   2   4 225415. 2184.95   4
  -1   2   4 221722. 2197.05   1
  -1   2   4 224933. 2084.79   2
   1  -2  -4 229409. 2160.23   4
   1  -2  -4 228035. 2127.66   1
  -1   2   3 4149.56 285.583   2
  -1   2   3 4150.71 268.020   4
  -1   2   3 4738.59 315.220   1
   1  -2  -3 4400.96 290.651   1
   1  -2  -3 4313.62 276.476   4
  -1   2   2 68765.9 1007.08   4
  -1   2   2 67491.5 1153.78   2
   1  -2  -2 67383.6 1029.99   4
  -1   2   2 65769.7 1182.96   1
   1  -2  -2 68115.6 1165.08   1
   1  -2  -2 70351.1 1148.10   2
   1  -2  -1 34362.8 832.580   2
  -1   2   1 33951.0 697.478   4
  -1   2   1 35192.1 848.116   2
   1  -2  -1 35660.6 751.473   4
   1  -2  -1 34857.4 838.469   1
  -1   2   0 81548.0 1343.11   2
   1  -2   0 80882.3 1199.10   4
   1  -2   0 80500.4 1303.72   2
  -1   2   0 81897.6 1164.13   4
  -1   2  -1 76505.5 1249.31   4
   1  -2   1 78110.7 1220.39   5
   1  -2   1 76989.4 1299.70   2
   1  -2   2 523.876 90.1636   3
   1  -2   2 557.051 127.505   2
   1  -2   2 461.664 104.952   5
   1  -2   3 16086.8 486.125   3
   1  -2   3 15948.7 644.587   2
   1  -2   3 15395.8 635.640   5
  -1   2  -3 15382.6 492.732   3
  -1   2  -3 16339.6 677.412   5
  -1   2  -4 8843.36 395.868   3
   1  -2   4 8564.62 491.951   2
  -1   2  -4 9239.89 554.139   5
   1  -2   4 9393.52 396.846   3
   1  -2   4 8640.34 505.793   5
  -1   2  -5 839.294 137.974   3
  -1   2  -5 733.834 185.417   5
   1  -2   5 929.351 159.623   2
   1  -2   6 100.881 72.2190   2
  -1   2  -6 80.4946 124.330   5
  -1   2  -6 46.5824 72.4677   3
   1  -2   7 11765.3 639.537   2
  -1   2  -7 11212.8 550.791   3
  -1   2  -7 11857.6 775.781   5
   1  -2   8 47202.7 1315.56   2
  -1   2  -8 48971.8 1667.72   5
  -1   2  -8 45350.9 1164.27   3
  -1   2  -9 99.4032 85.1570   3
   1  -2   9 97.7452 87.4944   2
  -1   2 -10 66.8533 184.553   5
  -1   2 -10 22.5474 82.6562   3
  -1   2 -11 163.840 119.981   3
  -1   2 -11 364.473 161.469   5
  -1   2 -12 1071.76 346.551   5
  -1   2 -13 3193.29 585.887   5
   1  -1 -14 790.271 315.390   5
   1  -1 -13 47.2029 159.142   5
   1  -1 -12 933.861 307.737   5
   1  -1 -11 871.301 285.782   5
  -1   1  11 804.868 160.551   1
  -1   1  10 653.481 145.483   1
   1  -1 -10 565.788 211.792   5
  -1   1   9 42.6428 67.5199   1
   1  -1  -9 193.342 142.016   5
  -1   1   8 11150.2 492.171   1
   1  -1  -8 12209.4 728.593   5
  -1   1   7 1604.11 117.639   2
   1  -1  -7 1709.70 259.425   5
  -1   1   7 1750.58 188.633   1
  -1   1   6 20766.3 435.182   2
   1  -1  -6 21235.3 818.426   5
  -1   1   6 22258.1 609.381   1
  -1   1   5 5912.13 295.803   1
  -1   1   5 6355.79 245.296   2
   1  -1  -5 5445.88 383.854   4
   1  -1  -5 5934.11 287.307   1
   1  -1  -5 6212.78 401.804   5
  -1   1   4 9993.54 362.412   1
   1  -1  -4 9595.05 448.853   5
   1  -1  -4 9940.35 345.935   1
  -1   1   4 10047.3 309.863   2
   1  -1  -4 10922.8 477.990   4
  -1   1   3 65778.7 895.882   1
   1  -1  -3 66006.5 851.226   1
  -1   1   3 67765.8 825.622   2
  -1   1   3 65830.0 1059.72   4
   1  -1  -3 66482.1 1048.83   4
   1  -1  -2 11264.3 360.046   1
  -1   1   2 10932.2 348.584   2
   1  -1  -2 10749.8 372.975   4
  -1   1   2 11345.7 366.100   1
   1  -1  -2 10738.6 343.949   2
  -1   1   2 10757.6 373.789   4
   1  -1  -1 39254.2 693.346   2
  -1   1   1 40053.9 659.442   4
   1  -1  -1 41348.8 674.284   4
  -1   1   0 379767. 2069.88   4
   1  -1   0 379573. 2132.41   4
  -1   1  -1 1612.33 158.826   4
   1  -1   1 1573.90 150.913   5
   1  -1   2 15619.4 518.455   5
   1  -1   2 15570.1 326.809   3
  -1   1  -2 15330.6 531.444   5
  -1   1  -3 5382.35 354.611   5
  -1   1  -3 5566.87 221.938   3
   1  -1   3 5573.53 345.374   5
   1  -1   4-12.3740 65.8190   5
  -1   1  -4 94.6571 52.6703   3
  -1   1  -4-88.0256 88.2939   5
   1  -1   5 8968.82 508.689   5
  -1   1  -5 8998.67 359.969   3
  -1   1  -6 5711.05 475.042   5
  -1   1  -6 5319.94 312.371   3
  -1   1  -7 1210.09 165.234   3
  -1   1  -7 683.714 191.745   5
  -1   1  -8 3769.92 315.191   3
  -1   1  -8 4092.37 467.277   5
  -1   1  -9 18666.3 1048.56   5
  -1   1  -9 16993.5 717.499   3
  -1   1 -10 415.999 213.345   5
  -1   1 -10 475.883 143.921   3
  -1   1 -11 5410.22 658.760   5
  -1   1 -11 5202.05 455.898   3
   1  -1  11 5963.95 509.704   1
  -1   1 -12 1480.11 370.085   5
  -1   1 -12 1338.10 261.880   3
   1  -1  12 1424.89 260.598   1
  -1   1 -13 292.760 228.674   5
  -1   1 -14 680.183 279.504   5
   1   0 -14-205.560 191.315   5
   1   0 -13 1593.09 396.464   5
   1   0 -12 217.605 169.596   5
   1   0 -11 1464.84 316.794   5
   1   0 -10 1133.19 275.527   5
  -1   0  10 1049.56 153.390   1
  -1   0   9 5382.62 319.108   1
   1   0  -9 4833.69 524.969   5
   1   0  -8 1627.14 284.096   5
  -1   0   8 1246.66 145.265   1
   1   0  -7 8008.83 566.204   5
  -1   0   7 8090.04 334.901   1
  -1   0   6 128801. 1198.51   1
   1   0  -6 125877. 2045.30   5
  -1   0   5 846.184 87.0567   1
   1   0  -5 758.072 157.279   5
  -1   0   5 861.774 159.010   5
  -1   0   4 198179. 1102.85   1
  -1   0   4 200449. 2062.80   5
   1   0  -4 197170. 2095.84   5
   1   0  -3 9230.43 415.491   4
   1   0  -3 9357.01 406.335   5
   1   0  -2 228921. 1702.02   5
   1   0  -2 229549. 1728.30   4
  -1   0   1 5338.21 220.972   4
   1   0  -1 5393.06 220.786   4
  -1   0  -1 77099.2 812.930   4
   1   0   1 77731.7 840.910   5
   1   0   2 60051.7 859.916   5
  -1   0  -2 59594.6 876.614   5
   1   0   3 455.905 95.0375   5
  -1   0  -3 387.408 93.9481   5
  -1   0  -4 20167.6 670.327   5
   1   0   4 20424.4 641.874   5
  -1   0  -5 32368.1 949.935   5
   1   0   5 35278.6 938.674   5
  -1   0  -6 19286.9 810.054   5
   1   0   6 18291.0 745.532   5
  -1   0  -7 10080.8 637.737   5
  -1   0  -8 173.012 120.791   5
   1   0   8 75.6443 76.3177   1
  -1   0  -9 6112.27 582.775   5
   1   0   9 6485.75 482.892   1
   1   0  10 433.820 138.380   1
  -1   0 -10 220.481 172.262   5
  -1   0 -11 595.478 231.488   5
   1   0  11 803.711 197.567   1
  -1   0 -12 2294.77 451.192   5
   1   0  12 1807.58 297.390   1
  -1   0 -13 12190.6 1035.54   5
  -1   0 -14-3.61321 201.880   5
   1   1 -14 105.319 143.469   3
   1   1 -13 1061.69 282.052   3
   1   1 -13 1274.45 332.268   5
   1   1 -12 2461.67 472.925   5
   1   1 -11 3275.25 522.376   5
  -1  -1  10 598.714 111.298   1
   1   1 -10 589.199 228.430   5
  -1  -1   9 3789.51 253.574   1
   1   1  -9 3877.25 474.851   5
   1   1  -8 17418.8 934.440   5
  -1  -1   8 17660.3 510.704   1
   1   1  -7 197.471 91.8639   5
  -1  -1   7 309.512 68.5235   1
   1   1  -6 1006.11 201.522   5
   1   1  -5 145970. 2127.28   5
  -1  -1   5 136945. 1985.19   5
  -1  -1   4 4401.49 324.092   5
   1   1  -4 4504.86 341.068   5
  -1  -1   3 155858. 1688.53   5
   1   1  -3 151080. 1081.95   2
   1   1  -3 154874. 1731.31   5
   1   1  -2 453224. 2524.65   5
  -1  -1   2 453582. 2493.86   5
   1   1  -1 136956. 1291.92   3
  -1  -1   1 133737. 883.468   1
   1   1  -1 134786. 900.204   1
   1   1  -1 136383. 1119.70   5
  -1  -1   1 134948. 1113.66   5
   1   1   0 93407.5 879.252   1
  -1  -1   0 94991.3 883.614   1
   1   1   0 94274.2 705.798   4
  -1  -1   0 95910.1 957.385   3
   1   1   0 94411.7 948.708   3
  -1  -1  -1 559243. 2478.36   1
   1   1   1 554141. 2481.74   1
  -1  -1  -1 563467. 2128.31   3
   1   1   1 559511. 2097.46   3
   1   1   2 292171. 2000.08   1
   1   1   2 291869. 1457.11   5
  -1  -1  -2 289622. 1493.80   5
   1   1   3 54062.6 789.864   5
   1   1   3 54533.2 959.484   1
  -1  -1  -3 53949.2 817.116   5
  -1  -1  -4 34914.0 778.612   5
   1   1   4 35694.0 760.285   5
   1   1   4 33709.5 815.536   1
  -1  -1  -5 90955.1 1431.81   5
   1   1   5 90546.7 1436.11   1
   1   1   5 89544.3 1371.30   5
  -1  -1  -6 4087.11 344.845   5
   1   1   6 4131.72 332.037   1
   1   1   6 4193.61 333.695   5
   1   1   7 62643.8 1354.36   1
  -1  -1  -7 62128.7 1457.40   5
   1   1   8 993.154 190.538   1
  -1  -1  -8 926.885 214.939   5
   1   1   9 1485.41 239.199   1
  -1  -1  -9 1948.95 314.184   5
   1   1  10 1019.74 211.925   1
  -1  -1 -10 750.838 247.756   5
   1   1  11 8251.73 606.973   1
  -1  -1 -11 8339.61 749.949   5
  -1  -1 -12 6634.82 707.593   5
   1   1  12 5357.77 509.933   1
   1   1  13 4192.01 472.568   1
  -1  -1 -13 4459.69 609.658   5
  -1  -1 -14-27.2936 181.412   5
  -1  -1 -15 305.029 249.273   5
   1   2 -13-15.5909 115.481   3
   1   2 -13 5.73340 223.034   5
   1   2 -12 555.276 263.751   5
   1   2 -12 69.0252 141.746   3
   1   2 -11 1264.57 338.031   5
   1   2 -11 1081.22 283.916   3
   1   2 -10 1042.52 293.842   5
   1   2 -10 1676.95 317.936   3
   1   2  -9 25.3422 141.551   5
  -1  -2   9 173.936 70.7344   1
   1   2  -9 11.0683 117.212   3
   1   2  -8 585.658 156.964   3
   1   2  -8 556.717 210.648   5
   1   2  -7 8547.96 639.162   5
   1   2  -7 7542.22 536.718   3
   1   2  -6 13593.4 687.750   3
   1   2  -6 13856.2 762.224   5
  -1  -2   5 20986.6 557.959   1
   1   2  -5 22746.3 889.692   5
   1   2  -5 21671.5 813.822   3
  -1  -2   4 149169. 1417.21   1
  -1  -2   4 152104. 1984.06   5
   1   2  -4 150787. 1997.53   3
   1   2  -4 152064. 2064.96   5
   1   2  -4 151674. 1579.88   2
   1   2  -3 64220.2 1204.69   5
  -1  -2   3 61798.9 883.492   1
  -1  -2   3 64783.8 1160.43   5
   1   2  -3 62328.0 1035.76   2
   1   2  -3 63265.0 1217.32   3
  -1  -2   2 882.868 139.656   3
  -1  -2   2 893.596 124.100   5
   1   2  -2 979.514 136.349   5
  -1  -2   2 938.170 110.306   1
   1   2  -2 803.979 111.809   1
   1   2  -2 1081.91 155.083   3
   1   2  -1 35244.4 814.958   3
   1   2  -1 35346.5 714.034   1
  -1  -2   1 36227.1 633.845   5
  -1  -2   1 35257.7 676.659   1
  -1  -2   1 35721.3 797.671   3
   1   2  -1 36733.7 667.160   5
  -1  -2   0 2111.49 115.365   5
  -1  -2   0 1965.66 179.104   3
   1   2   0 2216.29 124.293   5
  -1  -2   0 2440.27 187.684   1
   1   2   0 2225.80 197.829   3
   1   2   0 2170.86 183.775   1
   1   2   1 754224. 3527.44   1
  -1  -2  -1 762488. 3379.52   3
  -1  -2  -1 755470. 3480.29   1
  -1  -2  -2 39021.7 846.682   1
   1   2   2 38885.5 850.706   1
  -1  -2  -3 41587.2 930.036   1
   1   2   3 39848.7 547.896   5
   1   2   3 40557.1 921.871   1
  -1  -2  -3 40496.1 574.931   5
  -1  -2  -4 25857.7 788.837   1
   1   2   4 25546.7 566.366   5
  -1  -2  -4 26582.5 603.599   5
   1   2   4 27047.9 800.752   1
   1   2   5 36152.3 983.774   1
  -1  -2  -5 37787.1 1014.16   1
  -1  -2  -5 36440.1 839.089   5
   1   2   5 37196.6 804.820   5
   1   2   6 20290.7 775.089   1
   1   2   6 19945.4 672.377   5
  -1  -2  -6 19823.4 703.613   5
   1   2   7 13782.5 672.263   1
  -1  -2  -7 13612.3 653.821   5
   1   2   7 12992.8 599.495   5
   1   2   8 2216.65 289.807   1
  -1  -2  -8 1997.38 284.447   5
  -1  -2  -9 12959.6 760.532   5
   1   2   9 14280.7 753.917   1
   1   2  10 17171.1 864.651   1
  -1  -2 -10 18142.1 958.845   5
   1   2  11 6749.87 571.021   1
  -1  -2 -11 6015.57 603.761   5
   1   2  12 1860.43 318.065   1
  -1  -2 -12 2561.60 444.020   5
  -1  -2 -13 1109.57 303.651   5
   1   2  13 1011.73 267.328   1
  -1  -2 -14 1261.10 333.931   5
  -1  -2 -15-284.894 247.391   5
   1   3 -13 647.376 231.579   3
   1   3 -12 955.003 285.084   3
   1   3 -12 601.149 231.047   5
   1   3 -11 1682.45 449.680   5
   1   3 -11 1320.85 314.997   3
   1   3 -10 2107.25 362.888   3
   1   3 -10 2678.03 492.855   5
   1   3  -9 557.008 170.669   3
   1   3  -9 702.962 260.837   5
   1   3  -8 8016.08 629.237   3
   1   3  -8 7977.48 704.220   5
  -1  -3   7 66607.4 1258.99   1
   1   3  -7 66690.6 1703.53   3
   1   3  -7 67584.7 1884.03   5
  -1  -3   6-40.2516 50.6598   1
   1   3  -6 19.0625 110.947   3
   1   3  -5 13264.5 732.942   5
   1   3  -5 11661.4 573.523   2
  -1  -3   5 13516.4 543.662   1
   1   3  -5 12494.5 678.489   3
  -1  -3   4 92257.8 1645.40   5
   1   3  -4 88778.1 1549.70   2
   1   3  -4 91167.5 1735.11   3
  -1  -3   4 88374.6 1373.85   1
   1   3  -4 87109.3 1708.66   5
  -1  -3   3 5326.95 332.931   1
   1   3  -3 5090.97 372.085   2
  -1  -3   3 5221.81 358.792   5
  -1  -3   3 5545.68 400.671   3
   1   3  -3 5321.23 382.679   5
   1   3  -3 5451.35 411.035   3
   1   3  -2 40974.5 986.279   1
   1   3  -2 39599.3 1030.51   2
  -1  -3   2 41686.9 928.118   1
  -1  -3   2 42511.7 905.861   5
   1   3  -2 42101.4 951.286   5
   1   3  -2 41501.1 1084.81   3
   1   3  -1 42061.3 997.781   1
  -1  -3   1 40822.7 989.004   3
  -1  -3   1 41217.8 774.108   5
   1   3  -1 39166.8 1005.55   3
   1   3  -1 41122.4 822.470   5
  -1  -3   1 39875.3 912.387   1
   1   3   0 84356.6 965.097   5
  -1  -3   0 84082.9 1345.86   1
  -1  -3   0 85287.6 898.018   5
   1   3   0 83885.8 1413.70   1
  -1  -3   0 84599.2 1408.47   3
  -1  -3  -1 7773.07 191.465   5
  -1  -3  -1 8487.15 438.378   3
  -1  -3  -1 8952.11 451.342   1
   1   3   1 8391.96 457.651   1
   1   3   1 8223.62 260.441   4
  -1  -3  -2 29436.6 849.801   1
   1   3   2 27616.0 843.734   1
   1   3   3 66258.2 1351.82   1
  -1  -3  -3 64889.4 587.045   4
  -1  -3  -4 62778.9 741.870   4
  -1  -3  -4 61505.6 1335.96   1
   1   3   4 60499.5 1345.93   1
  -1  -3  -4 61345.3 795.166   5
  -1  -3  -5 103418. 1192.21   4
  -1  -3  -5 103026. 1802.55   1
  -1  -3  -5 100043. 1253.64   5
   1   3   5 103858. 1831.57   1
  -1  -3  -6 187.490 68.2553   5
   1   3   6 212.260 118.008   1
  -1  -3  -6 171.251 63.3506   4
   1   3   7 5346.97 455.267   1
  -1  -3  -7 5152.00 380.345   5
   1   3   7 4889.59 351.691   5
  -1  -3  -7 5185.10 356.876   4
  -1  -3  -8 19176.3 802.778   5
   1   3   8 19123.0 887.950   1
  -1  -3  -8 19084.7 760.479   4
   1   3   9 2125.59 323.563   1
  -1  -3  -9 1110.57 231.354   5
   1   3  10 27389.4 1157.27   1
  -1  -3 -10 27045.6 1130.95   5
  -1  -3 -11 10201.3 748.633   5
   1   3  11 10532.2 749.232   1
   1   3  12 262.817 153.728   1
  -1  -3 -12 160.016 130.415   5
   1   3  13 3047.12 443.382   1
  -1  -3 -13 3340.90 503.715   5
  -1  -3 -14-226.817 169.407   5
  -1  -3 -15-485.115 239.310   5
   1   4 -12 352.473 248.231   3
   1   4 -12 221.680 214.225   5
   1   4 -11 1198.48 313.638   3
   1   4 -11 1556.63 399.365   5
   1   4 -10 236.818 187.472   3
   1   4 -10 164.676 180.620   5
   1   4  -9 15025.0 1080.10   5
   1   4  -9 16206.4 992.683   3
   1   4  -8 9628.73 808.012   5
   1   4  -8 10893.6 781.892   3
   1   4  -7 2025.40 368.587   5
   1   4  -7 2271.38 367.163   3
  -1  -4   7 2334.89 277.900   1
   1   4  -6 35087.3 1284.85   3
  -1  -4   6 34982.7 1036.54   1
   1   4  -6 34736.1 1346.72   5
   1   4  -5 445.900 162.946   3
  -1  -4   5 599.634 147.079   1
   1   4  -5 478.852 153.853   2
   1   4  -5 339.651 161.658   5
   1   4  -4 6115.42 483.062   2
   1   4  -4 7416.10 559.392   3
   1   4  -4 6994.61 527.963   5
  -1  -4   4 6478.59 437.124   1
   1   4  -3 5834.40 473.633   3
   1   4  -3 5593.43 460.287   2
  -1  -4   3 4786.55 378.108   5
  -1  -4   3 4456.64 362.008   1
   1   4  -3 5200.75 418.730   5
   1   4  -2 7764.92 463.978   5
   1   4  -2 7018.22 508.185   2
  -1  -4   2 9241.33 462.189   5
   1   4  -2 8316.71 553.447   3
  -1  -4   2 7897.40 479.966   1
   1   4  -1 186699. 1977.17   5
  -1  -4   1 185767. 2307.03   1
  -1  -4   1 183104. 1837.46   5
   1   4  -1 180671. 2464.17   3
   1   4  -1 182650. 2560.68   2
   1   4  -1 188014. 2496.88   1
  -1  -4   0 5060.08 262.101   5
  -1  -4   0 5611.64 410.406   1
   1   4   0 4897.21 278.997   5
   1   4   1 63130.0 932.387   4
  -1  -4  -1 65335.2 1415.27   1
  -1  -4  -1 63392.7 741.554   5
   1   4   1 63808.4 1474.86   1
  -1  -4  -1 60344.0 1346.43   3
  -1  -4  -2 13045.7 254.305   5
   1   4   2 14816.7 345.676   4
  -1  -4  -2 14868.2 692.414   1
  -1  -4  -2 13289.2 640.285   3
   1   4   2 14397.7 705.947   1
   1   4   3 1254.76 92.7147   4
   1   4   3 1317.47 227.594   1
  -1  -4  -3 1207.74 80.3003   5
  -1  -4  -4 1656.79 128.365   4
   1   4   4 1527.15 258.555   1
  -1  -4  -4 1556.48 115.236   5
   1   4   5 5446.51 467.915   1
  -1  -4  -5 5548.09 271.135   5
  -1  -4  -5 5434.33 257.625   4
  -1  -4  -6 56027.2 962.706   4
  -1  -4  -6 57398.1 1037.46   5
   1   4   6 56199.3 1539.49   1
   1   4   7-136.224 145.767   1
  -1  -4  -7 135.346 69.4790   4
  -1  -4  -7-38.1032 77.5753   5
  -1  -4  -8 45217.5 1092.66   4
   1   4   8 44675.4 1476.59   1
  -1  -4  -8 44933.3 1170.13   5
   1   4   9 6184.12 572.630   1
  -1  -4  -9 7002.36 513.423   5
   1   4  10 7296.56 642.376   1
  -1  -4 -10 8782.88 626.774   5
  -1  -4 -11 2150.09 338.590   5
   1   4  11 1743.05 328.437   1
   1   4  12 15.2438 125.656   1
  -1  -4 -12-11.6191 125.190   5
   1   4  13-166.430 134.699   1
  -1  -4 -13 202.561 178.342   5
  -1  -4 -14 60.4383 122.017   5
   1   4  14 371.944 198.116   1
   1   5 -12-193.369 167.986   3
   1   5 -11 292.568 273.254   5
   1   5 -11-49.8804 130.067   3
   1   5 -10 1657.35 363.685   3
   1   5 -10 876.792 323.537   5
   1   5  -9 6756.19 755.273   5
   1   5  -9 6958.63 710.086   3
   1   5  -8 1812.85 358.543   3
   1   5  -8 1197.51 317.500   5
   1   5  -7 4270.00 517.248   3
   1   5  -7 4236.05 533.747   5
   1   5  -6 12680.4 867.417   5
   1   5  -6 12086.6 825.818   3
   1   5  -5 133.267 149.155   3
   1   5  -5-105.355 136.831   2
   1   5  -5 94.4591 129.698   5
   1   5  -4 689.748 215.681   3
   1   5  -4 591.330 177.992   2
   1   5  -4 988.823 228.563   5
   1   5  -3 8004.13 557.632   5
   1   5  -3 8311.33 635.915   2
   1   5  -3 8358.55 630.289   3
  -1  -5   2 41.6811 70.6761   5
   1   5  -2-25.4214 94.8549   2
   1   5  -2 54.3929 93.8895   5
   1   5  -1 1428.62 264.659   1
   1   5  -1 1243.40 192.053   5
   1   5  -1 814.358 215.932   2
  -1  -5   1 1161.77 166.871   5
  -1  -5   0 8233.41 380.699   5
   1   5   0 7843.93 607.582   2
   1   5   0 8250.49 597.506   1
   1   5   1 3939.86 436.385   2
  -1  -5  -1 4295.17 233.578   5
   1   5   1 4100.66 429.223   1
   1   5   2 49941.8 798.751   4
   1   5   2 50514.6 1507.21   1
  -1  -5  -2 47713.6 647.104   5
   1   5   3 79684.2 870.435   4
   1   5   3 81418.6 1931.59   1
  -1  -5  -4 31134.4 463.213   5
   1   5   4 32544.4 564.720   4
   1   5   5 398.793 152.612   1
  -1  -5  -5 313.924 66.1547   5
  -1  -5  -5 235.002 62.3409   4
   1   5   6 2237.87 346.074   1
  -1  -5  -6 2071.45 183.887   5
  -1  -5  -6 1894.89 180.373   4
   1   5   7 1147.64 261.809   1
  -1  -5  -7 1661.68 197.599   5
  -1  -5  -7 1565.85 177.976   4
  -1  -5  -8 9710.14 487.651   4
  -1  -5  -8 9428.19 510.076   5
   1   5   8 9771.40 750.468   1
  -1  -5  -9 4689.16 405.647   5
   1   5   9 3557.51 478.076   1
  -1  -5 -10 9228.96 617.107   5
   1   5  10 9763.59 796.062   1
   1   5  11 7811.64 732.099   1
  -1  -5 -11 8346.42 626.263   5
   1   5  12 242.079 191.745   1
  -1  -5 -12-367.764 167.378   5
   1   5  13 123.454 166.071   1
   1   5  14 564.846 242.217   1
   1   6 -11 3298.90 568.546   3
   1   6 -10 560.450 262.093   3
   1   6 -10 298.767 256.599   5
   1   6  -9 307.130 218.271   3
   1   6  -9 306.253 259.266   5
   1   6  -8 1693.35 377.988   3
   1   6  -8 1906.57 426.973   5
   1   6  -7 223.494 176.826   5
   1   6  -7-32.9948 169.328   3
   1   6  -6-132.284 165.423   3
   1   6  -6-74.7737 162.061   5
   1   6  -5 343.814 176.111   2
   1   6  -5 541.981 207.918   3
   1   6  -5 310.266 171.915   5
   1   6  -4 71.9980 117.096   2
   1   6  -4 32.1478 110.331   5
   1   6  -3 806.734 238.957   2
   1   6  -3 1113.82 254.524   5
   1   6  -2 4484.39 530.350   2
   1   6  -2 3189.53 358.929   5
   1   6  -1 432.029 145.903   5
  -1  -6   1 450.047 122.898   5
   1   6  -1 246.345 187.577   2
   1   6   0 547.573 179.938   2
   1   6   0 1208.50 202.394   4
   1   6   0 709.417 207.243   1
  -1  -6   0 938.881 142.172   5
   1   6   1 126.997 84.5315   4
   1   6   1 129.071 109.483   2
   1   6   1-135.441 163.047   1
  -1  -6  -1 159.869 74.2791   5
   1   6   2 392.562 90.3482   4
   1   6   2 465.760 155.736   2
  -1  -6  -2 678.435 96.7801   5
   1   6   2 320.012 120.520   1
   1   6   3 4534.53 246.923   4
   1   6   3 4396.36 514.769   2
   1   6   3 3952.65 478.301   1
  -1  -6  -3 4104.82 185.673   5
   1   6   4 6824.60 283.120   4
  -1  -6  -4 5668.52 186.664   5
   1   6   4 7463.36 672.548   1
  -1  -6  -4 6258.44 215.728   5
  -1  -6  -5 5571.61 219.347   5
  -1  -6  -5 5667.45 245.805   5
   1   6   5 6199.76 616.863   1
  -1  -6  -6 15227.4 444.579   5
  -1  -6  -6 15562.6 522.195   4
   1   6   6 15817.5 994.387   1
  -1  -6  -7 2180.90 202.521   5
   1   6   7 2060.49 380.752   1
   1   6   8 154.436 165.468   1
  -1  -6  -8-48.6162 71.9760   5
   1   6   9 10739.2 886.522   1
   1   6  10 3526.95 527.721   1
   1   6  11 485.217 229.238   1
   1   6  12 2065.40 434.084   1
   1   6  12 1346.06 323.311   2
   1   6  13 4311.96 621.397   1
   1   6  14-122.773 200.433   1
   1   7  -9 151.839 237.425   5
   1   7  -8 1429.66 375.594   5
   1   7  -7 1294.46 370.791   5
   1   7  -6 14.3619 174.833   5
   1   7  -5-608.409 231.929   5
   1   7  -5 65.9298 160.319   2
   1   7  -4 2859.78 493.494   2
   1   7  -4 2083.58 359.435   5
   1   7  -3 251.176 202.783   2
   1   7  -3 80.6120 114.840   5
   1   7  -2 155.783 164.957   2
   1   7  -2 23.5365 91.2302   5
   1   7  -1 34.8957 109.876   4
   1   7  -1 195.793 163.633   2
   1   7   0 490.226 150.058   4
   1   7   0 464.964 206.899   2
   1   7   0 184.872 158.419   1
   1   7   1 11661.8 587.388   4
   1   7   1 10984.9 867.203   1
   1   7   1 11661.5 918.747   2
   1   7   2 4973.39 598.763   1
   1   7   2 5385.18 623.135   2
   1   7   3 2380.26 412.196   1
   1   7   3 2917.44 470.043   2
   1   7   3 3116.12 232.854   4
   1   7   4-171.258 241.469   2
   1   7   4-29.3239 45.3097   4
   1   7   4-30.5234 200.137   1
   1   7   5-118.147 200.650   2
   1   7   5 282.497 176.404   1
   1   7   6-47.6749 168.786   2
   1   7   6-283.722 180.155   1
   1   7   7 878.042 275.100   2
   1   7   7 843.876 297.290   1
   1   7   8-27.2444 143.973   1
   1   7   8 20.3579 152.849   2
   1   7   9 42.9142 118.202   1
   1   7   9 31.8351 147.888   2
   1   7  10 1907.77 427.407   1
   1   7  10 1414.62 350.190   2
   1   7  11 1023.36 314.742   1
   1   7  11 459.590 239.933   2
   1   7  12-31.3457 129.689   2
   1   7  12 346.118 239.305   1
   1   7  13-247.537 185.434   1
   1   8  -8 1305.11 416.307   5
   1   8  -7 150.087 165.774   5
   1   8  -6 133.560 201.866   5
   1   8  -5 1389.33 338.989   5
   1   8  -4 705.596 237.931   5
   1   8  -4 684.030 267.671   2
   1   8  -3 290.101 199.513   4
   1   8  -3-64.9731 143.596   2
   1   8  -2 1188.84 271.239   4
   1   8  -2 1019.56 340.825   2
   1   8  -1 61.5829 173.666   2
   1   8  -1 170.027 128.183   4
   1   8   0 3916.32 408.773   4
   1   8   0 3799.68 590.794   2
   1   8   1 3445.87 570.604   2
   1   8   1 3932.46 581.428   1
   1   8   2 76.6253 161.429   2
   1   8   2 152.884 162.926   1
   1   8   3 346.509 272.274   2
   1   8   3 584.690 299.519   1
   1   8   4 1353.07 369.485   2
   1   8   4 1494.26 388.402   1
   1   8   5 2079.27 445.128   2
   1   8   5 1731.80 388.413   1
   1   8   6 518.213 245.138   2
   1   8   6 277.349 173.232   1
   1   8   7 3407.11 564.809   2
   1   8   7 3943.50 607.110   1
   1   8   8 1961.73 445.798   1
   1   8   8 2116.49 434.303   2
   1   8   9 1891.75 439.741   2
   1   8   9 2043.97 476.414   1
   1   8  10 1391.12 387.348   2
   1   8  10 1346.10 384.285   1
   1   8  11 1119.34 357.591   2
   1   8  11 1051.82 355.089   1
   1   8  12 345.899 248.110   2
   1   9  -4 73.5163 218.085   2
   1   9  -3 161.072 168.892   2
   1   9  -2 49.4071 194.866   2
   1   9  -1-90.4950 211.988   2
   1   9   0 923.941 340.984   2
   1   9   1-418.037 258.218   2
   1   9   2 1073.67 326.567   2
   1   9   3 2327.60 480.903   2
   1   9   3 1969.59 462.956   1
   1   9   4 943.164 367.607   2
   1   9   4 1260.72 379.601   1
   1   9   5-12.5098 167.241   2
   1   9   5 214.353 229.232   1
   1   9   6 1350.80 383.136   1
   1   9   6 2169.64 482.055   2
   1   9   7 11.4680 229.585   2
   1   9   7-143.579 243.430   1
   1   9   8 4306.98 682.863   2
   1   9   8 3145.76 600.495   1
   1   9   9 390.946 299.095   2
   1   9  10 1656.38 454.718   2
   1  10   2 175.622 195.626   2
  -2   9   9 3266.90 629.805   2
  -2   9   8 937.726 362.835   2
  -2   9   7 36.2756 172.025   2
  -2   9   6 126.735 221.610   2
  -2   9   5 2239.42 499.131   2
  -2   9   4-60.5945 156.847   2
  -2   9   3 241.513 130.282   4
  -2   9   2 578.942 201.233   4
  -2   9   1 722.155 223.568   4
  -2   9   0-73.8470 165.308   4
  -2   9  -1 1073.14 289.011   4
  -2   9  -2 378.794 156.318   4
  -2   9  -3 7100.39 780.120   4
  -2   9  -4 1348.31 388.761   4
  -2   9  -5 4564.04 689.785   4
  -2   8  10 202.322 198.413   2
  -2   8   9 319.783 216.886   2
  -2   8   8 1557.71 399.605   2
  -2   8   7 4158.15 643.347   2
  -2   8   7 3943.12 467.177   4
  -2   8   6 907.341 248.188   4
  -2   8   6 1030.60 337.660   2
  -2   8   5 419.186 221.609   2
  -2   8   5 199.900 129.138   4
  -2   8   4-214.329 187.004   2
  -2   8   4-176.229 139.951   4
  -2   8   3 57.7185 148.523   2
  -2   8   3 279.822 141.668   4
  -2   8   2 926.185 323.419   2
  -2   8   2 847.846 224.358   4
  -2   8   1 189.601 133.571   4
  -2   8   0 270.545 168.985   4
  -2   8  -1 6597.74 658.197   4
  -2   8  -2 1612.62 367.298   4
  -2   8  -3 2433.44 435.722   4
  -2   8  -4 1000.22 311.157   4
  -2   8  -5-126.984 170.389   4
  -2   8  -6 2129.51 488.627   4
  -2   8  -7 677.727 383.283   4
  -2   7  11 1316.10 385.700   1
   2  -7 -10 915.475 251.363   5
  -2   7  10 1223.70 345.225   2
  -2   7  10 1605.33 389.702   1
  -2   7   9 313.522 176.617   2
   2  -7  -9 376.226 170.953   5
   2  -7  -8 149.624 120.168   5
  -2   7   8 51.9402 122.192   2
  -2   7   8 81.0698 113.940   4
  -2   7   7 2508.53 451.770   2
  -2   7   7 1415.29 290.427   4
  -2   7   6 452.314 187.705   2
  -2   7   6 679.844 217.504   4
  -2   7   5-124.726 114.560   4
  -2   7   5-28.4064 134.123   2
  -2   7   4 3822.11 571.619   2
  -2   7   4 4139.68 433.804   4
  -2   7   3 85.5417 157.199   2
  -2   7   3-22.5610 106.943   4
  -2   7   2 324.204 208.270   2
  -2   7   2 578.078 174.247   4
  -2   7   1 1376.29 269.826   4
  -2   7   0 12821.4 828.103   4
  -2   7  -1 21216.7 1103.42   4
  -2   7  -2 2591.33 414.637   4
  -2   7  -3 2045.67 395.206   4
  -2   7  -4 74.4287 142.632   4
  -2   7  -5 2642.41 496.423   4
  -2   7  -6-259.331 256.522   4
  -2   7  -7 21.3578 188.312   4
  -2   7  -8 448.304 263.106   4
  -2   7  -8 523.574 256.100   5
   2  -6 -13-83.3136 131.879   5
   2  -6 -12 864.966 249.869   5
  -2   6  11 28.9854 144.227   1
   2  -6 -11 136.851 124.322   5
  -2   6  10 8336.16 744.940   2
   2  -6 -10 9379.51 763.635   5
  -2   6  10 8587.79 812.818   1
   2  -6  -9 5497.79 540.983   5
  -2   6   9 5600.42 623.392   2
  -2   6   9 5568.76 645.846   1
  -2   6   8 486.334 205.670   2
  -2   6   8 656.389 206.161   4
  -2   6   8 562.007 257.919   1
   2  -6  -8 496.106 165.556   5
  -2   6   7 12573.5 910.797   2
  -2   6   7 12129.6 922.383   1
  -2   6   7 12567.3 769.808   4
  -2   6   6 442.721 233.069   2
  -2   6   6 391.603 171.007   4
  -2   6   5 300.411 167.715   2
  -2   6   5 191.262 106.535   4
  -2   6   4 2410.98 314.864   4
  -2   6   4 2878.19 443.372   2
  -2   6   3 17.9442 150.135   2
  -2   6   3 35.2861 84.4614   4
  -2   6   2 12784.5 708.819   4
  -2   6   2 12815.9 934.559   2
  -2   6   1 46982.7 1396.88   4
  -2   6   0 4215.91 453.341   4
  -2   6  -1 9870.49 707.335   4
  -2   6  -2 2441.66 378.734   4
  -2   6  -3 3877.05 506.257   4
  -2   6  -4 1599.42 342.378   4
  -2   6  -5 235.134 153.050   4
  -2   6  -6 4909.28 639.400   4
  -2   6  -6 4289.30 607.758   5
  -2   6  -7 365.693 221.179   5
  -2   6  -8 1294.00 390.117   5
  -2   6  -9 739.268 365.998   5
  -2   6 -10-3.27368 176.892   5
   2  -5 -14 463.820 229.141   5
   2  -5 -13 11.7953 139.163   5
   2  -5 -12-53.0069 133.990   5
   2  -5 -11 93.3900 110.757   5
  -2   5  11 187.266 144.783   1
   2  -5 -10 30.7899 105.467   5
  -2   5  10 284.908 178.465   1
  -2   5  10 245.189 158.559   2
  -2   5   9 2225.56 363.687   2
   2  -5  -9 2893.35 400.721   5
  -2   5   9 2109.59 370.876   1
   2  -5  -8 392.860 176.415   5
  -2   5   8 526.878 181.481   2
  -2   5   8 290.990 173.071   1
  -2   5   7 616.269 189.131   2
  -2   5   7 767.815 220.429   1
  -2   5   7 1045.25 208.648   4
  -2   5   6 30054.3 1314.36   1
  -2   5   6 30567.8 1278.82   2
  -2   5   6 29441.4 1088.25   4
  -2   5   5 1682.43 318.489   2
  -2   5   5 1422.45 243.040   4
  -2   5   4 1285.86 276.527   2
  -2   5   4 1201.62 211.471   4
  -2   5   3-21.2041 99.6778   2
  -2   5   3 177.055 90.9261   4
  -2   5   2 1578.64 312.881   2
  -2   5   2 1419.51 236.029   4
  -2   5   1 8012.29 544.164   4
  -2   5   0 1323.09 250.461   4
  -2   5  -1 3887.14 420.071   4
  -2   5  -2 861.570 234.894   4
  -2   5  -3 1581.75 325.118   4
  -2   5  -4 112.580 155.593   4
  -2   5  -5 1220.57 307.749   5
  -2   5  -6 4283.21 549.910   5
  -2   5  -7 158.222 211.266   5
  -2   5  -8 2117.70 456.423   5
  -2   5  -9 752.315 304.749   5
  -2   5 -10 2804.21 553.040   5
  -2   5 -11 1524.90 445.175   5
   2  -4 -14 353.184 173.298   5
   2  -4 -13 1078.46 331.512   5
   2  -4 -12 392.100 236.044   5
   2  -4 -11 2539.01 412.791   5
  -2   4  11 2876.90 395.700   1
  -2   4  10 623.951 180.647   1
   2  -4 -10 998.992 250.063   5
  -2   4   9 13949.8 840.287   1
  -2   4   9 15792.4 801.989   2
   2  -4  -9 15590.0 903.041   5
  -2   4   8 1307.04 276.605   1
  -2   4   8 1446.48 263.661   2
   2  -4  -8 1815.91 312.122   5
  -2   4   7 5613.13 486.804   2
  -2   4   7 5510.41 487.008   4
   2  -4  -7 5433.46 483.461   5
  -2   4   7 5244.24 506.904   1
  -2   4   6 431.844 166.463   2
  -2   4   6 453.369 146.040   1
  -2   4   6 452.798 151.287   4
  -2   4   5 13229.9 674.508   4
  -2   4   5 13497.8 757.719   2
  -2   4   5 12540.3 748.608   1
  -2   4   4 31746.3 1163.64   2
  -2   4   4 31282.4 983.443   4
  -2   4   3 40089.0 1097.26   4
  -2   4   3 41554.5 1344.85   2
   2  -4  -2 19032.0 824.635   4
  -2   4   2 17315.1 712.206   4
  -2   4   2 17880.6 888.791   2
   2  -4  -1 278.604 119.864   4
  -2   4   1 127.197 104.291   4
   2  -4   0 36.0390 89.2389   5
  -2   4   0 518.249 149.076   4
  -2   4  -1 11276.0 657.555   4
  -2   4  -2 5058.06 465.732   4
   2  -4   2 4918.50 379.278   3
   2  -4   3 40587.8 1086.13   3
  -2   4  -3 42073.3 1408.18   4
   2  -4   4 60214.3 1327.48   3
  -2   4  -4 62733.0 1777.37   5
  -2   4  -5 817.320 251.256   5
  -2   4  -6 16913.3 1037.49   5
  -2   4  -7 1576.64 361.411   5
  -2   4  -8 709.535 255.168   5
  -2   4  -9 1015.01 298.339   5
  -2   4 -10 297.111 168.537   5
  -2   4 -11 4431.88 682.614   5
  -2   4 -12-299.791 251.272   5
   2  -3 -14 301.250 161.467   5
   2  -3 -13 6740.00 745.586   5
   2  -3 -12 194.640 164.190   5
   2  -3 -11 3162.98 470.155   5
   2  -3 -10 490.906 203.648   5
  -2   3  10 279.037 131.229   1
   2  -3  -9 1225.62 269.220   5
  -2   3   9 2101.96 295.814   1
   2  -3  -8 62837.2 1682.50   5
  -2   3   8 64300.6 1555.93   1
   2  -3  -7 18379.9 758.332   1
  -2   3   7 16692.1 780.691   1
   2  -3  -7 18105.7 865.367   5
   2  -3  -6 9359.12 536.975   1
  -2   3   6 8463.34 521.729   2
  -2   3   6 8889.99 575.078   4
  -2   3   6 9417.83 585.301   1
  -2   3   5 2289.22 280.543   2
  -2   3   5 2225.79 278.815   4
  -2   3   5 2515.32 304.677   1
   2  -3  -5 2275.34 266.899   1
  -2   3   4 811.667 170.126   4
   2  -3  -4 914.251 180.528   1
   2  -3  -4 806.159 145.496   2
   2  -3  -4 713.153 160.773   4
   2  -3  -3 1426.26 205.858   4
   2  -3  -3 1361.44 220.923   2
  -2   3   3 1474.13 202.333   4
   2  -3  -3 1290.18 201.695   1
   2  -3  -2 30927.5 951.145   4
   2  -3  -2 30632.9 999.664   1
   2  -3  -2 29684.3 980.999   2
  -2   3   2 29867.2 876.208   4
   2  -3  -1 1627.47 227.080   4
   2  -3  -1 1366.99 216.864   2
  -2   3   1 1189.04 185.111   4
   2  -3  -1 1604.82 231.445   1
   2  -3   0 14823.7 687.123   4
  -2   3   0 14235.2 632.661   4
   2  -3   0 14990.5 712.919   2
  -2   3  -1 31198.9 990.298   4
   2  -3   1 32616.7 1018.52   5
  -2   3  -2 3262.71 342.067   4
   2  -3   2 3679.33 380.428   2
   2  -3   2 3419.70 344.377   5
  -2   3  -3 7204.23 533.556   4
   2  -3   3 7317.13 392.660   3
  -2   3  -3 7162.19 533.194   5
   2  -3   4 475.740 107.875   3
  -2   3  -4 788.233 214.051   5
   2  -3   5 25992.8 762.202   3
  -2   3  -5 24480.1 1093.11   5
  -2   3  -6 2691.14 386.387   5
  -2   3  -7 8050.85 715.967   5
  -2   3  -8 17304.5 1097.07   5
  -2   3  -9 9055.24 551.036   3
  -2   3  -9 9429.94 871.068   5
  -2   3 -10-90.4332 209.763   5
  -2   3 -11 874.447 290.735   5
  -2   3 -12 88.5505 202.871   5
   2  -2 -14 1313.39 378.471   5
   2  -2 -13 849.231 279.555   5
   2  -2 -12 667.215 277.553   5
   2  -2 -11 859.504 254.333   5
   2  -2 -10 5776.07 592.978   5
  -2   2  10 6442.80 448.576   1
   2  -2  -9 7169.21 620.215   5
  -2   2   9 6579.09 441.618   1
   2  -2  -8 1942.11 219.589   1
  -2   2   8 1324.88 197.117   1
   2  -2  -8 1767.46 297.178   5
   2  -2  -7 287.366 135.448   5
   2  -2  -7 160.563 79.9784   1
  -2   2   7 146.949 89.7142   1
   2  -2  -6 23573.8 714.165   1
  -2   2   6 22549.3 761.915   1
   2  -2  -6 23289.9 902.145   5
   2  -2  -5 20489.3 665.349   1
  -2   2   5 21232.1 725.003   1
  -2   2   5 20041.6 800.634   4
  -2   2   4 30899.9 924.940   4
   2  -2  -4 31854.2 822.996   2
   2  -2  -4 32271.2 941.299   4
   2  -2  -4 32757.3 852.657   1
   2  -2  -3 15870.3 635.064   4
  -2   2   3 15383.4 610.523   4
   2  -2  -3 16858.8 623.833   2
   2  -2  -3 15813.3 609.049   1
   2  -2  -2 109853. 1602.72   4
   2  -2  -2 106535. 1581.34   2
  -2   2   2 108441. 1534.86   4
   2  -2  -2 112322. 1658.18   1
   2  -2  -1 21509.2 713.821   4
  -2   2   1 20469.0 654.610   4
   2  -2  -1 19347.3 706.888   2
   2  -2   0 3488.81 297.212   4
  -2   2   0 3579.41 287.663   4
  -2   2  -1 71511.7 1345.54   4
   2  -2   1 70599.3 1365.54   5
   2  -2   1 70458.3 1372.55   4
  -2   2  -2 69447.4 1423.50   4
   2  -2   2 68999.6 1404.74   5
   2  -2   3 10081.2 564.924   5
   2  -2   3 10042.2 367.260   3
  -2   2  -3 9680.67 564.229   5
  -2   2  -4 114124. 2060.92   5
   2  -2   4 118312. 1256.59   3
  -2   2  -5 2439.73 344.159   5
  -2   2  -6 6844.05 595.263   5
  -2   2  -7 15776.5 929.754   5
  -2   2  -7 17012.2 587.480   3
  -2   2  -8 62193.9 1978.31   5
  -2   2  -8 60505.2 1189.86   3
  -2   2  -9 44891.1 1750.88   5
  -2   2  -9 43024.9 1073.30   3
  -2   2 -10 10390.3 562.521   3
  -2   2 -10 11831.9 958.509   5
  -2   2 -11 2495.95 477.931   5
  -2   2 -12 1257.04 336.665   5
  -2   2 -13 1766.54 482.612   5
   2  -1 -14 143.794 158.321   5
   2  -1 -13 252.620 217.904   5
   2  -1 -12 686.777 264.409   5
   2  -1 -11-45.3264 174.528   5
   2  -1 -10 3709.00 495.387   5
   2  -1  -9 7754.96 660.533   5
  -2   1   9 8454.55 403.490   1
  -2   1   8 11807.0 460.544   1
   2  -1  -8 12623.1 775.850   5
   2  -1  -7 11365.6 692.482   5
  -2   1   7 10803.5 428.354   1
   2  -1  -6 16737.4 467.379   1
   2  -1  -6 16456.8 762.706   5
  -2   1   6 16362.4 510.704   1
   2  -1  -5 246.255 63.0721   1
   2  -1  -5 93.6216 73.0767   5
   2  -1  -4 1290.61 131.459   2
   2  -1  -4 1062.76 169.892   4
  -2   1   4 1145.81 182.552   4
   2  -1  -4 1132.45 125.327   1
   2  -1  -3 65240.4 1009.41   2
   2  -1  -3 66215.4 1216.07   4
  -2   1   3 64723.3 1218.75   4
   2  -1  -3 65744.5 990.120   1
   2  -1  -2 12466.8 500.457   4
  -2   1   2 11877.0 481.728   4
   2  -1  -1 211204. 1972.64   4
  -2   1   1 209577. 1915.09   4
   2  -1   0 89648.4 1312.80   4
  -2   1   0 85790.3 1218.74   4
  -2   1  -1 138930. 1664.46   4
   2  -1   1 144206. 1743.23   4
  -2   1  -2 42609.7 994.523   4
   2  -1   2 42394.8 1008.58   5
   2  -1   3 173925. 980.508   3
  -2   1  -3 173961. 2182.19   5
   2  -1   3 175473. 2144.29   5
  -2   1  -4 23476.7 866.857   5
   2  -1   4 24211.2 843.735   5
  -2   1  -5 43857.6 613.693   3
  -2   1  -5 44809.1 1294.22   5
  -2   1  -6 8669.34 318.198   3
  -2   1  -6 8812.51 614.195   5
  -2   1  -7 18636.4 523.213   3
  -2   1  -7 19533.6 971.886   5
  -2   1  -8 5487.39 561.066   5
  -2   1  -8 5769.23 326.446   3
  -2   1  -9 11900.6 509.152   3
  -2   1  -9 11864.1 863.426   5
  -2   1 -10 468.957 223.765   5
  -2   1 -10 553.476 125.453   3
  -2   1 -11 330.760 219.765   5
  -2   1 -12 2889.57 499.271   5
   2  -1  12 2526.25 387.653   1
   2  -1  13 1199.09 265.705   1
  -2   1 -13 1267.33 366.663   5
  -2   1 -14 211.098 208.205   5
   2   0 -13 114.408 129.907   5
   2   0 -12 945.923 278.995   5
   2   0 -11 10595.6 888.878   5
   2   0 -10 213.005 157.151   5
   2   0  -9 3635.44 470.157   5
   2   0  -8 5371.99 526.611   5
   2   0  -7 192.402 133.295   5
   2   0  -6 1260.45 222.817   5
   2   0  -5 25981.0 903.330   5
   2   0  -4 31551.6 920.288   5
   2   0  -4 32099.8 928.155   4
   2   0  -3 7945.70 229.738   1
   2   0  -3 8533.65 434.103   4
  -2   0   3 8781.38 450.498   4
   2   0  -2 3911.04 267.215   4
  -2   0   2 4178.24 283.856   4
   2   0  -1 65499.8 1002.33   4
  -2   0   1 64492.9 992.616   4
   2   0   0 51763.8 857.925   4
  -2   0   0 51971.3 846.990   4
   2   0   1 4359.95 264.068   4
  -2   0  -1 4488.97 256.082   4
  -2   0  -2 23293.1 638.573   4
   2   0   2 25281.7 679.616   5
  -2   0  -3 71259.3 1241.75   5
   2   0   3 72710.5 1231.66   5
   2   0   4 47346.4 1084.06   5
  -2   0  -4 47916.5 1127.18   5
  -2   0  -5 12770.7 644.886   5
   2   0   5 13340.9 609.585   5
  -2   0  -5 11800.7 243.395   3
  -2   0  -6 116982. 2044.71   5
  -2   0  -7 38398.1 1277.16   5
  -2   0  -8 11200.7 758.573   5
  -2   0  -9 27889.6 1249.27   5
  -2   0 -10 922.759 298.356   5
   2   0  10 1208.02 244.446   1
   2   0  11 393.879 183.907   1
  -2   0 -11 590.922 127.464   3
   2   0  12 4209.42 488.407   1
  -2   0 -12 4647.69 636.520   5
  -2   0 -13-38.2084 145.128   5
   2   0  13-118.134 125.445   1
  -2   0 -14 283.845 195.925   5
   2   1 -14 246.265 177.485   3
   2   1 -13 2658.21 543.721   5
   2   1 -12-80.1852 147.872   5
   2   1 -11 2239.47 418.419   5
   2   1 -10 694.193 244.381   5
   2   1  -9 3221.03 445.562   5
   2   1  -8 3049.29 409.902   5
   2   1  -7 6543.87 552.629   5
   2   1  -6 883.433 199.635   5
   2   1  -5 16025.8 739.336   5
   2   1  -4 36068.1 1022.29   4
   2   1  -4 36176.9 1009.69   5
   2   1  -3 2733.32 255.139   5
   2   1  -3 2463.67 244.629   4
   2   1  -2 106.362 52.6083   5
   2   1  -2 153.127 35.0227   1
   2   1  -1 5421.58 277.992   4
  -2  -1   1 5325.65 288.898   4
   2   1  -1 5140.60 228.743   1
   2   1   0 177912. 1421.02   4
  -2  -1   0 174340. 1409.20   4
   2   1   0 172169. 1531.96   1
   2   1   0 176742. 1580.99   3
  -2  -1  -1 660391. 2537.24   4
   2   1   1 664893. 2700.16   4
  -2  -1  -2 183291. 1438.28   4
  -2  -1  -2 182365. 1269.74   3
   2   1   2 182998. 1574.92   5
   2   1   2 183320. 1296.11   3
  -2  -1  -3 7111.35 346.615   5
   2   1   3 7319.23 343.896   5
  -2  -1  -3 7098.12 234.513   3
  -2  -1  -3 6657.33 320.019   4
  -2  -1  -4 112299. 1542.23   5
   2   1   4 116075. 1506.55   5
  -2  -1  -5 15547.4 636.589   5
   2   1   5 15432.6 604.806   5
  -2  -1  -6 78431.4 1590.29   5
   2   1   6 82229.4 1637.49   1
   2   1   6 80027.5 1492.20   5
  -2  -1  -7 5265.85 446.108   5
   2   1   7 5496.07 451.740   1
   2   1   8 138.050 105.240   1
  -2  -1  -8 75.6002 116.679   5
   2   1   9 788.875 199.787   1
  -2  -1  -9 1101.06 252.378   5
   2   1  10 11475.0 741.366   1
  -2  -1 -10 10333.8 794.015   5
   2   1  11 6676.54 590.616   1
  -2  -1 -11 7260.56 701.268   5
  -2  -1 -12 120.292 141.122   5
   2   1  12 249.062 164.571   1
  -2  -1 -13 3487.58 553.224   5
   2   1  13 3824.80 490.453   1
   2   1  14 5199.20 592.875   1
  -2  -1 -14 5943.74 753.524   5
  -2  -1 -15 100.338 149.263   5
   2   2 -14 228.788 166.726   3
   2   2 -13 762.788 236.042   3
   2   2 -12 756.149 309.239   5
   2   2 -12 1204.55 312.550   3
   2   2 -11 4434.24 612.120   5
   2   2 -11 5696.92 630.150   3
   2   2 -10 368.311 183.418   3
   2   2 -10 657.440 227.523   5
   2   2  -9-240.119 174.691   5
   2   2  -9-48.3541 145.761   3
   2   2  -8 362.639 162.791   3
   2   2  -8 137.146 126.158   5
   2   2  -7-195.299 175.260   3
   2   2  -7-57.1478 123.335   5
   2   2  -6 2521.67 338.799   5
   2   2  -6 2485.44 311.188   3
   2   2  -5 19314.4 825.070   3
   2   2  -5 19399.7 843.407   5
  -2  -2   4 5869.24 201.442   1
   2   2  -4 6409.19 445.804   5
   2   2  -4 5780.86 435.150   3
  -2  -2   4 5750.17 405.413   5
  -2  -2   3 54613.8 707.630   1
   2   2  -3 55095.7 1170.32   5
   2   2  -3 53750.2 779.093   1
   2   2  -3 56285.7 1270.06   3
  -2  -2   2 1543.40 135.547   1
   2   2  -2 1568.18 184.662   4
   2   2  -2 1532.64 176.452   5
   2   2  -2 1541.79 143.008   1
   2   2  -2 1426.48 198.612   3
   2   2  -1 85190.0 1144.14   4
   2   2  -1 84137.7 1110.38   1
  -2  -2   1 84879.7 1091.10   1
   2   2  -1 84872.3 1372.46   3
   2   2  -1 86475.8 1120.88   5
   2   2   0 63501.2 1029.19   1
   2   2   0 63473.9 819.831   4
  -2  -2   0 63386.0 1025.65   1
   2   2   0 63443.1 818.656   5
  -2  -2   0 64121.8 1114.23   3
   2   2   0 66147.3 1149.96   3
   2   2   1 53644.4 615.434   4
   2   2   1 52754.9 1020.01   1
  -2  -2  -1 52960.8 630.669   4
  -2  -2  -1 54404.7 1028.69   1
  -2  -2  -1 53123.9 951.559   3
   2   2   1 54301.5 990.258   3
  -2  -2  -2 52554.8 525.004   4
   2   2   2 53382.1 1104.30   1
  -2  -2  -2 54061.9 1102.29   1
   2   2   2 52807.3 663.971   5
  -2  -2  -2 53572.0 922.432   3
   2   2   3 2276.62 244.943   1
   2   2   3 1752.13 138.422   5
  -2  -2  -3 1807.07 173.208   3
  -2  -2  -3 1817.86 126.637   4
   2   2   4 69579.5 1409.41   1
   2   2   4 68009.1 978.517   5
  -2  -2  -4 67081.5 1022.32   5
   2   2   5 7305.21 482.044   1
   2   2   5 6973.02 359.225   5
  -2  -2  -5 6954.73 386.261   5
   2   2   6 6979.70 495.861   1
  -2  -2  -6 6676.28 425.194   5
   2   2   6 6764.71 398.639   5
   2   2   7 14443.2 745.279   1
   2   2   7 13449.9 617.342   5
  -2  -2  -7 13647.1 666.810   5
   2   2   8 4696.03 446.633   1
  -2  -2  -8 4594.94 426.295   5
   2   2   9 6607.92 558.624   1
  -2  -2  -9 7431.45 590.250   5
   2   2  10 449.825 178.270   1
  -2  -2 -10 790.375 235.226   5
  -2  -2 -11 2614.59 410.886   5
   2   2  11 2259.37 351.298   1
   2   2  12 8644.31 713.584   1
  -2  -2 -12 9314.89 795.329   5
   2   2  13 125.731 101.483   1
  -2  -2 -13-85.7180 146.478   5
   2   2  14 1258.75 317.230   1
  -2  -2 -14 1438.74 358.940   5
  -2  -2 -15 293.160 182.430   5
   2   3 -13 569.157 221.488   3
   2   3 -12 114.757 114.412   3
   2   3 -12 332.331 220.527   5
   2   3 -11-47.0053 167.809   3
   2   3 -11 286.187 202.706   5
   2   3 -10 426.676 182.041   3
   2   3 -10 828.664 268.641   5
   2   3  -9-105.168 136.391   5
   2   3  -9 67.7375 133.081   3
   2   3  -8 1569.97 334.185   5
   2   3  -8 1560.19 306.692   3
  -2  -3   7 1458.04 127.048   1
   2   3  -7 1662.76 298.473   3
  -2  -3   6 24297.2 551.193   1
   2   3  -6 26383.8 1110.95   5
   2   3  -6 25809.4 799.523   2
   2   3  -6 25035.1 1075.64   3
  -2  -3   5 11519.1 398.709   1
   2   3  -5 11978.0 562.361   2
   2   3  -5 12280.0 706.688   5
   2   3  -5 12037.3 706.333   3
   2   3  -4 993.490 200.228   3
  -2  -3   4 1236.52 141.474   1
   2   3  -4 969.830 164.109   2
   2   3  -4 1013.71 195.376   5
  -2  -3   3 4362.34 270.717   1
   2   3  -3 4497.27 307.712   1
  -2  -3   3 4387.51 339.391   5
   2   3  -3 4677.55 398.691   3
   2   3  -3 4590.07 359.395   5
  -2  -3   2 21982.4 632.333   1
   2   3  -2 21319.2 822.143   3
  -2  -3   2 22020.3 665.147   5
   2   3  -2 21910.1 699.716   5
   2   3  -2 22579.4 695.491   1
   2   3  -1 67645.4 1228.83   1
  -2  -3   1 67764.4 1169.80   1
   2   3  -1 68107.5 1415.65   3
   2   3  -1 68190.3 1065.95   5
  -2  -3   1 69112.6 1391.97   3
   2   3   0 16923.3 628.964   1
  -2  -3   0 17910.3 633.320   1
   2   3   0 18114.3 454.513   5
   2   3   0 16766.7 456.671   4
  -2  -3   0 17260.0 663.478   3
   2   3   0 18327.7 709.052   3
   2   3   1 12784.1 574.709   1
   2   3   1 12975.8 293.657   4
   2   3   1 12319.6 278.300   5
  -2  -3  -1 13460.6 579.176   1
  -2  -3  -1 12886.9 562.262   3
   2   3   1 13718.9 594.715   3
   2   3   2 9166.60 506.291   1
  -2  -3  -2 9641.09 511.556   1
  -2  -3  -2 9319.28 469.047   3
   2   3   3 5988.15 426.973   1
  -2  -3  -3 6448.67 438.060   1
  -2  -3  -3 5767.79 367.676   3
  -2  -3  -4 11509.2 261.724   4
   2   3   4 13578.7 671.826   1
  -2  -3  -4 11259.5 242.397   4
  -2  -3  -4 12990.6 353.678   5
   2   3   4 12432.5 317.310   5
   2   3   5 4783.81 415.723   1
  -2  -3  -5 5034.38 284.969   5
   2   3   5 5083.80 259.792   5
   2   3   6 30431.4 742.652   5
   2   3   6 31448.7 1115.76   1
  -2  -3  -6 31280.1 823.323   5
   2   3   7 5302.43 481.604   1
   2   3   7 5529.50 366.936   5
  -2  -3  -7 6126.99 415.969   5
   2   3   8 15717.7 861.265   1
  -2  -3  -8 17167.6 764.665   5
   2   3   9 35266.4 1320.67   1
  -2  -3  -9 35127.7 1199.09   5
   2   3  10-38.6735 124.585   1
  -2  -3 -10-63.6960 108.141   5
   2   3  11 13544.1 897.923   1
  -2  -3 -11 15342.2 920.429   5
   2   3  12 141.492 109.211   1
  -2  -3 -12 160.239 143.389   5
   2   3  13-105.612 126.111   1
  -2  -3 -13 35.3248 127.572   5
   2   3  14 226.120 156.474   1
  -2  -3 -14-103.651 177.549   5
  -2  -3 -15 186.373 204.515   5
   2   4 -12 1338.60 373.488   3
   2   4 -11-126.554 193.909   3
   2   4 -11 235.545 191.593   5
   2   4 -10 386.074 168.711   3
   2   4 -10 1345.03 373.771   5
   2   4  -9-163.515 193.291   3
   2   4  -9 73.3999 153.260   5
   2   4  -8 12432.7 921.165   5
   2   4  -8 12849.8 895.696   3
   2   4  -7 46.3156 157.044   3
   2   4  -7 297.865 182.992   5
  -2  -4   6 14368.4 555.973   1
   2   4  -6 14147.0 879.404   3
   2   4  -6 14896.5 884.871   5
   2   4  -5 15224.5 828.484   5
   2   4  -5 13048.4 799.273   3
  -2  -4   5 13227.4 547.307   1
   2   4  -4 140.032 109.558   3
   2   4  -4 196.163 107.233   2
  -2  -4   4 141.084 54.1864   1
   2   4  -4 97.7822 92.2686   5
  -2  -4   3 17289.0 652.585   1
   2   4  -3 16200.7 772.994   2
   2   4  -3 17423.6 870.072   3
   2   4  -3 17683.3 755.709   5
  -2  -4   3 17988.7 706.736   5
   2   4  -2 1323.32 255.296   3
  -2  -4   2 1133.87 174.748   1
   2   4  -2 869.939 167.880   1
  -2  -4   2 978.950 162.949   5
   2   4  -2 830.882 155.496   5
  -2  -4   1 19253.5 725.810   1
  -2  -4   1 19463.9 579.155   5
   2   4  -1 19601.0 861.389   3
   2   4  -1 20136.7 633.651   5
   2   4  -1 19986.6 790.863   1
  -2  -4   0 25777.4 864.980   1
   2   4   0 25824.7 912.850   1
   2   4   0 26458.4 608.301   5
   2   4   0 26393.0 960.367   3
  -2  -4  -1 15210.3 692.538   1
   2   4   1 12688.4 352.520   4
   2   4   1 13095.7 312.112   5
   2   4   1 15030.0 709.563   1
   2   4   2 59192.7 1441.83   1
   2   4   3 32942.9 1105.65   1
   2   4   4 21191.3 923.885   1
  -2  -4  -4 19503.9 784.234   3
  -2  -4  -5-2.63043 27.7728   5
   2   4   5-1.05322 107.250   1
   2   4   6 15751.8 846.473   1
  -2  -4  -6 14478.7 385.192   4
  -2  -4  -6 14852.5 488.577   5
  -2  -4  -7 9874.90 402.610   4
  -2  -4  -7 10505.5 491.661   5
   2   4   7 9878.48 698.193   1
   2   4   8 18713.2 982.567   1
  -2  -4  -8 19125.7 648.551   4
  -2  -4  -8 19609.3 756.560   5
   2   4   9 9760.11 741.637   1
  -2  -4  -9 9441.03 594.389   5
   2   4  10 1052.13 272.611   1
  -2  -4 -10 1233.61 243.002   5
   2   4  11 1542.78 337.205   1
  -2  -4 -11 1464.45 285.280   5
   2   4  12 2739.20 438.827   1
  -2  -4 -12 2940.71 420.090   5
   2   4  13 674.868 252.754   1
  -2  -4 -13 204.568 169.232   5
   2   4  14 765.599 272.033   1
   2   4  15-946.008 293.289   1
   2   5 -11-43.1449 209.585   3
   2   5 -11 462.612 344.955   5
   2   5 -10 16.7256 133.479   3
   2   5 -10 262.718 244.926   5
   2   5  -9 751.292 271.998   3
   2   5  -9 730.664 271.057   5
   2   5  -8 7851.44 766.523   5
   2   5  -8 8022.16 761.656   3
   2   5  -7 3135.69 482.353   3
   2   5  -7 3339.86 488.820   5
   2   5  -6 4574.39 487.623   2
   2   5  -6 5302.15 587.313   3
  -2  -5   5 2873.22 299.226   1
   2   5  -5 2533.53 403.261   3
   2   5  -5 2410.55 345.091   2
   2   5  -5 2638.07 371.481   5
   2   5  -4 3622.31 465.238   3
   2   5  -4 3949.51 444.987   2
  -2  -5   4 4164.25 370.034   1
   2   5  -4 3684.55 412.763   5
   2   5  -3 3612.32 420.355   2
   2   5  -3 4019.96 386.995   5
   2   5  -3 4006.82 462.867   3
   2   5  -2 8341.72 635.389   2
  -2  -5   2 8643.45 471.313   5
   2   5  -2 8946.10 527.129   5
   2   5  -2 8662.23 601.855   1
   2   5  -2 9416.56 684.233   3
  -2  -5   1 3599.20 270.682   5
   2   5  -1 3665.01 304.000   5
   2   5  -1 4111.22 444.621   3
   2   5  -1 3520.89 385.327   1
   2   5   0 644.041 117.763   5
  -2  -5   0 860.486 115.415   5
   2   5   0 546.434 166.762   1
   2   5   1 17534.0 872.114   1
   2   5   2 250.699 37.8083   4
   2   5   2 134.316 31.1164   4
   2   5   3 21489.0 995.579   1
   2   5   4 9764.57 687.101   1
   2   5   5 151.754 111.976   1
  -2  -5  -6 32946.6 504.577   5
   2   5   6 41405.5 1482.88   1
   2   5   7 39589.8 1489.48   1
  -2  -5  -7 35644.6 617.995   4
  -2  -5  -7 37724.5 785.193   5
   2   5   8 150.575 145.788   1
  -2  -5  -8 54.2259 75.1558   5
   2   5   9 15880.0 1008.20   1
  -2  -5  -9 16607.0 711.426   5
   2   5  10 3669.18 517.794   1
  -2  -5 -10 3151.80 354.027   5
   2   5  11 3312.20 505.374   1
   2   5  12 3103.99 488.573   1
   2   5  13 729.734 217.384   1
   2   5  14-177.332 170.739   1
   2   5  15 2073.95 444.459   1
   2   6 -10 3787.09 621.380   3
   2   6 -10 2879.65 556.821   5
   2   6  -9 22.5628 214.089   3
   2   6  -9-721.660 286.232   5
   2   6  -8 1240.22 364.126   3
   2   6  -8 730.819 276.827   5
   2   6  -7 1065.24 304.939   3
   2   6  -7 518.454 223.359   5
   2   6  -6 420.920 241.727   3
   2   6  -6-65.9808 121.212   2
   2   6  -6 96.7431 151.055   5
   2   6  -5 832.801 303.440   3
   2   6  -5 998.773 260.892   5
   2   6  -5 567.325 209.852   2
   2   6  -4 17.9549 136.952   5
   2   6  -4 140.582 176.939   3
   2   6  -4 5.99677 144.209   2
   2   6  -3 2027.53 301.201   5
   2   6  -3 2573.47 403.805   3
   2   6  -3 2411.66 397.081   2
   2   6  -2 1715.61 259.688   5
  -2  -6   2 1693.02 222.560   5
   2   6  -2 2045.82 354.842   2
   2   6  -1 587.106 141.190   5
   2   6  -1 830.664 235.381   2
   2   6  -1 627.545 205.344   1
  -2  -6   1 766.538 142.595   5
   2   6   0 29858.4 1324.75   2
  -2  -6   0 29927.2 687.238   5
   2   6   0 29625.1 1266.21   1
   2   6   1 60.1744 53.4230   4
   2   6   1 133.252 141.079   1
   2   6   2 12622.2 341.683   4
   2   6   2 13288.3 864.434   1
   2   6   3 2957.91 426.472   1
   2   6   4 13484.6 895.106   1
   2   6   5 24571.6 1221.91   1
   2   6   6 20576.5 1148.77   1
   2   6   7 4143.71 526.269   1
   2   6   8 3995.03 531.538   1
   2   6   9 2677.92 459.352   1
   2   6  10 2665.61 468.978   1
   2   6  11 1673.89 379.574   1
   2   6  12 2284.46 463.129   1
   2   6  13 528.937 262.675   1
   2   6  14 817.904 309.544   1
   2   7  -9 1038.67 392.147   5
   2   7  -8 651.244 282.300   5
   2   7  -8 796.649 358.018   3
   2   7  -7-218.505 188.327   5
   2   7  -7 257.253 181.258   3
   2   7  -6-1.95355 127.790   5
   2   7  -6 387.768 253.271   3
   2   7  -6 116.569 180.614   2
   2   7  -5 304.189 180.310   5
   2   7  -5 12.5095 119.344   2
   2   7  -4 25.1269 138.147   5
   2   7  -4 309.997 184.817   2
   2   7  -3 24.1085 143.373   2
   2   7  -3-103.467 125.461   5
   2   7  -2 1854.09 290.590   5
   2   7  -2 1532.94 359.329   2
   2   7  -1 227.772 98.0763   5
   2   7  -1-6.66908 148.990   1
   2   7  -1 326.236 199.152   2
   2   7   0 944.729 184.847   4
   2   7   0 1220.96 328.539   2
   2   7   0 1414.75 329.063   1
   2   7   1 12162.3 526.846   4
   2   7   1 14041.0 1009.73   2
   2   7   1 12582.2 922.280   1
   2   7   2 4424.58 577.108   2
   2   7   2 4236.21 542.188   1
   2   7   3 9406.83 821.404   1
   2   7   4 37434.8 1624.14   1
   2   7   5 2622.79 456.171   1
   2   7   6 4216.87 578.028   1
   2   7   7 1195.78 332.432   1
   2   7   8 713.099 274.808   1
   2   7   9 1624.72 392.288   1
   2   7  10-104.986 191.840   1
   2   7  11 206.200 203.774   1
   2   7  12 426.694 230.337   1
   2   8  -5 322.142 156.889   2
   2   8  -4 2145.88 449.138   2
   2   8  -3 3041.61 526.377   2
   2   8  -2 11.7496 165.569   2
   2   8  -1 6.00786 187.278   2
   2   8   0-88.2207 149.442   1
   2   8   0 218.161 232.261   2
   2   8   1 425.535 209.201   1
   2   8   1 60.8367 175.621   2
   2   8   2 131.151 178.761   2
   2   8   2 469.095 279.588   1
   2   8   3 12659.6 1058.02   2
   2   8   3 12045.9 1005.88   1
   2   8   4 4952.74 639.747   1
   2   8   4 5548.67 711.783   2
   2   8   5 171.855 192.870   2
   2   8   5 25.7564 174.867   1
   2   8   6 20.2492 163.834   2
   2   8   6 86.8169 177.126   1
   2   8   7 3636.45 584.688   1
   2   8   8 1440.46 412.724   1
   2   8   9 419.399 232.225   1
   2   8  10 767.664 312.322   1
   2   8  11 10.2861 170.095   2
   2   8  12 586.633 280.725   2
   2   9  -5 584.356 314.739   2
   2   9  -4 520.559 286.843   2
   2   9  -3 385.696 244.983   2
   2   9  -2 147.615 194.593   2
   2   9  -1 1077.11 360.202   2
   2   9   0 1247.68 383.268   2
   2   9   1 55.3501 175.318   2
   2   9   1 99.0322 208.878   1
   2   9   2 19890.6 1425.73   2
   2   9   2 20042.5 1394.86   1
   2   9   3 411.132 248.222   1
   2   9   3 1207.20 385.152   2
   2   9   4 667.784 299.694   2
   2   9   4 322.075 199.389   1
   2   9   5 40.5525 150.593   2
   2   9   5-72.3226 172.577   1
   2   9   6 112.749 149.497   1
   2   9   6 65.1470 169.874   2
   2   9   7-139.472 225.495   2
   2   9   7-61.6296 210.136   1
   2   9   8 988.225 337.159   2
   2   9   8 897.601 354.951   1
   2   9   9 1220.36 363.260   2
   2  10   3 360.214 271.563   1
  -3  10  -1 682.454 243.394   4
  -3   9   4 164.176 169.449   4
  -3   9   3 671.196 238.784   4
  -3   9   2 1225.82 319.753   4
  -3   9   1 167.687 167.295   4
  -3   9   0-678.081 251.752   4
  -3   9  -1 12751.7 997.674   4
  -3   9  -2 1614.71 387.291   4
  -3   9  -3 187.424 155.134   4
  -3   9  -4 3013.02 554.138   4
  -3   8   8-124.095 190.826   4
  -3   8   7 841.285 240.247   4
  -3   8   6 199.539 168.486   4
  -3   8   5 746.019 231.606   4
  -3   8   4 699.569 224.549   4
  -3   8   3 89.1372 127.381   4
  -3   8   2 136.267 127.905   4
  -3   8   1 152.418 122.817   4
  -3   8   0-16.0465 164.004   4
  -3   8  -1 255.498 143.604   4
  -3   8  -2 997.224 303.071   4
  -3   8  -3 78.4209 159.265   4
  -3   8  -4 1883.65 436.685   4
  -3   8  -5 68.3313 170.020   4
  -3   8  -6 4377.43 691.781   4
   3  -7 -11 236.537 166.368   5
   3  -7 -10 3749.16 506.281   5
   3  -7  -9 140.795 133.575   5
  -3   7   8 167.678 141.203   4
  -3   7   7 62.6281 112.255   4
  -3   7   6 2534.13 383.327   4
  -3   7   5 20.3064 113.905   4
  -3   7   4 1203.51 269.933   4
  -3   7   3 1447.16 293.077   4
  -3   7   2 5.13079 134.928   4
  -3   7   1 37540.6 1433.18   4
  -3   7   0 8279.01 695.055   4
  -3   7  -1 4898.73 568.421   4
  -3   7  -2 21806.7 1215.25   4
  -3   7  -3 2797.14 474.797   4
  -3   7  -4 62.6691 132.098   4
  -3   7  -5 708.766 297.790   4
  -3   7  -6 92.6257 217.711   4
  -3   7  -7 724.273 312.352   4
   3  -6 -13 2024.55 435.984   5
   3  -6 -12 949.359 259.512   5
   3  -6 -11-82.4881 115.475   5
   3  -6 -10 490.607 231.324   5
   3  -6  -9 49.1940 101.137   5
  -3   6   8 769.646 237.805   4
  -3   6   7 3206.70 440.800   4
  -3   6   6 7324.14 632.082   4
  -3   6   5 6272.83 565.747   4
  -3   6   4 5084.57 495.554   4
  -3   6   3 17538.4 908.134   4
  -3   6   2 389.106 139.036   4
  -3   6   1 15091.0 853.216   4
  -3   6   0 3057.77 405.702   4
  -3   6  -1 4419.52 517.646   4
  -3   6  -2 8825.39 734.124   4
  -3   6  -3 6875.86 690.281   4
  -3   6  -4 5678.79 645.661   4
  -3   6  -5 8557.38 843.868   4
  -3   6  -6 3989.20 605.243   4
  -3   6  -7-336.521 221.060   4
  -3   6  -8 940.395 368.600   4
  -3   6  -9 685.207 314.070   4
   3  -5 -13 588.719 234.459   5
   3  -5 -12 2446.65 458.938   5
   3  -5 -11 1779.37 376.228   5
   3  -5 -10 4800.23 569.309   5
   3  -5  -9 1.79012 100.340   5
   3  -5  -8 655.322 205.366   5
  -3   5   8 635.860 223.699   4
  -3   5   7 503.833 191.160   4
  -3   5   6 7741.44 617.756   4
  -3   5   5 2509.43 342.747   4
  -3   5   4 3471.88 391.326   4
  -3   5   3 31667.5 1145.61   4
  -3   5   2 5693.52 489.877   4
  -3   5   1 563.947 160.837   4
  -3   5   0 59683.6 1632.68   4
  -3   5  -1 31876.9 1253.58   4
  -3   5  -2 147.682 151.668   4
  -3   5  -3 7908.01 694.057   4
  -3   5  -4 0.31993 159.714   4
  -3   5  -5 1614.20 365.830   4
  -3   5  -6 9135.83 845.955   4
  -3   5  -7 245.197 227.577   4
  -3   5  -8 341.704 264.424   5
  -3   5  -8 332.447 223.004   4
  -3   5  -9 234.468 207.853   5
  -3   5 -10 264.850 273.633   5
   3  -4 -13 1825.85 409.971   5
   3  -4 -12 346.616 212.926   5
   3  -4 -11 3981.05 548.542   5
   3  -4 -10-28.2632 117.150   5
   3  -4  -9 8547.18 715.021   5
   3  -4  -8 16017.7 933.123   5
  -3   4   7 7748.98 638.475   4
  -3   4   6 3218.62 393.566   4
  -3   4   5 5544.74 488.133   4
  -3   4   4 1053.03 228.081   4
  -3   4   3 33008.7 1116.21   4
  -3   4   2 9671.11 605.036   4
  -3   4   1 18023.5 815.954   4
  -3   4   0 117.626 112.519   4
  -3   4  -1 6403.29 521.193   4
  -3   4  -2 1525.09 276.931   4
  -3   4  -3 6001.79 564.376   4
   3  -4   3 7132.46 456.199   3
   3  -4   4 325.431 99.5062   3
  -3   4  -4 381.679 168.091   4
  -3   4  -5 1339.76 317.156   4
   3  -4   5 1147.22 181.516   3
  -3   4  -6 294.161 183.158   5
  -3   4  -6 178.226 163.317   4
   3  -4   6 320.455 105.560   3
  -3   4  -7 731.469 280.091   5
  -3   4  -8 1089.45 338.986   5
  -3   4  -9 2318.40 501.072   5
  -3   4 -10 85.0623 198.674   5
  -3   4 -11 1500.25 410.714   5
   3  -3 -13 242.515 223.844   5
   3  -3 -12 512.428 220.776   5
   3  -3 -11 148.209 183.235   5
   3  -3 -10 248.539 156.575   5
   3  -3  -9 2654.53 414.869   5
   3  -3  -8 80758.0 2054.73   5
   3  -3  -7-6.69915 70.8291   1
   3  -3  -7-34.0900 106.506   5
  -3   3   6 15407.3 826.381   4
   3  -3  -6 16295.3 737.731   1
  -3   3   5 55319.3 1481.92   4
   3  -3  -5 56594.2 1378.26   2
   3  -3  -5 55997.2 1391.47   1
  -3   3   4 9496.25 588.819   4
   3  -3  -4 9659.09 587.594   2
   3  -3  -4 9599.91 592.505   1
   3  -3  -3 64.1599 85.5813   2
  -3   3   3 54.3186 75.8835   4
   3  -3  -3 0.64776 69.8381   1
  -3   3   2 47386.6 1240.96   4
  -3   3   1 43013.6 1169.55   4
  -3   3   0 997.195 185.437   4
  -3   3  -1 104744. 1952.29   4
  -3   3  -2 9638.91 633.995   4
  -3   3  -3 1442.24 268.352   4
  -3   3  -4 8380.14 649.757   4
   3  -3   4 8302.44 409.781   3
   3  -3   5 51.9534 49.8727   3
  -3   3  -5 353.684 193.918   4
  -3   3  -6 5536.79 588.673   5
  -3   3  -7 404.726 169.493   5
  -3   3  -8 205.028 175.588   5
  -3   3  -9 1397.69 387.438   5
  -3   3 -10 532.842 285.563   5
  -3   3 -11-129.478 199.232   5
  -3   3 -12 185.851 151.387   5
   3  -2 -13 1096.28 344.250   5
   3  -2 -12 3525.75 557.461   5
   3  -2 -11 1366.93 330.964   5
   3  -2 -10 1726.43 359.638   5
   3  -2  -9 3502.78 470.856   5
   3  -2  -8 3390.27 437.814   5
   3  -2  -8 3176.50 268.228   1
   3  -2  -7 1544.99 189.305   1
   3  -2  -7 1765.97 305.586   5
  -3   2   6 4298.23 440.204   4
   3  -2  -6 4462.45 326.732   1
   3  -2  -5 275.269 90.2381   1
  -3   2   5 334.409 122.091   4
   3  -2  -5 422.459 121.058   2
   3  -2  -4 92.8697 76.0679   2
  -3   2   4 71.2747 97.4736   4
   3  -2  -4 118.657 74.3006   1
   3  -2  -3 87491.2 1624.38   2
  -3   2   3 87973.3 1647.60   4
   3  -2  -3 91877.0 1629.25   1
  -3   2   2 26907.4 884.460   4
   3  -2  -1 107969. 1866.95   4
  -3   2   1 121906. 1856.05   4
   3  -2   0 8868.95 550.221   4
  -3   2   0 9117.64 517.587   4
   3  -2   1 4006.54 377.036   4
  -3   2  -1 4920.94 394.240   4
  -3   2  -2 289.982 139.692   4
  -3   2  -3 17731.3 822.422   4
   3  -2   4 99337.8 1078.14   3
  -3   2  -4 97520.2 2039.54   4
  -3   2  -5 8026.43 623.137   4
  -3   2  -5 7362.85 602.562   5
  -3   2  -6 854.865 232.173   5
  -3   2  -7 3249.50 479.085   5
  -3   2  -8 248.347 191.996   5
  -3   2  -9 5192.54 620.929   5
  -3   2 -10 7123.53 772.456   5
  -3   2 -11 2256.18 488.781   5
  -3   2 -12-190.204 197.330   5
  -3   2 -13 646.215 333.298   5
   3  -1 -13-145.001 245.331   5
   3  -1 -12-31.0990 101.683   5
   3  -1 -11 252.094 227.871   5
   3  -1 -10 6748.89 670.624   5
   3  -1  -9 235.365 187.666   5
   3  -1  -8 1894.52 328.690   5
   3  -1  -7 33399.1 612.578   1
   3  -1  -7 32269.3 1239.94   5
   3  -1  -6 1838.12 153.521   1
   3  -1  -6 1381.88 142.001   2
   3  -1  -6 1873.75 290.533   5
   3  -1  -5 15821.2 532.319   2
  -3   1   5 14858.7 769.548   4
   3  -1  -5 16037.8 491.043   1
  -3   1   4 20135.9 830.461   4
   3  -1  -4 21508.0 633.121   1
  -3   1   3 16786.0 707.471   4
  -3   1   2 492.590 133.118   4
   3  -1  -2 410.012 111.526   4
   3  -1  -1 56955.2 1238.53   4
  -3   1   1 56022.9 1170.54   4
   3  -1   0 3762.91 325.342   4
  -3   1   0 3967.02 312.758   4
   3  -1   1 59428.7 1317.79   4
  -3   1  -1 56429.3 1198.18   4
   3  -1   2 5591.48 416.685   4
  -3   1  -2 5450.59 397.707   4
   3  -1   2 5304.29 408.403   5
  -3   1  -3 16497.9 729.018   4
   3  -1   3 17385.8 758.162   5
  -3   1  -4 402.307 146.991   4
  -3   1  -5 10029.5 654.830   5
  -3   1  -6 17902.6 930.220   5
  -3   1  -7 5607.88 567.193   5
  -3   1  -8 2422.86 389.914   5
  -3   1  -9 44220.4 1752.29   5
  -3   1 -10 1505.02 376.925   5
  -3   1 -11 526.507 244.406   5
  -3   1 -12 623.828 214.221   5
  -3   1 -13 546.523 274.888   5
   3  -1  13 76.2573 130.968   1
  -3   1 -14 3500.75 645.820   5
   3   0 -13 1051.52 335.875   5
   3   0 -12 299.387 214.614   5
   3   0 -11 1429.27 359.620   5
   3   0 -10 343.258 240.316   5
   3   0  -9 131.020 145.115   5
   3   0  -8 4048.68 487.687   5
   3   0  -7 50.1583 101.928   5
   3   0  -6 2611.01 346.783   5
   3   0  -5 12653.9 686.976   5
  -3   0   4 24089.4 901.310   4
   3   0  -4 22432.0 467.149   1
   3   0  -3 236899. 2578.57   4
  -3   0   3 244869. 2672.21   4
   3   0  -2 3079.32 281.978   4
  -3   0   2 2773.26 276.797   4
   3   0  -1 140164. 1790.21   4
  -3   0   1 134070. 1713.45   4
   3   0   0 12995.2 547.814   4
  -3   0   0 13302.5 526.519   4
   3   0   1 12808.0 550.711   4
  -3   0  -1 12517.2 506.375   4
   3   0   2 99074.2 1586.24   4
  -3   0  -2 98532.8 1487.77   4
  -3   0  -3 22482.9 764.786   4
   3   0   3 22473.2 799.129   5
  -3   0  -4 27557.1 908.620   4
   3   0   4 27373.0 919.149   5
  -3   0  -5 110486. 2006.70   5
  -3   0  -6 619.993 197.835   5
  -3   0  -7 10433.3 698.940   5
  -3   0  -8 266.340 162.396   5
  -3   0  -9 4514.94 534.544   5
  -3   0  -9 4112.00 178.343   3
  -3   0 -10 15743.5 1048.80   5
  -3   0 -11 1022.41 295.755   5
   3   0  11 791.142 244.999   1
  -3   0 -12 4331.33 602.816   5
   3   0  12 3981.58 515.930   1
  -3   0 -13-258.812 209.322   5
   3   0  13 115.480 109.748   1
  -3   0 -14 432.779 265.822   5
   3   0  14-24.1535 134.890   1
   3   1 -12-635.468 280.489   5
   3   1 -11 130.230 186.786   5
   3   1 -10 3999.83 551.257   5
   3   1  -9 2323.76 408.831   5
   3   1  -8-43.4136 131.536   5
   3   1  -7 2239.99 343.458   5
   3   1  -6 7.11124 92.9811   5
   3   1  -5 44157.2 1303.65   5
   3   1  -4 119.577 123.417   5
   3   1  -3 63981.1 729.214   1
   3   1  -3 66305.1 1366.93   4
   3   1  -3 66141.1 1368.21   5
   3   1  -2 35656.1 919.239   4
  -3  -1   2 36734.4 972.645   4
   3   1  -2 36163.1 679.614   1
   3   1  -1 9305.86 440.431   4
  -3  -1   1 9294.97 445.976   4
   3   1   0 216440. 2001.69   4
  -3  -1   0 212908. 1971.88   4
  -3  -1  -1 6766.83 337.196   4
   3   1   1 7547.53 353.905   3
   3   1   2 87736.1 1321.29   4
  -3  -1  -2 85583.9 1200.88   4
   3   1   2 88394.6 1083.17   3
  -3  -1  -3 3832.29 278.207   4
   3   1   3 4187.83 315.270   5
   3   1   3 4067.38 208.703   3
  -3  -1  -4 68281.9 1267.12   4
   3   1   4 66179.2 1296.55   5
  -3  -1  -5 14561.3 647.795   4
   3   1   5 15483.1 661.247   5
  -3  -1  -5 12964.9 262.002   3
  -3  -1  -5 15042.4 678.982   5
   3   1   6 15199.8 693.650   5
  -3  -1  -6 16111.0 766.572   5
  -3  -1  -7 41224.3 1304.42   5
  -3  -1  -7 34874.9 490.211   3
  -3  -1  -8 7831.71 625.190   5
   3   1   8 8767.44 647.970   1
   3   1   9 5510.40 543.288   1
  -3  -1  -9 4759.23 518.726   5
  -3  -1 -10 88.5463 150.802   5
   3   1  10 109.099 115.871   1
  -3  -1 -11 2160.38 402.993   5
   3   1  11 1902.11 346.195   1
   3   1  12 74.2870 105.442   1
  -3  -1 -12 480.256 221.969   5
  -3  -1 -13 3309.11 538.909   5
   3   1  13 4024.95 542.269   1
  -3  -1 -14 1476.57 412.080   5
   3   1  14 1685.07 369.244   1
  -3  -1 -15 662.074 305.791   5
   3   2 -13 137.937 233.789   3
   3   2 -12 1544.91 400.110   5
   3   2 -12 1620.48 411.621   3
   3   2 -11 335.248 228.672   5
   3   2 -11 783.792 260.434   3
   3   2 -10-75.1653 224.379   5
   3   2 -10 240.731 195.624   3
   3   2  -9-162.597 194.337   3
   3   2  -9-40.4746 155.256   5
   3   2  -8 226.563 149.329   5
   3   2  -7 10017.4 738.525   5
   3   2  -6 2740.56 201.365   2
   3   2  -6 4121.10 441.963   5
   3   2  -5 43957.5 1325.31   5
   3   2  -4 37683.0 1136.69   5
   3   2  -4 37953.9 1190.73   3
   3   2  -3 307.837 63.3408   1
   3   2  -3 376.337 120.808   5
   3   2  -3 580.650 142.900   3
   3   2  -2 424.965 86.1027   1
   3   2  -2 296.443 92.8216   4
   3   2  -2 458.591 114.838   5
   3   2  -2 412.165 122.038   3
   3   2  -1 2998.19 237.643   1
   3   2  -1 2930.61 244.359   4
   3   2  -1 2760.22 276.158   3
   3   2   0 8565.79 381.196   4
   3   2   0 8444.34 428.418   1
  -3  -2   0 8223.14 382.174   4
   3   2   0 8093.67 444.379   3
   3   2   1 49733.6 854.567   4
  -3  -2  -1 49322.0 827.097   4
   3   2   1 48647.9 1100.66   1
   3   2   1 48947.3 1038.64   3
   3   2   2 2219.97 185.862   4
  -3  -2  -2 2268.36 168.043   4
   3   2   2 2387.74 268.266   1
  -3  -2  -2 1922.50 189.090   3
   3   2   2 2063.63 209.895   3
  -3  -2  -3 145964. 1380.28   4
   3   2   3 150622. 2147.65   1
  -3  -2  -3 146998. 1566.82   3
   3   2   3 148914. 1629.29   5
  -3  -2  -4 47018.1 886.321   4
   3   2   4 48113.0 1285.20   1
   3   2   4 46457.8 963.965   5
  -3  -2  -4 46774.4 843.642   3
  -3  -2  -5 18139.0 630.691   4
   3   2   5 18493.0 833.277   1
   3   2   5 17408.3 633.364   5
  -3  -2  -5 17554.5 508.323   3
   3   2   6 8511.81 590.588   1
   3   2   6 9297.75 499.718   5
  -3  -2  -6 8239.43 498.691   5
  -3  -2  -6 8865.91 363.551   3
   3   2   7 6386.97 450.532   5
   3   2   7 6596.81 547.429   1
  -3  -2  -7 7091.79 505.895   5
  -3  -2  -8 37565.4 1259.55   5
   3   2   8 38074.7 1352.51   1
   3   2   9 10933.8 766.067   1
  -3  -2  -9 11333.4 750.055   5
   3   2  10 7946.82 687.316   1
  -3  -2 -10 8541.00 688.209   5
  -3  -2 -11 410.309 216.584   5
   3   2  11 102.639 136.554   1
  -3  -2 -12 2100.82 404.722   5
   3   2  12 1316.98 314.673   1
  -3  -2 -13 946.388 306.759   5
   3   2  13 647.501 228.023   1
  -3  -2 -14 556.819 254.849   5
   3   2  14 110.014 156.448   1
  -3  -2 -15 862.337 350.516   5
   3   2  15 683.952 247.008   1
   3   3 -12 8.63706 123.010   3
   3   3 -11 22.8662 144.629   5
   3   3 -11-20.4325 145.138   3
   3   3 -10 206.711 146.193   5
   3   3 -10 335.504 235.241   3
   3   3  -9 190.612 143.401   5
   3   3  -9 686.144 228.641   3
   3   3  -8 4908.00 571.900   5
   3   3  -8 4837.19 557.421   3
   3   3  -7 4090.67 292.553   2
   3   3  -7 4951.76 542.061   5
   3   3  -7 4766.38 526.164   3
   3   3  -6 12589.4 561.228   2
   3   3  -6 14359.6 862.763   3
   3   3  -6 12674.7 795.969   5
   3   3  -5 7762.98 462.880   2
   3   3  -5 8120.90 595.508   5
   3   3  -5 7062.45 586.240   3
   3   3  -4 3728.53 374.813   5
   3   3  -4 3367.69 388.170   3
   3   3  -3 215.134 113.735   3
  -3  -3   3 306.925 79.1718   1
   3   3  -3 502.151 102.292   1
   3   3  -3 368.746 125.866   5
   3   3  -2 10563.1 523.933   4
  -3  -3   2 10490.3 460.289   1
   3   3  -2 10717.3 523.957   5
   3   3  -2 10252.6 610.828   3
   3   3  -2 9751.35 458.569   1
   3   3  -1 13788.7 575.575   1
   3   3  -1 12881.8 518.003   4
  -3  -3   1 13364.1 556.124   1
   3   3  -1 13458.7 528.624   5
   3   3  -1 13951.5 686.819   3
   3   3   0 37341.7 985.767   1
   3   3   0 36471.6 765.787   5
   3   3   0 36753.6 762.409   4
  -3  -3   0 38053.9 992.997   1
   3   3   0 37864.0 1092.90   3
   3   3   1 34665.8 998.222   1
   3   3   1 33446.5 634.223   4
  -3  -3  -1 33218.7 982.719   1
  -3  -3  -1 33744.9 965.294   3
   3   3   1 33746.8 995.649   3
   3   3   2 171222. 1322.02   4
   3   3   2 176575. 2363.69   1
  -3  -3  -2 175255. 2116.01   3
   3   3   2 176756. 2182.27   3
  -3  -3  -3 3359.17 289.828   3
   3   3   3 3815.70 374.403   1
  -3  -3  -3 3347.38 149.304   4
   3   3   3 2860.71 182.656   5
  -3  -3  -4 6422.90 224.308   4
   3   3   4 7215.60 523.523   1
   3   3   4 6518.56 291.477   5
  -3  -3  -4 6491.63 392.494   3
  -3  -3  -5 2178.73 170.912   4
   3   3   5 2211.74 190.925   5
   3   3   5 2162.08 301.865   1
  -3  -3  -5 1928.32 218.372   3
  -3  -3  -6 17112.3 582.753   4
   3   3   6 18043.5 903.235   1
   3   3   6 17153.2 591.827   5
  -3  -3  -6 17840.7 651.304   5
  -3  -3  -6 16502.8 625.523   3
  -3  -3  -7 851.480 155.588   3
   3   3   7 547.159 177.239   1
   3   3   7 725.083 140.817   5
  -3  -3  -7 840.151 173.389   5
   3   3   8 2276.49 357.602   1
  -3  -3  -8 2222.40 298.169   5
   3   3   9-130.940 182.625   1
  -3  -3  -9 215.696 111.738   5
   3   3  10 2896.97 432.687   1
  -3  -3 -10 3159.53 412.558   5
   3   3  11 18917.8 1112.96   1
  -3  -3 -11 21522.3 1118.50   5
  -3  -3 -12 271.608 182.251   5
   3   3  12-257.013 207.760   1
   3   3  13 4626.38 593.480   1
  -3  -3 -13 3967.60 555.551   5
  -3  -3 -14 565.696 242.871   5
   3   3  14 262.082 193.115   1
   3   3  15 527.865 251.882   1
   3   4 -11-177.706 225.571   3
   3   4 -11 319.759 286.997   5
   3   4 -10 1677.97 389.842   3
   3   4 -10 1749.53 427.429   5
   3   4  -9 673.831 242.711   3
   3   4  -9 525.942 220.069   5
   3   4  -8 526.930 222.800   3
   3   4  -8 454.736 210.031   5
   3   4  -7 2359.98 416.917   3
   3   4  -7 2333.77 392.708   5
   3   4  -6 16260.1 940.760   5
   3   4  -6 16645.4 991.435   3
   3   4  -5 21841.5 1009.71   5
  -3  -4   5 19870.8 602.109   1
   3   4  -5 20243.7 1053.16   3
   3   4  -4 2382.46 350.252   3
  -3  -4   4 2191.45 220.881   1
   3   4  -4 2115.63 308.517   5
  -3  -4   3 8418.53 450.994   1
   3   4  -3 9187.52 560.829   5
   3   4  -3 9157.42 517.867   1
   3   4  -3 8934.08 650.139   3
   3   4  -2 11544.6 579.599   4
  -3  -4   2 12089.5 567.689   1
   3   4  -2 11702.8 573.207   5
   3   4  -2 11642.1 599.971   1
   3   4  -2 11907.8 730.248   3
   3   4  -1 8381.58 432.313   4
  -3  -4   1 9160.53 516.703   1
   3   4  -1 9005.39 448.988   5
   3   4  -1 9374.30 635.509   3
   3   4  -1 9017.35 542.710   1
   3   4   0 11135.3 432.774   4
  -3  -4   0 11878.7 614.288   1
   3   4   0 11829.3 689.680   3
   3   4   0 11505.5 624.530   1
   3   4   1 6005.82 463.847   1
   3   4   1 6451.67 267.744   4
   3   4   1 6262.49 260.610   5
   3   4   1 6742.89 503.221   3
   3   4   2 7629.70 540.622   1
   3   4   3 394.553 143.149   1
   3   4   4 21320.0 966.751   1
   3   4   5 1134.74 244.312   1
   3   4   5 1113.24 91.3755   5
  -3  -4  -6 11480.3 294.995   4
   3   4   6 11515.7 756.374   1
  -3  -4  -6 11534.8 276.189   4
   3   4   6 12009.8 394.362   5
  -3  -4  -7 3388.14 238.456   4
   3   4   7 3776.11 263.186   5
   3   4   7 3508.47 440.191   1
  -3  -4  -7 3478.12 219.591   4
  -3  -4  -7 3510.07 286.788   5
  -3  -4  -8 547.561 137.091   5
   3   4   8 451.427 158.404   1
   3   4   8 483.575 121.797   5
  -3  -4  -9 467.228 142.866   5
   3   4   9 149.386 129.739   1
  -3  -4 -10 117.922 98.7178   5
   3   4  10 133.028 127.234   1
  -3  -4 -11-18.4744 106.119   5
   3   4  11-92.0562 177.652   1
  -3  -4 -12 1125.11 278.178   5
   3   4  12 933.736 282.034   1
   3   4  13 540.849 273.154   1
   3   4  14 773.628 299.704   1
   3   4  15 919.409 286.747   1
   3   5 -10 937.590 324.472   3
   3   5 -10 778.357 315.036   5
   3   5  -9 352.846 163.125   3
   3   5  -9 338.817 229.386   5
   3   5  -8 4627.52 598.311   3
   3   5  -8 3497.75 531.187   5
   3   5  -7 8699.81 773.663   5
   3   5  -7 9350.73 828.126   3
   3   5  -6 2455.54 424.084   3
   3   5  -6 1847.48 306.158   2
   3   5  -6 2468.76 416.354   5
   3   5  -5 207.756 190.583   3
   3   5  -5 127.331 104.653   2
   3   5  -5 314.977 185.624   5
   3   5  -4 5326.49 514.563   2
   3   5  -4 5377.21 503.250   5
   3   5  -4 5561.40 585.747   3
   3   5  -3 4827.37 431.609   5
   3   5  -3 4609.58 423.877   1
   3   5  -2 240.287 141.351   3
   3   5  -2 305.920 131.887   1
   3   5  -2 400.627 132.094   5
   3   5  -1 781.286 224.659   3
   3   5  -1 397.949 101.025   4
   3   5  -1 750.352 145.562   5
   3   5  -1 893.110 207.197   1
   3   5   0 35212.0 805.362   4
   3   5   0 35453.1 1226.43   1
   3   5   0 36880.1 1323.89   3
   3   5   1 141.912 41.7344   5
   3   5   1 324.577 140.234   1
   3   5   1 240.841 58.5702   4
   3   5   2 10680.6 708.597   1
   3   5   3 225.624 122.020   1
   3   5   4 6963.19 607.195   1
   3   5   5 6730.55 611.517   1
   3   5   6 4705.58 534.537   1
   3   5   7 2017.15 356.866   1
   3   5   8 1446.16 325.551   1
   3   5   9 8850.46 782.278   1
   3   5  10 2061.19 397.209   1
   3   5  11 3901.17 572.082   1
   3   5  12-53.2637 141.775   1
   3   5  13 491.858 275.633   1
   3   5  14 654.325 273.061   1
   3   6  -9 71.5902 145.124   3
   3   6  -9 805.969 343.339   5
   3   6  -8-95.5200 160.668   3
   3   6  -8 167.152 183.580   5
   3   6  -7 534.333 256.052   3
   3   6  -7 240.760 159.308   5
   3   6  -6 354.705 223.420   3
   3   6  -6-138.932 177.858   2
   3   6  -6-83.4445 188.886   5
   3   6  -5 541.685 206.837   2
   3   6  -5 174.290 103.888   5
   3   6  -4 2877.86 446.321   2
   3   6  -4 3135.41 398.942   5
   3   6  -4 4026.52 546.827   3
   3   6  -3 310.804 225.772   3
   3   6  -3 238.153 161.399   2
   3   6  -3 317.041 151.605   5
   3   6  -2 9343.12 770.296   2
   3   6  -2 8392.50 655.614   1
   3   6  -2 8428.71 728.997   3
   3   6  -1 3430.10 424.754   1
   3   6  -1 2746.74 282.841   4
   3   6  -1 2664.03 280.597   5
   3   6   0 59.6982 59.6472   5
   3   6   0 145.457 69.3419   4
   3   6   1 54.4697 127.752   1
   3   6   1 56.5585 40.3130   4
   3   6   2 6015.37 592.155   1
   3   6   3-11.7675 128.976   1
   3   6   4 29834.6 1345.99   1
   3   6   5 126.203 110.901   1
   3   6   6 3416.54 489.416   1
   3   6   7-248.593 163.679   1
   3   6   8 1700.74 365.304   1
   3   6   9 2941.48 489.143   1
   3   6  10 3536.68 539.458   1
   3   6  11 2696.83 495.961   1
   3   6  12 603.316 171.526   1
   3   6  13 1329.19 392.820   1
   3   7  -9 2826.27 564.321   5
   3   7  -8 1196.67 378.281   5
   3   7  -7 424.598 244.412   3
   3   7  -7 196.193 223.937   5
   3   7  -6 650.670 250.211   3
   3   7  -6 334.029 200.049   5
   3   7  -5 1729.68 339.663   5
   3   7  -5 1913.34 440.392   3
   3   7  -5 2196.07 416.081   2
   3   7  -4 239.208 163.739   5
   3   7  -4-283.893 156.340   3
   3   7  -4 58.9721 138.667   2
   3   7  -3 806.778 216.147   5
   3   7  -3 1278.19 329.430   2
   3   7  -2 1956.59 393.274   2
   3   7  -2 1618.07 329.917   1
   3   7  -1 434.771 237.317   2
   3   7  -1 63.5644 127.750   1
   3   7   0 13587.6 941.989   1
   3   7   1-12.0158 128.847   1
   3   7   2 20517.7 1190.49   1
   3   7   3 9324.59 815.530   1
   3   7   4-40.4049 122.656   1
   3   7   5 386.178 218.541   1
   3   7   6 1878.58 408.807   1
   3   7   7 2028.40 416.461   1
   3   7   8 906.473 293.242   1
   3   7   9 1049.41 296.597   1
   3   7  10 2588.32 494.071   1
   3   7  11 1162.57 364.017   1
   3   8  -5 237.527 199.664   2
   3   8  -4 359.485 218.991   2
   3   8  -3 1836.29 409.253   2
   3   8  -2-217.569 198.519   2
   3   8  -1 1076.41 310.888   1
   3   8  -1 1002.31 332.462   2
   3   8   0 3787.08 581.973   2
   3   8   0 3736.50 562.348   1
   3   8   1 1258.98 367.945   2
   3   8   1 1042.03 321.507   1
   3   8   2 13407.1 1112.13   2
   3   8   2 12762.5 1018.71   1
   3   8   3 444.758 209.538   1
   3   8   4-147.732 213.288   1
   3   8   5 25.0387 149.872   1
   3   8   6 0.22549 140.238   1
   3   8   7 1022.53 339.597   1
   3   8   8 70.2226 207.586   1
   3   8   9 771.492 317.531   1
   3   9  -4 1263.92 394.863   2
   3   9  -3 415.051 241.196   2
   3   9  -2 6529.96 845.174   2
   3   9  -1 1377.86 395.012   2
   3   9   0 6603.61 835.450   2
   3   9   0 7024.00 811.939   1
   3   9   1 492.224 250.625   1
   3   9   1 1092.62 370.663   2
   3   9   2 1478.42 434.343   2
   3   9   2 1878.18 443.196   1
   3   9   3 127.788 249.769   2
   3   9   3 553.388 247.096   1
   3   9   4 5178.98 751.419   2
   3   9   4 5598.99 756.641   1
   3   9   5 452.753 285.426   2
   3   9   5 75.4301 169.692   1
   3   9   6 10.0573 163.284   1
   3   9   7-136.174 206.555   1
   3  10   1-397.495 253.783   1
   3  10   2-594.606 310.698   1
  -4   9   6 900.382 296.785   4
  -4   9   5 4578.80 597.490   4
  -4   9   4 347.942 203.065   4
  -4   9   3-3.88164 125.876   4
  -4   9   2 4252.10 566.114   4
  -4   9   1-78.4060 173.979   4
  -4   9   0-568.440 248.118   4
  -4   9  -1 70.1289 160.990   4
  -4   9  -2-221.938 260.740   4
  -4   8   9-275.304 230.479   4
  -4   8   8 312.458 168.216   4
  -4   8   7 1593.04 370.041   4
  -4   8   6-295.460 178.776   4
  -4   8   5 10.7964 130.089   4
  -4   8   4 53.7018 154.403   4
  -4   8   3 1081.71 294.603   4
  -4   8   2 2662.77 437.572   4
  -4   8   1 5500.87 623.265   4
  -4   8   0 2169.01 403.246   4
  -4   8  -1 876.164 297.722   4
  -4   8  -2 9074.33 865.770   4
  -4   8  -3-215.247 230.511   4
  -4   8  -4 548.168 281.305   4
   4  -7 -11 1786.39 408.857   5
   4  -7 -10 176.808 161.028   5
   4  -7  -9 651.285 239.909   5
  -4   7   9 334.718 195.868   4
  -4   7   8 738.069 277.871   4
  -4   7   7 854.484 258.508   4
  -4   7   6 255.459 174.269   4
  -4   7   5 1464.63 318.830   4
  -4   7   4 60.5068 112.552   4
  -4   7   3 248.657 155.914   4
  -4   7   2 4518.53 542.520   4
  -4   7   1 163.464 163.417   4
  -4   7   0 773.820 243.740   4
  -4   7  -1 1836.69 366.100   4
  -4   7  -2 3911.89 550.212   4
  -4   7  -3 31.1501 135.105   4
  -4   7  -4 517.390 254.197   4
  -4   7  -5-110.281 168.081   4
  -4   7  -6-134.133 260.489   4
   4  -6 -11 142.152 147.061   5
   4  -6 -10 1965.11 418.054   5
  -4   6   9 742.911 255.893   4
   4  -6  -9 265.506 121.642   5
  -4   6   8 401.742 210.711   4
  -4   6   7 1721.65 347.651   4
  -4   6   6 270.335 163.203   4
  -4   6   5 59.3185 116.659   4
  -4   6   4-96.7482 177.132   4
  -4   6   3 19506.1 1039.17   4
  -4   6   2 9198.73 721.699   4
  -4   6   1 2367.23 377.287   4
  -4   6   0 44342.3 1606.43   4
  -4   6  -1 2500.90 410.704   4
  -4   6  -2-104.601 178.386   4
  -4   6  -3 3107.50 473.142   4
  -4   6  -4 1658.93 386.031   4
  -4   6  -5 330.892 177.101   4
  -4   6  -6 3495.81 585.146   4
  -4   6  -7 45.8027 171.477   4
  -4   6  -8-31.7656 217.320   4
   4  -5 -12 1347.26 358.232   5
   4  -5 -11 232.283 208.821   5
   4  -5 -10-163.450 131.297   5
   4  -5  -9 831.251 245.165   5
  -4   5   8 56.4575 123.710   4
  -4   5   7 500.262 219.642   4
  -4   5   6 37.4590 153.175   4
  -4   5   5 21832.6 1083.12   4
  -4   5   4 10450.1 733.528   4
  -4   5   3 25963.3 1135.68   4
  -4   5   2 21664.9 1045.55   4
  -4   5   1 8483.94 652.156   4
  -4   5   0 34106.5 1329.57   4
  -4   5  -1 1209.85 280.092   4
  -4   5  -2 9598.82 771.205   4
  -4   5  -3 3978.32 514.720   4
  -4   5  -4 1296.25 324.193   4
  -4   5  -5 1249.08 329.439   4
  -4   5  -6 3376.11 537.820   4
  -4   5  -7 511.712 264.029   4
  -4   5  -8 468.182 253.395   4
  -4   5  -9 261.876 259.533   4
   4  -4 -12 432.828 247.999   5
   4  -4 -11-117.925 169.945   5
   4  -4 -10 329.000 230.897   5
   4  -4  -9 300.854 156.833   5
   4  -4  -8 856.425 263.896   5
  -4   4   8 1029.47 300.805   4
  -4   4   7 5403.35 571.851   4
  -4   4   6-66.4705 191.738   4
  -4   4   5 58177.0 1724.69   4
  -4   4   4 6785.75 571.593   4
  -4   4   3 11878.6 730.990   4
  -4   4   2 136.119 124.039   4
  -4   4   1 834.940 211.187   4
  -4   4   0 478.976 176.533   4
  -4   4  -1 1133.86 247.055   4
  -4   4  -2 740.176 227.011   4
  -4   4  -3 881.593 239.262   4
  -4   4  -4 14993.8 966.561   4
   4  -4   4 14648.7 641.654   3
  -4   4  -5 3341.76 477.073   4
  -4   4  -6 8646.37 808.300   4
  -4   4  -7 3382.52 553.179   4
  -4   4  -8 1984.08 456.620   4
  -4   4  -9 700.564 303.935   4
  -4   4 -10 2975.41 563.360   5
  -4   4 -10 3113.91 623.482   4
  -4   4 -11 1185.51 414.197   5
  -4   4 -11 747.789 365.840   4
   4  -3 -12 2695.51 497.488   5
   4  -3 -11 297.546 202.840   5
   4  -3 -10 166.255 173.172   5
   4  -3  -9 1226.32 309.741   5
   4  -3  -8 161.279 128.407   5
  -4   3   7 25607.1 1212.68   4
  -4   3   6 8732.42 685.270   4
  -4   3   5 51261.8 1560.89   4
  -4   3   4 2414.92 333.769   4
  -4   3   3 19939.9 913.294   4
  -4   3   2 15707.0 798.757   4
  -4   3   1 6680.48 516.953   4
  -4   3   0 4621.54 435.354   4
  -4   3  -1 3876.54 416.849   4
  -4   3  -2 4694.45 466.656   4
  -4   3  -3 145.350 138.048   4
  -4   3  -4 2011.24 341.070   4
   4  -3   4 2055.75 205.792   3
   4  -3   5 796.879 123.877   3
  -4   3  -5 1107.49 279.244   4
  -4   3  -6 1208.76 322.210   4
  -4   3  -7 9819.16 859.526   4
  -4   3  -8 14506.9 1083.12   4
  -4   3  -9 456.468 234.678   5
  -4   3  -9 915.410 349.095   4
  -4   3 -10 7095.83 830.602   5
  -4   3 -11-440.011 257.235   5
   4  -2 -12 4388.39 645.827   5
   4  -2 -11 1043.04 297.994   5
   4  -2 -10 5378.36 627.493   5
   4  -2  -9 4659.85 567.050   5
   4  -2  -8 4692.89 563.526   5
   4  -2  -7 148451. 2844.72   5
   4  -2  -6 15256.1 683.922   2
  -4   2   6 14629.6 870.725   4
   4  -2  -6 15344.5 644.359   1
   4  -2  -5 10553.5 594.283   2
  -4   2   5 10627.8 706.748   4
   4  -2  -5 11257.5 596.994   1
   4  -2  -4 3828.41 375.869   2
  -4   2   4 3768.05 408.591   4
   4  -2  -4 4108.04 374.735   1
  -4   2   3 1436.62 248.007   4
  -4   2   2 33104.8 1101.17   4
  -4   2   1 613.013 167.319   4
  -4   2   0 382.140 128.891   4
  -4   2  -1 134.142 71.9138   4
  -4   2  -2 16790.6 814.202   4
  -4   2  -3 162.970 143.731   4
  -4   2  -4 9467.38 683.029   4
   4  -2   4 8894.74 327.442   3
  -4   2  -5 165.028 143.853   4
   4  -2   5 106.027 38.0309   3
  -4   2  -6 3543.59 476.168   4
  -4   2  -7 142.240 171.145   4
  -4   2  -8 288.140 217.275   5
  -4   2  -8 354.840 193.552   4
  -4   2  -9 721.449 302.097   5
  -4   2 -10 1667.10 375.129   5
  -4   2 -11 992.476 347.201   5
  -4   2 -12 426.371 276.631   5
   4  -1 -12 1262.64 384.429   5
   4  -1 -11 3851.82 571.936   5
   4  -1 -10 1075.93 330.200   5
   4  -1  -9 23848.6 1259.23   5
   4  -1  -8 4498.75 526.221   5
   4  -1  -7 4510.13 511.858   5
   4  -1  -6 233.525 66.2583   1
   4  -1  -6 224.135 75.3059   2
   4  -1  -6 322.723 135.055   5
   4  -1  -5 153.523 83.7226   2
  -4   1   5 235.136 159.393   4
   4  -1  -5 108.155 66.6858   1
  -4   1   4 43493.9 1340.29   4
   4  -1  -4 47825.6 1105.31   1
  -4   1   3 4448.98 419.163   4
  -4   1   2 7308.40 500.615   4
  -4   1   1 3978.85 362.097   4
  -4   1   0 13488.1 659.416   4
  -4   1  -1 23055.1 859.007   4
  -4   1  -2 25363.8 937.499   4
  -4   1  -3 327.873 136.341   4
  -4   1  -4 2321.12 318.798   4
  -4   1  -5 3121.69 397.052   4
  -4   1  -6 23637.9 1100.30   4
  -4   1  -7 2709.15 414.195   4
  -4   1  -8 23197.2 1226.70   5
  -4   1  -9 1972.99 394.626   5
  -4   1 -10 5333.84 664.385   5
  -4   1 -11 2972.27 531.948   5
  -4   1 -12 140.505 189.509   5
  -4   1 -13 361.688 272.799   5
   4  -1  13 5.09846 168.755   1
   4  -1  14-22.5774 176.673   1
   4   0 -12 3882.97 616.445   5
   4   0 -11 604.257 267.463   5
   4   0 -10 8362.64 803.330   5
   4   0  -9 15271.4 1031.73   5
   4   0  -8 3172.72 442.359   5
   4   0  -7 15024.1 915.212   5
   4   0  -6 462.095 94.8268   2
   4   0  -6 804.611 232.301   5
   4   0  -5 1906.46 306.235   5
   4   0  -5 1787.34 138.753   1
  -4   0   4 3008.42 363.954   4
  -4   0   3 870.304 196.116   4
  -4   0   2 1686.79 236.728   4
  -4   0   1 16670.3 698.824   4
   4   0   0 4475.29 379.682   4
  -4   0   0 4470.30 357.056   4
   4   0   1 7263.48 485.431   4
  -4   0  -1 6939.04 440.431   4
   4   0   2 283.597 104.724   4
  -4   0  -2 654.500 139.964   4
  -4   0  -3 57.2773 81.1198   4
   4   0   3 134.068 43.5752   3
  -4   0  -4 39661.1 1172.48   4
  -4   0  -5 27780.2 1054.63   4
  -4   0  -6 18792.7 910.751   4
  -4   0  -7 1940.79 335.117   4
  -4   0  -8 1520.53 341.353   5
  -4   0  -9 9025.09 775.184   5
  -4   0 -10 3308.52 513.703   5
  -4   0 -11 727.890 331.642   5
  -4   0 -12 1558.79 407.841   5
   4   0  12 2540.26 447.676   1
  -4   0 -13 1025.70 360.458   5
   4   0  13 254.759 158.679   1
  -4   0 -14 1514.51 448.386   5
   4   0  14 526.953 224.974   1
   4   0  15 328.452 194.127   1
   4   1 -12 2056.32 471.355   5
   4   1 -11 2251.85 463.689   5
   4   1 -10 3054.36 523.903   5
   4   1  -9 3819.28 533.925   5
   4   1  -8 2593.89 428.612   5
   4   1  -7 3684.74 467.253   5
   4   1  -6 17415.3 943.989   5
   4   1  -5 10690.0 697.740   5
   4   1  -4 3082.70 168.808   1
   4   1  -4 4445.05 423.265   5
   4   1  -3 190.609 56.5475   1
  -4  -1   3 363.142 142.001   4
  -4  -1   2 12382.2 633.642   4
  -4  -1   1 525.548 124.273   4
   4   1  -1 747.565 150.769   4
   4   1   0 12092.4 577.489   4
  -4  -1   0 11668.2 549.296   4
   4   1   1 2043.71 247.607   4
  -4  -1  -1 2337.60 242.090   4
   4   1   1 2409.81 236.535   3
   4   1   2 13575.8 624.593   4
  -4  -1  -2 13261.9 559.897   4
   4   1   2 12627.3 489.831   3
  -4  -1  -3 30294.7 872.014   4
   4   1   3 31257.2 997.190   5
   4   1   3 32195.5 696.805   3
  -4  -1  -4 19847.1 753.586   4
   4   1   4 20032.6 817.432   5
  -4  -1  -5 15.4680 77.4595   4
  -4  -1  -6-51.5257 89.8264   4
  -4  -1  -7 14790.2 799.869   4
  -4  -1  -8 3985.30 456.211   4
  -4  -1  -8 4083.21 460.388   5
  -4  -1  -9 2437.88 390.675   5
   4   1   9 2418.74 398.493   1
   4   1  10 11800.4 869.895   1
  -4  -1 -10 12765.4 922.670   5
  -4  -1 -11 91.6002 127.889   5
   4   1  11-100.172 162.235   1
  -4  -1 -12 938.134 332.292   5
   4   1  12 630.880 234.858   1
  -4  -1 -13 224.150 213.860   5
   4   1  13 101.531 148.837   1
  -4  -1 -14 200.854 177.233   5
   4   1  14 54.0055 161.525   1
   4   1  15 741.031 281.842   1
   4   2 -11-64.7698 193.885   5
   4   2 -11-80.5187 161.768   3
   4   2 -10-246.160 198.975   5
   4   2 -10 87.8734 128.001   3
   4   2  -9-474.101 225.890   5
   4   2  -9 55.4095 138.086   3
   4   2  -8-110.353 167.817   5
   4   2  -7 3430.64 455.300   5
   4   2  -6 2832.44 384.164   5
   4   2  -5 7570.37 593.494   5
   4   2  -4 19880.8 893.107   5
   4   2  -4 18554.3 441.079   1
   4   2  -3 800.051 193.344   3
   4   2  -3 817.089 117.133   1
   4   2  -3 1258.62 221.489   5
   4   2  -2 19964.0 631.821   1
   4   2  -2 18661.5 829.523   3
   4   2  -1 3344.61 304.229   4
   4   2  -1 3073.75 278.059   1
  -4  -2   1 3518.23 325.674   4
   4   2  -1 3071.01 328.862   3
   4   2   0 16312.3 628.642   4
  -4  -2   0 15957.7 620.566   4
   4   2   0 16082.6 663.296   1
   4   2   0 16057.5 693.699   3
   4   2   1 62752.6 1211.57   4
  -4  -2  -1 62987.2 1155.45   4
   4   2   1 62278.4 1379.82   1
   4   2   1 61691.9 1281.11   3
   4   2   2 155931. 1928.01   4
  -4  -2  -2 151701. 1722.71   4
   4   2   2 153172. 2285.21   1
   4   2   2 158076. 1958.02   3
  -4  -2  -3 50162.7 988.739   4
   4   2   3 51070.7 1384.20   1
   4   2   3 51644.5 1178.23   5
   4   2   3 51489.8 1051.28   3
  -4  -2  -4 21378.8 670.038   4
   4   2   4 22368.9 962.375   1
   4   2   4 21568.9 783.171   5
  -4  -2  -5 14252.7 598.673   4
   4   2   5 12797.1 763.028   1
   4   2   5 13746.1 643.516   5
  -4  -2  -6 25229.0 876.544   4
   4   2   6 24859.3 1091.20   1
   4   2   6 26144.1 924.795   5
  -4  -2  -7 6184.41 485.193   4
   4   2   7 6686.74 593.069   1
  -4  -2  -7 6147.20 257.319   3
   4   2   8 165.110 110.054   1
  -4  -2  -8 229.995 108.553   5
  -4  -2  -8 432.300 182.362   4
  -4  -2  -9 131.967 117.423   5
   4   2   9 59.7834 147.232   1
  -4  -2 -10 279.211 124.468   5
   4   2  10 271.318 125.831   1
  -4  -2 -11 2119.95 397.781   5
   4   2  11 1848.02 365.081   1
  -4  -2 -12 1216.95 335.251   5
   4   2  12 789.432 273.893   1
  -4  -2 -13 595.136 268.680   5
   4   2  13 626.976 235.696   1
  -4  -2 -14 584.996 254.542   5
   4   2  14-38.3303 131.306   1
  -4  -2 -15 400.596 240.561   5
   4   2  15-229.329 184.456   1
   4   3 -11 784.390 295.721   5
   4   3 -11 487.505 243.182   3
   4   3 -10 542.681 227.285   5
   4   3 -10 737.305 262.263   3
   4   3  -9 226.457 167.621   5
   4   3  -9-44.0839 156.368   3
   4   3  -8 1679.64 363.001   5
   4   3  -8 1220.73 314.424   3
   4   3  -7 3143.84 454.940   5
   4   3  -7 2937.46 439.866   3
   4   3  -6 243.918 80.7686   2
   4   3  -6 470.906 189.390   5
   4   3  -6 437.777 194.863   3
   4   3  -5 6641.33 568.091   5
   4   3  -5 6076.82 588.812   3
   4   3  -4 220.771 68.0501   1
   4   3  -4 309.422 141.063   5
   4   3  -4 156.179 158.597   3
   4   3  -3 8071.14 540.926   5
   4   3  -3 7935.43 611.212   3
   4   3  -3 7512.38 402.063   1
   4   3  -2 8361.44 453.552   1
   4   3  -2 7825.47 495.607   5
   4   3  -2 8400.67 598.297   3
   4   3  -1 340.784 137.436   3
   4   3  -1 308.608 100.865   4
   4   3  -1 395.132 121.800   5
   4   3  -1 357.404 114.769   1
   4   3   0 52478.1 1266.88   1
   4   3   0 54205.2 1114.14   4
   4   3   0 51931.5 1372.04   3
   4   3   1 21586.6 654.671   4
   4   3   1 22008.7 866.608   1
   4   3   1 23114.8 893.039   3
   4   3   2 3085.28 246.428   4
   4   3   2 2851.05 332.747   1
  -4  -3  -2 2682.50 210.834   4
   4   3   2 2687.61 300.293   3
  -4  -3  -3 2837.24 200.774   4
   4   3   3 2549.83 326.879   1
  -4  -3  -3 2548.57 263.745   3
  -4  -3  -4 1944.89 167.601   4
   4   3   4 1741.22 193.103   5
  -4  -3  -4 2107.86 234.078   3
   4   3   4 1841.55 292.608   1
  -4  -3  -5 24125.3 626.703   4
   4   3   5 24705.1 1076.89   1
   4   3   5 23137.3 728.581   5
  -4  -3  -5 23333.6 739.477   3
  -4  -3  -6 11.8648 58.1645   3
   4   3   6 225.567 157.598   1
  -4  -3  -6 100.531 69.7824   4
   4   3   6 17.5945 67.6534   5
  -4  -3  -7 11817.6 569.370   4
   4   3   7 12788.9 841.522   1
   4   3   7 10806.8 559.306   5
  -4  -3  -7 11530.6 494.979   3
  -4  -3  -8 18155.2 779.594   4
   4   3   8 19835.9 1086.65   1
  -4  -3  -9 5902.17 490.486   4
   4   3   9 5173.43 584.920   1
  -4  -3  -9 6409.52 543.067   5
   4   3  10 5540.49 614.676   1
  -4  -3 -10 6773.63 607.238   5
  -4  -3 -11-119.791 183.812   5
   4   3  11 55.2221 108.819   1
  -4  -3 -12 400.217 214.534   5
   4   3  12 465.173 210.955   1
   4   3  13 90.6392 165.563   1
   4   3  14-141.630 198.290   1
   4   4 -10 14.3294 164.147   3
   4   4 -10-315.035 274.933   5
   4   4  -9 75.1583 116.396   3
   4   4  -9 162.547 154.687   5
   4   4  -8 221.199 172.686   3
   4   4  -8 168.816 160.849   5
   4   4  -7 57.0896 161.027   3
   4   4  -7-70.4507 177.501   5
   4   4  -6 1595.27 349.297   3
   4   4  -6 1097.99 209.335   2
   4   4  -6 1192.03 287.167   5
   4   4  -5 446.554 181.732   3
   4   4  -5 227.515 129.764   5
   4   4  -4 8369.27 611.341   5
   4   4  -4 7922.62 674.342   3
   4   4  -3 282.024 135.422   3
   4   4  -3 225.527 121.404   5
   4   4  -3 267.841 98.0975   1
   4   4  -2 19398.7 787.640   5
   4   4  -2 19259.0 784.046   1
   4   4  -1 2595.41 360.613   3
   4   4  -1 2874.85 276.975   4
   4   4  -1 2789.86 281.786   5
   4   4  -1 1889.97 259.953   1
   4   4   0 28284.6 1022.34   1
   4   4   0 29548.4 794.572   4
   4   4   0 29362.0 795.554   5
   4   4   0 31130.7 1186.87   3
   4   4   1 140.044 130.996   3
   4   4   1 15.9289 42.9617   4
   4   4   1 36.3266 46.3303   5
   4   4   1 79.5780 93.9661   1
   4   4   2 103.223 104.232   1
   4   4   2 303.786 142.780   3
   4   4   2 183.512 63.8341   4
   4   4   2 162.704 56.8122   5
   4   4   3 5282.90 492.674   1
   4   4   3 4501.55 245.682   5
   4   4   4 5484.14 519.453   1
   4   4   4 5366.49 257.102   5
   4   4   5 4449.61 491.289   1
   4   4   5 4512.22 246.352   5
   4   4   6 471.624 164.495   1
  -4  -4  -6 430.141 64.1576   4
   4   4   6 527.657 100.424   5
  -4  -4  -7 4877.90 265.337   4
   4   4   7 5999.30 602.143   1
  -4  -4  -8 2014.70 214.778   4
   4   4   8 1244.76 304.881   1
   4   4   9 9193.48 795.140   1
   4   4  10 503.813 207.562   1
   4   4  11 5035.05 629.840   1
   4   4  12 424.311 225.137   1
   4   4  13 5367.16 692.442   1
   4   4  14-239.647 189.312   1
   4   5 -10 327.080 234.680   5
   4   5  -9 1656.89 403.779   3
   4   5  -9 1501.52 389.112   5
   4   5  -8 813.182 270.908   3
   4   5  -8 710.799 281.014   5
   4   5  -7 1265.19 342.139   3
   4   5  -7 1190.01 323.090   5
   4   5  -6-220.047 219.894   3
   4   5  -6-195.591 176.489   5
   4   5  -5 438.778 245.218   3
   4   5  -5 224.487 121.357   2
   4   5  -5 400.728 192.566   5
   4   5  -4 17739.4 917.155   5
   4   5  -4 16939.3 1058.83   3
   4   5  -3 4014.91 406.309   5
   4   5  -3 4492.86 422.251   1
   4   5  -3 4857.79 563.941   3
   4   5  -2 15304.9 797.545   1
   4   5  -2 17586.7 1030.35   3
   4   5  -1 4710.74 360.871   4
   4   5  -1 5173.05 381.089   5
   4   5  -1 5757.05 569.665   3
   4   5  -1 5060.50 472.757   1
   4   5   0 1392.12 299.561   3
   4   5   0 1115.79 233.599   1
   4   5   0 1366.15 174.910   4
   4   5   0 857.397 140.985   5
   4   5   1 12429.6 764.960   1
   4   5   1 12152.9 432.379   4
   4   5   1 11507.6 405.248   5
   4   5   1 12644.2 796.053   3
   4   5   2 154.497 42.7695   5
   4   5   2 33.6812 30.0592   4
   4   5   2 66.5310 104.845   1
   4   5   2 38.9566 27.0857   5
   4   5   3 10313.3 740.027   1
   4   5   4 684.440 212.425   1
   4   5   5 11051.2 803.503   1
   4   5   6-73.5665 135.865   1
   4   5   7 4063.61 524.385   1
   4   5   8 1505.13 347.581   1
   4   5   9 24.6052 121.410   1
   4   5  10 1086.75 330.625   1
   4   5  11 440.727 249.756   1
   4   5  12 2027.17 444.677   1
   4   5  13 2033.66 452.752   1
   4   6  -9 464.912 302.345   5
   4   6  -8 169.621 156.844   5
   4   6  -7 1109.45 378.607   3
   4   6  -7 599.411 241.958   5
   4   6  -6 6138.99 654.092   5
   4   6  -6 7282.65 791.377   3
   4   6  -5 6678.79 661.164   2
   4   6  -5 6912.54 643.442   5
   4   6  -5 8002.77 816.922   3
   4   6  -4 398.448 230.028   3
   4   6  -4 208.114 154.788   2
   4   6  -4 353.107 157.372   5
   4   6  -3 771.429 288.399   3
   4   6  -3 533.628 192.311   1
   4   6  -3 342.227 146.341   5
   4   6  -2 853.709 278.221   3
   4   6  -2 718.649 205.902   1
   4   6  -2 780.464 187.170   5
   4   6  -1 1381.39 327.064   3
   4   6  -1 1561.03 297.296   1
   4   6  -1 1087.06 188.582   5
   4   6   0 2374.38 368.418   1
   4   6   0 2884.22 447.265   3
   4   6   0 2244.11 216.794   5
   4   6   1 175.508 139.713   1
   4   6   2-32.2383 128.689   1
   4   6   3 2148.54 368.910   1
   4   6   4 7371.86 690.256   1
   4   6   5 1678.07 353.402   1
   4   6   6 2399.78 428.004   1
   4   6   7 2549.99 436.499   1
   4   6   8 77.0385 156.586   1
   4   6   9 1142.72 313.464   1
   4   6  10 865.969 286.645   1
   4   6  11 8179.84 872.367   1
   4   6  12 98.6118 149.613   1
   4   7  -6 209.017 208.897   3
   4   7  -5 592.391 308.059   3
   4   7  -4 3998.52 604.323   3
   4   7  -4 4025.49 567.567   2
   4   7  -3-198.458 232.934   3
   4   7  -3 76.9623 129.332   2
   4   7  -2-119.292 220.971   3
   4   7  -2 267.604 137.959   1
   4   7  -2 186.991 168.554   2
   4   7  -1-168.527 192.123   1
   4   7   0-57.4895 130.226   1
   4   7   1 309.160 168.775   1
   4   7   2 1343.19 325.126   1
   4   7   3 551.119 215.541   1
   4   7   4 798.702 244.647   1
   4   7   5-53.0242 169.385   1
   4   7   6 627.719 257.340   1
   4   7   7 220.048 134.946   1
   4   7   8 919.173 309.313   1
   4   7   9 231.758 196.427   1
   4   7  10 3677.31 611.840   1
   4   8  -4 98.2703 232.183   2
   4   8  -3 952.011 320.484   2
   4   8  -2-70.3964 170.127   2
   4   8  -1 71.7006 147.838   1
   4   8  -1 543.242 253.733   2
   4   8   0-297.502 236.539   2
   4   8   0-100.464 182.898   1
   4   8   1 2916.80 496.968   1
   4   8   2 961.059 293.372   1
   4   8   3 91.6800 142.615   1
   4   8   4 295.009 200.291   1
   4   8   5 812.663 276.135   1
   4   8   6 164.600 174.316   1
   4   8   7 126.495 157.791   1
   4   8   8 69.0465 155.628   1
   4   9  -3 383.369 306.007   2
   4   9  -2 1018.30 377.677   2
   4   9  -1 1153.29 384.596   2
   4   9  -1 1919.47 443.132   1
   4   9   0 369.545 289.161   2
   4   9   0-421.007 230.879   1
   4   9   1 191.152 179.777   2
   4   9   1 453.078 232.398   1
   4   9   2 264.646 256.478   2
   4   9   2 217.365 186.435   1
   4   9   3 97.2962 167.709   1
   4   9   4 3296.79 598.178   1
   4   9   5 681.869 317.547   1
  -5   8   7 7396.46 808.533   4
  -5   8   6 532.238 248.987   4
  -5   8   5 1677.25 385.111   4
  -5   8   4 198.456 148.024   4
  -5   8   3 8.42545 116.669   4
  -5   8   2 1255.11 340.199   4
  -5   8   1 183.235 119.674   4
  -5   8   0 786.666 287.289   4
  -5   8  -1 1128.85 313.949   4
  -5   8  -2 3276.41 542.370   4
  -5   7   8 93.8287 158.733   4
  -5   7   7 415.190 211.358   4
  -5   7   6 1030.82 307.445   4
  -5   7   5 61.5878 119.808   4
  -5   7   4 4585.48 574.114   4
  -5   7   3 962.745 285.739   4
  -5   7   2 1965.95 370.951   4
  -5   7   1 3818.19 538.387   4
  -5   7   0 286.876 214.118   4
  -5   7  -1 149.231 160.898   4
  -5   7  -2 13.3820 124.844   4
  -5   7  -3 640.805 277.624   4
  -5   7  -4 93.3326 194.586   4
  -5   7  -5-30.5621 160.053   4
   5  -6 -10 1206.36 367.342   5
  -5   6   9 4974.86 665.386   4
   5  -6  -9 4862.93 650.570   5
  -5   6   8-39.4694 167.238   4
  -5   6   7 1944.62 394.938   4
  -5   6   6 166.936 158.006   4
  -5   6   5 1877.77 386.629   4
  -5   6   4-22.4786 164.540   4
  -5   6   3-43.0020 136.960   4
  -5   6   2 1833.50 354.742   4
  -5   6   1 3287.93 471.997   4
  -5   6   0 12445.3 903.499   4
  -5   6  -1 193.214 132.624   4
  -5   6  -2 4121.66 550.440   4
  -5   6  -3-128.243 166.287   4
  -5   6  -4 613.799 268.021   4
  -5   6  -5 984.027 314.680   4
  -5   6  -6 521.957 276.750   4
  -5   6  -7-47.4103 229.736   4
   5  -5 -10 2100.48 452.437   5
  -5   5   9 1221.67 340.500   4
   5  -5  -9 1389.95 347.535   5
  -5   5   8 124.022 127.494   4
  -5   5   7 1125.51 288.340   4
  -5   5   6 2429.79 429.791   4
  -5   5   5 4006.50 522.597   4
  -5   5   4 9964.87 778.223   4
  -5   5   3-44.0254 122.797   4
  -5   5   2 138.931 133.054   4
  -5   5   1 234.792 141.429   4
  -5   5   0 1257.64 286.037   4
  -5   5  -1 13930.7 932.161   4
  -5   5  -2 7134.52 688.621   4
  -5   5  -3 610.718 241.627   4
  -5   5  -4 6685.02 719.793   4
  -5   5  -5 687.400 296.093   4
  -5   5  -6 2618.60 478.037   4
  -5   5  -7 130.483 181.580   4
  -5   5  -8 633.614 308.213   4
   5  -4 -11 8.52359 127.251   5
   5  -4 -10 316.161 200.502   5
   5  -4  -9-40.1536 196.588   5
  -5   4   8 4118.95 565.819   4
  -5   4   7 1835.01 396.349   4
  -5   4   6 2403.24 401.259   4
  -5   4   5 761.192 247.366   4
  -5   4   4 3908.55 477.574   4
  -5   4   3 6366.90 603.104   4
  -5   4   2 3274.72 429.079   4
  -5   4   1 776.978 213.619   4
  -5   4   0 819.998 237.549   4
  -5   4  -1 39792.3 1483.84   4
  -5   4  -2 19230.5 1065.56   4
  -5   4  -3 810.275 276.946   4
  -5   4  -4 177.646 154.907   4
  -5   4  -5 1365.70 351.178   4
  -5   4  -6 4160.19 594.124   4
  -5   4  -7 6147.22 731.368   4
  -5   4  -8 3252.57 586.207   4
  -5   4  -9 2482.43 515.528   4
  -5   4 -10 1418.05 426.177   4
   5  -3 -11 616.455 278.887   5
   5  -3 -10 2468.04 457.400   5
   5  -3  -9 321.894 206.840   5
   5  -3  -8-140.280 161.629   5
  -5   3   7 6939.31 685.672   4
  -5   3   6 284.228 167.622   4
  -5   3   5 3488.61 455.247   4
  -5   3   4 2.35146 127.688   4
  -5   3   3-27.9913 88.8878   4
  -5   3   2 107.172 100.518   4
  -5   3   1 423.894 178.052   4
  -5   3   0 3307.13 405.905   4
  -5   3  -1 19626.1 980.270   4
  -5   3  -2 16430.5 928.022   4
  -5   3  -3 1822.36 335.475   4
  -5   3  -4 28193.4 1302.15   4
  -5   3  -5 416.477 217.412   4
  -5   3  -6 5258.42 624.271   4
  -5   3  -7-86.8164 187.954   4
  -5   3  -8 10740.0 953.360   4
  -5   3  -9 167.830 209.757   4
  -5   3 -10 1568.49 413.355   4
  -5   3 -11 191.906 154.349   4
   5  -2 -11 866.703 285.148   5
   5  -2 -10 1582.02 374.769   5
   5  -2  -9 7208.23 752.857   5
   5  -2  -8 1277.18 310.614   5
  -5   2   7 5417.14 615.956   4
  -5   2   6 10052.8 783.453   4
  -5   2   5-38.5339 97.2941   4
  -5   2   4 68.3813 106.212   4
  -5   2   3 548.099 171.281   4
  -5   2   2-55.2950 104.267   4
  -5   2   1 12118.5 732.493   4
  -5   2   0 27637.5 1098.99   4
  -5   2  -1 3259.16 392.926   4
  -5   2  -2 6128.69 536.428   4
  -5   2  -3 3487.99 421.306   4
  -5   2  -4 133.170 121.444   4
  -5   2  -5 25995.4 1231.50   4
   5  -2   5 19826.8 334.061   3
  -5   2  -6 40870.1 1615.50   4
  -5   2  -7 4409.18 557.699   4
  -5   2  -8 16240.6 1123.43   4
  -5   2  -9 1596.17 413.860   4
  -5   2 -10-8.57446 153.419   4
  -5   2 -11-84.1182 205.108   4
  -5   2 -12 74.3563 167.618   4
   5  -1 -11 457.012 214.621   5
   5  -1 -10 731.977 287.728   5
   5  -1  -9 606.376 223.456   5
   5  -1  -8 5999.68 650.426   5
   5  -1  -7 1845.61 361.770   5
  -5   1   6 1281.04 314.404   4
  -5   1   5 6306.52 588.318   4
   5  -1  -5 6415.41 428.839   1
  -5   1   4 7968.68 629.739   4
  -5   1   3 3806.67 423.099   4
  -5   1   2 38885.9 1285.76   4
  -5   1   1 6225.28 505.982   4
  -5   1   0 40534.8 1261.56   4
  -5   1  -1 9250.53 603.705   4
  -5   1  -2 24293.3 992.339   4
  -5   1  -3 8971.21 631.733   4
  -5   1  -4 63375.8 1727.05   4
  -5   1  -5 17877.6 965.615   4
  -5   1  -6 10763.6 784.264   4
  -5   1  -7 151.608 151.043   4
  -5   1  -8 131.349 153.567   4
  -5   1  -9 4860.67 602.348   4
  -5   1 -10 3349.04 524.022   4
  -5   1 -11 525.315 269.395   4
  -5   1 -12 101.865 192.098   4
  -5   1 -13 653.766 310.071   4
   5   0 -11 8140.63 870.386   5
   5   0 -10 1842.47 403.268   5
   5   0  -9-73.0912 198.816   5
   5   0  -8 2555.49 420.934   5
   5   0  -7 64.1524 156.329   5
   5   0  -6 13876.7 901.023   5
   5   0  -5 243.359 76.0995   1
  -5   0   4 4366.15 468.709   4
  -5   0   3 882.151 228.126   4
  -5   0   2 14263.0 761.664   4
  -5   0   1 14500.8 739.805   4
  -5   0   0 12135.4 657.220   4
  -5   0  -1 23040.8 900.807   4
  -5   0  -2 16863.6 770.756   4
  -5   0  -3 108037. 1987.76   4
   5   0   3 80509.0 1153.59   3
  -5   0  -4 11773.2 689.797   4
   5   0   4 11392.8 344.192   3
  -5   0  -5 21276.4 967.676   4
  -5   0  -6 11127.8 741.139   4
  -5   0  -7 491.632 185.264   4
  -5   0  -8 144.530 144.024   4
  -5   0  -9 3478.59 501.356   4
  -5   0 -10 6318.81 690.744   4
  -5   0 -11 495.782 257.093   4
   5   0  12-381.174 224.174   1
  -5   0 -12-261.666 212.312   5
  -5   0 -12-34.9888 161.678   4
  -5   0 -13 142.576 183.260   5
  -5   0 -13 542.220 301.170   4
   5   0  13 119.985 150.125   1
  -5   0 -14 536.318 283.018   4
   5   1 -11 282.841 220.282   5
   5   1 -10-171.474 209.371   5
   5   1  -9 2055.48 416.889   5
   5   1  -8 115.135 152.760   5
   5   1  -7 4702.93 558.658   5
   5   1  -6 635.151 231.567   5
   5   1  -5 305.163 46.5356   1
   5   1  -5 425.777 183.309   5
   5   1  -4 1195.06 140.119   1
  -5  -1   3 13049.3 763.121   4
   5   1  -3 12498.2 526.816   1
  -5  -1   2 18712.9 864.319   4
  -5  -1   1 6377.23 484.124   4
  -5  -1   0 2352.31 292.269   4
  -5  -1  -1 43655.1 1170.58   4
   5   1   1 44233.5 1118.97   3
  -5  -1  -2 3721.69 347.568   4
   5   1   2 4076.20 324.207   3
  -5  -1  -3 49915.8 1250.86   4
   5   1   3 47637.9 987.408   3
  -5  -1  -4 6117.93 456.417   4
   5   1   4 4293.66 262.063   3
  -5  -1  -5 3323.23 358.545   4
  -5  -1  -6 1512.55 267.690   4
  -5  -1  -7 7259.75 594.654   4
  -5  -1  -8-189.806 137.143   4
  -5  -1  -9 7282.07 670.465   4
   5   1   9 8717.08 781.021   1
  -5  -1 -10 55.3681 118.084   4
   5   1  10 108.725 143.098   1
  -5  -1 -11 1614.36 360.177   4
   5   1  11 1491.55 357.309   1
  -5  -1 -12 1677.66 401.702   5
   5   1  12 1404.31 360.393   1
  -5  -1 -12 1487.17 368.744   4
  -5  -1 -13-116.201 162.950   5
   5   1  13 179.906 188.298   1
  -5  -1 -14 82.2149 153.269   5
   5   2 -10 661.728 255.733   5
   5   2 -10 808.609 310.659   3
   5   2  -9 61.1032 129.377   3
   5   2  -9 150.627 139.775   5
   5   2  -8 5699.98 661.706   5
   5   2  -8 5430.32 642.246   3
   5   2  -7 1416.26 320.361   5
   5   2  -6 4100.99 506.471   5
   5   2  -5 171.473 146.921   5
   5   2  -4 4951.66 274.311   1
   5   2  -4 5811.95 528.778   5
   5   2  -4 5930.54 561.339   3
   5   2  -3 1237.97 166.717   1
   5   2  -3 963.214 212.482   5
   5   2  -3 1280.80 245.615   3
   5   2  -2 2278.18 245.912   1
   5   2  -2 1623.89 272.456   3
  -5  -2   1 47592.1 1301.48   4
   5   2  -1 44703.9 1344.77   3
  -5  -2   0 480.847 142.499   4
   5   2   0 867.959 203.161   1
   5   2   0 539.324 160.049   3
  -5  -2  -1 71625.7 1441.55   4
   5   2   1 70613.2 1636.09   1
   5   2   1 70043.8 1503.37   3
   5   2   2 1531.25 228.960   3
  -5  -2  -2 1847.26 231.933   4
   5   2   2 1231.48 221.603   4
   5   2   2 1768.98 281.116   1
   5   2   3 9806.83 579.418   4
  -5  -2  -3 9886.36 515.541   4
   5   2   3 10004.8 671.063   1
   5   2   3 9816.77 520.470   3
   5   2   4 1440.90 274.861   1
  -5  -2  -4 1267.61 186.919   4
   5   2   5 1521.98 287.810   1
  -5  -2  -5 2159.34 258.378   4
  -5  -2  -6 404.239 139.893   4
   5   2   6 171.963 115.115   1
  -5  -2  -7 1383.68 249.576   4
   5   2   7 1490.58 322.089   1
  -5  -2  -8 2475.93 340.001   4
   5   2   8 2775.70 447.107   1
   5   2   9 194.073 178.005   1
  -5  -2  -9-249.914 142.084   4
  -5  -2 -10 606.391 208.963   4
   5   2  10 614.897 238.633   1
  -5  -2 -11 55.9107 109.344   4
   5   2  11 146.719 178.473   1
   5   2  12 1950.41 417.695   1
   5   2  13 258.414 212.590   1
  -5  -2 -13 442.737 241.277   5
   5   3 -10 373.064 234.402   5
   5   3  -9 206.239 213.518   5
   5   3  -9 195.323 173.329   3
   5   3  -8 2764.36 479.822   5
   5   3  -8 3529.85 544.200   3
   5   3  -7 185.254 144.957   5
   5   3  -7 398.064 228.363   3
   5   3  -6 1487.86 314.141   5
   5   3  -6 1480.79 337.032   3
   5   3  -5 13265.9 842.719   5
   5   3  -5 13191.8 909.541   3
   5   3  -4 2544.83 374.860   5
   5   3  -4 3102.86 430.004   3
   5   3  -3 28008.9 830.971   1
   5   3  -3 31353.2 1154.07   5
   5   3  -3 31566.1 1294.69   3
   5   3  -2 4616.13 426.017   5
   5   3  -2 3992.80 450.293   3
   5   3  -1 6239.57 454.432   1
   5   3  -1 5926.82 449.740   5
   5   3   0 2088.10 318.825   3
   5   3   0 2338.09 302.525   1
   5   3   1 11227.6 574.436   4
   5   3   1 10047.1 648.511   1
  -5  -3  -1 10420.9 536.233   4
   5   3   1 11230.3 669.574   3
   5   3   2 4855.25 378.481   4
  -5  -3  -2 5070.62 354.896   4
   5   3   2 4347.58 438.202   1
   5   3   2 4730.15 425.662   3
   5   3   3 115.603 99.3956   5
   5   3   3 581.656 193.682   1
   5   3   3 306.535 98.7499   4
   5   3   3 265.848 112.180   3
  -5  -3  -3 375.930 105.692   4
  -5  -3  -4 24001.6 711.789   4
   5   3   4 23592.5 1094.55   1
   5   3   4 23245.7 852.976   5
   5   3   5 10290.1 751.036   1
   5   3   5 9891.23 561.477   5
  -5  -3  -6 5335.53 366.398   4
   5   3   6 4913.99 541.862   1
   5   3   6 4618.34 393.349   5
   5   3   7 1180.11 287.747   1
  -5  -3  -7 1170.31 196.239   4
   5   3   8 218.375 155.285   1
  -5  -3  -8 262.292 108.821   4
   5   3   9 2946.44 469.502   1
  -5  -3  -9 2644.63 334.152   4
   5   3  10 1403.89 352.115   1
   5   3  11 621.696 271.517   1
   5   3  12 130.594 189.119   1
   5   3  13 328.336 221.640   1
   5   4  -9 150.751 160.155   5
   5   4  -8-87.6369 142.151   3
   5   4  -8 206.189 163.344   5
   5   4  -7 285.502 242.938   3
   5   4  -7 0.17760 156.611   5
   5   4  -6 200.018 209.449   3
   5   4  -6 205.474 187.250   5
   5   4  -5 33.9572 168.343   3
   5   4  -5 0.41858 110.275   5
   5   4  -4 4921.05 502.648   5
   5   4  -4 4178.70 525.411   3
   5   4  -3 505.930 183.093   3
   5   4  -3 376.676 127.260   1
   5   4  -3 359.524 194.423   5
   5   4  -2 5377.17 555.449   3
   5   4  -2 4513.60 396.710   1
   5   4  -1 6140.30 489.496   1
   5   4  -1 5426.18 538.456   3
   5   4   0 354.409 153.136   3
   5   4   0 127.803 78.4422   4
   5   4   0 234.321 109.792   5
   5   4   0 153.135 113.181   1
   5   4   1-63.3371 86.1259   1
   5   4   1-79.1661 107.061   3
   5   4   1 60.6489 68.0714   4
   5   4   1-22.3833 67.7422   5
   5   4   2 6223.49 386.942   4
   5   4   2 6686.89 573.441   1
   5   4   2 7392.82 577.650   3
   5   4   3 20385.9 1026.58   1
   5   4   3 19728.0 689.044   5
   5   4   4 3240.28 429.509   1
  -5  -4  -4 2985.17 206.027   4
   5   4   4 3068.87 268.382   5
   5   4   5 8723.93 722.709   1
  -5  -4  -5 8737.02 333.043   4
   5   4   6 920.180 264.279   1
   5   4   7 7353.54 711.175   1
   5   4   8 115.026 131.878   1
   5   4   9-73.9746 121.504   1
   5   4  10 43.8108 159.008   1
   5   4  11 1767.13 403.984   1
   5   4  12 660.280 264.298   1
   5   5  -9 228.543 153.567   5
   5   5  -8-537.931 244.700   5
   5   5  -7 937.507 300.612   3
   5   5  -7 950.874 269.145   5
   5   5  -6 527.492 279.062   3
   5   5  -6 920.280 272.656   5
   5   5  -5 7184.20 660.702   5
   5   5  -5 7393.09 772.736   3
   5   5  -4 461.628 227.121   3
   5   5  -4 1015.10 248.801   5
   5   5  -3 64.9543 179.619   3
   5   5  -3-8.57599 98.1034   1
   5   5  -3 44.4447 98.5031   5
   5   5  -2 286.081 123.666   1
   5   5  -2 148.427 144.147   3
   5   5  -2 448.610 161.069   5
   5   5  -1 272.715 177.761   3
   5   5  -1 187.842 112.380   1
   5   5  -1 215.206 102.632   5
   5   5   0 587.980 188.805   1
   5   5   0 351.233 101.800   5
   5   5   1 165.389 132.130   3
   5   5   1 141.522 106.254   1
   5   5   1 143.065 68.4676   5
   5   5   2 84.8576 122.814   1
   5   5   2 108.608 58.7340   5
   5   5   3 4104.88 503.024   1
   5   5   4 2745.49 428.789   1
   5   5   5 779.049 245.596   1
   5   5   6 171.040 169.718   1
   5   5   7 100.059 163.013   1
   5   5   8 2754.42 472.067   1
   5   5   9 6088.43 709.570   1
   5   5  10 1668.11 413.833   1
   5   5  11 3458.43 572.180   1
   5   6  -8 504.040 266.830   5
   5   6  -7 456.555 241.772   5
   5   6  -6 4588.61 582.752   5
   5   6  -6 5283.65 727.097   3
   5   6  -5 1436.70 397.948   3
   5   6  -5 848.870 254.416   5
   5   6  -4 329.261 216.852   3
   5   6  -3-235.398 216.735   3
   5   6  -2 183.621 169.223   3
   5   6  -2 37.8844 127.750   1
   5   6  -1 358.511 160.325   1
   5   6  -1 222.981 206.112   3
   5   6   0 2748.39 403.881   1
   5   6   0 3040.54 479.083   3
   5   6   1 8925.46 742.157   1
   5   6   2 390.046 186.715   1
   5   6   3 5549.83 609.341   1
   5   6   4 514.002 225.370   1
   5   6   5 3631.92 532.937   1
   5   6   6 892.780 282.961   1
   5   6   7 3115.94 508.392   1
   5   6   8 2903.63 513.264   1
   5   6   9 708.740 261.904   1
   5   6  10 2333.57 501.465   1
   5   7  -4 536.339 273.705   3
   5   7  -3-524.706 270.882   3
   5   7  -3 75.2880 177.343   2
   5   7  -2 301.752 256.247   3
   5   7  -1 1120.94 274.115   1
   5   7   0 763.597 264.299   1
   5   7   1 2148.59 406.391   1
   5   7   2 140.234 145.080   1
   5   7   3 1898.11 394.229   1
   5   7   4 506.682 259.793   1
   5   7   5 3204.73 528.680   1
   5   7   6 9336.37 917.762   1
   5   7   7 875.989 292.745   1
   5   7   8 3492.67 598.556   1
   5   7   9 1862.09 459.923   1
   5   8  -3-172.250 210.416   2
   5   8  -2-110.229 171.264   2
   5   8   0-489.820 225.860   1
   5   8   1 808.382 309.767   1
   5   8   2-86.3431 207.326   1
   5   8   3 626.900 297.700   1
   5   8   4 824.210 318.446   1
   5   8   5 249.764 232.423   1
   5   8   6 2810.10 528.584   1
   5   8   7 144.758 220.126   1
   5   9   1 72.0961 177.752   1
   5   9   2 266.559 228.463   1
   5   9   3 547.392 311.827   1
  -6   7   5-41.4161 177.043   4
  -6   7   4 430.794 227.412   4
  -6   7   3 2643.62 477.111   4
  -6   7   2 2099.92 434.728   4
  -6   7   1 996.524 322.754   4
  -6   7   0 346.654 233.719   4
  -6   7  -1 725.036 288.350   4
  -6   7  -2-927.447 309.439   4
  -6   6   7 535.895 219.547   4
  -6   6   6 1220.64 341.119   4
  -6   6   5 90.1937 163.215   4
  -6   6   4 5876.44 674.940   4
  -6   6   3 2513.76 439.252   4
  -6   6   2 214.157 198.384   4
  -6   6   1 1646.39 367.525   4
  -6   6   0 290.526 152.860   4
  -6   6  -1 485.392 231.988   4
  -6   6  -2 3272.35 515.804   4
  -6   6  -3 1155.68 361.443   4
  -6   6  -4 2442.17 489.812   4
  -6   6  -5 290.267 197.563   4
  -6   5   8-82.6282 174.230   4
  -6   5   7-53.8625 150.200   4
  -6   5   6 2625.85 468.507   4
  -6   5   5 165.877 181.706   4
  -6   5   4-82.6330 171.421   4
  -6   5   3 294.660 178.641   4
  -6   5   2 2887.77 450.153   4
  -6   5   1 393.527 199.628   4
  -6   5   0 2904.81 453.546   4
  -6   5  -1 406.647 245.259   4
  -6   5  -2 15941.1 1073.25   4
  -6   5  -3 3924.83 560.615   4
  -6   5  -4 4237.15 594.422   4
  -6   5  -5 1502.30 399.128   4
  -6   5  -6 1097.31 361.295   4
  -6   5  -7 761.425 312.826   4
   6  -4  -9 382.223 234.853   5
  -6   4   8 1576.47 374.428   4
  -6   4   7 130.130 200.622   4
  -6   4   6 1459.67 347.108   4
  -6   4   5 2981.68 476.264   4
  -6   4   4 6173.37 648.009   4
  -6   4   3 4813.95 563.400   4
  -6   4   2 2547.45 418.139   4
  -6   4   1 735.446 240.843   4
  -6   4   0 11362.0 840.391   4
  -6   4  -1 42497.5 1628.85   4
  -6   4  -2 7277.28 696.822   4
  -6   4  -3 9674.52 825.596   4
  -6   4  -4 287.059 167.621   4
  -6   4  -5 52.3818 201.876   4
  -6   4  -6 868.140 300.150   4
  -6   4  -7 143.859 189.097   4
  -6   4  -8 68.4830 191.085   4
   6  -3  -9 1380.91 356.924   5
   6  -3  -8 1303.73 336.685   5
  -6   3   7 7.02056 149.640   4
  -6   3   6 1516.52 351.545   4
  -6   3   5 247.044 199.292   4
  -6   3   4 9327.53 769.044   4
  -6   3   3 13666.9 907.804   4
  -6   3   2 11169.7 809.231   4
  -6   3   1 12171.0 834.026   4
  -6   3   0 9194.73 735.382   4
  -6   3  -1 1320.00 304.639   4
  -6   3  -2 338.329 169.401   4
  -6   3  -3-238.625 207.338   4
  -6   3  -4 112.612 137.703   4
  -6   3  -5 4422.34 572.452   4
  -6   3  -6 4039.98 576.011   4
  -6   3  -7 436.192 249.442   4
  -6   3  -8 48.0176 125.596   4
  -6   3  -9 445.281 239.325   4
  -6   3 -10 2504.64 525.494   4
   6  -2  -9 367.139 215.725   5
   6  -2  -8-93.3764 175.883   5
  -6   2   7 376.684 161.724   4
  -6   2   6 314.250 176.481   4
  -6   2   5 65.4394 143.020   4
  -6   2   4 2943.21 440.017   4
  -6   2   3 4911.14 534.795   4
  -6   2   2 27.8086 163.838   4
  -6   2   1 32836.6 1308.45   4
  -6   2   0 1718.18 304.860   4
  -6   2  -1 22661.1 1086.37   4
  -6   2  -2 12231.8 810.907   4
  -6   2  -3 11021.1 779.895   4
  -6   2  -4 6178.35 612.296   4
  -6   2  -5-63.3750 128.164   4
  -6   2  -6 597.364 239.622   4
  -6   2  -7 125.996 209.648   4
  -6   2  -8 1087.69 316.811   4
  -6   2  -9 112.856 163.810   4
  -6   2 -10 224.386 205.270   4
  -6   2 -11-210.566 244.532   4
   6  -1  -9 169.632 213.504   5
   6  -1  -8 146.388 134.426   5
   6  -1  -7 1219.78 330.435   5
  -6   1   6 16561.0 1069.26   4
  -6   1   5 17586.3 1060.94   4
  -6   1   4 121.742 151.327   4
  -6   1   3 11987.6 811.175   4
  -6   1   2 3286.48 421.603   4
  -6   1   1 4127.63 460.201   4
  -6   1   0 3259.90 409.625   4
  -6   1  -1-12.0117 100.031   4
  -6   1  -2 983.661 247.463   4
  -6   1  -3 18188.3 950.027   4
  -6   1  -4 4289.12 488.064   4
   6  -1   4 3894.03 236.679   3
  -6   1  -5 1983.08 351.607   4
  -6   1  -6 3003.00 431.876   4
  -6   1  -7 2374.40 408.774   4
  -6   1  -8 683.165 261.281   4
  -6   1  -9-111.620 140.095   4
  -6   1 -10 492.940 241.914   4
  -6   1 -11 1521.75 374.872   4
  -6   1 -12 458.457 249.897   4
   6   0  -9-270.993 233.624   5
   6   0  -8 1503.81 360.722   5
   6   0  -7 9496.12 835.826   5
   6   0  -6 5091.00 598.912   5
  -6   0   5 1124.51 312.132   4
  -6   0   4 289.681 178.245   4
  -6   0   3 8136.40 664.592   4
  -6   0   2 66.6627 106.029   4
  -6   0   1 2371.89 349.009   4
  -6   0   0 10520.4 694.495   4
  -6   0  -1 30000.7 1147.84   4
  -6   0  -2 23430.2 1010.51   4
  -6   0  -3 53.8115 115.945   4
   6   0   3 57.6629 65.0749   3
  -6   0  -4 13168.9 787.190   4
   6   0   4 12630.2 450.670   3
  -6   0  -5 10426.0 720.036   4
  -6   0  -6 11.9409 114.905   4
  -6   0  -7 7249.29 656.599   4
  -6   0  -8 517.493 225.391   4
  -6   0  -9 7306.54 727.425   4
  -6   0 -10 469.149 244.273   4
  -6   0 -11 1101.43 314.436   4
  -6   0 -12 5998.84 749.123   4
   6   0  12 4158.05 654.886   1
  -6   0 -13 57.9078 255.209   4
   6   1  -9-185.108 165.850   5
   6   1  -8 57.4006 118.611   5
   6   1  -7 855.179 285.984   5
   6   1  -6-80.2298 163.133   5
   6   1  -5 1972.29 362.158   5
   6   1  -4 70.4559 52.3713   1
   6   1  -3 1828.95 237.937   1
  -6  -1   3 2668.85 378.608   4
   6   1  -2-5.08951 90.6177   1
  -6  -1   2-56.2591 131.962   4
  -6  -1   1 23232.3 1029.88   4
  -6  -1   0 249.520 161.457   4
   6   1   0 52.4189 121.265   3
  -6  -1  -1 25173.4 1012.83   4
   6   1   1 19598.8 828.347   3
  -6  -1  -2 16582.4 805.554   4
   6   1   2 11966.0 609.294   3
  -6  -1  -3 8664.77 592.874   4
   6   1   3 9426.81 500.520   3
  -6  -1  -4 11500.9 678.057   4
   6   1   4 7770.74 406.128   3
  -6  -1  -5 14418.6 784.177   4
  -6  -1  -6 655.168 185.140   4
  -6  -1  -7 3051.46 399.745   4
  -6  -1  -8 1766.65 351.537   4
   6   1   9 768.654 272.426   1
  -6  -1  -9 693.944 213.356   4
  -6  -1 -10 10857.6 866.733   4
   6   1  10 9481.48 899.707   1
  -6  -1 -11 186.480 169.740   4
   6   1  11 470.903 250.391   1
   6   1  12-27.5294 186.494   1
   6   2  -9 134.908 176.340   5
   6   2  -9 199.680 227.423   3
   6   2  -8 1084.16 299.082   5
   6   2  -8 835.894 298.495   3
   6   2  -7 309.168 154.992   3
   6   2  -7 321.850 153.508   5
   6   2  -6 289.014 157.975   3
   6   2  -6 453.127 206.159   5
   6   2  -5 1879.32 360.654   5
   6   2  -5 1980.56 369.951   3
   6   2  -4 41.7403 102.339   5
   6   2  -4 62.0419 124.398   3
   6   2  -3 5835.91 403.166   1
   6   2  -3 7065.33 605.746   5
   6   2  -3 6616.62 615.292   3
  -6  -2   2 1638.55 306.446   4
   6   2  -2 1308.64 214.335   1
   6   2  -2 1011.19 254.682   3
  -6  -2   1 9843.07 676.130   4
   6   2  -1 10285.5 625.848   1
   6   2  -1 10750.8 712.794   3
  -6  -2   0 9620.13 625.788   4
   6   2   0 7878.17 575.477   1
   6   2   0 7945.45 605.793   3
  -6  -2  -1 9395.55 598.579   4
   6   2   1 8783.00 642.194   1
   6   2   1 9210.54 602.436   3
  -6  -2  -2 3942.33 382.784   4
   6   2   2 3660.68 428.151   1
   6   2   2 2734.17 320.504   3
   6   2   3-102.012 140.298   1
   6   2   3 36.9835 84.4356   3
   6   2   4 1279.78 198.902   3
   6   2   4 1301.28 291.761   1
  -6  -2  -4 687.722 181.481   4
  -6  -2  -5 9881.19 596.694   4
   6   2   5 9217.01 751.694   1
  -6  -2  -6 8213.14 563.992   4
   6   2   6 8068.37 733.873   1
  -6  -2  -7 7176.55 562.943   4
   6   2   7 6931.69 706.339   1
  -6  -2  -8 5075.02 499.599   4
   6   2   8 4097.38 553.431   1
   6   2   9 1833.06 398.460   1
  -6  -2  -9 2414.03 370.993   4
   6   2  10 1129.94 335.213   1
   6   2  11 1447.64 369.344   1
   6   2  12 1534.76 405.517   1
   6   3  -9 1497.53 399.616   5
   6   3  -8 178.333 143.069   5
   6   3  -8 93.3399 137.650   3
   6   3  -7 331.885 205.893   5
   6   3  -7 639.040 253.194   3
   6   3  -6 736.679 253.581   5
   6   3  -6 941.172 270.113   3
   6   3  -5 571.922 195.321   5
   6   3  -5 640.086 263.218   3
   6   3  -4 4840.55 530.514   5
   6   3  -4 4131.02 529.795   3
   6   3  -3 2689.11 286.602   1
   6   3  -3 2971.26 397.984   5
   6   3  -3 3284.72 472.415   3
   6   3  -2 540.779 203.951   3
   6   3  -2 448.373 150.448   1
   6   3  -1 23595.4 970.889   1
   6   3  -1 22318.7 1079.73   3
   6   3   0 12091.1 730.430   1
   6   3   0 11927.6 765.281   3
   6   3   1 1980.42 323.429   3
  -6  -3  -1 2153.47 286.026   4
   6   3   1 2180.90 327.044   1
  -6  -3  -2 9327.07 551.956   4
   6   3   2 10585.3 741.972   1
   6   3   2 8503.87 621.502   3
  -6  -3  -3 24612.7 862.018   4
   6   3   3 24120.2 1149.41   1
  -6  -3  -4 9795.22 535.320   4
   6   3   4 9318.79 747.747   1
  -6  -3  -5 2958.88 298.730   4
   6   3   5 2481.01 410.661   1
  -6  -3  -6 5515.90 412.043   4
   6   3   6 5382.66 605.527   1
   6   3   7-156.559 195.846   1
   6   3   8 15393.0 1081.68   1
   6   3   9 1077.06 325.647   1
   6   3  10 4454.32 620.458   1
   6   3  11-246.743 184.320   1
   6   4  -8 911.535 322.916   5
   6   4  -7 1298.63 357.987   3
   6   4  -7 1142.90 326.788   5
   6   4  -6 2720.22 485.506   3
   6   4  -6 2017.88 394.595   5
   6   4  -5 2598.38 458.089   3
   6   4  -5 2846.80 442.684   5
   6   4  -4 569.026 252.593   3
   6   4  -4 193.508 135.348   5
   6   4  -3 6496.67 579.769   5
   6   4  -3 9381.51 809.798   3
   6   4  -2 2585.07 331.726   1
   6   4  -2 2487.87 404.393   3
   6   4  -2 1544.30 275.310   5
   6   4  -1 10819.2 690.892   1
   6   4  -1 9856.73 631.548   5
   6   4  -1 9155.75 745.147   3
   6   4   0 180.699 131.452   1
   6   4   0 89.0894 153.787   3
   6   4   0 169.672 118.148   5
   6   4   1 9731.29 715.380   1
   6   4   1 8360.42 525.561   5
   6   4   1 10017.5 748.262   3
   6   4   2 12153.3 818.684   1
   6   4   2 13941.7 841.212   3
   6   4   3 2419.08 357.454   3
   6   4   3 1957.79 366.198   1
   6   4   4 4519.67 542.308   1
   6   4   5-31.4345 128.637   1
   6   4   6 3645.55 517.402   1
   6   4   7 568.068 231.763   1
   6   4   8 876.890 295.117   1
   6   4   9 741.629 278.005   1
   6   4  10 482.523 258.269   1
   6   4  11 117.355 163.530   1
   6   5  -8 93.8451 193.867   5
   6   5  -7 32.6890 172.067   5
   6   5  -6 1599.94 410.422   3
   6   5  -6 1772.03 398.889   5
   6   5  -5-234.963 247.540   3
   6   5  -5 279.180 180.781   5
   6   5  -4 442.006 244.206   3
   6   5  -4 874.237 244.214   5
   6   5  -3 4635.72 490.293   5
   6   5  -3 4821.97 620.953   3
   6   5  -2 167.730 152.280   3
   6   5  -2 236.214 140.554   5
   6   5  -1 562.654 248.702   3
   6   5  -1 866.497 211.644   1
   6   5   0 39.1744 132.683   3
   6   5   0 103.714 108.577   1
   6   5   1 804.595 245.794   3
   6   5   1 534.742 211.500   1
   6   5   2 2966.05 427.070   3
   6   5   2 2821.29 417.735   1
   6   5   3 189.351 150.329   1
   6   5   4 975.204 284.171   1
   6   5   5 349.977 218.451   1
   6   5   6 5202.90 631.648   1
   6   5   7-33.1221 131.990   1
   6   5   8 2475.80 463.486   1
   6   5   9-142.412 223.897   1
   6   5  10 62.2064 140.466   1
   6   6  -4 2534.12 531.284   3
   6   6  -3 2022.57 442.338   3
   6   6  -2 304.360 197.199   3
   6   6  -1 211.783 138.979   1
   6   6  -1-5.64969 140.480   3
   6   6   0 1449.11 362.276   3
   6   6   0 1506.29 314.489   1
   6   6   1 281.234 207.233   3
   6   6   1-192.791 172.393   1
   6   6   2-69.8330 127.015   1
   6   6   3 879.924 274.134   1
   6   6   4 358.075 185.911   1
   6   6   5 2004.46 413.942   1
   6   6   6 2680.19 489.421   1
   6   6   7 163.557 167.644   1
   6   6   8 227.419 170.315   1
   6   6   9-118.254 151.625   1
   6   7  -2-61.5805 237.529   3
   6   7  -1 687.415 290.372   3
   6   7   0 34.4208 152.858   1
   6   7   1 393.365 187.679   1
   6   7   2-83.1265 136.010   1
   6   7   3 140.211 153.768   1
   6   7   4 328.095 166.399   1
   6   7   5-25.5769 157.251   1
   6   7   6 12.8845 171.883   1
   6   7   7 106.123 215.269   1
   6   8   1 302.082 198.778   1
   6   8   2 319.480 186.108   1
   6   8   3 95.8047 138.976   1
   6   8   4 457.481 218.562   1
   6   8   5 122.173 143.819   1
  -7   6   2 498.028 249.672   4
  -7   6   1 228.651 209.017   4
  -7   6   0-117.625 184.252   4
  -7   6  -1 1274.89 335.523   4
  -7   5   5 346.356 232.798   4
  -7   5   4-56.2139 127.796   4
  -7   5   3 225.574 173.983   4
  -7   5   2 21.6288 125.232   4
  -7   5   1 3341.24 529.811   4
  -7   5   0 610.368 229.530   4
  -7   5  -1 1359.41 336.073   4
  -7   5  -2 1389.67 336.138   4
  -7   5  -3-75.4865 123.250   4
  -7   5  -4 19.8918 122.148   4
  -7   4   6 290.924 193.737   4
  -7   4   5 266.035 235.825   4
  -7   4   4 436.736 256.482   4
  -7   4   3 6690.90 711.214   4
  -7   4   2 172.682 122.962   4
  -7   4   1 2713.19 471.887   4
  -7   4   0 125.280 145.661   4
  -7   4  -1 1437.49 351.259   4
  -7   4  -2 189.093 145.034   4
  -7   4  -3 886.799 264.191   4
  -7   4  -4 1211.80 306.860   4
  -7   4  -5 906.975 302.515   4
  -7   4  -6-140.582 153.462   4
  -7   4  -7 3734.71 615.545   4
  -7   3   7 68.9392 128.419   4
  -7   3   6 1004.38 305.322   4
  -7   3   5 642.352 265.112   4
  -7   3   4 804.536 278.654   4
  -7   3   3 773.400 256.748   4
  -7   3   2 262.194 155.396   4
  -7   3   1 2670.26 432.352   4
  -7   3   0 1530.17 323.812   4
  -7   3  -1 238.920 128.359   4
  -7   3  -2 13820.0 966.875   4
  -7   3  -3 7810.59 742.733   4
  -7   3  -4 669.000 221.050   4
  -7   3  -5 4474.97 604.437   4
  -7   3  -6 315.089 207.883   4
  -7   3  -7 3973.29 614.487   4
  -7   3  -8 3908.24 610.147   4
  -7   2   7 355.058 214.840   4
  -7   2   6 320.711 195.475   4
  -7   2   5 7527.61 764.178   4
  -7   2   4 32.0244 132.198   4
  -7   2   3 9438.60 802.572   4
  -7   2   2 8624.51 761.562   4
  -7   2   1 1820.12 363.886   4
  -7   2   0 4021.83 510.391   4
  -7   2  -1 5012.65 559.636   4
  -7   2  -2 2778.98 420.938   4
  -7   2  -3 7415.96 691.285   4
  -7   2  -4 458.340 205.329   4
  -7   2  -5 3305.08 484.596   4
  -7   2  -6 1570.61 373.147   4
  -7   2  -7 436.316 246.984   4
  -7   2  -8 496.275 229.754   4
  -7   2  -9 330.581 213.710   4
  -7   2 -10 240.625 180.613   4
   7  -1  -8 256.190 245.004   5
   7  -1  -7 6143.33 726.747   5
  -7   1   6 4223.00 596.412   4
  -7   1   5 1125.32 300.958   4
  -7   1   4-55.4728 116.704   4
  -7   1   3 2884.99 459.392   4
  -7   1   2 365.559 183.301   4
  -7   1   1 4440.02 518.390   4
  -7   1   0 1654.29 325.574   4
  -7   1  -1 13862.1 897.989   4
  -7   1  -2-34.5558 133.616   4
  -7   1  -3 2022.47 347.680   4
  -7   1  -4 3607.33 468.571   4
  -7   1  -5 486.607 187.891   4
  -7   1  -6 7534.86 716.755   4
  -7   1  -7 3679.20 524.214   4
  -7   1  -8 3464.29 530.860   4
  -7   1  -9 510.209 246.212   4
  -7   1 -10 616.823 250.677   4
  -7   1 -11 493.749 231.006   4
   7   0  -8 1455.02 391.777   5
   7   0  -7-168.026 219.155   5
   7   0  -6 356.451 224.834   5
  -7   0   5 1252.78 328.648   4
  -7   0   4 5642.14 639.725   4
  -7   0   3 3805.27 508.990   4
  -7   0   2 1635.95 333.374   4
  -7   0   1 3466.36 446.158   4
  -7   0   0 4406.17 495.524   4
  -7   0  -1 4380.94 493.684   4
  -7   0  -2 9272.01 701.156   4
   7   0   2 9397.46 564.955   3
  -7   0  -3 1480.32 296.767   4
   7   0   3 1058.10 179.454   3
  -7   0  -4 3818.88 461.989   4
  -7   0  -5 3110.33 433.483   4
  -7   0  -6 10287.3 786.160   4
  -7   0  -7 438.913 191.794   4
  -7   0  -8 6479.19 682.637   4
  -7   0  -9 140.479 164.962   4
  -7   0 -10 6088.72 710.154   4
  -7   0 -11-308.316 212.116   4
   7   1  -8 1157.12 341.444   5
   7   1  -7 1416.12 359.393   5
   7   1  -6 295.397 176.026   5
   7   1  -5 8751.18 795.664   5
  -7  -1   3 3198.42 462.191   4
   7   1  -2 195.243 143.118   1
  -7  -1   2 134.058 113.588   4
  -7  -1   1 10328.8 763.734   4
   7   1  -1 10462.3 726.956   3
  -7  -1   0 354.932 153.459   4
   7   1   0 815.919 222.047   3
  -7  -1  -1 79.5247 124.084   4
   7   1   1 194.179 120.933   3
   7   1   2-39.3602 90.9839   3
  -7  -1  -2-33.1144 127.234   4
   7   1   3 1425.57 220.295   3
  -7  -1  -3 1530.06 283.001   4
  -7  -1  -4 22172.2 1040.70   4
  -7  -1  -5 867.214 225.993   4
  -7  -1  -6 8258.01 656.152   4
  -7  -1  -7 85.7937 103.371   4
  -7  -1  -8 622.919 191.305   4
   7   1   9 393.408 208.462   1
  -7  -1  -9 756.758 249.065   4
   7   1  10 36.7085 171.395   1
   7   2  -8 32.5264 152.046   5
   7   2  -7 330.211 210.883   5
   7   2  -7 291.923 227.269   3
   7   2  -6-19.7462 139.555   5
   7   2  -6-33.4811 148.467   3
   7   2  -5 190.336 146.145   5
   7   2  -5 338.756 210.361   3
   7   2  -4 264.517 118.298   5
   7   2  -4 388.619 183.495   3
   7   2  -3 1709.64 343.289   5
   7   2  -3 1496.58 338.359   3
  -7  -2   2 379.833 176.113   4
   7   2  -2 163.624 88.7568   1
   7   2  -2 266.915 182.584   3
   7   2  -1 1618.18 282.694   1
  -7  -2   1 1748.24 317.867   4
   7   2  -1 1191.07 256.086   3
   7   2   0 123.357 136.618   3
   7   2   0 283.844 139.050   1
  -7  -2   0 31.5474 126.287   4
   7   2   1 426.806 159.278   3
   7   2   1 320.735 141.507   1
  -7  -2  -1 368.684 162.598   4
  -7  -2  -2 7438.45 581.357   4
   7   2   2 6131.34 600.746   1
   7   2   2 6796.88 539.887   3
   7   2   3 1217.72 242.129   3
   7   2   3 1019.39 270.991   1
  -7  -2  -3 795.414 199.639   4
  -7  -2  -4 2823.07 361.508   4
   7   2   4 2247.32 410.179   1
  -7  -2  -5-279.956 126.674   4
   7   2   5-175.867 174.020   1
  -7  -2  -6 254.810 107.625   4
   7   2   6-28.3178 164.010   1
  -7  -2  -7-23.0081 86.3662   4
   7   2   7 317.918 188.942   1
   7   2   8 4272.05 617.493   1
   7   2   9 705.468 291.271   1
   7   2  10 2261.25 476.958   1
   7   3  -7 578.370 251.302   5
   7   3  -6-524.435 232.577   5
   7   3  -6 76.1051 172.914   3
   7   3  -5 587.566 227.293   5
   7   3  -5 939.410 298.215   3
   7   3  -4 343.532 196.851   5
   7   3  -4 185.792 144.977   3
   7   3  -3 3088.19 488.599   3
   7   3  -3 2945.95 439.092   5
   7   3  -2 2510.22 414.957   3
   7   3  -2 1895.92 338.933   5
   7   3  -1 26.0348 124.423   3
   7   3  -1 142.860 108.760   1
   7   3   0 318.876 135.891   3
   7   3   0 688.676 213.007   1
  -7  -3   0 635.358 185.481   4
   7   3   1 3909.97 471.917   1
  -7  -3  -1 4430.14 453.018   4
   7   3   1 3736.14 463.013   3
  -7  -3  -2 10467.6 659.799   4
   7   3   2 11524.0 831.010   1
   7   3   3 1638.40 296.336   3
   7   3   3 1283.68 323.569   1
  -7  -3  -3 1292.33 229.726   4
  -7  -3  -4 9628.27 603.527   4
   7   3   4 9349.97 797.600   1
   7   3   5 488.416 218.973   1
   7   3   6 3875.46 551.346   1
   7   3   7 133.669 157.971   1
   7   3   8 778.969 329.638   1
   7   3   9-324.748 220.938   1
   7   4  -7 253.330 157.670   5
   7   4  -6 91.7454 191.597   5
   7   4  -5 2256.98 459.142   3
   7   4  -5 1644.64 349.446   5
   7   4  -4-34.9451 142.662   3
   7   4  -4-277.281 166.223   5
   7   4  -3 4136.11 574.963   3
   7   4  -3 4797.07 543.508   5
   7   4  -2 182.964 180.570   3
   7   4  -2 120.899 129.621   5
   7   4  -1 790.697 235.046   3
   7   4  -1 1218.14 257.580   1
   7   4  -1 1256.63 263.085   5
   7   4   0 105.266 133.164   1
   7   4   0 296.362 191.441   3
   7   4   0-60.0058 98.3964   5
   7   4   1 157.584 185.420   3
   7   4   1 286.681 155.818   1
   7   4   2 638.403 229.886   3
   7   4   2 529.850 219.839   1
   7   4   3 2185.14 360.898   3
   7   4   3 1555.23 337.645   1
   7   4   4 1653.68 373.506   1
   7   4   5 350.018 216.772   1
   7   4   6 6006.32 699.910   1
   7   4   7-93.5266 181.336   1
   7   4   8 4165.69 611.184   1
   7   4   9-38.5360 154.834   1
   7   5  -4 180.067 187.745   3
   7   5  -3 431.631 243.092   3
   7   5  -2 254.133 184.914   3
   7   5  -1 985.644 303.613   3
   7   5   0 1810.57 393.200   3
   7   5   0 1956.75 344.873   1
   7   5   1 95.9374 142.997   3
   7   5   1 111.345 145.040   1
   7   5   2 214.892 198.049   3
   7   5   2 115.170 109.925   1
   7   5   3 1045.75 291.297   1
   7   5   4 7515.79 772.395   1
   7   5   5 128.211 194.402   1
   7   5   6 1689.33 399.823   1
   7   5   7 157.017 182.483   1
   7   5   8 1082.61 334.005   1
   7   6  -2 188.139 214.775   3
   7   6  -1 81.0554 241.440   3
   7   6   0 30.2156 149.535   3
   7   6   1 1202.19 340.688   3
   7   6   1 1083.94 280.087   1
   7   6   2 394.131 184.275   1
   7   6   3 1230.10 331.586   1
   7   6   4 2265.21 459.155   1
   7   6   5 559.099 246.927   1
   7   6   6 2030.61 455.578   1
   7   6   7 1781.59 442.385   1
   7   7   2 616.826 285.542   1
   7   7   3-88.1649 195.128   1
   7   7   4 86.5718 132.597   1
   7   7   5 1116.25 353.938   1
  -8   4   2 135.413 143.299   4
  -8   4   1 2170.31 437.428   4
  -8   4   0 416.162 238.337   4
  -8   4  -1 716.389 258.574   4
  -8   4  -2-31.5565 163.376   4
  -8   4  -3 2525.08 480.542   4
  -8   3   4-30.6147 153.968   4
  -8   3   3 208.731 156.789   4
  -8   3   2 452.624 202.169   4
  -8   3   1 1808.08 377.455   4
  -8   3   0 1200.85 311.542   4
  -8   3  -1 7647.71 770.608   4
  -8   3  -2 7160.48 753.875   4
  -8   3  -3 1096.06 308.472   4
  -8   3  -4 4462.96 608.008   4
  -8   3  -5-675.682 266.763   4
  -8   3  -6 21.9171 228.852   4
  -8   2   5 262.698 172.261   4
  -8   2   4 149.508 138.948   4
  -8   2   3 3253.81 513.743   4
  -8   2   2 723.181 262.330   4
  -8   2   1 146.465 120.083   4
  -8   2   0 1572.46 342.872   4
  -8   2  -1-82.6064 130.669   4
  -8   2  -2 5563.03 641.226   4
  -8   2  -3-80.3375 129.790   4
  -8   2  -4 96.1231 160.172   4
  -8   2  -5 1301.34 331.931   4
  -8   2  -6-87.6286 197.698   4
  -8   2  -7-466.578 224.601   4
  -8   2  -8 750.533 336.026   4
  -8   1   5 807.348 276.033   4
  -8   1   4 561.263 263.414   4
  -8   1   3 2380.35 441.983   4
  -8   1   2 32.4159 115.225   4
  -8   1   1 550.877 219.255   4
  -8   1   0 5439.47 615.394   4
  -8   1  -1 1766.57 352.945   4
  -8   1  -2 2030.33 371.556   4
  -8   1  -3 5845.05 643.536   4
  -8   1  -4 1683.17 361.569   4
  -8   1  -5 161.424 144.195   4
  -8   1  -6 615.531 235.914   4
  -8   1  -7-41.7026 163.772   4
  -8   1  -8 1234.65 319.510   4
  -8   1  -9 520.097 246.099   4
   8   0  -6 1797.28 439.861   5
  -8   0   4 4655.51 630.155   4
  -8   0   3-37.1990 117.921   4
  -8   0   2 5308.08 620.572   4
  -8   0   1 1133.39 284.372   4
  -8   0   0 7559.89 706.384   4
  -8   0  -1-2.80162 98.1252   4
   8   0   1 60.9671 98.2178   3
  -8   0  -2 2773.31 422.053   4
  -8   0  -3 359.967 180.326   4
  -8   0  -4 4534.19 551.404   4
  -8   0  -5 152.424 137.975   4
  -8   0  -6 3507.42 491.863   4
  -8   0  -7 3.86547 148.594   4
  -8   0  -8 2172.93 400.013   4
  -8   0  -9-3.76666 161.618   4
   8   1  -6 1677.21 391.079   5
   8   1  -5 189.126 160.421   5
  -8  -1   3 212.164 127.590   4
   8   1  -3 257.078 146.339   3
  -8  -1   2 2616.91 437.032   4
   8   1  -2 2242.10 396.463   3
   8   1  -1 921.774 240.686   1
  -8  -1   1 694.608 240.311   4
   8   1  -1 954.104 250.078   3
  -8  -1   0 3539.79 476.073   4
   8   1   0 3006.55 440.026   1
   8   1   0 3318.20 431.722   3
  -8  -1  -1 1367.65 306.210   4
   8   1   1 1480.79 283.868   3
  -8  -1  -2 9092.27 731.362   4
  -8  -1  -3-111.637 139.002   4
  -8  -1  -4 1959.29 340.863   4
  -8  -1  -5 1344.68 298.807   4
  -8  -1  -6 2683.55 416.532   4
  -8  -1  -7 14.2932 116.396   4
   8   1   7 658.771 265.210   1
   8   1   8 9471.05 964.149   1
   8   2  -6 269.856 229.448   5
   8   2  -5-12.3535 180.465   5
   8   2  -5-347.388 213.649   3
   8   2  -4 825.511 279.850   5
   8   2  -4 1646.15 388.366   3
   8   2  -3 321.625 206.058   5
   8   2  -3 579.658 263.756   3
   8   2  -2 1053.25 286.937   3
  -8  -2   1 149.916 113.990   4
   8   2  -1 105.953 132.621   3
   8   2   0 2180.24 358.637   3
   8   2   0 2370.38 382.818   1
  -8  -2   0 1935.60 364.746   4
   8   2   1 781.627 216.051   3
   8   2   1 1317.44 317.277   1
   8   2   2 2456.98 423.788   1
  -8  -2  -2 2729.13 399.530   4
   8   2   3 1501.08 348.181   1
  -8  -2  -3 1565.72 300.036   4
  -8  -2  -4 4316.51 471.996   4
   8   2   4 3796.29 558.548   1
   8   2   5 336.796 252.383   1
   8   2   6 7503.75 809.784   1
   8   2   7 1177.09 363.643   1
   8   2   8 1292.35 380.912   1
   8   3  -6-720.817 281.072   5
   8   3  -5 128.540 191.439   5
   8   3  -4 812.496 302.362   3
   8   3  -4 1089.04 316.702   5
   8   3  -3 822.088 286.605   3
   8   3  -3 777.683 271.224   5
   8   3  -2 2374.74 437.565   3
   8   3  -2 2260.49 397.344   5
   8   3  -1 3039.23 463.749   3
   8   3   0 3581.80 497.482   3
   8   3   0 2721.35 411.889   1
   8   3   1-36.9528 122.251   3
   8   3   1 38.1580 116.887   1
   8   3   2 1647.16 320.481   3
   8   3   2 971.593 274.338   1
   8   3   3 952.484 294.819   1
   8   3   4 602.331 254.105   1
   8   3   5 1170.96 330.603   1
   8   3   6 3224.86 530.546   1
   8   3   7 1322.94 353.049   1
   8   4  -3 2293.73 448.012   3
   8   4  -2 632.483 262.578   3
   8   4  -1 1619.13 365.014   3
   8   4   0 102.072 129.036   3
   8   4   1 2031.38 420.795   3
   8   4   1 1430.88 330.837   1
   8   4   2 1748.37 364.054   3
   8   4   2 721.952 245.417   1
   8   4   3-37.2131 130.679   1
   8   4   4 9569.82 884.850   1
   8   4   5 2406.36 472.213   1
   8   4   6 796.927 295.684   1
   8   4   7 1655.16 415.448   1
   8   5  -2-141.589 216.351   3
   8   5  -1 64.9784 182.688   3
   8   5   0 251.790 184.516   3
   8   5   1 170.559 175.148   3
   8   5   2 432.519 240.372   3
   8   5   2 646.162 248.495   1
   8   5   3 4301.43 599.462   1
   8   5   4 245.883 195.222   1
   8   5   5 3753.08 590.048   1
   8   5   6 39.7868 171.753   1
   8   6   0-703.513 294.282   3
   8   6   1 487.676 258.312   3
   8   6   3 167.824 199.678   1
   8   6   4 340.051 228.089   1
  -9   2   0 982.423 302.526   4
  -9   2  -1-132.871 146.244   4
  -9   2  -2-432.693 213.545   4
  -9   2  -3 1819.22 411.064   4
  -9   2  -4 2927.59 510.430   4
  -9   1   2-17.0775 144.194   4
  -9   1   1 113.748 140.226   4
  -9   1   0 1123.65 325.068   4
  -9   1  -1-153.854 188.257   4
  -9   1  -2 2207.13 428.908   4
  -9   1  -3 1388.16 341.049   4
  -9   1  -4 225.874 201.529   4
  -9   1  -5 3450.89 546.984   4
  -9   1  -6 729.742 261.393   4
  -9   0   3 119.011 204.096   4
  -9   0   2 897.541 265.307   4
  -9   0   1-472.535 221.983   4
  -9   0   0 55.8688 117.925   4
  -9   0  -1 885.394 275.110   4
  -9   0  -2 194.874 150.378   4
  -9   0  -3 801.770 239.759   4
  -9   0  -4 133.589 129.621   4
  -9   0  -5 1524.25 357.933   4
  -9   0  -6 820.066 260.838   4
  -9  -1   3 445.063 216.553   4
   9   1  -3-405.002 215.723   3
  -9  -1   2 1537.65 364.243   4
   9   1  -2 1978.46 385.820   3
  -9  -1   1-86.5111 142.888   4
   9   1  -1 292.674 154.124   3
  -9  -1   0 1596.89 373.429   4
   9   1   1 336.836 197.642   1
  -9  -1  -1 320.368 153.195   4
  -9  -1  -2 1059.20 276.932   4
   9   1   2 914.766 300.967   1
   9   1   3 2212.83 442.904   1
  -9  -1  -3 1977.83 385.031   4
  -9  -1  -4 1430.45 323.986   4
   9   1   4 1381.12 365.618   1
   9   1   5 293.266 175.919   1
   9   2  -3 245.762 208.913   5
   9   2  -3 312.961 248.965   3
   9   2  -2 181.936 160.942   3
   9   2  -1-143.889 148.699   3
  -9  -2   1-11.6582 143.782   4
  -9  -2   0 121.772 128.262   4
   9   2   2 312.946 224.620   1
   9   2   3 1450.68 357.194   1
   9   2   4 2169.23 463.750   1
   9   2   5 3419.59 575.124   1
   9   3  -2 379.831 150.958   3
   9   3  -1-29.9359 211.158   3
   9   3   2 777.743 255.657   1
   9   3   3 1773.39 388.248   1
   9   3   4 1400.10 382.579   1
   9   4  -1 628.088 294.141   3
   9   4   3 1459.53 363.665   1
   9   4   4-685.312 279.348   1
   0   0   0    0.00    0.00   0
TITL 160926_s3_mmj in P-1
REM P-1 (#2 in standard setting)
CELL 0.71073   7.216221   8.006790  11.649541  80.1235  84.5695  88.0844
ZERR    2.00   0.001497   0.001381   0.002733   0.0171   0.0181   0.0154
LATT  1
SFAC C H N O Cl
UNIT 24.00 24.00 4.00 6.00 2.00
TREF
HKLF 4
END
;
_shelx_hkl_checksum              28205
_shelx_res_file
;
    160926_s3_mmj.res created by SHELXL-2014/7
TITL 160926_s3_mmj in P-1 #2
REM reset to P-1 #2
CELL 0.71073 7.21622 8.00679 11.64954 80.1235 84.5695 88.0844
ZERR 2 0.0015 0.00138 0.00273 0.0171 0.0181 0.0154
LATT 1
SFAC C H Cl N O
UNIT 30 24 2 2 4
L.S. 4
PLAN  20
SIZE 0.3 0.35 0.4
TEMP 20
BOND $H
htab
conf
fmap 2
acta
SHEL 999 0.8
REM <olex2.extras>
REM <HklSrc "%.\\160926_s3_mmj.hkl">
REM </olex2.extras>
WGHT    0.045200    0.218400
FVAR      10.75039
CL1   3    1.117429    0.531838    0.263271    11.00000    0.04049    0.09844 =
         0.09816   -0.03477   -0.02048    0.00524
O1    5    0.520719    0.633556    0.326565    11.00000    0.04408    0.03363 =
         0.04223   -0.00536    0.00560    0.00245
O2    5    0.311478    1.011325    0.109015    11.00000    0.06761    0.06805 =
         0.04076   -0.00476   -0.01103    0.02472
N1    4    0.596197    0.889735    0.135953    11.00000    0.05676    0.03669 =
         0.03041   -0.00197   -0.00245    0.00360
H1    2    0.667615    0.904776    0.042820    11.00000    0.04482
C1    1    0.428848    0.940381    0.175199    11.00000    0.05732    0.03600 =
         0.03408   -0.00545   -0.00803    0.00758
C2    1    0.380766    0.913291    0.303916    11.00000    0.04257    0.03972 =
         0.03516   -0.00742   -0.00575    0.00496
C3    1    0.278488    1.035576    0.355468    11.00000    0.05365    0.04375 =
         0.05083   -0.00909   -0.01105    0.01228
AFIX  43
H3    2    0.241609    1.135264    0.309091    11.00000   -1.20000
AFIX   0
C4    1    0.231155    1.010752    0.474469    11.00000    0.04858    0.05329 =
         0.05301   -0.02101   -0.00010    0.00929
AFIX  43
H4    2    0.164580    1.094178    0.508260    11.00000   -1.20000
AFIX   0
C5    1    0.282324    0.863105    0.542783    11.00000    0.05401    0.05786 =
         0.04046   -0.01328    0.00797   -0.00328
AFIX  43
H5    2    0.248797    0.846037    0.622943    11.00000   -1.20000
AFIX   0
C6    1    0.383023    0.739431    0.494037    11.00000    0.04931    0.04406 =
         0.03892   -0.00322    0.00176    0.00085
AFIX  43
H6    2    0.417112    0.639249    0.540991    11.00000   -1.20000
AFIX   0
C7    1    0.432994    0.765081    0.375155    11.00000    0.03592    0.03412 =
         0.03612   -0.00728   -0.00176    0.00243
C8    1    0.713034    0.655959    0.282065    11.00000    0.03947    0.03659 =
         0.03248   -0.00535   -0.00585    0.00332
AFIX  13
H8    2    0.790149    0.638932    0.348120    11.00000   -1.20000
AFIX   0
C9    1    0.742898    0.834805    0.213539    11.00000    0.04563    0.03667 =
         0.03919   -0.00740   -0.00092   -0.00143
AFIX  23
H9A   2    0.746704    0.913239    0.268120    11.00000   -1.20000
H9B   2    0.862183    0.838253    0.167271    11.00000   -1.20000
AFIX   0
C10   1    0.761383    0.519356    0.209017    11.00000    0.03734    0.03147 =
         0.03145    0.00011   -0.00151    0.00241
C11   1    0.941723    0.456337    0.194500    11.00000    0.03977    0.04293 =
         0.04323   -0.00338   -0.00293    0.00299
C12   1    0.989132    0.333763    0.125957    11.00000    0.05100    0.04607 =
         0.05503   -0.00533    0.00759    0.01525
AFIX  43
H12   2    1.111239    0.293488    0.117938    11.00000   -1.20000
AFIX   0
C13   1    0.854241    0.272333    0.070007    11.00000    0.07651    0.03743 =
         0.05128   -0.01297    0.00690    0.00478
AFIX  43
H13   2    0.884473    0.189961    0.023623    11.00000   -1.20000
AFIX   0
C14   1    0.673932    0.332662    0.082521    11.00000    0.06551    0.04950 =
         0.05487   -0.01881   -0.00886   -0.00786
AFIX  43
H14   2    0.582581    0.291019    0.044320    11.00000   -1.20000
AFIX   0
C15   1    0.627894    0.454546    0.151397    11.00000    0.04135    0.04336 =
         0.05056   -0.01178   -0.00728    0.00311
AFIX  43
H15   2    0.505403    0.493872    0.159313    11.00000   -1.20000
AFIX   0
HKLF 4
REM  160926_s3_mmj in P-1 #2
REM R1 =  0.0461 for    2002 Fo > 4sig(Fo)  and  0.0653 for all    2678 data
REM    176 parameters refined using      0 restraints
END
WGHT      0.0452      0.2185
REM Instructions for potential hydrogen bonds
EQIV $1 -x+1, -y+2, -z
HTAB N1 O2_$1
EQIV $2 -x+1, -y+1, -z+1
HTAB C6 O1_$2
EQIV $3 x+1, y-1, z
HTAB C12 O2_$3
REM Highest difference peak  0.289,  deepest hole -0.324,  1-sigma level  0.042
Q1    1   0.7383  0.9024  0.0058  11.00000  0.05    0.29
Q2    1   1.0751  0.6351  0.2982  11.00000  0.05    0.21
Q3    1   0.5768  0.9018  0.0603  11.00000  0.05    0.21
Q4    1   1.0409  0.4733  0.3236  11.00000  0.05    0.19
Q5    1   0.4419  0.9348  0.2518  11.00000  0.05    0.19
Q6    1   0.6171  0.6607  0.3334  11.00000  0.05    0.16
Q7    1   0.7252  0.5883  0.2397  11.00000  0.05    0.16
Q8    1   0.8618  0.5170  0.1714  11.00000  0.05    0.15
Q9    1   0.8480  0.4339  0.2410  11.00000  0.05    0.15
Q10   1   0.6905  0.4691  0.2129  11.00000  0.05    0.15
Q11   1   0.1820  1.0649  0.3292  11.00000  0.05    0.14
Q12   1   0.0833  1.1228  0.4847  11.00000  0.05    0.14
Q13   1   0.3533  0.8451  0.3266  11.00000  0.05    0.13
Q14   1   0.5398  0.9588  0.1513  11.00000  0.05    0.12
Q15   1   0.7053  0.5178  0.1536  11.00000  0.05    0.11
Q16   1   0.3340  0.7196  0.4307  11.00000  0.05    0.11
Q17   1   0.9974  0.2857  0.2393  11.00000  0.05    0.11
Q18   1   0.3742  0.9664  0.3156  11.00000  0.05    0.11
Q19   1   0.9588  0.4574  0.1279  11.00000  0.05    0.11
Q20   1   0.6203  0.7058  0.6067  11.00000  0.05    0.11
;
_shelx_res_checksum              78750
loop_
_space_group_symop_operation_xyz
'x, y, z'
'-x, -y, -z'
loop_
_atom_site_type_symbol
_atom_site_label
_atom_site_fract_x
_atom_site_fract_y
_atom_site_fract_z
_atom_site_U_iso_or_equiv
_atom_site_adp_type
_atom_site_calc_flag
_atom_site_occupancy
Cl Cl1 1.11743(9) 0.53184(10) 0.26327(7) 0.0761(3) Uani d 1
O O1 0.52072(19) 0.63356(16) 0.32657(12) 0.0408(4) Uani d 1
O O2 0.3115(2) 1.0113(2) 0.10901(13) 0.0595(5) Uani d 1
N N1 0.5962(3) 0.8897(2) 0.13595(14) 0.0419(4) Uani d 1
H H1 0.668(3) 0.905(2) 0.0428(18) 0.045(6) Uiso d 1
C C1 0.4288(3) 0.9404(3) 0.17520(17) 0.0425(5) Uani d 1
C C2 0.3808(3) 0.9133(3) 0.30392(17) 0.0390(5) Uani d 1
C C3 0.2785(3) 1.0356(3) 0.3555(2) 0.0492(5) Uani d 1
H H3 0.2416 1.1353 0.3091 0.059 Uiso calc 1
C C4 0.2312(3) 1.0108(3) 0.4745(2) 0.0507(6) Uani d 1
H H4 0.1646 1.0942 0.5083 0.061 Uiso calc 1
C C5 0.2823(3) 0.8631(3) 0.54278(19) 0.0509(6) Uani d 1
H H5 0.2488 0.8460 0.6229 0.061 Uiso calc 1
C C6 0.3830(3) 0.7394(3) 0.49404(18) 0.0450(5) Uani d 1
H H6 0.4171 0.6392 0.5410 0.054 Uiso calc 1
C C7 0.4330(3) 0.7651(2) 0.37516(17) 0.0354(4) Uani d 1
C C8 0.7130(3) 0.6560(2) 0.28206(16) 0.0362(4) Uani d 1
H H8 0.7901 0.6389 0.3481 0.043 Uiso calc 1
C C9 0.7429(3) 0.8348(2) 0.21354(17) 0.0406(5) Uani d 1
H H9A 0.7467 0.9132 0.2681 0.049 Uiso calc 1
H H9B 0.8622 0.8383 0.1673 0.049 Uiso calc 1
C C10 0.7614(3) 0.5194(2) 0.20902(16) 0.0342(4) Uani d 1
C C11 0.9417(3) 0.4563(3) 0.19450(18) 0.0426(5) Uani d 1
C C12 0.9891(3) 0.3338(3) 0.1260(2) 0.0522(6) Uani d 1
H H12 1.1112 0.2935 0.1179 0.063 Uiso calc 1
C C13 0.8542(4) 0.2723(3) 0.0700(2) 0.0554(6) Uani d 1
H H13 0.8845 0.1900 0.0236 0.066 Uiso calc 1
C C14 0.6739(4) 0.3327(3) 0.0825(2) 0.0551(6) Uani d 1
H H14 0.5826 0.2910 0.0443 0.066 Uiso calc 1
C C15 0.6279(3) 0.4545(3) 0.15140(19) 0.0445(5) Uani d 1
H H15 0.5054 0.4939 0.1593 0.053 Uiso calc 1
loop_
_atom_site_aniso_label
_atom_site_aniso_U_11
_atom_site_aniso_U_22
_atom_site_aniso_U_33
_atom_site_aniso_U_12
_atom_site_aniso_U_13
_atom_site_aniso_U_23
Cl1 0.0405(4) 0.0984(6) 0.0982(6) 0.0052(3) -0.0205(3) -0.0348(4)
O1 0.0441(8) 0.0336(7) 0.0422(8) 0.0024(6) 0.0056(6) -0.0054(6)
O2 0.0676(11) 0.0680(11) 0.0408(9) 0.0247(9) -0.0110(8) -0.0048(8)
N1 0.0568(11) 0.0367(9) 0.0304(9) 0.0036(8) -0.0024(8) -0.0020(7)
C1 0.0573(14) 0.0360(11) 0.0341(10) 0.0076(10) -0.0080(10) -0.0054(9)
C2 0.0426(11) 0.0397(11) 0.0352(10) 0.0050(9) -0.0057(9) -0.0074(8)
C3 0.0537(14) 0.0438(12) 0.0508(13) 0.0123(10) -0.0111(11) -0.0091(10)
C4 0.0486(13) 0.0533(14) 0.0530(13) 0.0093(11) -0.0001(11) -0.0210(11)
C5 0.0540(14) 0.0579(14) 0.0405(12) -0.0033(11) 0.0080(11) -0.0133(11)
C6 0.0493(13) 0.0441(12) 0.0389(11) 0.0008(10) 0.0018(10) -0.0032(9)
C7 0.0359(10) 0.0341(10) 0.0361(10) 0.0024(8) -0.0018(8) -0.0073(8)
C8 0.0395(11) 0.0366(11) 0.0325(10) 0.0033(8) -0.0059(8) -0.0053(8)
C9 0.0456(12) 0.0367(11) 0.0392(11) -0.0014(9) -0.0009(9) -0.0074(9)
C10 0.0373(10) 0.0315(10) 0.0314(9) 0.0024(8) -0.0015(8) 0.0001(8)
C11 0.0398(11) 0.0429(12) 0.0432(11) 0.0030(9) -0.0029(9) -0.0034(9)
C12 0.0510(14) 0.0461(13) 0.0550(14) 0.0153(11) 0.0076(11) -0.0053(11)
C13 0.0765(18) 0.0374(12) 0.0513(13) 0.0048(12) 0.0069(13) -0.0130(10)
C14 0.0655(16) 0.0495(14) 0.0549(14) -0.0079(12) -0.0089(12) -0.0188(11)
C15 0.0414(12) 0.0434(12) 0.0506(12) 0.0031(9) -0.0073(10) -0.0118(10)
loop_
_atom_type_symbol
_atom_type_description
_atom_type_scat_dispersion_real
_atom_type_scat_dispersion_imag
_atom_type_scat_source
C C 0.0033 0.0016 'International Tables Vol C Tables 4.2.6.8 and 6.1.1.4'
H H 0.0000 0.0000 'International Tables Vol C Tables 4.2.6.8 and 6.1.1.4'
Cl Cl 0.1484 0.1585 'International Tables Vol C Tables 4.2.6.8 and 6.1.1.4'
N N 0.0061 0.0033 'International Tables Vol C Tables 4.2.6.8 and 6.1.1.4'
O O 0.0106 0.0060 'International Tables Vol C Tables 4.2.6.8 and 6.1.1.4'
loop_
_geom_angle_atom_site_label_1
_geom_angle_atom_site_label_2
_geom_angle_atom_site_label_3
_geom_angle
C7 O1 C8 117.07(14)
C1 N1 H1 130.6(11)
C1 N1 C9 122.40(17)
C9 N1 H1 105.8(11)
O2 C1 N1 123.09(19)
O2 C1 C2 119.0(2)
N1 C1 C2 117.87(19)
C3 C2 C1 120.30(19)
C7 C2 C1 121.27(18)
C7 C2 C3 118.42(19)
C2 C3 H3 119.6
C4 C3 C2 120.8(2)
C4 C3 H3 119.6
C3 C4 H4 120.1
C5 C4 C3 119.8(2)
C5 C4 H4 120.1
C4 C5 H5 119.7
C4 C5 C6 120.7(2)
C6 C5 H5 119.7
C5 C6 H6 120.2
C5 C6 C7 119.6(2)
C7 C6 H6 120.2
O1 C7 C2 120.41(17)
C6 C7 O1 118.60(18)
C6 C7 C2 120.71(19)
O1 C8 H8 108.8
O1 C8 C9 110.50(16)
O1 C8 C10 106.64(15)
C9 C8 H8 108.8
C10 C8 H8 108.8
C10 C8 C9 113.14(15)
N1 C9 C8 112.49(16)
N1 C9 H9A 109.1
N1 C9 H9B 109.1
C8 C9 H9A 109.1
C8 C9 H9B 109.1
H9A C9 H9B 107.8
C11 C10 C8 121.44(18)
C11 C10 C15 117.21(18)
C15 C10 C8 121.34(18)
C10 C11 Cl1 120.02(16)
C12 C11 Cl1 117.79(18)
C12 C11 C10 122.2(2)
C11 C12 H12 120.4
C13 C12 C11 119.3(2)
C13 C12 H12 120.4
C12 C13 H13 120.0
C12 C13 C14 119.9(2)
C14 C13 H13 120.0
C13 C14 H14 119.8
C13 C14 C15 120.4(2)
C15 C14 H14 119.8
C10 C15 H15 119.5
C14 C15 C10 121.0(2)
C14 C15 H15 119.5
loop_
_geom_bond_atom_site_label_1
_geom_bond_atom_site_label_2
_geom_bond_distance
Cl1 C11 1.739(2)
O1 C7 1.386(2)
O1 C8 1.441(2)
O2 C1 1.255(3)
N1 H1 1.14(2)
N1 C1 1.326(3)
N1 C9 1.464(3)
C1 C2 1.487(3)
C2 C3 1.391(3)
C2 C7 1.389(3)
C3 H3 0.9300
C3 C4 1.378(3)
C4 H4 0.9300
C4 C5 1.368(3)
C5 H5 0.9300
C5 C6 1.378(3)
C6 H6 0.9300
C6 C7 1.380(3)
C8 H8 0.9800
C8 C9 1.527(3)
C8 C10 1.510(3)
C9 H9A 0.9700
C9 H9B 0.9700
C10 C11 1.386(3)
C10 C15 1.387(3)
C11 C12 1.383(3)
C12 H12 0.9300
C12 C13 1.370(3)
C13 H13 0.9300
C13 C14 1.376(3)
C14 H14 0.9300
C14 C15 1.380(3)
C15 H15 0.9300
loop_
_geom_hbond_atom_site_label_D
_geom_hbond_atom_site_label_H
_geom_hbond_atom_site_label_A
_geom_hbond_site_symmetry_A
_geom_hbond_distance_DH
_geom_hbond_distance_HA
_geom_hbond_distance_DA
_geom_hbond_angle_DHA
N1 H1 O2 2_675 1.15(2) 1.78(2) 2.849(2) 153.9(16)
loop_
_geom_torsion_atom_site_label_1
_geom_torsion_atom_site_label_2
_geom_torsion_atom_site_label_3
_geom_torsion_atom_site_label_4
_geom_torsion
Cl1 C11 C12 C13 -179.61(17)
O1 C8 C9 N1 -43.5(2)
O1 C8 C10 C11 -152.15(17)
O1 C8 C10 C15 29.4(2)
O2 C1 C2 C3 -38.0(3)
O2 C1 C2 C7 140.7(2)
N1 C1 C2 C3 141.2(2)
N1 C1 C2 C7 -40.1(3)
C1 N1 C9 C8 76.9(2)
C1 C2 C3 C4 179.2(2)
C1 C2 C7 O1 -4.4(3)
C1 C2 C7 C6 -178.2(2)
C2 C3 C4 C5 -1.1(4)
C3 C2 C7 O1 174.33(18)
C3 C2 C7 C6 0.6(3)
C3 C4 C5 C6 0.8(4)
C4 C5 C6 C7 0.1(3)
C5 C6 C7 O1 -174.72(19)
C5 C6 C7 C2 -0.8(3)
C7 O1 C8 C9 -43.1(2)
C7 O1 C8 C10 -166.47(15)
C7 C2 C3 C4 0.4(3)
C8 O1 C7 C2 74.4(2)
C8 O1 C7 C6 -111.7(2)
C8 C10 C11 Cl1 1.2(3)
C8 C10 C11 C12 -178.64(19)
C8 C10 C15 C14 178.42(19)
C9 N1 C1 O2 168.99(19)
C9 N1 C1 C2 -10.1(3)
C9 C8 C10 C11 86.2(2)
C9 C8 C10 C15 -92.3(2)
C10 C8 C9 N1 76.0(2)
C10 C11 C12 C13 0.2(3)
C11 C10 C15 C14 -0.1(3)
C11 C12 C13 C14 -0.1(3)
C12 C13 C14 C15 -0.2(4)
C13 C14 C15 C10 0.2(3)
C15 C10 C11 Cl1 179.69(15)
C15 C10 C11 C12 -0.1(3)

_cod_database_fobs_code 1549345
