#------------------------------------------------------------------------------
#$Date: 2018-09-01 05:27:56 +0300 (Sat, 01 Sep 2018) $
#$Revision: 210295 $
#$URL: file:///home/coder/svn-repositories/cod/cif/1/54/98/1549872.cif $
#------------------------------------------------------------------------------
#
# This file is available in the Crystallography Open Database (COD),
# http://www.crystallography.net/. The original data for this entry
# were provided by IUCr Journals, http://journals.iucr.org/.
#
# The file may be used within the scientific community so long as
# proper attribution is given to the journal article from which the
# data were obtained.
#
data_1549872
loop_
_publ_author_name
'Dziuk, B\/la\.zej'
'Jezuita, Anna'
_publ_section_title
;
 2,2'-Bipyridin-1-ium hemioxalate oxalic acid monohydrate
;
_journal_coeditor_code           BT4073
_journal_issue                   8
_journal_name_full               IUCrData
_journal_page_first              x181219
_journal_paper_doi               10.1107/S2414314618012191
_journal_volume                  3
_journal_year                    2018
_chemical_formula_iupac          'C10 H9 N2 +, 0.5C2 O4 2-, C2 H2 O4, H2 O'
_chemical_formula_moiety         'C10 H9 N2 +, 0.5(C2 O4 2-), C2 H2 O4, H2 O'
_chemical_formula_sum            'C13 H13 N2 O7'
_chemical_formula_weight         309.25
_chemical_name_common            '2,2'-Bipyridinium oxalate monohydrate'
_chemical_name_systematic
;
2,2'-Bipyridin-1-ium hemioxalate oxalic acid monohydrate
;
_space_group_crystal_system      triclinic
_space_group_IT_number           2
_space_group_name_Hall           '-P 1'
_space_group_name_H-M_alt        'P -1'
_symmetry_space_group_name_Hall  '-P 1'
_symmetry_space_group_name_H-M   'P -1'
_atom_sites_solution_hydrogens   difmap
_audit_creation_method           SHELXL-2014/7
_cell_angle_alpha                85.545(5)
_cell_angle_beta                 86.177(5)
_cell_angle_gamma                75.248(5)
_cell_formula_units_Z            2
_cell_length_a                   7.2618(4)
_cell_length_b                   8.9419(6)
_cell_length_c                   11.0001(7)
_cell_measurement_reflns_used    4712
_cell_measurement_temperature    293(2)
_cell_measurement_theta_max      25.996
_cell_measurement_theta_min      3.096
_cell_volume                     687.84(8)
_computing_cell_refinement
;
CrysAlisCCD (Oxford Diffraction, 2008)
;
_computing_data_collection
;
CrysAlisCCD (Oxford Diffraction, 2008)
;
_computing_data_reduction
;
CrysAlisCCD (Oxford Diffraction, 2008)
;
_computing_molecular_graphics
;
SHELXTL (Sheldrick, 2008)
;
_computing_publication_material
;
SHELXL2014 (Sheldrick, 2015b)
;
_computing_structure_refinement
;
SHELXL2014 (Sheldrick, 2015b)
;
_computing_structure_solution
;
SHELXS2014 (Sheldrick, 2015a)
;
_diffrn_ambient_temperature      293(2)
_diffrn_detector_area_resol_mean '1024 x 1024 with blocks 2 x 2'
_diffrn_measured_fraction_theta_full 0.990
_diffrn_measured_fraction_theta_max 0.986
_diffrn_measurement_device_type  'Oxford Diffraction Xcalibur'
_diffrn_measurement_method       \w-scan
_diffrn_radiation_type           MoK\a
_diffrn_radiation_wavelength     0.71073
_diffrn_reflns_av_R_equivalents  0.0155
_diffrn_reflns_limit_h_max       8
_diffrn_reflns_limit_h_min       -8
_diffrn_reflns_limit_k_max       11
_diffrn_reflns_limit_k_min       -9
_diffrn_reflns_limit_l_max       13
_diffrn_reflns_limit_l_min       -13
_diffrn_reflns_number            4712
_diffrn_reflns_theta_full        25.242
_diffrn_reflns_theta_max         25.996
_diffrn_reflns_theta_min         3.096
_diffrn_standards_decay_%        0
_diffrn_standards_interval_count 0
_diffrn_standards_interval_time  0
_diffrn_standards_number         0
_exptl_absorpt_coefficient_mu    0.123
_exptl_absorpt_correction_type   none
_exptl_crystal_colour            pink
_exptl_crystal_density_diffrn    1.493
_exptl_crystal_density_method    'not measured'
_exptl_crystal_description       plate
_exptl_crystal_F_000             322
_exptl_crystal_size_max          0.4
_exptl_crystal_size_mid          0.35
_exptl_crystal_size_min          0.3
_refine_diff_density_max         0.160
_refine_diff_density_min         -0.155
_refine_ls_extinction_coef       0.138(7)
_refine_ls_extinction_expression Fc^*^=kFc[1+0.001xFc^2^\l^3^/sin(2\q)]^-1/4^
_refine_ls_extinction_method
;
SHELXL2014 (Sheldrick, 2015b)
;
_refine_ls_goodness_of_fit_ref   1.040
_refine_ls_hydrogen_treatment    constr
_refine_ls_matrix_type           full
_refine_ls_number_parameters     200
_refine_ls_number_reflns         2648
_refine_ls_number_restraints     0
_refine_ls_restrained_S_all      1.040
_refine_ls_R_factor_all          0.0434
_refine_ls_R_factor_gt           0.0322
_refine_ls_shift/su_max          0.000
_refine_ls_shift/su_mean         0.000
_refine_ls_structure_factor_coef Fsqd
_refine_ls_weighting_details
'w=1/[\s^2^(Fo^2^)+(0.0510P)^2^] where P=(Fo^2^+2Fc^2^)/3'
_refine_ls_weighting_scheme      calc
_refine_ls_wR_factor_gt          0.0857
_refine_ls_wR_factor_ref         0.0889
_reflns_number_gt                2054
_reflns_number_total             2648
_reflns_threshold_expression     'I > 2\s(I)'
_cod_data_source_file            bt4073sup1.cif
_cod_data_source_block           I
_cod_database_code               1549872
_shelx_space_group_comment
;
The symmetry employed for this shelxl refinement is uniquely defined
by the following loop, which should always be used as a source of
symmetry information in preference to the above space-group names.
They are only intended as comments.
;
_shelx_hkl_file
;
   0   0  -2 235.327 16.9930   1
   0   0  -2 272.185 21.6123   2
   0   0  -3 13644.0 127.685   2
   0   0  -3 13155.7 130.005   1
   0   0  -4 2146.99 61.6282   2
   0   0  -4 2259.94 64.8318   1
   0   0  -5 26866.1 231.350   2
   0   0  -5 26339.0 238.042   1
   0   0  -6 10207.3 165.917   1
   0   0  -6 10132.1 160.172   2
   0   0  -7 2377.41 93.1061   1
   0   0  -7 2318.50 89.0391   2
   0   0  -8 4024.57 125.134   2
   0   0  -8 4137.17 128.384   1
   0   0  -9 1172.64 84.0520   1
   0   0  -9 1034.71 83.8078   2
   0   0 -10 18970.9 293.268   2
   0   0 -10 19199.2 307.974   1
   0   0 -11 9.53678 62.2869   2
   0   0 -11-16.2955 54.6054   1
   0   0 -12 0.75936 58.7439   1
   0   0 -12 26.7576 62.1085   2
   0   0 -13-116.739 65.8015   2
   0   0 -13 20.6052 65.9754   1
   0   0 -14-37.5263 67.2184   2
   0   0 -14-6.37939 67.0650   1
   0   1 -14 359.570 75.9917   1
   0   1 -13 6.08563 57.9846   1
   0   1 -13 22.3318 59.9678   2
   0   1 -12 11.7474 56.9359   1
   0   1 -12-38.0709 66.0737   2
   0   1 -11 12.8476 55.1475   2
   0   1 -11-19.0539 57.6530   1
   0   1 -10 5350.88 160.788   2
   0   1 -10 5194.13 173.686   1
   0   1  -9 813.722 77.4546   1
   0   1  -9 798.026 76.3496   2
   0   1  -8 4707.58 144.704   1
   0   1  -8 4491.18 130.422   2
   0   1  -7 4889.48 136.383   1
   0   1  -7 4836.47 124.934   2
   0   1  -6 91911.2 523.296   1
   0   1  -6 94122.3 479.456   2
   0   1  -5 7868.49 131.458   2
   0   1  -5 8243.84 144.548   1
   0   1  -4 21184.5 206.451   1
   0   1  -4 21231.2 188.425   2
   0   1  -3 17452.8 112.390   3
   0   1  -3 17253.3 164.913   1
   0   1  -3 17221.0 149.389   2
   0   1  -2 76941.8 264.748   2
   0   1  -2 75397.4 294.101   1
   0   1  -2 75425.4 232.753   3
   0   1  -2 76452.5 254.940   0
   0   1  -1 42237.2 169.149   2
   0   1  -1 40951.2 171.957   1
   0   1  -1 43661.2 166.131   3
   0  -1  -2 59422.9 188.412   1
   0   1   2 58600.9 193.864   3
   0   1   3 3943.81 52.1425   3
   0  -1  -3 3717.03 74.9470   2
   0  -1  -3 3624.68 62.7591   1
   0   1   4 48958.4 180.310   3
   0  -1  -4 48940.6 292.292   2
   0  -1  -4 49808.8 267.549   1
   0   1   5 11144.4 85.9631   3
   0  -1  -5 10441.5 142.094   1
   0  -1  -5 10969.9 155.621   2
   0   1   6 1806.08 34.7349   3
   0  -1  -6 1762.08 74.6684   2
   0  -1  -6 1589.73 66.3308   1
   0  -1  -7 2689.06 97.0040   2
   0  -1  -7 2660.16 91.2308   1
   0  -1  -8 1792.58 86.4223   1
   0  -1  -8 1745.31 87.3919   2
   0  -1  -9 6841.71 169.722   2
   0  -1  -9 6924.38 172.221   1
   0  -1 -10 6512.56 178.580   2
   0  -1 -10 6509.07 176.612   1
   0  -1 -11 162.769 62.4356   2
   0  -1 -11 162.657 50.8576   1
   0  -1 -12 1099.00 102.351   2
   0  -1 -12 1242.75 99.6494   1
   0  -1 -13 33.1225 56.6010   2
   0  -1 -13-5.53186 56.4994   1
   0  -1 -14 19.9340 62.5255   1
   0  -1 -14-44.1773 65.5996   2
   0  -1 -15 50.1547 67.1074   1
   0   2 -14 142.828 66.8705   1
   0   2 -13 55.5024 68.5522   1
   0   2 -13 74.6672 70.3938   2
   0   2 -12 654.726 82.7224   2
   0   2 -12 597.707 82.9105   1
   0   2 -11 274.315 64.3368   1
   0   2 -11 290.961 60.2233   2
   0   2 -10 2238.28 121.333   1
   0   2 -10 2220.41 108.968   2
   0   2  -9 201.079 58.1825   2
   0   2  -9 214.449 56.8405   1
   0   2  -8 948.160 74.0198   2
   0   2  -8 1015.69 82.7495   1
   0   2  -7 6488.30 145.750   2
   0   2  -7 6657.10 164.932   1
   0   2  -6 24431.7 256.866   2
   0   2  -6 26115.8 293.181   1
   0   2  -5 18182.1 227.287   1
   0   2  -5 17005.8 197.940   2
   0   2  -5 17873.6 159.295   3
   0   2  -4 3117.99 88.8224   1
   0   2  -4 3006.30 68.1456   3
   0   2  -4 2892.85 79.3659   2
   0   2  -3 4216.41 78.5342   3
   0   2  -3 3981.96 78.3034   0
   0   2  -3 4452.50 94.3411   1
   0   2  -3 4018.32 83.4928   2
   0   2  -2 2213.40 50.9920   0
   0   2  -2 2227.09 58.7410   2
   0   2  -2 2422.25 60.2900   1
   0   2  -2 2421.70 62.0704   3
   0   2  -1 2750.91 64.7891   3
   0   2  -1 2790.31 61.7270   2
   0   2  -1 2674.80 52.8991   1
   0   2  -1 2577.18 48.9139   0
   0   2   0 159205. 343.834   0
   0   2   0 157931. 466.060   3
   0   2   1 58742.8 282.524   3
   0   2   1 60549.4 228.537   0
   0   2   2 7451.53 94.3969   0
   0   2   2 8039.49 105.002   3
   0  -2  -2 7472.55 66.7422   1
   0   2   3 100424. 370.468   3
   0  -2  -3 104166. 289.856   1
   0  -2  -4 32442.6 206.679   1
   0   2   4 34086.6 216.263   3
   0  -2  -5 6109.33 103.471   1
   0   2   5 6492.82 94.2290   3
   0  -2  -5 6209.56 126.641   2
   0   2   6 568.107 32.3262   3
   0  -2  -6 422.263 53.1362   2
   0  -2  -6 434.949 38.8007   1
   0  -2  -7 8953.33 154.502   1
   0  -2  -7 8923.76 175.211   2
   0  -2  -8 1818.85 95.7077   2
   0  -2  -8 1694.50 80.2434   1
   0  -2  -9 120.442 63.6943   2
   0  -2  -9 160.225 47.6519   1
   0  -2 -10 13272.8 253.322   2
   0  -2 -10 14357.3 251.897   1
   0  -2 -11 1695.11 102.797   1
   0  -2 -11 1665.59 107.348   2
   0  -2 -12 318.263 60.4084   1
   0  -2 -12 191.180 71.1471   2
   0  -2 -13 215.714 68.4569   2
   0  -2 -13 217.845 66.6405   1
   0  -2 -14 19.5732 73.7975   2
   0   3 -13 416.243 84.5940   1
   0   3 -12 439.347 88.8007   1
   0   3 -12 452.851 79.5985   2
   0   3 -11 495.043 85.4503   1
   0   3 -11 395.900 76.8678   2
   0   3 -10 463.637 67.4377   2
   0   3 -10 489.676 71.3319   1
   0   3  -9 1514.49 101.798   1
   0   3  -9 1573.26 96.3914   2
   0   3  -8 5634.87 165.943   1
   0   3  -8 5604.54 155.690   2
   0   3  -7 293.621 56.4151   2
   0   3  -7 296.334 56.3008   1
   0   3  -6 14736.4 228.565   1
   0   3  -6 14979.5 177.677   3
   0   3  -6 14712.9 215.049   2
   0   3  -5 1743.95 64.9280   3
   0   3  -5 1746.92 76.6485   2
   0   3  -5 1810.19 81.5799   1
   0   3  -4 13487.3 169.018   3
   0   3  -4 13003.3 178.613   2
   0   3  -4 12825.6 162.555   0
   0   3  -4 13354.8 185.203   1
   0   3  -3 4056.71 85.3696   0
   0   3  -3 4247.37 96.4147   3
   0   3  -3 4154.75 98.0270   2
   0   3  -3 4321.98 98.5690   1
   0   3  -2 102546. 434.342   2
   0   3  -2 103321. 369.238   0
   0   3  -2 100979. 415.449   1
   0   3  -1 86.6963 19.1168   1
   0   3  -1 64.8922 25.7278   2
   0   3  -1 84.9218 32.7054   3
   0   3  -1 74.9954 20.2811   0
   0   3   0 69224.5 282.661   0
   0   3   0 69257.6 373.328   3
   0   3   1 98324.2 455.803   3
   0   3   1 100571. 350.351   0
   0  -3  -2 11924.1 86.6043   1
   0   3   2 11593.3 132.144   0
   0   3   2 12047.1 159.696   3
   0  -3  -3 12218.5 101.666   1
   0   3   3 12630.9 162.232   3
   0   3   3 12053.2 148.180   0
   0   3   4 79570.3 400.912   3
   0  -3  -4 78669.3 292.359   1
   0  -3  -5 81.8950 20.9771   1
   0   3   5 84.5848 28.1891   3
   0   3   6 2485.31 75.1932   3
   0  -3  -6 2122.03 67.8014   1
   0  -3  -7 938.021 75.3737   2
   0  -3  -7 1009.55 54.9049   1
   0  -3  -8 1268.17 69.1892   1
   0  -3  -8 1263.80 93.2738   2
   0  -3  -9 46.6048 41.8272   1
   0  -3  -9 66.8765 66.9289   2
   0  -3 -10 1926.33 112.699   2
   0  -3 -10 1927.57 94.1272   1
   0  -3 -11 2154.05 125.725   2
   0  -3 -12 544.997 90.0184   2
   0  -3 -13 194.043 84.3311   2
   0  -3 -14 181.945 88.9080   2
   0   4 -13 216.457 77.3814   1
   0   4 -12 281.093 73.5546   1
   0   4 -12 117.790 78.0581   2
   0   4 -11 43.7572 57.8675   2
   0   4 -11-13.4867 60.5120   1
   0   4 -10 340.426 75.7764   1
   0   4 -10 460.451 76.5883   2
   0   4  -9 3262.40 134.763   2
   0   4  -9 3124.70 141.788   1
   0   4  -8 18721.0 289.151   2
   0   4  -8 18819.3 306.793   1
   0   4  -7 15462.4 261.055   1
   0   4  -7 15457.5 251.233   2
   0   4  -7 15585.0 210.508   3
   0   4  -6 1011.32 75.3365   1
   0   4  -6 1065.75 64.9688   3
   0   4  -6 1045.30 74.9117   2
   0   4  -5 4398.31 123.720   2
   0   4  -5 4521.14 117.285   3
   0   4  -5 4480.41 125.514   1
   0   4  -5 4278.99 109.911   0
   0   4  -4 1492.97 72.4254   3
   0   4  -4 1352.62 71.5130   2
   0   4  -4 1446.25 71.9287   1
   0   4  -4 1413.07 63.4365   0
   0   4  -3 42471.0 341.430   3
   0   4  -3 43377.5 325.463   1
   0   4  -3 41715.8 329.855   2
   0   4  -3 42844.9 288.329   0
   0   4  -2 3942.80 108.538   3
   0   4  -2 3956.33 90.9887   1
   0   4  -2 3715.49 82.1459   0
   0   4  -2 3715.76 100.730   2
   0   4  -1 6618.08 135.665   3
   0   4  -1 6372.47 127.876   2
   0   4  -1 6515.12 103.022   0
   0   4   0 124.759 43.0679   3
   0   4   0 50.2103 22.9436   0
   0   4   1 276.313 30.1529   0
   0   4   1 305.339 48.2205   3
   0   4   2 18530.5 228.501   3
   0   4   2 17752.9 183.363   0
   0  -4  -2 18500.0 122.112   1
   0   4   3 53378.2 384.862   3
   0   4   3 53319.7 334.387   0
   0  -4  -3 53845.9 213.522   1
   0   4   4 35.2406 38.0479   3
   0  -4  -4-1.79216 12.0625   1
   0   4   4 4.41243 34.3401   0
   0   4   5 98.2736 34.7263   3
   0   4   5 75.3686 39.4411   0
   0  -4  -5 66.2318 19.2473   1
   0  -4  -6 656.826 40.3737   1
   0   4   6 730.054 53.8097   3
   0   4   7 3507.86 98.7769   3
   0  -4  -7 3510.55 90.4562   1
   0  -4  -8 10.1255 72.3979   2
   0  -4  -9 26.9778 65.3047   2
   0  -4 -10 18.3488 65.6878   2
   0  -4 -11 1342.45 109.366   2
   0  -4 -12 338.428 83.2040   2
   0  -4 -13 529.130 85.8374   2
   0  -4 -14 142.463 78.3167   2
   0   5 -12 459.750 85.5485   1
   0   5 -11 418.203 80.5467   1
   0   5 -11 380.720 83.1158   2
   0   5 -10 412.107 78.2812   1
   0   5 -10 369.927 76.4900   2
   0   5  -9 471.313 80.9315   2
   0   5  -9 415.630 77.6445   1
   0   5  -8 994.274 89.9061   2
   0   5  -8 961.233 89.9137   1
   0   5  -7 5303.19 161.346   2
   0   5  -7 5627.30 171.480   1
   0   5  -7 5425.58 144.728   3
   0   5  -6 1579.74 95.8305   2
   0   5  -6 1585.88 94.1528   1
   0   5  -6 1715.63 88.6978   3
   0   5  -5 2686.06 108.369   1
   0   5  -5 2646.48 95.0589   0
   0   5  -5 2560.52 104.789   3
   0   5  -5 2625.30 107.310   2
   0   5  -4 10898.0 200.546   3
   0   5  -4 10765.7 168.655   0
   0   5  -4 10401.7 192.105   2
   0   5  -4 11178.7 193.308   1
   0   5  -3 4407.56 114.956   1
   0   5  -3 4435.79 126.618   2
   0   5  -3 4461.78 103.894   0
   0   5  -3 4543.66 132.807   3
   0   5  -2 17054.3 245.754   3
   0   5  -2 16515.8 184.727   0
   0   5  -2 16496.7 229.436   2
   0   5  -1 13668.7 217.783   3
   0   5  -1 14010.6 168.760   0
   0   5   0 5897.58 144.504   3
   0   5   0 5868.90 111.873   0
   0   5   1 779.989 47.4520   0
   0   5   1 830.599 70.2478   3
   0   5   2 17378.6 246.344   3
   0  -5  -2 17648.2 132.104   1
   0   5   2 17316.8 196.371   0
   0   5   3 2086.01 79.0358   0
   0  -5  -3 2200.85 47.3667   1
   0   5   3 2184.49 95.0830   3
   0   5   4 24.0271 36.7258   0
   0   5   4 6.00166 38.4710   3
   0   5   5 367.330 53.8472   3
   0   5   5 415.901 54.6482   0
   0   5   6 81.1703 43.0073   3
   0   5   6 110.543 48.6319   0
   0   5   7 236.802 48.3588   3
   0   5   7 279.173 60.5671   0
   0   5   8 2384.29 118.764   0
   0  -5  -9 17.7045 68.0958   2
   0   5   9 10.0849 57.0773   0
   0  -5 -10 395.003 81.3561   2
   0   5  10 406.693 77.3269   0
   0   5  11 1525.11 118.886   0
   0  -5 -11 1358.50 112.413   2
   0  -5 -12 1279.03 121.310   2
   0   5  12 1428.87 122.876   0
   0  -5 -13 202.225 78.3464   2
   0   5  13 173.074 78.3794   0
   0  -5 -14-0.50864 93.1549   2
   0   6 -11 70.8953 56.1943   1
   0   6 -11 14.7266 73.5118   2
   0   6 -10 29.5959 69.1797   1
   0   6 -10-25.9120 61.6732   2
   0   6  -9 1676.00 118.168   2
   0   6  -9 1846.80 122.522   1
   0   6  -8 3595.96 154.611   1
   0   6  -8 3652.43 152.183   2
   0   6  -7 14964.3 284.984   1
   0   6  -7 14630.2 273.175   2
   0   6  -7 14826.1 255.927   3
   0   6  -6 198.502 58.4364   3
   0   6  -6 252.359 63.5232   2
   0   6  -6 215.516 58.8905   1
   0   6  -5 4482.74 147.395   3
   0   6  -5 4561.15 141.961   1
   0   6  -5 4587.62 127.841   0
   0   6  -5 4648.23 150.211   2
   0   6  -4 9253.03 205.421   3
   0   6  -4 8827.11 162.830   0
   0   6  -4 9023.55 200.365   2
   0   6  -3 661.471 73.4164   2
   0   6  -3 697.882 54.0510   0
   0   6  -3 642.539 73.2589   3
   0   6  -2 4943.54 152.093   3
   0   6  -2 4783.31 112.317   0
   0   6  -2 4881.72 144.197   2
   0   6  -1 964.647 84.6781   3
   0   6  -1 899.061 55.2416   0
   0   6   0 8585.18 145.938   0
   0   6   0 8705.37 196.874   3
   0   6   1 507.489 47.0731   0
   0   6   1 465.468 64.7961   3
   0   6   2 27764.0 338.516   3
   0   6   2 28392.1 274.173   0
   0   6   3 9257.60 166.481   0
   0   6   3 9175.66 198.260   3
   0   6   4 197.607 47.9189   0
   0   6   4 198.680 56.9629   3
   0   6   5 105.799 49.4644   0
   0   6   5 128.109 55.4750   3
   0   6   6 1385.76 85.9579   3
   0   6   6 1406.00 86.9290   0
   0   6   7 1473.30 95.9542   0
   0   6   7 1440.01 85.8537   3
   0   6   8 435.244 77.0678   0
   0   6   9 8.85325 59.8227   0
   0  -6 -10 69.8083 69.1848   2
   0   6  10 65.2767 68.5634   0
   0  -6 -11 178.568 79.2966   2
   0   6  11 202.319 83.1243   0
   0  -6 -12 205.752 93.6311   2
   0   6  12 274.424 89.4422   0
   0  -6 -13 12.6236 83.3311   2
   0   7 -11 763.043 96.3493   1
   0   7 -10 638.581 98.6482   2
   0   7 -10 654.851 101.159   1
   0   7  -9 206.704 67.2202   2
   0   7  -9 371.165 80.0856   1
   0   7  -8 71.2114 62.0271   1
   0   7  -8 97.4854 60.0183   2
   0   7  -7 897.012 92.3571   2
   0   7  -6 2179.91 119.865   2
   0   7  -6 2334.00 124.903   3
   0   7  -5 5080.21 168.244   3
   0   7  -5 5130.63 143.086   0
   0   7  -5 4848.39 167.137   2
   0   7  -4 11413.7 240.511   2
   0   7  -4 11440.5 195.840   0
   0   7  -4 11669.4 251.769   3
   0   7  -3 975.049 66.1521   0
   0   7  -3 942.890 88.6057   3
   0   7  -3 876.619 86.8271   2
   0   7  -2 4261.70 158.443   3
   0   7  -2 4162.13 115.249   0
   0   7  -1 362.190 46.3427   0
   0   7  -1 425.086 80.6181   3
   0   7   0 353.375 78.9706   3
   0   7   0 357.300 52.1940   0
   0   7   1 14210.6 212.985   0
   0   7   1 13797.8 272.845   3
   0   7   2 2330.67 126.628   3
   0   7   2 2283.84 92.7516   0
   0   7   3 758.031 90.7048   3
   0   7   3 781.705 64.6124   0
   0   7   4 202.510 67.8116   3
   0   7   4 156.931 48.7416   0
   0   7   5 3424.59 139.095   3
   0   7   5 3568.11 124.982   0
   0   7   6 771.032 76.9665   0
   0   7   6 606.440 76.3290   3
   0   7   7 117.715 54.2838   3
   0   7   7 60.0368 57.1877   0
   0   7   8 244.666 62.7378   0
   0   7   9 35.2588 66.9547   0
   0  -7 -10-11.2201 74.1130   2
   0   7  10-34.0555 68.9345   0
   0  -7 -11-22.5247 78.2080   2
   0   7  11 3.12178 64.2759   0
   0   7  12 265.275 99.4683   0
   0  -7 -12 209.723 109.260   2
   0   8 -10 162.181 88.0652   2
   0   8  -9 603.357 88.3680   2
   0   8  -8 331.242 78.1871   2
   0   8  -7 189.462 79.4818   2
   0   8  -6 993.238 104.114   2
   0   8  -6 929.867 96.8414   3
   0   8  -5 7531.50 218.468   2
   0   8  -5 7421.65 217.571   3
   0   8  -4-2.13016 65.3689   2
   0   8  -4 64.7073 69.5945   3
   0   8  -3 150.870 67.4166   3
   0   8  -2 75.0971 68.0112   3
   0   8  -1 22.4279 72.9894   3
   0   8   0 21.6859 75.9152   3
   0   8   1 4225.39 125.205   0
   0   8   1 3875.14 166.555   3
   0   8   2 1969.81 125.057   3
   0   8   2 1972.05 94.0661   0
   0   8   3 7246.32 170.878   0
   0   8   3 7345.21 219.975   3
   0   8   4 17.8798 65.7859   3
   0   8   4 16.6340 47.6208   0
   0   8   5 916.118 74.0693   0
   0   8   5 938.377 95.7260   3
   0   8   6 535.601 68.4471   0
   0   8   6 532.838 78.7597   3
   0   8   7 10.6580 55.7441   3
   0   8   7-44.6057 57.3453   0
   0   8   8 362.773 77.8488   0
   0   8   9 32.2763 69.1710   0
   0   8  10-2.97099 65.9428   0
   0  -8 -11 109.622 75.3916   2
   0   8  11 104.954 81.8879   0
   0   9  -9 224.597 86.8965   2
   0   9  -8 515.877 86.1402   2
   0   9  -7 274.861 81.6189   2
   0   9  -6 392.739 81.8443   3
   0   9  -6 236.659 72.6992   2
   0   9  -5 1459.77 117.880   3
   0   9  -4 774.720 101.666   3
   0   9  -3 2485.13 148.856   3
   0   9  -2 37.4855 68.6858   3
   0   9  -1 3302.73 164.947   3
   0   9   0 1050.19 109.452   3
   0   9   1 116.848 84.0336   3
   0   9   2 1735.08 133.208   3
   0   9   3 326.801 85.9346   3
   0   9   4-36.8151 65.2948   3
   0   9   5 1058.01 109.696   3
   0   9   6 114.355 75.3491   3
   0   9   7 113.666 59.9079   0
   0   9   7 161.061 73.4026   3
   0   9   8 116.971 63.3026   0
   0   9   9 138.974 76.9622   0
   0   9  10 304.676 71.9630   0
   0  10  -6 104.532 71.9441   3
   0  10  -5 314.100 80.2309   3
   0  10  -4 809.092 115.530   3
   0  10  -3 19.7384 87.1622   3
   0  10  -2 89.7988 79.8971   3
   0  10  -1 2505.91 156.570   3
   0  10   0 62.6711 78.5186   3
   0  10   1 249.313 86.6011   3
   0  10   2 144.215 74.9621   3
   0  10   3 51.5414 86.5475   3
   0  10   4 16.4798 78.9463   3
   0  10   5 296.134 84.9546   3
   0  10   6 356.723 87.6951   3
   0  10   7-26.3932 78.1077   3
   0  11  -4 86.7468 97.2946   3
   0  11  -3 81.9121 89.5379   3
   0  11  -2 345.052 106.622   3
   0  11  -1-23.7432 99.5725   3
   0  11   0 222.414 101.269   3
   0  11   1 12.3078 91.9093   3
   0  11   2 6.45030 100.425   3
   0  11   3 55.6524 97.1093   3
   0  11   4 277.054 91.7174   3
   0  11   5 27.3732 91.6617   3
  -1  10   7-148.438 94.0933   3
  -1  10   6 1304.35 126.846   3
  -1  10   5 711.022 113.193   3
  -1  10   4-24.9221 79.9036   3
  -1  10   3 743.290 116.121   3
  -1  10   2 65.9931 84.0379   3
  -1  10   1 54.2935 85.0960   3
  -1  10   0 727.921 102.894   3
  -1  10  -1 899.392 126.818   3
  -1  10  -2 815.667 115.270   3
  -1  10  -3 75.2673 74.9836   3
  -1  10  -4 39.9674 89.5944   3
  -1  10  -5 300.593 89.8377   3
  -1  10  -6 81.2700 93.7600   3
  -1   9   7 515.670 96.0813   3
  -1   9   6 66.0472 67.1276   3
  -1   9   5 19.3074 59.3925   3
  -1   9   4 504.271 91.0218   3
  -1   9   3 11.1790 73.0455   3
  -1   9   2 219.782 80.6149   3
  -1   9   1 0.90049 75.9308   3
  -1   9   0 11.4830 84.1809   3
  -1   9  -1 702.215 115.969   3
  -1   9  -2 72.7916 76.7293   3
  -1   9  -3 285.763 88.7108   3
  -1   9  -4 69.0274 74.8019   3
  -1   9  -5 346.853 90.8614   2
  -1   9  -5 233.234 82.2656   3
  -1   9  -6 18.2772 74.0424   3
  -1   9  -6 73.4480 69.0455   2
  -1   9  -7 124.152 85.3228   2
  -1   9  -8 65.1601 88.3506   2
  -1   8   7 1015.01 99.6233   3
  -1   8   6 56.6980 65.6401   3
  -1   8   5 2851.47 146.562   3
  -1   8   4 1015.54 99.4841   3
  -1   8   3 2720.64 144.162   3
  -1   8   2 1342.97 117.865   3
  -1   8   1 366.405 87.4563   3
  -1   8   0 902.328 100.011   3
  -1   8  -1 1662.39 116.748   3
  -1   8  -2 22.8351 66.8951   3
  -1   8  -3 1.95588 75.2593   3
  -1   8  -4 96.3395 72.7734   2
  -1   8  -4 101.669 69.9715   3
  -1   8  -5 292.871 78.5798   2
  -1   8  -5 257.169 73.7904   3
  -1   8  -6 55.9904 64.0929   3
  -1   8  -6-19.8964 76.3002   2
  -1   8  -7 92.8239 79.8710   2
  -1   8  -8 9.90401 80.0336   2
  -1   8  -9 346.846 86.1692   2
   1  -7 -12 514.290 110.079   2
  -1   7  12 581.038 104.043   0
   1  -7 -11 505.190 96.5003   2
  -1   7  11 427.846 88.6521   0
  -1   7  10 133.484 70.8992   0
  -1   7   9 514.092 74.7300   0
  -1   7   8-29.2914 53.2197   0
  -1   7   7 73.5341 67.8005   0
  -1   7   7 124.327 53.0930   3
  -1   7   6 136.907 61.9127   3
  -1   7   6 140.926 50.8601   0
  -1   7   5 5553.12 149.213   0
  -1   7   5 5709.94 186.873   3
  -1   7   4 334.383 51.5064   0
  -1   7   4 384.269 79.5779   3
  -1   7   3 85.4079 43.2053   0
  -1   7   3 100.301 71.4594   3
  -1   7   2 19618.3 337.727   3
  -1   7   1 2890.26 143.168   3
  -1   7   0 1462.31 111.118   3
  -1   7  -1 2367.38 127.031   3
  -1   7  -2 274.977 75.4647   3
  -1   7  -3 381.607 79.0066   2
  -1   7  -3 458.674 78.7133   3
  -1   7  -4 0.33695 68.7917   2
  -1   7  -4-6.64943 62.0145   3
  -1   7  -5 1690.30 110.545   2
  -1   7  -5 1794.20 109.156   3
  -1   7  -6-33.8393 65.7921   2
  -1   7  -6-18.1172 72.3163   3
  -1   7  -7 629.116 88.1923   2
  -1   7  -8 118.378 73.2119   2
  -1   7  -9 19.0999 62.5513   2
  -1   7 -10 455.971 91.4259   2
  -1   7 -11 300.593 94.1993   2
   1  -6 -13 902.380 108.123   2
   1  -6 -12 25.8050 72.6824   2
  -1   6  12 46.8287 70.0635   0
   1  -6 -11 370.820 86.4114   2
  -1   6  11 349.567 75.5893   0
  -1   6  10 38.6569 62.4060   0
   1  -6 -10 55.4361 77.3691   2
  -1   6   9-18.5024 58.5804   0
  -1   6   8 3578.32 141.264   0
  -1   6   7 5480.50 169.851   3
  -1   6   7 5251.59 157.695   0
  -1   6   6 2141.91 101.944   0
  -1   6   6 2119.02 113.666   3
  -1   6   5 3499.31 140.081   3
  -1   6   5 3191.83 110.442   0
  -1   6   4 6325.00 180.424   3
  -1   6   4 6093.25 139.183   0
  -1   6   3 2360.73 81.3329   0
  -1   6   3 2281.06 119.567   3
  -1   6   2 5064.44 112.232   0
  -1   6   2 5227.78 168.282   3
  -1   6   1-4.74838 63.7467   3
  -1   6   1 19.1522 27.5703   0
  -1   6   0 238.283 33.0281   0
  -1   6   0 251.224 69.2729   3
  -1   6  -1 297.627 65.2757   3
  -1   6  -1 305.573 36.9562   0
  -1   6  -2 2106.01 69.7645   0
  -1   6  -2 2242.26 110.312   3
  -1   6  -2 2055.55 108.543   2
  -1   6  -3 718.457 77.1324   3
  -1   6  -3 647.055 79.4716   2
  -1   6  -4 561.155 73.2746   2
  -1   6  -4 531.700 71.2763   3
  -1   6  -5 250.903 71.1761   2
  -1   6  -5 254.039 61.4030   3
  -1   6  -6 86.9308 49.6237   3
  -1   6  -6 111.080 59.9976   2
  -1   6  -7 102.619 61.6556   2
  -1   6  -8 585.517 90.9445   2
  -1   6  -9 14.1818 61.3671   2
  -1   6 -10 19.3451 68.8770   2
  -1   6 -11-12.8327 78.4337   2
  -1   6 -12 405.078 92.3081   2
   1  -5 -13 596.613 101.565   2
   1  -5 -12 21.4236 81.8823   2
   1  -5 -11 35.4631 64.6953   2
   1  -5 -10 1759.83 122.919   2
  -1   5   7 1754.23 95.6146   3
  -1   5   7 1586.42 92.9983   0
  -1   5   6 268.499 57.8004   3
  -1   5   6 299.366 56.1662   0
  -1   5   5 243.278 57.1176   3
  -1   5   5 275.449 48.6583   0
  -1   5   4 180.935 39.7831   0
  -1   5   4 230.759 57.0863   3
   1  -5  -4 221.863 28.0986   1
  -1   5   3 4221.33 101.363   0
   1  -5  -3 4082.19 84.7777   1
  -1   5   3 4351.77 137.745   3
  -1   5   2 132.695 29.9244   0
  -1   5   2 65.6886 50.4923   3
  -1   5   1 9204.69 193.401   3
  -1   5   1 9098.18 127.886   0
  -1   5   0 3890.26 80.8633   0
  -1   5   0 4145.72 135.235   3
  -1   5  -1 522.762 61.9534   2
  -1   5  -1 527.532 65.1820   3
  -1   5  -1 546.399 35.9985   0
  -1   5  -2-0.22381 46.4506   2
  -1   5  -2-9.13467 45.8749   3
  -1   5  -2-3.42741 21.9602   0
  -1   5  -3 2631.13 109.154   2
  -1   5  -3 2592.16 73.0847   0
  -1   5  -3 2752.94 109.951   3
  -1   5  -4 314.698 53.5914   3
  -1   5  -4 356.591 38.4500   0
  -1   5  -4 341.790 60.3327   2
  -1   5  -5 1004.50 74.9548   3
  -1   5  -5 976.798 84.4420   2
  -1   5  -6 1422.99 98.4725   2
  -1   5  -6 1496.14 84.8170   3
  -1   5  -7 1238.70 93.5783   2
  -1   5  -8 123.776 71.3913   2
  -1   5  -8 133.489 54.6194   1
  -1   5  -9 86.2975 69.5259   1
  -1   5  -9 130.275 69.1749   2
  -1   5 -10 356.244 78.9916   2
  -1   5 -10 419.137 80.9783   1
  -1   5 -11 110.823 70.6801   2
  -1   5 -11 112.332 67.2571   1
  -1   5 -12 522.664 98.0511   2
  -1   5 -13-83.1848 95.6442   2
   1  -4 -13 3446.28 168.327   2
   1  -4 -12 117.695 66.5422   2
   1  -4 -11 27.1311 65.7100   2
   1  -4 -10 157.235 68.2479   2
   1  -4  -9 547.840 77.0163   2
   1  -4  -8 202.694 35.3712   1
  -1   4   7 12037.7 200.297   3
   1  -4  -7 11286.3 174.324   1
   1  -4  -6 1100.97 53.4756   1
  -1   4   6 1206.17 73.3730   3
   1  -4  -5 117.059 25.7388   1
  -1   4   5 117.961 41.4627   3
   1  -4  -4 2214.84 65.4354   1
  -1   4   4 2290.91 79.0100   0
  -1   4   4 2321.52 93.0185   3
   1  -4  -3 1773.79 55.5959   1
  -1   4   3 1958.81 86.6705   3
  -1   4   3 1993.17 66.8785   0
  -1   4   2 200.644 44.9668   3
  -1   4   2 200.773 28.4953   0
   1  -4  -2 167.237 22.9264   1
  -1   4   1 12570.0 199.562   3
  -1   4   1 12440.0 130.647   0
  -1   4   0 60.6361 43.9391   3
  -1   4   0 131.298 22.6194   0
  -1   4  -1 351.935 45.8004   2
  -1   4  -1 398.218 50.4555   3
  -1   4  -1 378.008 26.9899   0
  -1   4  -2 2859.76 101.145   3
  -1   4  -2 2623.07 94.0985   2
  -1   4  -2 2573.95 60.9967   0
  -1   4  -3 681.006 37.5579   0
  -1   4  -3 684.323 57.8825   3
  -1   4  -3 700.337 60.3140   2
  -1   4  -4 657.375 62.9671   2
  -1   4  -4 830.698 60.4973   3
  -1   4  -5 667.003 65.0198   2
  -1   4  -5 748.757 57.9722   3
  -1   4  -6 824.699 75.0384   1
  -1   4  -6 785.514 72.8615   2
  -1   4  -6 843.398 61.1850   3
  -1   4  -7 4780.64 157.204   1
  -1   4  -7 4810.37 156.899   2
  -1   4  -8 4640.90 161.548   2
  -1   4  -8 4751.22 164.769   1
  -1   4  -9 1135.82 97.0716   1
  -1   4  -9 1043.04 92.1310   2
  -1   4 -10 27.4788 71.3880   2
  -1   4 -10 29.5709 55.0484   1
  -1   4 -11 83.9568 64.1076   2
  -1   4 -11 156.587 70.9541   1
  -1   4 -12 72.6662 74.1401   1
  -1   4 -12 3.99705 69.3283   2
  -1   4 -13 326.905 86.6381   2
   1  -3 -12 86.1399 62.2500   2
   1  -3 -11 1166.41 97.6621   2
   1  -3 -11 1141.48 83.8756   1
   1  -3 -10 406.136 54.0181   1
   1  -3 -10 311.089 64.9617   2
   1  -3  -9 4733.23 154.427   2
   1  -3  -9 4628.85 133.715   1
   1  -3  -8 201.922 39.1219   1
   1  -3  -8 213.560 65.0078   2
   1  -3  -7 19841.7 235.752   1
  -1   3   7 20755.9 230.510   3
   1  -3  -6 851.436 48.2197   1
  -1   3   6 1014.06 57.3337   3
   1  -3  -5 3698.31 88.5558   1
  -1   3   5 3833.66 101.124   3
  -1   3   4 32509.5 280.862   3
   1  -3  -4 33158.9 240.615   1
  -1   3   3 1632.39 72.4929   3
   1  -3  -3 1711.67 55.4238   1
  -1   3   2 4293.00 105.825   3
  -1   3   2 4182.66 76.8281   0
   1  -3  -2 4248.82 78.0597   1
  -1   3   1 91.2058 35.6294   3
  -1   3   1 86.2485 17.8985   0
  -1   3   0 1723.10 70.5715   3
  -1   3   0 1671.63 64.1375   2
  -1   3   0 1706.12 38.9174   0
  -1   3  -1 928.378 55.7292   3
  -1   3  -1 862.058 29.1566   0
  -1   3  -1 871.012 53.2203   2
  -1   3  -2 709.493 29.9164   0
  -1   3  -2 734.186 52.2692   2
  -1   3  -2 845.794 53.8178   3
  -1   3  -3 15356.0 190.001   3
  -1   3  -3 14609.6 196.320   2
  -1   3  -4 5554.38 114.536   3
  -1   3  -4 5190.00 126.842   2
  -1   3  -4 5296.74 124.427   1
  -1   3  -5 2580.25 98.5183   1
  -1   3  -5 2560.06 78.4424   3
  -1   3  -5 2547.67 97.2642   2
  -1   3  -6 643.086 64.1223   2
  -1   3  -6 640.132 44.1337   3
  -1   3  -6 736.496 69.2756   1
  -1   3  -7 2629.44 114.993   1
  -1   3  -7 2509.45 113.508   2
  -1   3  -8 2590.58 120.915   2
  -1   3  -8 2488.25 121.295   1
  -1   3  -9 1468.94 104.478   2
  -1   3  -9 1527.91 106.057   1
  -1   3 -10 591.091 87.0014   2
  -1   3 -10 628.826 79.4798   1
  -1   3 -11 82.8362 54.0893   1
  -1   3 -11 32.1742 60.4213   2
  -1   3 -12 195.621 72.5218   1
  -1   3 -12 140.358 74.8703   2
  -1   3 -13 143.265 80.0334   1
  -1   3 -13 151.784 72.5506   2
  -1   3 -14 10.0482 89.8230   2
   1  -2 -13 3315.80 157.780   1
   1  -2 -12 164.636 55.1093   2
   1  -2 -12 123.982 54.4272   1
   1  -2 -11 597.091 75.5369   2
   1  -2 -11 526.351 70.8037   1
   1  -2 -10 8087.15 196.901   2
   1  -2 -10 7928.45 189.449   1
   1  -2  -9 5922.29 156.908   1
   1  -2  -9 5734.11 159.651   2
   1  -2  -8 2950.15 104.838   1
   1  -2  -8 2947.37 111.744   2
  -1   2   7 479.575 38.3011   3
   1  -2  -7 468.691 51.5857   1
   1  -2  -7 471.719 56.2682   2
   1  -2  -6 8006.89 150.293   2
  -1   2   6 7862.36 123.053   3
   1  -2  -6 7461.76 135.913   1
  -1   2   5 2954.78 77.3096   3
   1  -2  -5 2727.29 76.7012   1
  -1   2   4 1302.42 54.4135   3
   1  -2  -4 1308.81 52.8414   1
  -1   2   3 44806.7 281.246   3
   1  -2  -3 45843.2 254.321   1
  -1   2   2 784.692 45.3849   3
   1  -2  -2 765.074 33.2739   1
  -1   2   1 450.460 22.0450   0
  -1   2   1 450.736 37.4498   3
  -1   2   0 677.013 39.5865   2
  -1   2   0 664.490 41.2469   3
  -1   2   0 718.624 19.1626   0
  -1   2  -1 919.748 22.1078   0
  -1   2  -1 911.693 46.6966   3
  -1   2  -1 914.962 46.0537   2
  -1   2  -2 635.050 39.6717   3
  -1   2  -2 634.370 41.5310   2
  -1   2  -3 610.370 45.8852   2
  -1   2  -3 675.380 40.2777   3
  -1   2  -4 7252.16 135.035   2
  -1   2  -4 7626.01 113.867   3
  -1   2  -4 7557.90 141.026   1
  -1   2  -5 3117.03 98.7194   2
  -1   2  -5 3059.95 69.9004   3
  -1   2  -5 3008.70 98.8591   1
  -1   2  -6 684.836 36.1791   3
  -1   2  -6 778.858 63.9613   2
  -1   2  -6 716.875 60.6557   1
  -1   2  -7 2506.37 106.846   1
  -1   2  -7 2383.29 101.383   2
  -1   2  -8 2778.93 119.730   1
  -1   2  -8 2489.74 111.149   2
  -1   2  -9 150.380 52.7687   2
  -1   2  -9 167.113 51.1355   1
  -1   2 -10 636.005 81.9962   2
  -1   2 -10 717.025 83.0989   1
  -1   2 -11 102.805 63.4271   1
  -1   2 -11 106.608 63.4459   2
  -1   2 -12 518.199 83.7590   2
  -1   2 -12 611.352 82.8937   1
  -1   2 -13 306.558 75.7138   2
  -1   2 -13 277.174 73.5391   1
  -1   2 -14 213.742 73.7117   2
  -1   2 -14 60.9509 72.5645   1
   1  -1 -14 541.760 81.0812   1
   1  -1 -13 1525.48 113.221   1
   1  -1 -12 236.568 56.1632   1
   1  -1 -12 234.368 66.8289   2
   1  -1 -11 1430.16 98.2694   1
   1  -1 -11 1501.03 96.8340   2
   1  -1 -10 3371.48 128.563   2
   1  -1 -10 3488.85 136.680   1
   1  -1  -9 20864.7 293.521   1
   1  -1  -9 20719.9 277.318   2
   1  -1  -8 343.477 55.0674   2
   1  -1  -8 301.208 49.4298   1
   1  -1  -7 1578.84 76.4558   1
   1  -1  -7 1605.10 75.2015   2
   1  -1  -6 8581.03 144.938   2
   1  -1  -6 8691.88 152.998   1
  -1   1   6 8868.40 115.028   3
   1  -1  -5 7.14649 22.3240   1
   1  -1  -5 19.4868 29.0006   2
  -1   1   5-1.07277 21.0749   3
   1  -1  -4 38163.7 255.814   1
  -1   1   4 38749.6 228.583   3
   1  -1  -3 4815.80 85.1233   1
  -1   1   3 4786.63 80.7754   3
   1  -1  -2 240.470 22.7070   1
  -1   1   2 233.032 27.6689   3
  -1   1   1 2289.03 56.5540   3
   1  -1  -1 2236.56 47.3426   1
  -1   1   0 7.08122 15.8578   2
  -1   1   0 1.91151 21.0616   3
  -1   1  -1 272.315 23.8121   3
  -1   1  -1 245.030 27.2463   2
  -1   1  -2 4563.73 80.5089   2
  -1   1  -2 4600.56 68.7559   3
  -1   1  -3 8181.83 119.308   2
  -1   1  -3 8628.97 90.2524   3
  -1   1  -3 8416.74 122.536   1
  -1   1  -4 461.477 43.0880   2
  -1   1  -4 474.628 41.6919   1
  -1   1  -4 492.066 25.3834   3
  -1   1  -5 656.806 50.0488   1
  -1   1  -5 621.046 53.0596   2
  -1   1  -5 661.355 25.7265   3
  -1   1  -6 99.3646 12.4906   3
  -1   1  -6 114.971 40.0477   2
  -1   1  -6 94.3026 35.7281   1
  -1   1  -7 13215.0 218.026   1
  -1   1  -7 13286.5 214.414   2
  -1   1  -8 1131.52 80.4019   1
  -1   1  -8 1194.70 84.6400   2
  -1   1  -9 9.77682 58.9750   2
  -1   1  -9-5.92337 47.7502   1
  -1   1 -10 258.520 64.3688   1
  -1   1 -10 310.891 69.0456   2
  -1   1 -11 1601.88 113.420   2
  -1   1 -11 1541.61 105.987   1
  -1   1 -12 284.434 71.9466   1
  -1   1 -12 195.618 73.3471   2
  -1   1 -13 431.333 86.8698   2
  -1   1 -13 474.581 86.4309   1
  -1   1 -14-18.8365 75.9888   1
  -1   1 -14 80.3834 66.9940   2
   1   0 -14 903.258 100.731   1
   1   0 -13-120.006 58.6845   1
   1   0 -12 598.368 80.2168   2
   1   0 -12 613.563 86.6107   1
   1   0 -11-1.05801 55.7444   1
   1   0 -11 0.28618 52.7389   2
   1   0 -10 11741.3 222.482   2
   1   0 -10 12153.3 248.892   1
   1   0  -9 764.896 74.5374   1
   1   0  -9 791.524 72.3642   2
   1   0  -8 11035.5 207.067   1
   1   0  -8 10692.2 183.335   2
   1   0  -7 664.560 52.5633   2
   1   0  -7 639.550 57.6189   1
   1   0  -6 19387.2 232.410   1
   1   0  -6 19599.4 206.816   2
  -1   0   6 19202.0 158.842   3
   1   0  -5 16051.1 168.851   2
   1   0  -5 15725.4 191.938   1
   1   0  -4 15272.0 164.483   1
   1   0  -4 16259.6 147.316   2
   1   0  -3 191.725 22.1483   2
   1   0  -3 145.285 22.2268   1
   1   0  -2 65.5312 22.3868   1
   1   0  -1 15356.6 96.8603   0
   1   0  -1 15811.0 113.503   1
  -1   0  -1 3720.93 52.7348   2
   1   0   1 4196.98 42.1152   0
  -1   0  -2 10975.9 112.106   2
  -1   0  -2 10964.1 79.7141   3
  -1   0  -3 5353.64 92.2164   2
  -1   0  -3 5818.67 92.8383   1
  -1   0  -4 14453.8 166.205   2
  -1   0  -4 15198.0 167.274   1
  -1   0  -5 48899.9 334.493   1
  -1   0  -5 49823.4 340.130   2
  -1   0  -6 671.764 58.5472   2
  -1   0  -6 784.475 55.4327   1
  -1   0  -7 3480.41 110.698   1
  -1   0  -7 3355.63 113.635   2
  -1   0  -8 417.486 62.1645   2
  -1   0  -8 380.194 55.2103   1
  -1   0  -9 1809.78 103.476   2
  -1   0  -9 1540.66 91.8265   1
  -1   0 -10 1673.82 106.510   2
  -1   0 -10 1879.07 103.995   1
  -1   0 -11 22.0559 67.3715   2
  -1   0 -11 33.7028 51.3712   1
  -1   0 -12 298.036 66.6972   1
  -1   0 -12 253.306 73.0377   2
  -1   0 -13-33.1627 58.9455   2
  -1   0 -13-33.7375 58.1661   1
  -1   0 -14 77.2099 73.5845   2
  -1   0 -14 38.7788 67.0694   1
  -1   0 -15 519.247 91.2660   2
   1   1 -14 59.8302 67.5075   1
   1   1 -13 62.9553 70.9223   1
   1   1 -12 12.2269 59.2292   1
   1   1 -11 64.5637 52.9796   1
   1   1 -11 72.9814 43.8228   2
   1   1 -10 13333.1 269.658   1
   1   1 -10 13345.6 236.370   2
   1   1  -9-18.5817 51.3471   2
   1   1  -9-16.0533 48.6597   1
   1   1  -8 7510.46 155.575   2
   1   1  -8 7864.43 181.949   1
   1   1  -7 83.6397 35.8595   2
   1   1  -7 71.5624 41.8034   1
   1   1  -6 5881.47 115.831   2
   1   1  -6 5856.43 135.838   1
   1   1  -5 1803.26 72.0371   1
   1   1  -5 1828.95 62.4412   2
   1   1  -4 6173.93 114.570   1
   1   1  -4 6290.46 92.4289   2
   1   1  -3 963.321 33.6246   2
   1   1  -3 967.730 43.2629   1
   1   1  -3 906.924 43.3562   0
   1   1  -2 6651.53 87.6833   1
   1   1  -2 6875.07 90.0399   0
   1   1  -2 6854.11 61.5828   2
   1   1  -1 25.8617 15.3085   1
   1   1  -1 19.7767 15.1946   0
   1   1   0 12594.7 79.0677   1
   1   1   0 10877.3 90.0715   0
  -1  -1  -1 17726.4 115.126   2
   1   1   1 18222.8 117.207   0
   1   1   2 20.1358 21.5835   0
  -1  -1  -2 9.16499 18.8520   2
  -1  -1  -3 8034.91 111.816   2
  -1  -1  -3 8039.78 95.8651   1
  -1  -1  -4 5721.27 106.887   2
  -1  -1  -4 6099.77 98.0407   1
  -1  -1  -5 324.388 45.9982   2
  -1  -1  -5 473.417 39.3281   1
  -1  -1  -6 5028.26 113.655   1
  -1  -1  -6 4886.46 123.301   2
  -1  -1  -7 3095.73 107.838   2
  -1  -1  -7 3408.64 103.016   1
  -1  -1  -8 1226.74 83.4426   2
  -1  -1  -8 1246.42 76.1184   1
  -1  -1  -9 992.142 76.4587   1
  -1  -1  -9 938.237 81.9446   2
  -1  -1 -10 5419.39 161.730   1
  -1  -1 -10 5580.65 171.898   2
  -1  -1 -11 4194.51 159.863   2
  -1  -1 -11 4206.60 149.486   1
  -1  -1 -12 78.2546 52.0820   1
  -1  -1 -12 82.4030 69.4823   2
  -1  -1 -13 19.2484 73.7854   2
  -1  -1 -13 17.3954 50.2908   1
  -1  -1 -14 191.727 73.0984   2
  -1  -1 -14 284.812 72.0487   1
  -1  -1 -15-41.7821 93.2776   2
   1   2 -13 417.120 87.0570   1
   1   2 -12 61.3794 68.4057   1
   1   2 -11 1954.47 106.084   2
   1   2 -11 2225.44 132.176   1
   1   2 -10 5127.39 179.071   1
   1   2 -10 5086.18 151.453   2
   1   2  -9 12.2971 43.1035   2
   1   2  -9 76.5857 61.0438   1
   1   2  -8 209.319 44.8993   2
   1   2  -8 168.190 52.4812   1
   1   2  -7 1733.55 92.0947   1
   1   2  -7 1888.32 79.5421   2
   1   2  -6 1327.18 75.5973   1
   1   2  -6 1367.44 62.0741   2
   1   2  -5 30491.0 286.707   1
   1   2  -5 30146.6 239.072   2
   1   2  -4 1064.43 45.8992   2
   1   2  -4 1050.47 54.1448   1
   1   2  -4 1110.08 56.4600   0
   1   2  -3 3678.67 82.2343   1
   1   2  -3 3739.35 83.6597   0
   1   2  -3 3638.16 68.9185   2
   1   2  -2 307.280 23.8545   2
   1   2  -2 315.406 32.7700   3
   1   2  -2 279.611 29.0879   0
   1   2  -2 293.805 26.9466   1
   1   2  -1 289.979 21.8286   1
   1   2  -1 286.210 26.9576   3
   1   2  -1 273.790 25.9745   0
   1   2  -1 290.475 22.0163   2
   1   2   0 4155.73 70.5823   0
   1   2   0 4021.12 75.1859   3
   1   2   0 3853.17 43.6473   1
   1   2   1 8090.52 95.8732   0
   1   2   1 8054.37 100.919   3
   1   2   2 7646.84 100.964   0
   1   2   2 7590.23 95.2717   3
  -1  -2  -3 1055.45 31.2020   1
   1   2   3 1010.42 37.3899   3
   1   2   3 1040.99 45.0416   0
  -1  -2  -4 29734.1 252.824   2
   1   2   4 29487.5 173.336   3
  -1  -2  -4 29623.7 195.332   1
  -1  -2  -5 5318.05 99.2153   1
   1   2   5 5122.99 69.5675   3
  -1  -2  -5 5192.08 121.239   2
  -1  -2  -6 662.777 61.7497   2
   1   2   6 651.347 24.8551   3
  -1  -2  -6 715.314 46.6500   1
  -1  -2  -7 1777.18 76.1588   1
  -1  -2  -7 1756.62 89.4435   2
  -1  -2  -8 21187.3 259.136   1
  -1  -2  -8 20257.1 286.164   2
  -1  -2  -9 129.742 63.3309   2
  -1  -2  -9-19.2202 43.4217   1
  -1  -2 -10 4285.10 155.927   2
  -1  -2 -10 4293.82 138.675   1
  -1  -2 -11 5151.59 159.735   1
  -1  -2 -11 5204.83 176.718   2
  -1  -2 -12 44.6710 44.4277   1
  -1  -2 -12 128.052 70.4522   2
  -1  -2 -13 531.187 91.7407   2
  -1  -2 -14 586.174 103.294   2
   1   3 -13 42.8224 67.2996   1
   1   3 -12 628.346 95.7058   1
   1   3 -11 2.57246 65.8934   1
   1   3 -10 955.837 83.9890   2
   1   3 -10 944.799 92.7673   1
   1   3  -9 785.431 72.5938   2
   1   3  -9 816.224 84.6613   1
   1   3  -8 1296.43 92.5055   1
   1   3  -8 1214.61 77.9787   2
   1   3  -7 6120.22 164.256   1
   1   3  -7 6306.04 142.674   2
   1   3  -6 18.1094 35.0911   2
   1   3  -6-4.14599 39.3994   1
   1   3  -5 1968.76 81.0560   0
   1   3  -5 2016.07 72.2421   2
   1   3  -5 2081.33 83.8425   1
   1   3  -4 1290.16 56.2290   2
   1   3  -4 1313.97 63.0882   1
   1   3  -4 1229.03 61.4303   0
   1   3  -4 1252.57 59.3850   3
   1   3  -3 6973.35 123.937   3
   1   3  -3 6851.98 119.116   0
   1   3  -3 6941.70 119.547   1
   1   3  -3 6882.11 108.907   2
   1   3  -2 471.933 36.8698   0
   1   3  -2 543.043 44.7658   3
   1   3  -2 522.026 34.5357   1
   1   3  -2 487.684 34.2358   2
   1   3  -1 2661.05 76.9059   3
   1   3  -1 2630.35 68.3668   0
   1   3  -1 2761.05 57.6434   1
   1   3   0 1174.93 55.6417   3
   1   3   0 1219.73 47.1054   0
   1   3   0 1306.89 31.9309   1
   1   3   1 14144.5 147.657   0
   1   3   1 14331.4 165.959   3
   1   3   2 15684.6 164.700   0
   1   3   2 16019.8 173.273   3
   1   3   3 17906.8 181.023   3
   1   3   3 17617.4 184.772   0
  -1  -3  -3 17457.0 92.0936   1
   1   3   4 34752.5 248.176   3
  -1  -3  -4 35387.0 187.464   1
   1   3   4 34827.1 280.002   0
   1   3   5 1629.21 56.2144   3
   1   3   5 1575.60 75.0693   0
  -1  -3  -5 1783.80 54.8879   1
  -1  -3  -6 7794.88 166.108   2
   1   3   6 7793.70 111.004   3
  -1  -3  -6 7932.68 128.685   1
  -1  -3  -7 130.641 30.6861   1
  -1  -3  -7 116.148 59.5207   2
  -1  -3  -8 3820.17 109.901   1
  -1  -3  -8 3545.48 137.787   2
  -1  -3  -9 14317.4 219.988   1
  -1  -3  -9 14261.8 264.243   2
  -1  -3 -10 5236.82 176.991   2
  -1  -3 -10 5244.54 145.914   1
  -1  -3 -11 453.911 83.8034   2
  -1  -3 -12 343.730 78.7992   2
  -1  -3 -13 29.0563 79.3536   2
  -1  -3 -14 319.003 89.5902   2
   1   4 -13 67.5707 66.1981   1
   1   4 -12 468.829 96.8495   1
   1   4 -11 278.332 72.6832   1
   1   4 -10 726.258 78.2236   2
   1   4 -10 694.562 87.7207   1
   1   4  -9 4505.71 167.962   1
   1   4  -9 4272.22 145.546   2
   1   4  -8 10844.5 207.098   2
   1   4  -8 11000.8 240.400   1
   1   4  -7 1992.71 105.225   1
   1   4  -7 1925.39 90.8292   2
   1   4  -6 18.0884 38.8000   2
   1   4  -6 8.46210 42.9166   1
   1   4  -5 762.521 62.9952   1
   1   4  -5 685.242 59.7673   0
   1   4  -5 704.836 57.9510   3
   1   4  -5 711.861 54.5883   2
   1   4  -4 21.4924 38.7902   3
   1   4  -4 21.3755 35.0953   0
   1   4  -4 22.3306 29.9398   2
   1   4  -4 19.7793 34.1445   1
   1   4  -3 1.55003 28.8365   2
   1   4  -3 14.2165 37.3371   3
   1   4  -3-5.18711 30.3954   0
   1   4  -3 3.11108 27.8959   1
   1   4  -2 82.8988 33.6359   2
   1   4  -2 79.7688 28.4504   0
   1   4  -2 96.1995 26.0588   1
   1   4  -2 95.8776 42.6854   3
   1   4  -1 509.577 51.7328   3
   1   4  -1 473.393 40.1143   0
   1   4  -1 496.482 31.4061   1
   1   4   0 566.084 26.0722   1
   1   4   0 554.585 42.4156   0
   1   4   0 598.278 53.3894   3
   1   4   1 16116.2 179.241   0
   1   4   1 16344.9 208.711   3
   1   4   2 2528.32 76.0529   0
   1   4   2 2667.56 90.0387   3
   1   4   3 10960.1 168.050   3
   1   4   3 10632.8 160.204   0
   1   4   4 11819.1 171.718   3
  -1  -4  -4 11590.9 85.9397   1
   1   4   4 11523.7 174.924   0
   1   4   5 489.556 54.9971   0
   1   4   5 556.876 46.0298   3
  -1  -4  -5 584.778 29.1377   1
  -1  -4  -6 135.361 24.1870   1
   1   4   6 214.120 34.2766   3
   1   4   6 171.354 51.1925   0
  -1  -4  -7 13.5544 65.9939   2
   1   4   7 13.2300 50.5792   0
  -1  -4  -8 5349.68 172.371   2
   1   4   8 5479.92 165.175   0
  -1  -4  -9 3977.53 155.312   2
  -1  -4 -10 2108.21 124.411   2
  -1  -4 -11 416.997 84.7922   2
  -1  -4 -12 416.963 85.7762   2
  -1  -4 -13 22.1684 74.2854   2
  -1  -4 -14 3618.80 188.301   2
   1   5 -12 40.3698 64.0844   1
   1   5 -11 9.01810 63.9012   1
   1   5 -10 1058.98 103.651   1
   1   5  -9 238.402 61.3492   2
   1   5  -9 349.804 73.4296   1
   1   5  -8 304.112 66.1749   2
   1   5  -8 372.327 72.8192   1
   1   5  -7 9.27034 53.7259   1
   1   5  -7-26.0048 49.6120   2
   1   5  -6 1461.28 85.9967   3
   1   5  -6 1373.02 80.7980   2
   1   5  -6 1501.55 87.6238   0
   1   5  -6 1610.41 91.7766   1
   1   5  -5 303.946 55.0305   3
   1   5  -5 204.325 44.1349   2
   1   5  -5 305.846 53.5997   0
   1   5  -5 281.261 47.4393   1
   1   5  -4 2933.34 109.106   3
   1   5  -4 2948.24 100.032   1
   1   5  -4 2935.04 100.661   2
   1   5  -4 3010.60 99.4284   0
   1   5  -3 660.477 51.1550   0
   1   5  -3 687.145 66.9124   3
   1   5  -3 767.024 52.4962   1
   1   5  -3 780.206 58.8178   2
   1   5  -2 2054.32 82.6307   2
   1   5  -2 2108.59 96.6247   3
   1   5  -2 2050.71 69.8286   1
   1   5  -2 2030.56 77.5684   0
   1   5  -1-14.8611 30.5863   0
   1   5  -1 0.21559 41.1334   3
   1   5  -1 10.9216 20.6284   1
   1   5   0 2030.94 91.7496   3
   1   5   0 2045.85 75.6704   0
   1   5   1 1169.13 74.3335   3
   1   5   1 1148.03 59.6475   0
   1   5   2 12.9125 32.4747   0
   1   5   2 9.25967 41.8174   3
   1   5   3 8230.63 152.208   0
   1   5   3 8631.01 172.016   3
   1   5   4 32704.7 321.644   3
   1   5   4 32351.4 312.427   0
   1   5   5 168.816 41.9911   3
   1   5   5 162.467 48.1474   0
   1   5   6 532.287 65.4263   0
   1   5   6 561.804 56.8338   3
   1   5   7 1307.96 91.9614   0
   1   5   8 2935.92 128.396   0
  -1  -5  -8 2988.82 142.537   2
   1   5   9 247.622 70.3716   0
  -1  -5  -9 341.961 79.8452   2
   1   5  10 824.098 95.2790   0
  -1  -5 -10 711.222 100.270   2
  -1  -5 -11 23.4566 65.1853   2
   1   5  11-17.6988 74.0968   0
  -1  -5 -12 1615.43 129.122   2
   1   5  12 1789.75 135.168   0
  -1  -5 -13 84.0824 80.2195   2
   1   5  13 24.3904 86.5545   0
   1   6 -11 207.276 68.7774   1
   1   6 -10 14.6221 66.4857   1
   1   6  -9 71.9048 58.1243   2
   1   6  -9 84.8390 68.9277   1
   1   6  -8 5573.23 184.317   1
   1   6  -8 5431.96 168.015   2
   1   6  -7 3631.87 137.190   3
   1   6  -7 3526.62 144.885   1
   1   6  -7 3617.84 137.346   2
   1   6  -6 3550.84 128.996   0
   1   6  -6 3616.35 134.082   3
   1   6  -6 3536.18 129.356   2
   1   6  -6 3618.02 133.680   1
   1   6  -5 392.843 65.8894   3
   1   6  -5 391.615 62.2121   2
   1   6  -5 356.838 52.7789   0
   1   6  -5 367.095 55.9979   1
   1   6  -4 135.164 41.0376   1
   1   6  -4 105.799 53.1852   3
   1   6  -4 123.262 50.0009   2
   1   6  -4 138.956 45.2082   0
   1   6  -3 179.965 41.0120   1
   1   6  -3 211.647 45.4338   0
   1   6  -3 232.197 62.6726   3
   1   6  -3 225.790 49.8846   2
   1   6  -2 114.278 39.3024   0
   1   6  -2 96.9121 59.3173   3
   1   6  -2 163.695 34.0289   1
   1   6  -1 813.845 80.5947   3
   1   6  -1 690.795 56.8419   0
   1   6   0 16.4700 55.5367   3
   1   6   0 13.3419 36.1902   0
   1   6   1 2400.57 112.592   3
   1   6   1 2379.67 90.2958   0
   1   6   2 317.907 46.5898   0
   1   6   2 303.318 63.1293   3
   1   6   3 1404.44 77.1610   0
   1   6   3 1536.51 91.5762   3
   1   6   4 3789.43 120.296   0
   1   6   4 3954.35 134.386   3
   1   6   5 586.134 64.6676   0
   1   6   5 523.911 64.0622   3
   1   6   6 2392.73 109.352   0
   1   6   6 2543.90 105.715   3
   1   6   7 2222.66 113.774   0
   1   6   7 2303.40 102.940   3
   1   6   8 351.878 72.8333   0
   1   6   9 101.258 63.3023   0
  -1  -6  -9 130.600 78.9919   2
   1   6  10-21.4497 69.7394   0
  -1  -6 -10 52.8922 73.6273   2
  -1  -6 -11-7.14179 80.3029   2
   1   6  11 49.2790 72.7820   0
   1   6  12-31.4398 70.6418   0
  -1  -6 -12 83.0297 82.1535   2
   1   6  13 156.480 86.8140   0
  -1  -6 -13 192.146 89.7786   2
   1   7 -11-15.8311 96.9289   1
   1   7 -10-20.7786 75.5937   1
   1   7  -9 183.339 74.5217   1
   1   7  -8 347.091 67.3832   2
   1   7  -8 540.185 82.5688   1
   1   7  -7 85.0430 55.6790   2
   1   7  -7 109.513 59.9912   3
   1   7  -7 34.8170 60.3172   1
   1   7  -7 146.421 61.7093   0
   1   7  -6 47.3088 56.3103   2
   1   7  -6-13.7836 58.6647   3
   1   7  -6-15.7624 45.6243   0
   1   7  -6 11.1527 45.4444   1
   1   7  -5 107.364 56.9240   2
   1   7  -5 37.1289 43.7619   1
   1   7  -5 61.0676 62.2106   3
   1   7  -5 109.154 50.3140   0
   1   7  -4 872.243 69.2704   1
   1   7  -4 742.634 69.9496   0
   1   7  -4 896.817 85.2027   3
   1   7  -4 777.136 77.4726   2
   1   7  -3 40.3000 65.7659   3
   1   7  -3 0.00000 36.6238   1
   1   7  -3 14.8886 43.0255   0
   1   7  -2 998.139 70.2913   0
   1   7  -2 1067.99 95.5121   3
   1   7  -1 89.6938 45.1276   0
   1   7  -1 101.810 64.9531   3
   1   7   0-7.66975 43.7281   0
   1   7   0 24.3625 68.4891   3
   1   7   1 13397.2 266.753   3
   1   7   1 13777.9 223.891   0
   1   7   2 235.771 52.4809   0
   1   7   2 231.924 69.5402   3
   1   7   3 499.192 61.5007   0
   1   7   3 426.369 76.7550   3
   1   7   4 2718.69 111.566   0
   1   7   4 2766.17 128.441   3
   1   7   5-16.1560 54.6608   3
   1   7   5 62.1577 50.8914   0
   1   7   6 133.308 61.8240   0
   1   7   6 184.991 59.0315   3
   1   7   7 344.313 68.2701   0
   1   7   7 275.711 58.5666   3
   1   7   8 244.002 72.3991   0
   1   7   9 139.759 75.0774   0
   1   7  10 442.450 93.0193   0
  -1  -7 -10 433.565 88.1703   2
  -1  -7 -11 193.790 90.8178   2
   1   7  11 148.531 78.7794   0
   1   7  12 23.6167 73.4107   0
  -1  -7 -12 8.82267 78.0558   2
   1   8 -10 185.406 74.6309   1
   1   8  -9 31.4716 64.2535   1
   1   8  -8 239.520 61.2255   2
   1   8  -8 194.675 60.6681   1
   1   8  -7 144.465 70.5671   2
   1   8  -7 74.6053 63.1829   1
   1   8  -7 119.265 56.0114   0
   1   8  -7 126.582 61.4446   3
   1   8  -6 1378.26 109.019   3
   1   8  -6 1311.23 95.5030   1
   1   8  -6 1389.62 98.6529   0
   1   8  -6 1260.36 100.859   2
   1   8  -5 556.259 93.2727   3
   1   8  -5 586.511 70.9628   0
   1   8  -5 552.283 79.6851   2
   1   8  -4 490.052 88.6832   3
   1   8  -4 457.628 62.7584   0
   1   8  -3 339.846 59.2709   0
   1   8  -3 366.345 72.9885   3
   1   8  -2-1.93943 39.2023   0
   1   8  -2 34.2382 66.7972   3
   1   8  -1 922.330 72.5314   0
   1   8  -1 971.807 101.813   3
   1   8   0 3.63514 47.8814   0
   1   8   0 32.6361 76.7568   3
   1   8   1 4435.19 177.208   3
   1   8   1 3977.42 130.027   0
   1   8   2 2932.28 147.188   3
   1   8   2 3156.89 121.231   0
   1   8   3 386.299 83.3604   3
   1   8   3 337.800 59.1734   0
   1   8   4 6081.12 168.764   0
   1   8   4 6166.06 198.093   3
   1   8   5 37.6910 51.3954   0
   1   8   5 35.3676 63.4550   3
   1   8   6 5568.95 173.030   0
   1   8   6 5347.19 181.364   3
   1   8   7 1326.17 96.9803   3
   1   8   7 1322.51 100.453   0
   1   8   8-13.7017 60.6465   0
   1   8   9 310.735 76.1235   0
   1   8  10 80.2465 78.6920   0
  -1  -8 -10 55.2509 91.6520   2
   1   8  11 23.4547 71.5417   0
  -1  -8 -11 23.0907 89.7026   2
   1   9  -7 471.236 91.8428   2
   1   9  -6 93.2708 68.4043   3
   1   9  -5-10.7567 65.7285   3
   1   9  -4 932.899 114.716   3
   1   9  -3 99.0809 77.6668   3
   1   9  -2 246.287 85.5516   3
   1   9  -2 245.758 56.7899   0
   1   9  -1 922.035 110.656   3
   1   9  -1 885.690 75.0998   0
   1   9   0 152.432 86.0850   3
   1   9   0 122.052 56.4082   0
   1   9   1 4000.05 180.674   3
   1   9   1 3873.77 139.253   0
   1   9   2 3928.01 176.524   3
   1   9   2 4183.57 146.905   0
   1   9   3 93.9540 82.4980   3
   1   9   3 149.858 53.9843   0
   1   9   4 1511.55 99.7566   0
   1   9   4 1507.24 124.928   3
   1   9   5 60.7708 61.2787   0
   1   9   5 5.43150 63.7767   3
   1   9   6 892.401 88.9039   0
   1   9   6 930.004 100.845   3
   1   9   7 7.35298 54.8873   3
   1   9   7 99.4243 63.1956   0
   1   9   8-16.8945 68.4299   0
   1   9   9 25.0530 68.7970   0
   1   9  10 609.999 89.7909   0
   1  10  -6 108.350 74.4849   3
   1  10  -5 19.2523 90.8066   3
   1  10  -4 98.1517 75.5050   3
   1  10  -3-30.1463 72.3239   3
   1  10  -2 43.5456 82.4214   3
   1  10  -1 280.933 95.1342   3
   1  10   0 723.627 111.029   3
   1  10   1 140.254 92.8130   3
   1  10   2 16.7388 115.904   3
   1  10   3 403.437 94.1505   3
   1  10   4 137.267 51.6087   0
   1  10   4 73.4288 76.1015   3
   1  10   5 612.095 79.4816   0
   1  10   5 674.424 103.918   3
   1  10   6 560.930 102.705   3
   1  10   6 580.168 84.3836   0
   1  10   7 267.786 75.1947   0
   1  10   8 106.506 64.8257   0
   1  10   9 567.588 98.5546   0
   1  11  -5-41.5458 85.1636   3
   1  11  -4 275.526 97.9413   3
   1  11  -3 552.057 108.075   3
   1  11  -2-23.6600 81.1158   3
   1  11  -1 12.4092 88.1420   3
   1  11   0 489.624 102.744   3
   1  11   1 79.4528 81.3243   3
   1  11   2-151.641 89.4658   3
   1  11   3 41.9336 82.2878   3
   1  11   4 740.111 102.290   3
   1  11   5 324.703 91.7499   3
   1  11   6 450.814 100.266   3
  -2  10   5 251.296 106.106   3
  -2  10   4-24.3284 76.7818   3
  -2  10   3 147.050 77.1322   3
  -2  10   2-54.2802 98.3938   3
  -2  10   1 82.1820 99.8088   3
  -2  10   0 250.781 102.389   3
  -2  10  -1 74.9986 93.2272   3
  -2  10  -2 84.8156 104.645   3
  -2  10  -3-1.66687 88.5124   3
  -2  10  -4-75.2141 82.0465   3
  -2  10  -5 738.935 105.017   3
  -2   9   7 134.791 75.2761   3
  -2   9   6-2.52259 75.9110   3
  -2   9   5 172.883 72.3436   3
  -2   9   4 2.01182 79.5232   3
  -2   9   3 118.572 67.2522   3
  -2   9   2 43.2905 84.6634   3
  -2   9   1 292.009 88.9097   3
  -2   9   0 461.536 99.4790   3
  -2   9  -1 95.8840 85.0066   3
  -2   9  -2 677.200 105.620   3
  -2   9  -3 488.412 97.0010   3
  -2   9  -4 69.1810 85.4527   3
  -2   9  -5 429.833 104.457   2
  -2   9  -5 459.452 90.2708   3
  -2   9  -6 1071.77 132.593   2
  -2   8   7 100.119 64.6802   3
  -2   8   6 181.422 88.3959   3
  -2   8   5 15.7999 84.3249   3
  -2   8   4 121.841 71.0353   3
  -2   8   3-37.5917 82.9610   3
  -2   8   2 4.54060 74.5874   3
  -2   8   1 1137.11 114.080   3
  -2   8   0 135.233 78.8429   3
  -2   8  -1 685.551 101.223   3
  -2   8  -2 5983.11 211.471   3
  -2   8  -3 228.481 83.5350   3
  -2   8  -4 500.786 88.5572   2
  -2   8  -4 482.644 87.0308   3
  -2   8  -5 1281.27 110.053   3
  -2   8  -5 1235.15 110.679   2
  -2   8  -6 1704.58 137.215   2
  -2   8  -6 1860.94 127.274   3
  -2   8  -7 372.550 82.7837   2
  -2   8  -8 949.876 120.653   2
   2  -7 -11 58.8308 88.0131   2
  -2   7   7 14.0630 56.6637   3
  -2   7   6 163.583 69.6203   3
  -2   7   5 292.965 79.3365   3
  -2   7   4 4089.09 174.626   3
  -2   7   3 739.803 97.3906   3
  -2   7   2 9108.75 246.561   3
  -2   7   1-40.5135 67.3092   3
  -2   7   0-36.1029 70.9625   3
  -2   7  -1 8015.60 232.640   3
  -2   7  -2 1633.95 114.572   2
  -2   7  -2 1657.41 120.819   3
  -2   7  -3 4227.47 170.901   3
  -2   7  -3 4308.30 169.944   2
  -2   7  -4 114.264 71.9890   2
  -2   7  -4 138.423 67.7158   3
  -2   7  -5 362.380 76.7975   3
  -2   7  -5 350.953 79.5921   2
  -2   7  -6 665.398 84.6525   3
  -2   7  -6 799.785 100.903   2
  -2   7  -7-1.73783 64.5812   2
  -2   7  -8 1036.86 111.314   2
  -2   7  -9 125.801 80.2406   2
  -2   7 -10 34.1842 89.9471   2
  -2   6  12 22.2834 82.2587   0
  -2   6  11 12.0233 68.5421   0
   2  -6 -11 32.8134 75.6503   2
  -2   6  10-38.9462 57.4188   0
  -2   6   9 36.4738 57.2976   0
  -2   6   8-5.17122 52.2960   0
  -2   6   7 258.663 54.2477   0
  -2   6   7 250.600 64.3049   3
  -2   6   6 128.934 57.6303   3
  -2   6   6 166.530 52.8243   0
  -2   6   5 1542.49 109.701   3
  -2   6   4 1653.23 115.550   3
  -2   6   3 8711.50 225.382   3
  -2   6   2 768.079 91.9900   3
  -2   6   1 6228.83 193.399   3
  -2   6   0 208.530 68.6906   3
  -2   6  -1 392.924 84.1543   3
  -2   6  -2 2988.72 130.989   2
  -2   6  -2 3210.83 140.806   3
  -2   6  -3 1253.08 99.6137   3
  -2   6  -3 1167.99 96.7482   2
  -2   6  -4 764.367 84.4604   2
  -2   6  -4 828.278 84.9444   3
  -2   6  -5 4583.41 155.008   3
  -2   6  -5 4937.52 175.022   2
  -2   6  -6 7957.76 202.812   3
  -2   6  -6 7558.50 217.213   2
  -2   6  -7 141.248 71.5639   2
  -2   6  -8 972.896 100.008   2
  -2   6  -9 690.142 95.7184   2
  -2   6 -10 240.982 72.2083   2
  -2   6 -11 274.765 100.241   2
   2  -5 -11 145.356 76.4094   2
   2  -5 -10 5.86348 68.4557   2
  -2   5   7 445.081 68.3827   3
  -2   5   6 683.837 74.2356   3
  -2   5   6 605.744 62.0192   0
   2  -5  -5 7503.96 146.128   1
  -2   5   5 7625.27 191.636   3
  -2   5   5 7613.95 154.523   0
  -2   5   4 3827.53 140.865   3
  -2   5   4 3787.79 101.212   0
   2  -5  -4 4069.55 110.082   1
  -2   5   3 990.220 51.8632   0
  -2   5   3 970.564 85.1969   3
   2  -5  -3 959.144 57.3627   1
  -2   5   2 19572.6 180.687   0
  -2   5   2 20156.7 298.471   3
  -2   5   1 12136.2 233.642   3
  -2   5   0 4107.79 141.998   3
  -2   5  -1 385.906 60.6726   2
  -2   5  -1 349.496 66.8663   3
  -2   5  -2 1304.30 87.6596   2
  -2   5  -2 1414.94 90.6033   3
  -2   5  -3 78.9484 57.3031   2
  -2   5  -3 50.4724 52.9497   3
  -2   5  -4 1082.52 90.4418   2
  -2   5  -4 1241.12 89.0828   3
  -2   5  -5 9292.20 219.022   2
  -2   5  -5 9582.41 203.332   3
  -2   5  -6 32298.7 411.004   2
  -2   5  -6 31165.1 347.021   3
  -2   5  -7 663.429 86.8520   2
  -2   5  -8 2235.68 134.396   2
  -2   5  -9 32.7180 72.9752   2
  -2   5 -10-8.09120 75.8841   2
  -2   5 -11 1919.79 140.489   2
  -2   5 -12 13.1722 92.0259   2
   2  -4 -11 251.466 70.5632   2
   2  -4 -10-27.6641 59.0890   2
   2  -4  -9 138.125 61.9657   2
   2  -4  -8 1346.76 74.1264   1
  -2   4   7 540.897 60.2247   3
   2  -4  -7 564.309 54.2286   1
  -2   4   6 650.029 70.4391   3
   2  -4  -6 636.142 54.7512   1
  -2   4   5 3285.39 119.280   3
   2  -4  -5 3216.89 97.2616   1
  -2   4   4 799.846 70.3201   3
   2  -4  -4 787.638 52.2344   1
  -2   4   3 4358.63 133.031   3
  -2   4   3 4172.26 90.2927   0
   2  -4  -3 4097.38 99.5073   1
  -2   4   2 451.728 30.6832   0
  -2   4   2 372.658 60.1023   3
   2  -4  -2 386.393 38.5635   1
  -2   4   1 12500.8 115.308   0
  -2   4   1 11996.3 210.720   3
  -2   4   0 26969.9 305.676   3
  -2   4   0 26817.0 145.220   0
  -2   4   0 26508.3 290.619   2
  -2   4  -1 4317.86 127.668   3
  -2   4  -1 4099.27 121.523   2
  -2   4  -1 4091.05 52.9514   0
  -2   4  -2 22147.3 276.385   3
  -2   4  -2 21890.2 274.712   2
  -2   4  -3 425.865 56.3948   2
  -2   4  -3 406.081 55.3374   3
  -2   4  -4 1072.73 80.2615   2
  -2   4  -4 1294.73 78.1557   3
  -2   4  -5 16799.5 270.069   2
  -2   4  -5 17159.8 244.326   3
  -2   4  -6 121.566 65.2106   2
  -2   4  -6 84.9443 44.7485   3
  -2   4  -7 10715.7 242.854   2
  -2   4  -8 2127.36 125.126   2
  -2   4  -9 4775.83 181.097   2
  -2   4 -10 942.046 100.059   2
  -2   4 -11-24.0212 75.5916   2
  -2   4 -12-2.41926 88.4654   2
  -2   4 -13 36.7186 90.7517   2
   2  -3 -11-32.4622 42.8941   1
   2  -3 -10 23.5340 41.1292   1
   2  -3 -10 34.5133 57.1208   2
   2  -3  -9 268.666 51.6723   1
   2  -3  -9 293.122 66.1250   2
   2  -3  -8 1006.96 69.7933   1
   2  -3  -8 1109.93 81.7187   2
  -2   3   7 1262.95 74.6999   3
   2  -3  -7 1141.54 68.4555   1
  -2   3   6 2923.70 102.723   3
   2  -3  -6 2846.68 97.5739   1
  -2   3   5 392.325 52.3938   3
   2  -3  -5 412.025 45.4133   1
   2  -3  -4 37.9675 26.8717   1
  -2   3   4 40.2845 41.2433   3
  -2   3   3 1089.78 68.6354   3
   2  -3  -3 1055.75 51.9178   1
  -2   3   2 2706.38 96.3777   3
   2  -3  -2 2658.73 78.3329   1
  -2   3   1 10619.7 92.5967   0
  -2   3   1 10305.7 174.032   3
  -2   3   0 10813.4 176.276   3
  -2   3   0 10598.5 163.243   2
  -2   3  -1 35678.1 312.168   3
  -2   3  -1 35041.3 301.425   2
  -2   3  -2 1391.63 71.7933   3
  -2   3  -2 1333.40 70.8487   2
  -2   3  -3 14683.6 214.569   2
  -2   3  -3 14956.3 201.377   3
  -2   3  -4 1659.77 86.5366   2
  -2   3  -4 1672.51 74.1178   3
  -2   3  -5 16431.2 248.254   2
  -2   3  -5 17347.5 215.284   3
  -2   3  -6 12519.9 232.284   2
  -2   3  -6 12791.3 185.921   3
  -2   3  -7 9819.56 218.633   2
  -2   3  -8 3.76386 60.7644   2
  -2   3  -9 4381.47 166.491   2
  -2   3 -10 485.265 87.0389   2
  -2   3 -11-8.38555 68.1162   2
  -2   3 -12 917.611 110.890   2
  -2   3 -13 284.533 94.7074   2
   2  -2 -13 642.563 81.7730   1
   2  -2 -12 13.2113 49.7223   1
   2  -2 -11-25.6849 53.4646   1
   2  -2 -10 498.700 66.5819   2
   2  -2 -10 539.663 69.0799   1
   2  -2  -9 9.76043 50.6678   2
   2  -2  -9 21.2867 46.6093   1
   2  -2  -8 295.839 53.8212   2
   2  -2  -8 249.824 53.8349   1
   2  -2  -7 4073.38 115.652   2
  -2   2   7 4194.70 111.519   3
   2  -2  -7 4081.55 118.145   1
  -2   2   6 3832.69 106.308   3
   2  -2  -6 3738.24 110.429   1
  -2   2   5 11634.0 175.249   3
   2  -2  -5 11761.7 179.042   1
   2  -2  -4 22041.7 225.324   1
  -2   2   4 22395.9 239.881   3
  -2   2   3 49082.7 346.789   3
   2  -2  -3 50051.2 326.004   1
  -2   2   2 18674.4 212.223   3
   2  -2  -2 18652.8 191.160   1
  -2   2   1 50810.3 342.081   3
  -2   2   0 3.95307 28.9909   2
  -2   2   0-3.21991 29.9785   3
  -2   2  -1 24507.4 220.237   2
  -2   2  -1 24478.2 230.018   3
  -2   2  -2 28542.0 246.161   3
  -2   2  -2 28328.3 252.777   2
  -2   2  -3 43691.1 332.405   2
  -2   2  -3 43853.7 298.511   3
  -2   2  -4 7754.00 153.490   2
  -2   2  -4 7775.85 127.873   3
  -2   2  -5 1557.32 80.7456   2
  -2   2  -5 1643.69 61.0307   3
  -2   2  -6 4191.30 91.9211   3
  -2   2  -6 3815.94 127.280   2
  -2   2  -7 5416.07 157.410   2
  -2   2  -8 421.336 71.6690   2
  -2   2  -9 12769.2 256.812   2
  -2   2  -9 13018.3 263.864   1
  -2   2 -10 2082.71 118.940   2
  -2   2 -10 1933.02 119.549   1
  -2   2 -11 53.6893 67.8303   2
  -2   2 -11 18.0553 57.8153   1
  -2   2 -12 206.253 79.6386   2
  -2   2 -13 543.006 95.9101   2
  -2   2 -14 99.2015 83.1068   2
   2  -1 -14 36.4719 63.8173   1
   2  -1 -13 1205.32 111.676   1
   2  -1 -12 14.0492 52.4458   1
   2  -1 -11 20.6119 48.3832   1
   2  -1 -10 848.169 81.5349   1
   2  -1  -9 3779.78 121.087   2
   2  -1  -9 3689.31 137.075   1
   2  -1  -8 6.55352 45.1898   1
   2  -1  -8 54.2945 43.7991   2
   2  -1  -7 2095.24 91.4839   1
   2  -1  -7 2054.25 80.2049   2
  -2   1   7 2118.77 76.1743   3
   2  -1  -6 151.015 39.6547   1
   2  -1  -6 157.140 35.3588   2
  -2   1   6 176.473 34.8882   3
   2  -1  -5 1563.78 70.9384   1
  -2   1   5 1451.56 65.1336   3
  -2   1   4 16129.5 187.951   3
   2  -1  -4 16353.7 195.568   1
  -2   1   3 76926.1 397.234   3
   2  -1  -3 76330.2 391.089   1
   2  -1  -2 2507.95 68.0848   1
  -2   1   2 2522.46 75.7722   3
  -2   1   1 40.1323 29.7718   3
  -2   1   1 143.074 22.6693   2
  -2   1   0 1651.49 48.9626   2
  -2   1   0 1616.87 62.7671   3
  -2   1  -1 6956.75 103.721   2
  -2   1  -1 6786.21 110.633   3
  -2   1  -2 10182.9 136.844   2
  -2   1  -2 10375.5 131.100   3
   2  -1   2 10243.9 76.4408   0
  -2   1  -3 75360.5 395.904   2
  -2   1  -3 74613.1 338.961   3
  -2   1  -4 3530.70 98.1380   2
  -2   1  -4 3697.13 77.1085   3
  -2   1  -5 1.07753 39.3862   2
  -2   1  -5-0.60359 19.4062   3
  -2   1  -6 265.656 54.2312   2
  -2   1  -6 247.276 24.8994   3
  -2   1  -7 10248.0 202.121   2
  -2   1  -7 10384.0 201.613   1
  -2   1  -8 488.162 65.8117   1
  -2   1  -8 454.307 72.6292   2
  -2   1  -9 3342.24 136.855   2
  -2   1  -9 3584.73 138.188   1
  -2   1 -10 628.484 82.6879   2
  -2   1 -10 656.519 74.8001   1
  -2   1 -11 33.5461 69.9753   2
  -2   1 -11 100.937 60.9097   1
  -2   1 -12 194.932 68.0676   2
  -2   1 -12 250.298 63.6767   1
  -2   1 -13 845.834 100.086   2
  -2   1 -13 727.918 93.7157   1
  -2   1 -14-95.1321 69.2058   2
   2   0 -14 145.509 65.8803   1
   2   0 -13 1097.25 109.681   1
   2   0 -12-26.3241 64.4752   1
   2   0 -11 493.574 71.8036   1
   2   0 -10 2691.19 130.616   1
   2   0  -9 3458.38 113.609   2
   2   0  -9 3445.30 137.495   1
   2   0  -8 380.458 59.0879   1
   2   0  -8 348.312 46.9144   2
   2   0  -7 1640.43 68.7803   2
  -2   0   7 1603.95 67.1505   3
   2   0  -7 1719.42 87.8556   1
   2   0  -6 4713.32 98.6266   2
  -2   0   6 4629.86 104.427   3
   2   0  -6 4494.78 118.536   1
   2   0  -5 7122.56 106.525   2
   2   0  -5 7081.24 139.451   1
   2   0  -4 0.81492 18.5743   2
   2   0  -4 722.946 50.0589   1
   2   0  -3 121235. 484.347   1
   2   0  -2 110.563 21.9654   0
   2   0  -2 150.745 26.0000   1
   2   0  -1 118232. 323.036   0
  -2   0   1 117370. 258.312   2
   2   0  -1 116090. 414.405   1
  -2   0   0 55083.2 208.713   2
   2   0   0 54417.3 192.625   0
   2   0   1 97989.1 250.309   0
  -2   0  -1 98536.6 330.576   2
  -2   0  -2 1133.38 47.1346   2
   2   0   2 1146.98 33.7271   0
  -2   0  -2 1178.41 47.0019   3
  -2   0  -3 29775.5 189.721   3
  -2   0  -3 29042.7 229.455   2
  -2   0  -4 1672.70 69.1817   2
  -2   0  -4 1757.77 47.6824   3
  -2   0  -5 41337.0 333.112   2
  -2   0  -5 41928.7 197.608   3
  -2   0  -6 1777.72 85.5935   2
  -2   0  -6 1856.89 38.2131   3
  -2   0  -6 1847.46 80.3975   1
  -2   0  -7 16272.9 245.751   2
  -2   0  -7 16432.1 241.340   1
  -2   0  -8 1007.94 76.5193   1
  -2   0  -8 1030.05 82.8072   2
  -2   0  -9 913.860 86.8971   2
  -2   0  -9 956.501 79.7030   1
  -2   0 -10 196.816 68.0297   2
  -2   0 -10 200.553 58.0469   1
  -2   0 -11 186.741 70.6123   2
  -2   0 -11 164.891 54.6876   1
  -2   0 -12 27.9269 71.3912   2
  -2   0 -12 49.4700 55.1108   1
  -2   0 -13 818.582 104.575   2
  -2   0 -13 645.994 84.3362   1
  -2   0 -14 110.969 75.5840   2
  -2   0 -14-176.783 67.0428   1
   2   1 -13 1077.88 114.926   1
   2   1 -12 1001.36 131.925   1
   2   1 -11 78.5923 65.8466   1
   2   1 -10-12.2598 57.0049   1
   2   1  -9 17659.4 237.563   2
   2   1  -9 18246.3 301.435   1
   2   1  -8 2214.06 85.0580   2
   2   1  -8 2255.70 107.483   1
   2   1  -7 3266.97 118.950   1
   2   1  -7 3137.10 88.0400   2
   2   1  -6 1606.16 59.4460   2
   2   1  -6 1517.71 78.5378   1
   2   1  -5 3351.92 70.2996   2
   2   1  -5 3105.32 94.4302   1
   2   1  -4 1625.41 42.6592   2
   2   1  -4 1650.87 66.3184   1
   2   1  -3 131587. 488.706   0
   2   1  -3 131576. 272.164   2
   2   1  -3 128753. 516.550   1
   2   1  -2 9940.04 128.871   1
   2   1  -2 9450.18 119.699   0
   2   1  -1 211807. 498.336   0
   2   1  -1 210375. 541.281   1
  -2  -1   0 55213.3 171.279   2
   2   1   0 54904.4 239.130   0
   2   1   0 54271.2 253.746   1
  -2  -1  -1 65214.4 249.185   2
   2   1   1 65378.5 258.909   0
   2   1   2 59013.5 263.473   0
  -2  -1  -2 60667.5 286.685   2
  -2  -1  -3 37.0763 23.5916   2
   2   1   3 23.9294 19.1975   0
  -2  -1  -4 67891.2 380.719   2
  -2  -1  -5 3494.88 101.461   2
  -2  -1  -6 6107.98 60.5195   3
  -2  -1  -6 6147.29 141.793   2
  -2  -1  -6 6336.81 132.825   1
  -2  -1  -7 33764.0 346.729   2
  -2  -1  -7 34809.7 330.630   1
  -2  -1  -8 13.2982 56.9255   2
  -2  -1  -8-9.03485 37.8951   1
  -2  -1  -9 1968.06 112.247   2
  -2  -1  -9 1956.56 101.211   1
  -2  -1 -10 68.2991 64.4764   2
  -2  -1 -10 125.325 46.1516   1
  -2  -1 -11 672.616 89.8365   2
  -2  -1 -11 695.821 76.3402   1
  -2  -1 -12-11.8664 68.8123   2
  -2  -1 -12-0.36226 50.6204   1
  -2  -1 -13 300.700 83.5375   2
  -2  -1 -13 288.926 67.6390   1
  -2  -1 -14 1113.46 99.4501   1
  -2  -1 -14 929.748 108.397   2
   2   2 -13 379.124 86.5033   1
   2   2 -12 522.611 82.2236   1
   2   2 -11 303.146 71.4871   1
   2   2 -10 3346.04 152.259   1
   2   2  -9 9997.09 232.863   1
   2   2  -8 43.6042 37.6425   2
   2   2  -8 60.3867 52.1276   1
   2   2  -7 820.545 51.0019   2
   2   2  -7 856.204 74.1698   1
   2   2  -6 3285.72 113.747   1
   2   2  -6 3077.80 78.8045   2
   2   2  -5 23103.3 264.951   1
   2   2  -5 23433.3 184.693   2
   2   2  -4 4606.42 74.0343   2
   2   2  -4 4615.76 109.672   0
   2   2  -4 4709.82 111.353   1
   2   2  -3 2705.92 47.4978   2
   2   2  -3 2507.04 76.6552   0
   2   2  -3 2484.62 73.5855   1
   2   2  -2 28544.6 222.341   0
   2   2  -2 29395.7 223.686   1
   2   2  -2 29130.0 125.767   2
   2   2  -1 111000. 387.378   1
   2   2  -1 112778. 413.873   0
   2   2   0 294195. 2282.32   1
   2   2   0 322478. 673.143   0
   2   2   1 171453. 493.733   0
   2   2   2 2175.69 62.7327   0
  -2  -2  -2 2225.04 62.8888   2
   2   2   3 125.675 27.0731   0
  -2  -2  -3 137.577 33.9817   2
  -2  -2  -4 2351.69 82.1288   2
   2   2   4 2314.20 74.1214   0
  -2  -2  -5 1164.53 67.3789   2
   2   2   5 1178.09 61.5861   0
  -2  -2  -6 4355.66 101.950   1
  -2  -2  -6 4107.16 122.184   2
  -2  -2  -7 9437.81 165.121   1
  -2  -2  -7 8711.13 185.928   2
  -2  -2  -8 13506.6 214.944   1
  -2  -2  -8 13123.7 237.448   2
  -2  -2  -9 1179.71 77.5318   1
  -2  -2  -9 1078.84 91.0422   2
  -2  -2 -10 1023.54 91.7738   2
  -2  -2 -10 1069.52 82.0053   1
  -2  -2 -11 4832.46 179.499   2
  -2  -2 -11 4883.87 159.125   1
  -2  -2 -12 4.06538 42.7860   1
  -2  -2 -12-4.02436 71.3832   2
  -2  -2 -13-17.7425 80.0955   2
  -2  -2 -14 189.185 94.5332   2
   2   3 -13 63.7949 85.1808   1
   2   3 -12 217.862 71.8426   1
   2   3 -11 412.776 83.1495   1
   2   3 -10 1706.95 117.908   1
   2   3  -9 2063.75 119.204   1
   2   3  -8 92.8720 61.7544   1
   2   3  -8 101.986 40.2838   2
   2   3  -7 3186.38 95.5666   2
   2   3  -7 3234.30 126.067   1
   2   3  -6 31437.8 258.720   2
   2   3  -6 30437.9 335.142   1
   2   3  -5 3882.85 86.5429   2
   2   3  -5 4040.89 117.916   1
   2   3  -5 3691.61 114.719   0
   2   3  -4 5407.61 91.6079   2
   2   3  -4 5226.08 122.096   0
   2   3  -4 5576.46 126.265   1
   2   3  -3 342.552 42.5234   0
   2   3  -3 308.812 36.7371   1
   2   3  -3 301.221 26.6886   2
   2   3  -2 50765.0 294.121   1
   2   3  -2 52195.9 328.873   0
   2   3  -1 7189.28 120.576   0
   2   3  -1 7591.47 100.374   1
   2   3   0 19657.4 193.737   0
   2   3   0 20344.7 147.216   1
   2   3   1 79015.4 378.480   0
   2   3   1 78781.8 245.703   1
   2   3   2 1148.05 53.6695   0
   2   3   3 12626.4 165.136   0
  -2  -3  -4 1677.26 75.6605   2
   2   3   4 1550.15 69.6540   0
   2   3   5 11359.4 178.998   0
  -2  -3  -5 11928.2 194.127   2
  -2  -3  -6 1241.16 81.0829   2
   2   3   6 1260.33 74.5557   0
  -2  -3  -7 661.509 75.2800   2
   2   3   7 759.679 70.4993   0
  -2  -3  -7 834.283 51.5897   1
  -2  -3  -8 3281.64 136.617   2
   2   3   8 3474.55 131.780   0
  -2  -3  -8 3378.27 105.267   1
  -2  -3  -9 3094.91 140.989   2
  -2  -3  -9 3308.89 110.885   1
  -2  -3 -10 520.726 84.1315   2
  -2  -3 -11 1811.70 124.901   2
  -2  -3 -12-4.51117 72.7398   2
  -2  -3 -13 192.000 75.3345   2
  -2  -3 -14 140.783 77.5425   2
   2   4 -12 153.995 75.5368   1
   2   4 -11 2278.96 148.420   1
   2   4 -10 216.612 70.7479   1
   2   4  -9 2108.99 125.963   1
   2   4  -8-22.3706 53.8720   1
   2   4  -7 514.204 54.3865   2
   2   4  -7 530.042 67.8239   1
   2   4  -6 9922.13 160.674   2
   2   4  -6 9660.40 196.528   0
   2   4  -6 10291.0 204.313   1
   2   4  -5 18343.1 201.179   2
   2   4  -5 18654.9 253.556   1
   2   4  -5 18124.3 251.037   0
   2   4  -4 4222.79 117.958   0
   2   4  -4 4362.91 115.927   1
   2   4  -4 4255.20 94.8414   2
   2   4  -3 11741.3 146.330   2
   2   4  -3 11486.7 167.050   1
   2   4  -3 10889.1 171.766   0
   2   4  -2 16263.9 177.756   1
   2   4  -2 16570.1 221.560   3
   2   4  -2 16474.2 204.622   0
   2   4  -1 4990.61 113.647   0
   2   4  -1 4846.40 121.062   3
   2   4  -1 4956.33 86.9033   1
   2   4   0 14715.3 125.431   1
   2   4   0 14586.6 200.879   3
   2   4   0 14783.8 185.280   0
   2   4   1 19084.1 110.064   1
   2   4   1 18653.9 223.472   3
   2   4   1 18707.6 207.006   0
   2   4   2 1.18504 32.3783   0
   2   4   2 41.4936 37.7320   3
   2   4   3 14690.4 193.939   0
   2   4   3 14483.1 191.800   3
   2   4   4 4844.89 121.169   0
   2   4   4 4722.89 111.487   3
   2   4   5 16598.3 229.270   0
   2   4   5 16547.5 196.117   3
   2   4   6 731.283 47.9912   3
   2   4   6 665.210 67.9289   0
  -2  -4  -6 677.950 74.6454   2
   2   4   7-3.14869 54.3910   0
  -2  -4  -7-11.6162 65.4557   2
  -2  -4  -8 9120.89 219.950   2
   2   4   8 9223.69 209.292   0
   2   4   9 491.846 80.6846   0
  -2  -4  -9 354.546 79.1655   2
  -2  -4 -10 2599.76 142.572   2
   2   4  10 2335.98 131.411   0
  -2  -4 -11 841.457 101.032   2
   2   4  11 818.077 99.8470   0
  -2  -4 -12 152.664 80.2067   2
   2   4  12 123.685 81.8497   0
   2   4  13 40.2626 83.0980   0
  -2  -4 -13-52.4646 86.7080   2
  -2  -4 -14 140.599 90.0618   2
   2   5 -12 52.3456 69.0344   1
   2   5 -11 400.911 96.1182   1
   2   5 -10 1620.44 118.899   1
   2   5  -9 291.317 77.7985   1
   2   5  -8 2828.61 137.184   1
   2   5  -7 7566.25 161.211   2
   2   5  -7 7503.38 196.706   1
   2   5  -7 7072.96 184.797   0
   2   5  -6 4845.60 124.430   2
   2   5  -6 4820.84 149.471   0
   2   5  -6 4872.95 151.253   1
   2   5  -5 487.600 58.2008   1
   2   5  -5 453.510 55.9993   0
   2   5  -5 410.530 46.9133   2
   2   5  -4 470.117 57.9729   0
   2   5  -4 466.722 47.8865   2
   2   5  -4 422.641 50.4580   1
   2   5  -3 6947.76 164.454   3
   2   5  -3 6902.55 136.745   1
   2   5  -3 6698.88 147.495   0
   2   5  -2 11215.0 203.428   3
   2   5  -2 10510.2 178.349   0
   2   5  -2 11297.9 156.151   1
   2   5  -1 28697.8 218.262   1
   2   5  -1 28370.9 315.159   3
   2   5  -1 27960.7 283.029   0
   2   5   0 37393.1 357.557   3
   2   5   0 38035.1 214.210   1
   2   5   0 37004.2 317.940   0
   2   5   1 2629.17 42.5038   1
   2   5   1 2673.20 94.4970   0
   2   5   1 2666.20 104.795   3
   2   5   2 13741.3 214.948   3
   2   5   2 13573.3 199.707   0
   2   5   3 7931.52 163.034   3
   2   5   3 7517.61 154.638   0
   2   5   4 23952.3 277.783   0
   2   5   4 23335.1 268.887   3
   2   5   5 4482.76 133.630   0
   2   5   5 4669.14 123.973   3
   2   5   6-11.8880 52.2183   0
   2   5   6 8.66701 38.2047   3
  -2  -5  -7 1748.75 113.065   2
   2   5   7 1646.66 100.963   0
   2   5   8 1373.66 102.686   0
  -2  -5  -8 1298.83 112.138   2
  -2  -5  -9 1696.91 119.359   2
   2   5   9 1816.86 117.021   0
  -2  -5 -10 1110.19 105.371   2
   2   5  10 1069.84 102.751   0
   2   5  11 4.81926 71.9668   0
  -2  -5 -11 32.9408 87.5084   2
  -2  -5 -12 486.898 108.995   2
   2   5  12 415.770 84.0977   0
  -2  -5 -13 445.763 72.4843   2
   2   5  13 385.660 88.3810   0
   2   6 -11 292.095 90.9304   1
   2   6 -10 194.549 74.0666   1
   2   6  -9 45.1708 65.4365   1
   2   6  -8 9934.55 250.662   1
   2   6  -7 187.938 61.6316   1
   2   6  -7 172.696 69.3783   0
   2   6  -6 7885.67 194.490   1
   2   6  -6 7794.31 192.762   0
   2   6  -6 7779.43 171.120   2
   2   6  -5 225.102 50.1213   1
   2   6  -5 213.195 48.1036   2
   2   6  -5 215.420 55.8626   0
   2   6  -4 320.830 48.9440   1
   2   6  -4 296.499 48.8317   2
   2   6  -4 280.845 56.5930   0
   2   6  -4 319.718 67.8554   3
   2   6  -3 7156.44 183.847   3
   2   6  -3 7821.93 154.467   1
   2   6  -3 7159.30 164.244   0
   2   6  -2 2748.96 120.837   3
   2   6  -2 2818.38 87.7509   1
   2   6  -2 2493.61 100.378   0
   2   6  -1 9732.90 209.786   3
   2   6  -1 10001.7 137.619   1
   2   6  -1 9312.88 178.982   0
   2   6   0 2723.17 101.449   0
   2   6   0 2800.20 120.041   3
   2   6   0 3118.30 65.7936   1
   2   6   1 144.707 46.2225   0
   2   6   1 125.729 60.8485   3
   2   6   2 312.803 63.3235   3
   2   6   2 301.011 52.6935   0
   2   6   3 36.6704 53.1828   3
   2   6   3 39.2902 49.7240   0
   2   6   4 5320.37 145.869   0
   2   6   4 5658.80 155.562   3
   2   6   5 100.809 56.8736   0
   2   6   5 67.5041 49.6290   3
   2   6   6 223.015 54.4879   3
   2   6   6 232.750 63.4120   0
   2   6   7 768.870 81.4179   0
   2   6   8 407.505 75.8610   0
  -2  -6  -8 403.051 89.2535   2
   2   6   9 467.854 77.3410   0
  -2  -6  -9 418.663 90.5206   2
  -2  -6 -10 4.22467 86.8537   2
   2   6  10-12.4724 63.0777   0
   2   6  11 60.7616 80.7174   0
  -2  -6 -11 34.2251 78.9469   2
  -2  -6 -12 328.586 102.445   2
   2   6  12 331.439 88.0396   0
  -2  -6 -13 30.9352 80.8727   2
   2   7 -11 6.67559 77.7386   1
   2   7 -10 748.634 98.8891   1
   2   7  -9 143.058 60.1889   1
   2   7  -8 526.062 75.1180   1
   2   7  -7 8429.28 217.848   0
   2   7  -7 8854.18 221.819   1
   2   7  -6 2666.70 116.507   2
   2   7  -6 2596.31 119.116   1
   2   7  -6 2598.83 127.248   0
   2   7  -5 118.026 45.6077   1
   2   7  -5 40.1573 56.3565   0
   2   7  -5 78.6270 59.3052   3
   2   7  -5 70.7231 48.1232   2
   2   7  -4 3019.55 138.315   3
   2   7  -4 3118.45 111.971   1
   2   7  -4 2927.15 119.502   0
   2   7  -3 1006.08 96.3915   3
   2   7  -3 1034.07 65.7455   1
   2   7  -3 954.934 77.5692   0
   2   7  -2 2174.61 126.302   3
   2   7  -2 1928.70 95.7582   0
   2   7  -1 48.8379 46.6960   0
   2   7  -1 9.50031 66.4293   3
   2   7   0 820.695 91.4322   3
   2   7   0 851.067 70.3488   0
   2   7   1 1893.79 96.6393   0
   2   7   1 1786.93 110.911   3
   2   7   2-15.9440 60.0901   3
   2   7   2 13.0393 47.0838   0
   2   7   3 2092.64 104.388   0
   2   7   3 2339.14 120.865   3
   2   7   4 1229.28 86.5887   0
   2   7   4 1193.19 92.0926   3
   2   7   5 96.3596 55.2071   0
   2   7   5 102.455 53.8203   3
   2   7   6 93.4099 53.9174   0
   2   7   6 92.3048 56.2195   3
   2   7   7 399.132 71.5879   0
   2   7   8 220.002 75.7596   0
   2   7   9 674.813 89.8988   0
  -2  -7  -9 638.497 104.295   2
   2   7  10 189.781 79.7734   0
  -2  -7 -10 390.867 95.3967   2
   2   7  11 537.285 96.2158   0
  -2  -7 -11 471.806 94.3201   2
   2   7  12 80.7596 77.9731   0
  -2  -7 -12-71.6628 81.5424   2
   2   8 -10 143.976 71.9411   1
   2   8  -9 42.8547 62.9814   1
   2   8  -8 1647.02 116.854   1
   2   8  -7 219.781 62.5553   1
   2   8  -7 182.970 65.3710   0
   2   8  -6 1279.63 110.865   3
   2   8  -6 1338.60 94.4807   1
   2   8  -6 1278.52 101.653   0
   2   8  -5 133.060 75.5394   3
   2   8  -5 213.193 67.5043   0
   2   8  -4 2381.06 116.284   0
   2   8  -4 2268.62 133.260   3
   2   8  -3 879.599 100.288   3
   2   8  -3 828.094 77.2967   0
   2   8  -2 42.6317 73.2318   3
   2   8  -2 0.00000 47.2384   0
   2   8  -1-30.8902 56.1082   0
   2   8  -1 76.9178 73.0638   3
   2   8   0 11741.0 273.083   3
   2   8   0 11776.2 231.511   0
   2   8   1 6133.52 201.775   3
   2   8   1 5917.40 168.692   0
   2   8   2 6125.07 201.505   3
   2   8   2 6265.34 175.432   0
   2   8   3 406.183 66.7609   0
   2   8   3 398.498 80.1152   3
   2   8   4 2873.77 126.273   0
   2   8   4 2872.61 138.834   3
   2   8   5 1339.11 102.933   3
   2   8   5 1391.33 96.9613   0
   2   8   6 329.700 69.1981   3
   2   8   6 340.888 72.3886   0
   2   8   7 16.9735 56.0598   0
   2   8   8 72.7764 70.4394   0
  -2  -8  -9 189.821 85.5189   2
   2   8   9 229.740 81.6564   0
  -2  -8 -10 391.912 105.585   2
   2   8  10 414.411 86.4861   0
  -2  -8 -11 121.389 116.494   2
   2   8  11 133.318 81.6494   0
   2   9  -7 123.068 69.1672   0
   2   9  -6 2265.53 139.979   3
   2   9  -6 2235.87 131.352   0
   2   9  -5 534.627 71.8104   0
   2   9  -5 461.233 86.4163   3
   2   9  -4 8704.40 257.227   3
   2   9  -4 8881.28 222.172   0
   2   9  -3 60.2751 73.8386   3
   2   9  -3-5.93660 58.2823   0
   2   9  -2 983.738 113.430   3
   2   9  -2 934.297 81.0045   0
   2   9  -1 134.611 85.6020   3
   2   9  -1 44.5358 55.0787   0
   2   9   0 699.918 79.1255   0
   2   9   0 643.159 95.3220   3
   2   9   1 2179.00 115.677   0
   2   9   1 2252.10 150.176   3
   2   9   2 419.808 71.8903   0
   2   9   2 424.152 91.8190   3
   2   9   3 115.017 82.1565   3
   2   9   3 111.700 57.3813   0
   2   9   4 475.820 77.3545   0
   2   9   4 462.828 95.6168   3
   2   9   5 24.7999 67.3370   0
   2   9   5 11.7376 68.6439   3
   2   9   6 842.581 91.5398   0
   2   9   6 940.019 98.5727   3
   2   9   7 5.75088 57.9271   0
   2   9   8 2.04360 63.3094   0
   2   9   9 71.1591 65.1147   0
   2   9  10 109.685 99.1078   0
  -2  -9 -10 40.7683 95.8672   2
   2  10  -6 811.546 111.491   3
   2  10  -5 684.574 101.181   3
   2  10  -4 314.630 64.8040   0
   2  10  -4 234.974 82.6232   3
   2  10  -3 101.130 78.8148   3
   2  10  -3 113.771 64.0556   0
   2  10  -2 32.1900 87.5838   3
   2  10  -2 7.48365 56.9737   0
   2  10  -1 39.9504 92.5913   3
   2  10  -1 16.4394 54.7585   0
   2  10   0 184.745 63.3849   0
   2  10   0 190.624 83.0103   3
   2  10   1 2153.26 149.110   3
   2  10   1 2080.39 123.054   0
   2  10   2 625.627 85.4168   0
   2  10   2 658.009 100.695   3
   2  10   3 720.158 108.416   3
   2  10   3 645.092 89.2196   0
   2  10   4 516.242 82.3921   0
   2  10   4 566.264 99.8789   3
   2  10   5-27.1957 51.4767   0
   2  10   5 49.6238 68.6075   3
   2  10   6 364.925 85.9120   3
   2  10   6 366.081 73.6965   0
   2  10   7 54.8208 73.7555   0
   2  10   8 71.7567 68.7702   0
   2  10   9 143.555 82.0161   0
   2  11  -5 42.9859 76.8132   3
   2  11  -4 1781.41 157.479   3
   2  11  -3 390.598 111.038   3
   2  11  -2 18.5514 78.0540   3
   2  11  -1-22.4449 89.4999   3
   2  11   0 548.951 124.288   3
   2  11   1 57.2953 97.3302   3
   2  11   2 80.8332 61.3571   0
   2  11   2 76.8061 88.5968   3
   2  11   3 181.490 77.9225   0
   2  11   3 176.046 97.5376   3
   2  11   4 149.298 78.5941   0
   2  11   4 207.244 89.2096   3
   2  11   5 85.0059 67.4685   0
   2  11   5 124.135 71.7499   3
   2  11   6 745.394 105.014   3
   2  11   6 913.233 111.306   0
   2  11   7 25.2831 66.9960   0
  -3   9   7 948.320 119.147   3
  -3   9   6 501.351 108.727   3
  -3   9   5 583.515 105.230   3
  -3   9   4 170.276 109.683   3
  -3   9   3 521.233 115.165   3
  -3   9   2 398.508 92.6452   3
  -3   9   1 1893.35 156.096   3
  -3   9   0 857.697 115.319   3
  -3   9  -1 64.2896 75.5553   3
  -3   9  -2 227.654 80.2507   3
  -3   9  -3-30.1208 89.7511   3
  -3   9  -4 226.605 80.9108   3
  -3   9  -5 18.9627 74.7020   3
  -3   8   7 204.429 78.4340   3
  -3   8   6 1407.80 141.946   3
  -3   8   5 52.5662 81.5815   3
  -3   8   4 211.200 95.9893   3
  -3   8   3 125.933 117.373   3
  -3   8   2 520.758 96.8622   3
  -3   8   1 43.6433 81.2122   3
  -3   8   0-32.2138 80.3667   3
  -3   8  -1 457.092 95.3667   3
  -3   8  -2 3298.57 179.618   3
  -3   8  -3-0.47184 70.8526   3
  -3   8  -4 0.47125 64.7250   2
  -3   8  -4 5.50183 73.3451   3
  -3   8  -5-25.3552 81.4968   2
  -3   8  -5 87.0061 70.6825   3
  -3   8  -6 762.490 112.080   2
  -3   8  -7 256.854 108.037   2
  -3   7   7 621.768 96.9608   3
  -3   7   6 179.150 75.8117   3
  -3   7   5 869.665 104.452   3
  -3   7   4 2879.38 157.737   3
  -3   7   3 1396.38 117.140   3
  -3   7   2 758.221 103.350   3
  -3   7   1 466.237 98.0860   3
  -3   7   0 48.6150 77.8034   3
  -3   7  -1 153.747 78.4679   3
  -3   7  -2 2573.67 150.849   3
  -3   7  -2 2286.55 134.821   2
  -3   7  -3 271.534 74.4178   2
  -3   7  -3 259.634 82.3888   3
  -3   7  -4 64.6407 75.0251   2
  -3   7  -4 55.7571 75.0276   3
  -3   7  -5 96.3182 72.9417   2
  -3   7  -5 192.048 74.5204   3
  -3   7  -6 588.559 96.1774   2
  -3   7  -6 529.483 77.9666   3
  -3   7  -7 18.2313 81.9312   2
  -3   7  -8 72.7466 83.5987   2
  -3   7  -9 103.159 86.0441   2
  -3   6   7 471.538 79.5506   3
  -3   6   6 377.918 77.0859   3
  -3   6   5 40.1312 66.3316   3
  -3   6   4 5763.31 199.083   3
  -3   6   3 10039.6 253.466   3
   3  -6  -3 9914.63 193.678   1
  -3   6   2 1540.71 116.897   3
   3  -6  -2 1304.17 80.8701   1
  -3   6   1 40.3284 68.3317   3
  -3   6   0 2209.25 129.514   3
  -3   6  -1 531.990 83.1664   3
  -3   6  -1 454.442 81.0678   2
  -3   6  -2 4316.47 171.370   3
  -3   6  -2 3997.70 156.172   2
  -3   6  -3 86.1318 68.6754   2
  -3   6  -3 119.955 68.0396   3
  -3   6  -4 39.9099 69.7007   2
  -3   6  -4-9.69499 66.0857   3
  -3   6  -5 191.327 75.0036   2
  -3   6  -5 153.454 63.4995   3
  -3   6  -6 7.58275 57.9861   2
  -3   6  -6-5.12442 59.5238   3
  -3   6  -7 61.5069 64.4301   2
  -3   6  -8 125.432 75.3966   2
  -3   6  -9 687.227 102.070   2
  -3   6 -10 122.291 75.4940   2
  -3   5   7 1570.92 104.672   3
   3  -5  -6 177.683 37.1197   1
  -3   5   6 207.869 65.4120   3
  -3   5   5 3801.88 152.110   3
   3  -5  -5 3811.90 123.109   1
  -3   5   4 9010.53 223.206   3
   3  -5  -4 8734.63 176.045   1
  -3   5   3 1730.31 117.532   3
   3  -5  -3 1698.66 84.5052   1
  -3   5   2 19141.1 316.577   3
   3  -5  -2 20090.4 261.821   1
  -3   5   1 1133.83 101.723   3
  -3   5   0 1233.50 96.0933   3
  -3   5  -1 382.598 71.5197   3
  -3   5  -1 388.934 66.6651   2
  -3   5  -2 4000.57 149.649   3
  -3   5  -2 3772.85 143.999   2
  -3   5  -3 477.012 74.5339   3
  -3   5  -3 504.731 75.4543   2
  -3   5  -4 1363.54 103.314   2
  -3   5  -4 1505.43 100.443   3
  -3   5  -5 304.122 77.8739   2
  -3   5  -5 312.050 64.7441   3
  -3   5  -6 1464.14 110.683   2
  -3   5  -6 1891.88 107.195   3
  -3   5  -7 2123.71 129.651   2
  -3   5  -8 230.330 78.1665   2
  -3   5  -9-3.20130 59.6792   2
  -3   5 -10 14.8117 67.2345   2
  -3   5 -11 1686.65 146.407   2
   3  -4  -9 24.7277 35.6465   1
   3  -4  -8 1716.96 93.3380   1
   3  -4  -7-12.3267 40.7802   1
  -3   4   7-23.0023 54.6267   3
  -3   4   6 651.954 69.7963   3
   3  -4  -6 546.392 58.6344   1
   3  -4  -5 2080.68 90.7464   1
  -3   4   5 1940.03 108.483   3
   3  -4  -4 15208.7 227.512   1
  -3   4   4 15343.7 264.272   3
  -3   4   3 534.557 72.2303   3
   3  -4  -3 543.833 56.6492   1
   3  -4  -2 277.100 48.0573   1
  -3   4   2 278.060 67.3800   3
  -3   4   1 741.543 75.1849   3
  -3   4   0 1407.50 95.6588   3
  -3   4   0 1391.46 80.8752   2
  -3   4  -1 764.786 73.3647   3
  -3   4  -1 777.886 68.5549   2
  -3   4  -2 160.525 50.4764   2
  -3   4  -2 108.439 55.1566   3
  -3   4  -3 1670.93 96.3610   2
  -3   4  -3 1879.39 97.7409   3
  -3   4  -4 116.357 59.3107   2
  -3   4  -4 143.733 53.4955   3
  -3   4  -5 941.282 91.8267   2
  -3   4  -5 900.571 78.5763   3
  -3   4  -6 1960.81 121.070   2
  -3   4  -6 1970.84 103.030   3
  -3   4  -7 2079.68 126.302   2
  -3   4  -8-11.1791 64.8942   2
  -3   4  -9-50.5655 64.9497   2
  -3   4 -10 23.9671 66.8996   2
  -3   4 -11-43.9859 77.0738   2
  -3   4 -12 291.708 97.7422   2
   3  -3 -11 29.7196 50.9468   1
   3  -3 -10 1610.86 105.939   1
   3  -3  -9 135.602 53.3679   1
   3  -3  -8 154.853 38.6573   1
   3  -3  -7-23.2222 35.9573   1
  -3   3   7 22.1616 48.5506   3
  -3   3   6 2339.51 108.967   3
   3  -3  -6 2370.64 101.402   1
   3  -3  -5 4.78350 36.7792   1
  -3   3   5 9.54175 50.3550   3
  -3   3   4 3980.17 132.823   3
   3  -3  -4 4054.62 119.428   1
   3  -3  -3 3.77732 32.6582   1
  -3   3   3 2.80059 48.0861   3
   3  -3  -2 1860.97 80.4947   1
  -3   3   2 1822.06 95.1039   3
  -3   3   1 1317.11 30.5800   0
  -3   3   1 1266.43 84.1278   3
  -3   3   0 5065.25 142.370   3
  -3   3   0 5020.18 124.657   2
  -3   3  -1 2417.34 101.572   3
  -3   3  -1 2325.41 90.6120   2
  -3   3  -2 491.470 54.2091   2
  -3   3  -2 513.605 57.6219   3
  -3   3  -3 338.342 54.1826   3
  -3   3  -3 272.288 54.4465   2
  -3   3  -4 1318.47 88.4364   2
  -3   3  -4 1371.60 75.8821   3
  -3   3  -5 666.238 76.9756   2
  -3   3  -5 733.511 64.6876   3
  -3   3  -6 1726.83 106.893   2
  -3   3  -6 1724.77 86.8944   3
  -3   3  -7 554.456 83.4886   2
  -3   3  -8 256.252 70.4813   2
  -3   3  -9 1045.02 103.198   2
  -3   3 -10 1077.53 121.984   2
  -3   3 -11 463.371 102.073   2
  -3   3 -12 774.863 75.9472   2
   3  -2 -13 1464.57 117.561   1
   3  -2 -12 1596.04 116.017   1
   3  -2 -11-19.3440 59.1648   1
   3  -2 -10 3676.24 150.009   1
   3  -2  -9 1729.10 103.448   1
   3  -2  -8 26.7401 42.6213   1
  -3   2   7 2074.79 98.7624   3
   3  -2  -7 2041.17 100.695   1
  -3   2   6 5508.60 146.250   3
   3  -2  -6 5630.02 148.604   1
  -3   2   5 6631.12 157.484   3
   3  -2  -5 6265.22 146.305   1
   3  -2  -4 3007.58 101.466   1
  -3   2   4 2906.48 107.463   3
  -3   2   3 3503.04 114.480   3
   3  -2  -3 3439.96 99.8888   1
  -3   2   2 11835.6 196.245   3
   3  -2  -2 12034.8 181.926   1
  -3   2   1 13337.0 204.652   3
  -3   2   1 13252.0 168.610   2
  -3   2   0 3608.56 109.668   3
  -3   2   0 3625.07 95.3113   2
  -3   2  -1 1657.87 71.4167   2
  -3   2  -1 1620.25 78.6734   3
  -3   2  -2 54.1122 33.8707   2
  -3   2  -2 48.5618 37.5468   3
  -3   2  -3 2185.91 88.2380   2
   3  -2   3 2021.35 37.2941   0
  -3   2  -3 2101.45 82.6707   3
  -3   2  -4 699.340 62.7293   2
  -3   2  -4 715.129 55.0384   3
  -3   2  -5 239.628 57.8745   2
  -3   2  -5 254.764 40.3014   3
  -3   2  -6 1291.45 92.5418   2
  -3   2  -6 1368.00 66.4474   3
  -3   2  -7 16653.2 284.728   2
  -3   2  -8 3935.61 153.624   2
  -3   2  -9 259.416 77.9638   2
  -3   2 -10 1230.94 109.131   2
  -3   2 -11 136.016 71.0494   2
  -3   2 -12-32.7662 77.9700   2
  -3   2 -13 19.5619 86.3557   2
   3  -1 -13 2624.67 158.074   1
   3  -1 -12 1693.72 121.410   1
   3  -1 -11 30.7751 55.0630   1
   3  -1 -10 4839.57 176.234   1
   3  -1  -9 973.400 85.1513   1
   3  -1  -8 2839.09 119.017   1
   3  -1  -7 7814.39 142.090   2
  -3   1   7 7639.11 164.668   3
   3  -1  -7 7301.21 175.202   1
   3  -1  -6 5764.47 112.537   2
  -3   1   6 5594.03 139.855   3
   3  -1  -6 5536.34 147.615   1
   3  -1  -5 278.005 46.2813   1
  -3   1   5 267.850 51.0978   3
  -3   1   4 5412.66 132.568   3
   3  -1  -4 5381.35 128.640   1
   3  -1  -3 159.151 38.4102   1
  -3   1   3 164.001 47.1710   3
  -3   1   2 5234.64 127.041   3
   3  -1  -2 5361.82 118.652   1
  -3   1   1 4289.22 113.197   3
  -3   1   1 4794.20 87.0286   2
   3  -1  -1 4536.53 107.766   1
  -3   1   0 165.744 27.5367   2
   3  -1   0 128.315 12.3253   0
  -3   1   0 148.593 45.4412   3
  -3   1  -1 1111.81 53.8513   2
  -3   1  -1 1117.08 63.9554   3
   3  -1   1 1090.26 24.0159   0
   3  -1   2 5188.93 58.1903   0
  -3   1  -2 5108.32 111.031   2
  -3   1  -2 4904.59 113.187   3
  -3   1  -3 800.923 56.0648   2
   3  -1   3 731.863 28.8482   0
  -3   1  -3 713.424 51.2074   3
  -3   1  -4 132.321 43.6573   2
   3  -1   4 110.471 21.3776   0
  -3   1  -4 143.921 33.5724   3
  -3   1  -5 613.996 45.1336   3
  -3   1  -5 638.674 63.5777   2
  -3   1  -6 181.417 54.6686   2
  -3   1  -6 159.923 31.0378   3
  -3   1  -7 92.2244 58.7829   2
  -3   1  -8-22.6161 62.4438   2
  -3   1  -9 42.8062 65.5179   2
  -3   1 -10 1062.39 103.042   2
  -3   1 -11 5.17234 76.3671   2
  -3   1 -12 336.840 96.0095   2
  -3   1 -13 99.6599 63.4672   2
   3   0 -13 4169.70 194.581   1
   3   0 -12 2103.00 133.597   1
   3   0 -11 346.894 69.4794   1
   3   0 -10 3594.81 155.478   1
   3   0  -9 2517.44 126.222   1
   3   0  -8 2349.50 114.858   1
  -3   0   7 1323.20 76.8773   3
   3   0  -7 1300.57 82.0487   1
   3   0  -6 844.251 45.0136   2
   3   0  -6 841.380 66.8243   1
  -3   0   6 855.000 63.7252   3
   3   0  -5 3793.59 73.0432   2
  -3   0   5 3718.69 114.094   3
   3   0  -5 3893.49 119.023   1
   3   0  -4 2021.00 48.5496   2
   3   0  -4 1854.30 79.6897   1
   3   0  -3 8384.43 149.961   1
   3   0  -2 4913.23 107.507   1
   3   0  -2 5143.17 91.4328   0
  -3   0   1 83.6702 17.5715   2
   3   0  -1 89.3183 26.6018   1
   3   0  -1 103.697 20.7343   0
  -3   0   0 1346.00 43.7461   2
   3   0   0 1278.43 38.9541   0
  -3   0  -1 2199.15 62.2788   2
   3   0   1 2330.73 48.7402   0
   3   0   2 120.466 17.6587   0
  -3   0  -2 125.981 30.4096   2
  -3   0  -2 132.812 37.8961   3
  -3   0  -3 1027.62 56.8203   2
   3   0   3 1024.96 39.4093   0
  -3   0  -3 1077.60 54.7741   3
  -3   0  -4 3786.60 104.858   2
   3   0   4 3648.63 79.6679   0
  -3   0  -4 3758.07 88.5038   3
  -3   0  -5 3.69025 25.1550   3
  -3   0  -5 12.3654 42.0265   2
   3   0   5 3.88667 32.0908   0
  -3   0  -6 2983.76 115.358   2
  -3   0  -6 3148.50 74.5073   3
  -3   0  -7 1429.90 92.7458   2
  -3   0  -8 129.739 62.0574   2
  -3   0  -9 178.803 71.2182   2
  -3   0 -10 5545.47 185.462   2
  -3   0 -11 78.6214 72.5148   2
  -3   0 -12-15.1032 67.4445   2
  -3   0 -13 995.758 108.859   2
  -3   0 -14-23.6733 86.1594   2
   3   1 -13 3084.21 174.154   1
   3   1 -12-5.16548 63.5451   1
   3   1 -11 51.4937 69.5832   1
   3   1 -10 51.6982 61.2259   1
   3   1  -9 7463.08 208.957   1
   3   1  -8 4846.54 159.187   1
   3   1  -7-6.24436 48.1344   1
   3   1  -6 239.237 47.3060   1
   3   1  -5 3752.77 63.1903   2
   3   1  -5 3731.85 115.924   1
   3   1  -4 90.0059 33.2979   1
   3   1  -4 61.7280 33.0345   0
   3   1  -4 82.8827 11.3016   2
   3   1  -3 14331.1 177.423   0
   3   1  -3 14258.5 191.351   1
   3   1  -2 10794.7 158.782   1
   3   1  -2 10294.8 137.620   0
   3   1  -1 7183.01 108.289   0
   3   1  -1 7246.98 120.783   1
  -3  -1   0 3380.80 55.3405   2
   3   1   0 3384.02 72.5531   0
   3   1   0 3474.73 84.3659   1
  -3  -1  -1 735.909 35.5349   2
   3   1   1 749.921 38.0386   0
   3   1   2 1289.23 46.4307   0
  -3  -1  -2 1283.74 51.8719   2
  -3  -1  -3 363.832 40.0837   2
   3   1   3 384.699 33.2324   0
   3   1   4 2112.97 67.8298   0
  -3  -1  -4 2025.15 78.9275   2
  -3  -1  -5 3114.09 104.197   2
   3   1   5 2985.53 86.6891   0
   3   1   6 447.964 51.3987   0
  -3  -1  -6 424.959 58.8688   2
  -3  -1  -6 432.089 33.1698   3
  -3  -1  -7 10224.6 206.120   2
  -3  -1  -8 643.504 77.8843   2
  -3  -1  -9-16.4770 65.8692   2
  -3  -1 -10 55.1702 72.8050   2
  -3  -1 -11 153.533 76.2992   2
  -3  -1 -12 346.267 79.2642   2
  -3  -1 -13 460.615 100.293   2
  -3  -1 -14-56.9738 77.6721   2
   3   2 -13 1459.41 129.910   1
   3   2 -12 1076.57 120.903   1
   3   2 -11 2.20591 67.2676   1
   3   2 -10 548.004 80.0222   1
   3   2  -9 4669.85 170.234   1
   3   2  -8 6542.97 189.767   1
   3   2  -7 2182.43 109.763   1
   3   2  -6 13848.4 232.995   1
   3   2  -5 103.594 40.3177   1
   3   2  -5 140.700 17.4781   2
   3   2  -5 92.2284 42.8421   0
   3   2  -4 153.824 11.5808   2
   3   2  -4 140.600 40.4400   1
   3   2  -4 119.654 37.6897   0
   3   2  -3 2381.47 81.9821   0
   3   2  -3 2644.46 89.3006   1
   3   2  -2 1289.34 59.9700   1
   3   2  -2 1202.25 57.3406   0
   3   2  -1 62.5870 28.4257   1
   3   2  -1 66.3924 29.9288   0
  -3  -2   0 4948.36 67.2072   2
   3   2   0 5039.30 94.2496   1
   3   2   0 5132.22 100.054   0
  -3  -2  -1 3193.80 66.6888   2
   3   2   1 3410.25 81.8399   0
   3   2   2 1560.78 56.9492   0
  -3  -2  -2 1539.59 56.3813   2
   3   2   3 968.688 50.8317   0
  -3  -2  -3 995.174 55.4060   2
  -3  -2  -4 11471.3 172.948   2
   3   2   4 11396.8 158.709   0
  -3  -2  -5 8638.15 163.635   2
   3   2   5 8577.65 151.279   0
  -3  -2  -6 421.112 58.0379   2
   3   2   6 443.563 51.4874   0
  -3  -2  -7 2005.85 105.064   2
   3   2   7 2245.01 97.6711   0
  -3  -2  -8 318.308 67.6442   2
   3   2   8 395.140 59.6365   0
   3   2   9 419.207 68.5597   0
  -3  -2  -9 405.636 72.6522   2
  -3  -2 -10 2548.81 139.979   2
   3   2  10 2523.71 123.688   0
  -3  -2 -11 15.1633 76.4751   2
  -3  -2 -12 133.073 83.7777   2
   3   2  13 1.30389 80.1027   0
  -3  -2 -13-71.1490 88.2236   2
  -3  -2 -14 43.8115 82.0054   2
   3   2  14-64.6511 75.5175   0
   3   3 -12 208.790 88.4333   1
   3   3 -11 51.3049 70.3947   1
   3   3 -10 2738.92 145.805   1
   3   3  -9 1020.80 96.6894   1
   3   3  -8 2737.76 129.383   1
   3   3  -7 410.896 65.2919   1
   3   3  -6 127.731 53.3847   0
   3   3  -6 148.524 50.1570   1
   3   3  -5 99.2389 44.8623   1
   3   3  -5 63.3687 45.0442   0
   3   3  -4 354.505 49.5493   0
   3   3  -4 462.860 49.0283   1
   3   3  -4 488.412 24.0217   2
   3   3  -3 2469.26 84.6691   1
   3   3  -3 2292.83 85.8221   0
   3   3  -2 6615.47 126.278   1
   3   3  -2 5924.03 123.878   0
   3   3  -1 585.923 45.5790   0
   3   3  -1 606.093 41.1335   1
   3   3   0 871.557 53.2417   0
   3   3   0 895.389 43.0239   1
  -3  -3  -1 660.060 40.0858   2
   3   3   1 571.938 33.4701   1
   3   3   1 605.598 48.1294   0
  -3  -3  -2 130.142 30.3004   2
   3   3   2 118.819 33.5093   0
   3   3   3 441.088 44.7911   0
  -3  -3  -3 527.701 49.2545   2
  -3  -3  -4 85.0233 38.5301   2
   3   3   4 76.7102 36.6764   0
  -3  -3  -5 810.384 67.8819   2
   3   3   5 752.364 59.7127   0
   3   3   6 590.428 58.1230   0
  -3  -3  -6 557.587 66.3016   2
  -3  -3  -7 123.068 59.7563   2
   3   3   7 175.601 55.8974   0
  -3  -3  -8 2405.19 120.683   2
   3   3   8 2315.97 113.320   0
  -3  -3  -9 405.502 76.0182   2
   3   3   9 344.489 67.9806   0
  -3  -3 -10 3907.00 164.313   2
   3   3  10 4157.76 160.558   0
  -3  -3 -11 1281.07 116.981   2
   3   3  11 1258.24 104.409   0
  -3  -3 -12 1265.74 117.245   2
   3   3  12 1293.66 115.992   0
  -3  -3 -13 563.295 112.709   2
   3   3  13 541.034 95.3311   0
   3   3  14 454.277 93.2678   0
   3   4 -12 2569.92 159.624   1
   3   4 -11 1522.26 131.558   1
   3   4 -10 740.864 90.6374   1
   3   4  -9 593.505 86.5780   1
   3   4  -8-23.0761 61.7582   1
   3   4  -7 3.94352 52.2273   1
   3   4  -6 1267.74 90.1552   0
   3   4  -6 1270.30 85.2398   1
   3   4  -5 2835.65 114.725   0
   3   4  -5 3008.40 114.070   1
   3   4  -4 2118.98 95.3188   0
   3   4  -4 2237.97 92.2865   1
   3   4  -3 345.969 43.5502   1
   3   4  -3 320.542 49.9522   0
   3   4  -2 4782.57 122.556   0
   3   4  -2 4766.31 104.522   1
   3   4  -1 127.062 40.4519   0
   3   4  -1 141.998 27.0776   1
   3   4   0 1067.41 62.7561   0
   3   4   0 1122.18 46.7244   1
   3   4   1 1053.36 40.3840   1
   3   4   1 1027.30 61.1546   0
   3   4   2 3304.99 99.1247   0
   3   4   2 3326.51 61.1031   1
   3   4   3 278.316 46.1209   0
   3   4   3 311.593 22.9470   1
   3   4   4 7152.32 150.066   0
  -3  -4  -4 7660.80 158.726   2
   3   4   5 748.153 67.5636   0
  -3  -4  -5 813.463 72.1281   2
   3   4   6 168.635 51.7604   0
  -3  -4  -6 169.936 60.2198   2
  -3  -4  -7 5489.14 167.419   2
   3   4   7 5508.51 158.228   0
  -3  -4  -8 12265.6 255.293   2
   3   4   8 12280.4 241.717   0
  -3  -4  -9 145.132 75.6640   2
   3   4   9 96.4234 57.1555   0
   3   4  10 513.671 77.4146   0
  -3  -4 -10 516.233 90.2634   2
  -3  -4 -11 2162.80 144.800   2
   3   4  11 2314.86 133.634   0
   3   4  12 324.808 88.8741   0
  -3  -4 -12 345.258 97.9712   2
  -3  -4 -13-6.88265 75.9672   2
   3   4  13 48.6042 80.9282   0
   3   5 -12 295.737 90.3044   1
   3   5 -11 883.222 106.959   1
   3   5 -10 95.6575 72.1832   1
   3   5  -9 1099.52 106.805   1
   3   5  -8 301.786 70.0112   1
   3   5  -7 618.628 82.0965   0
   3   5  -7 552.096 75.9441   1
   3   5  -6 10.4408 43.2908   1
   3   5  -6-1.98759 50.9545   0
   3   5  -5 822.092 75.9956   0
   3   5  -5 989.726 75.9536   1
   3   5  -4 51.5046 39.0034   1
   3   5  -4 92.9342 50.1244   0
   3   5  -3 66.9262 34.9111   1
   3   5  -3 64.7602 49.2248   0
   3   5  -2 5413.29 140.706   0
   3   5  -2 5647.01 119.411   1
   3   5  -1 608.535 41.4461   1
   3   5  -1 601.030 61.1848   0
   3   5   0 80.7369 20.9638   1
   3   5   0 66.6935 41.3537   0
   3   5   1 1779.97 46.0578   1
   3   5   1 1956.71 88.6281   0
   3   5   2 2441.10 97.6992   0
   3   5   2 2666.39 47.8300   1
   3   5   3 3686.90 117.679   0
   3   5   4 1549.04 85.2862   0
   3   5   5 1191.73 82.0139   0
  -3  -5  -5 1361.54 90.5678   2
   3   5   6 2903.28 120.236   0
  -3  -5  -6 2976.86 128.721   2
  -3  -5  -7 1493.15 107.690   2
   3   5   7 1359.53 95.2404   0
  -3  -5  -8 5820.42 189.828   2
   3   5   8 5717.69 179.330   0
  -3  -5  -9 2716.86 147.647   2
   3   5   9 2658.59 135.752   0
  -3  -5 -10 2164.76 125.771   2
   3   5  10 1994.29 126.617   0
  -3  -5 -11 1138.27 115.696   2
   3   5  11 1341.27 118.059   0
  -3  -5 -12 172.082 86.5806   2
   3   5  12 129.207 84.9931   0
  -3  -5 -13 533.779 112.850   2
   3   5  13 544.750 100.719   0
   3   6 -11 677.930 100.783   1
   3   6 -10 1238.43 121.224   1
   3   6  -9 2829.58 151.316   1
   3   6  -8 1049.69 105.689   1
   3   6  -7 52.4054 56.4577   1
   3   6  -7 71.2439 60.9199   0
   3   6  -6 78.1971 47.2226   1
   3   6  -6 73.2466 59.5492   0
   3   6  -5 4.92177 42.4659   1
   3   6  -5-2.78668 51.8286   0
   3   6  -4 127.341 41.4756   1
   3   6  -4 87.7402 50.4722   0
   3   6  -3 17.8562 33.6999   1
   3   6  -3 16.5225 46.9355   0
   3   6  -2 1318.74 63.7831   1
   3   6  -2 1330.11 87.1806   0
   3   6  -1 2373.59 73.5854   1
   3   6  -1 2199.52 101.733   0
   3   6   0 1401.57 85.3209   0
   3   6   0 1458.87 97.1520   3
   3   6   1 4604.05 150.229   3
   3   6   1 5068.07 146.338   0
   3   6   2 1875.26 101.618   3
   3   6   2 1997.30 99.4458   0
   3   6   3 4253.31 134.908   0
   3   6   3 4122.87 137.619   3
   3   6   4 963.390 77.8624   0
   3   6   4 1045.12 79.4608   3
   3   6   5 716.063 75.6110   0
   3   6   5 794.570 71.2906   3
   3   6   6 10.3319 53.0185   0
  -3  -6  -6-36.8110 69.4574   2
  -3  -6  -7 128.855 75.2078   2
   3   6   7 131.555 67.0633   0
   3   6   8 1742.98 115.979   0
  -3  -6  -8 1920.87 128.568   2
   3   6   9-11.3977 70.5543   0
  -3  -6  -9 98.7009 76.5431   2
   3   6  10 86.5903 74.2720   0
  -3  -6 -10 164.509 77.5016   2
   3   6  11 79.5747 70.0679   0
  -3  -6 -11 176.696 92.3877   2
   3   6  12 86.8548 75.7539   0
  -3  -6 -12 63.7941 78.5265   2
   3   7 -10 712.239 111.727   1
   3   7  -9 250.563 78.6441   1
   3   7  -8 802.000 97.6288   0
   3   7  -8 911.367 102.044   1
   3   7  -7 528.622 82.0328   0
   3   7  -7 657.228 78.7701   1
   3   7  -6 21.2947 54.6998   1
   3   7  -6 26.8304 55.2276   0
   3   7  -5 58.2579 45.6025   1
   3   7  -5 6.20961 52.2577   0
   3   7  -4 347.211 51.5636   1
   3   7  -4 298.705 64.4062   0
   3   7  -3 673.383 57.6210   1
   3   7  -3 681.408 74.1193   0
   3   7  -2 1071.61 99.3929   3
   3   7  -2 1010.88 82.0049   0
   3   7  -1 54.3782 49.1130   0
   3   7  -1 74.5380 68.7225   3
   3   7   0 124.542 53.8309   0
   3   7   0 82.0504 68.9524   3
   3   7   1 1203.60 103.445   3
   3   7   1 1178.73 85.7164   0
   3   7   2 238.388 62.5041   0
   3   7   2 335.534 77.7212   3
   3   7   3 956.843 83.0634   0
   3   7   3 952.217 91.5407   3
   3   7   4 1391.59 94.8728   0
   3   7   4 1296.79 91.5560   3
   3   7   5 2021.22 110.657   0
   3   7   5 2009.13 108.242   3
   3   7   6 72.1236 56.5957   0
   3   7   6 44.1132 49.2214   3
   3   7   7 152.872 64.0589   0
  -3  -7  -7 76.5380 79.7457   2
  -3  -7  -8 205.013 82.4697   2
   3   7   8 56.1883 68.4731   0
  -3  -7  -9 147.599 88.0226   2
   3   7   9 56.4892 71.4466   0
  -3  -7 -10 20.4954 88.0137   2
   3   7  10 85.5692 73.9793   0
  -3  -7 -11 804.848 118.102   2
   3   7  11 664.572 106.827   0
  -3  -7 -12 510.922 123.040   2
   3   7  12 326.433 93.4756   0
   3   8 -10 363.236 79.9064   1
   3   8  -9 95.0246 70.3951   1
   3   8  -8 515.217 80.9099   1
   3   8  -8 569.754 89.9450   0
   3   8  -7 243.071 62.0211   1
   3   8  -7 194.805 76.1075   0
   3   8  -6 297.271 66.3401   1
   3   8  -6 291.986 78.9249   0
   3   8  -5 272.997 65.4647   0
   3   8  -4 69.7791 57.8572   0
   3   8  -3-18.6360 56.5640   0
   3   8  -2 422.549 90.5622   3
   3   8  -2 299.844 65.8174   0
   3   8  -1 658.359 98.9277   3
   3   8  -1 606.120 70.9800   0
   3   8   0 449.411 70.0608   0
   3   8   0 326.996 82.9701   3
   3   8   1 96.3206 57.0913   0
   3   8   1 46.6682 77.8935   3
   3   8   2 226.128 70.7443   0
   3   8   2 228.726 77.8514   3
   3   8   3 628.109 92.8098   3
   3   8   3 553.072 74.1198   0
   3   8   4 242.786 63.8668   0
   3   8   4 102.753 60.0911   3
   3   8   5 100.013 61.9660   3
   3   8   5 94.3963 54.7341   0
   3   8   6 1331.39 106.743   0
   3   8   6 1249.77 100.258   3
   3   8   7 26.5847 64.9592   0
   3   8   8 478.185 86.6199   0
  -3  -8  -8 504.945 112.816   2
   3   8   9 156.053 80.6653   0
  -3  -8  -9 133.241 86.5293   2
  -3  -8 -10-94.6327 85.0972   2
   3   8  10-80.5110 67.1347   0
  -3  -8 -11 115.870 101.467   2
   3   8  11 15.0459 76.9790   0
   3   9  -8 239.842 92.2875   0
   3   9  -7 38.2822 73.4884   0
   3   9  -6 409.181 81.7150   0
   3   9  -5 398.967 77.0573   0
   3   9  -4 49.8677 60.0147   0
   3   9  -3 571.878 97.5057   3
   3   9  -3 578.082 82.1811   0
   3   9  -2-3.12713 83.4351   3
   3   9  -2-6.09956 52.6332   0
   3   9  -1 15.0633 81.5456   3
   3   9  -1 26.7181 60.3398   0
   3   9   0 3500.08 173.441   3
   3   9   0 3631.29 155.316   0
   3   9   1 6852.17 231.252   3
   3   9   1 6381.35 193.916   0
   3   9   2 25.7885 57.9544   0
   3   9   2 45.5978 73.0194   3
   3   9   3 433.226 78.2423   0
   3   9   3 354.966 80.9725   3
   3   9   4 170.091 62.5389   0
   3   9   4 138.647 70.0064   3
   3   9   5 1224.81 108.385   0
   3   9   5 1474.11 116.971   3
   3   9   6 486.206 79.8703   3
   3   9   6 532.106 90.5234   0
   3   9   7 785.848 95.1790   0
   3   9   8-38.0987 71.3789   0
   3   9   9 8.65645 74.0350   0
  -3  -9  -9-2.52331 80.3370   2
   3   9  10 67.9663 73.0872   0
   3  10  -7-16.3400 72.5321   0
   3  10  -6 50.0055 84.1712   0
   3  10  -5 162.998 77.3659   0
   3  10  -4 110.971 72.1291   0
   3  10  -3-26.6059 87.1013   3
   3  10  -3 32.8762 58.2944   0
   3  10  -2 433.772 101.183   3
   3  10  -2 280.775 76.3061   0
   3  10  -1 439.781 104.176   3
   3  10  -1 449.486 79.5264   0
   3  10   0 164.768 64.2134   0
   3  10   0 217.821 92.1831   3
   3  10   1 1837.30 149.134   3
   3  10   1 1858.32 119.431   0
   3  10   2 50.8240 70.3686   0
   3  10   2 50.4425 74.1729   3
   3  10   3 218.587 62.7935   0
   3  10   3 87.3310 83.6220   3
   3  10   4 299.840 76.1561   0
   3  10   4 229.159 77.7979   3
   3  10   5 178.835 68.7612   0
   3  10   5 284.513 76.6841   3
   3  10   6 745.072 97.8512   0
   3  10   6 682.190 83.9156   3
   3  10   7 83.3739 67.7340   0
   3  10   8 6.09044 78.6963   0
   3  11  -4 92.3002 72.3249   0
   3  11  -3 169.014 96.4393   3
   3  11  -3 116.962 61.6731   0
   3  11  -2 195.201 96.0284   3
   3  11  -2 196.370 71.0071   0
   3  11  -1 85.4425 82.0852   0
   3  11  -1 137.052 100.928   3
   3  11   0 448.193 125.499   3
   3  11   0 433.898 83.6069   0
   3  11   1 690.052 95.6677   0
   3  11   1 748.135 118.376   3
   3  11   2 525.121 80.6888   0
   3  11   2 430.256 113.044   3
   3  11   3 52.1840 58.2966   0
   3  11   3 29.7050 90.8877   3
   3  11   4 676.763 114.180   3
   3  11   4 836.790 107.303   0
   3  11   5 184.818 75.9363   0
   3  11   5 113.581 82.5904   3
   3  11   6-30.5268 64.6538   0
   3  11   6 54.0072 87.6455   3
   3  11   7 280.574 79.2134   0
   3  12   1 0.00000 75.8862   0
   3  12   2 111.675 75.7353   0
   3  12   3 137.280 78.9538   0
   3  12   4 75.3538 70.0887   0
  -4   9   1 437.360 123.305   3
  -4   9   0 86.5434 88.4602   3
  -4   9  -1 26.1608 98.5842   3
  -4   9  -2 153.102 102.893   3
  -4   9  -3 830.866 109.038   3
  -4   8   7 6.95558 103.378   3
  -4   8   6 85.0731 88.9623   3
  -4   8   5 101.876 91.6461   3
  -4   8   4-42.4120 82.7166   3
  -4   8   3 154.417 80.6346   3
  -4   8   2 321.252 100.809   3
  -4   8   1 29.8157 104.995   3
  -4   8   0 1550.84 144.128   3
  -4   8  -1 291.078 97.2867   3
  -4   8  -2 11.3751 88.4833   3
  -4   8  -3 375.434 98.3310   3
  -4   8  -4 100.369 88.5255   2
  -4   8  -4 116.686 78.4155   3
  -4   8  -5 1349.09 132.284   3
  -4   8  -5 1538.41 138.677   2
  -4   7   7 829.217 105.447   3
  -4   7   6 7.55948 80.8874   3
  -4   7   5 390.500 97.5160   3
  -4   7   4 33.7494 99.2678   3
  -4   7   3-4.35142 99.5760   3
  -4   7   2 71.5969 88.3046   3
  -4   7   1 633.863 115.554   3
  -4   7   0 31.4393 73.5694   3
  -4   7  -1 652.987 109.106   3
  -4   7  -2 672.185 102.929   3
  -4   7  -2 603.898 94.3126   2
  -4   7  -3 4780.08 200.812   3
  -4   7  -3 4306.25 183.440   2
  -4   7  -4-18.8439 70.9439   2
  -4   7  -4 38.5225 75.7435   3
  -4   7  -5 19.2695 69.3736   2
  -4   7  -5 46.2171 71.9633   3
  -4   7  -6 85.3498 73.5376   2
  -4   7  -7 118.485 77.9017   2
  -4   6   8 99.1181 72.6383   3
  -4   6   7 825.391 103.065   3
  -4   6   6 3.51359 63.6279   3
  -4   6   5 33.7173 72.8490   3
  -4   6   4 119.241 69.5000   3
  -4   6   3 2250.29 139.024   3
   4  -6  -3 2286.83 109.728   1
  -4   6   2 2072.56 135.757   3
   4  -6  -2 1918.88 104.760   1
  -4   6   1 254.599 77.6116   3
  -4   6   0 703.797 98.0963   3
  -4   6  -1 236.717 87.9437   3
  -4   6  -2 4417.68 180.787   3
  -4   6  -2 4564.65 174.871   2
  -4   6  -3 2171.19 135.093   3
  -4   6  -3 2096.35 133.155   2
  -4   6  -4 14.2408 63.3543   2
  -4   6  -4 8.58368 67.4217   3
  -4   6  -5 3227.62 158.068   3
  -4   6  -5 3167.67 159.480   2
  -4   6  -6 503.127 90.4617   2
  -4   6  -7 444.078 90.3208   2
  -4   6  -8 2578.40 164.020   2
  -4   6  -9 71.4330 85.2589   2
  -4   5   8-19.0115 69.3341   3
  -4   5   7 344.588 79.1827   3
   4  -5  -6 61.4381 36.7178   1
  -4   5   6-11.9887 64.8150   3
   4  -5  -5 334.879 56.0827   1
  -4   5   5 272.278 82.6620   3
  -4   5   4 5448.55 190.927   3
   4  -5  -4 5404.11 156.977   1
   4  -5  -3 157.322 49.2379   1
  -4   5   3 77.9497 75.5867   3
  -4   5   2 5593.75 190.909   3
   4  -5  -2 5962.36 168.734   1
  -4   5   1 1616.20 116.966   3
  -4   5   0 748.797 94.4583   3
  -4   5  -1 5615.01 187.659   3
  -4   5  -1 5451.59 172.170   2
  -4   5  -2 556.267 80.7647   3
  -4   5  -2 656.286 83.2376   2
  -4   5  -3 17159.3 311.815   3
  -4   5  -3 16841.5 306.246   2
  -4   5  -4 607.469 84.7202   2
  -4   5  -4 615.153 80.8387   3
  -4   5  -5 454.970 80.8370   2
  -4   5  -5 468.382 80.4292   3
  -4   5  -6 841.402 100.767   2
  -4   5  -6 1008.22 92.2051   3
  -4   5  -7 559.982 102.082   2
  -4   5  -8 109.119 73.9831   2
  -4   5  -9-6.49348 84.0980   2
  -4   5 -10 66.8407 95.4428   2
   4  -4  -9 136.057 46.3834   1
   4  -4  -8 35.0748 50.7478   1
  -4   4   8 76.4693 62.1333   3
   4  -4  -7 579.164 69.3227   1
  -4   4   7 562.209 77.8851   3
  -4   4   6 1016.16 94.9806   3
   4  -4  -6 1035.63 78.0530   1
   4  -4  -5 44.8061 42.9292   1
  -4   4   5 65.1055 65.2251   3
  -4   4   4 1052.93 99.0714   3
   4  -4  -4 1203.24 84.2878   1
  -4   4   3 19779.0 329.028   3
   4  -4  -3 20218.1 285.428   1
  -4   4   2 1927.21 118.627   3
   4  -4  -2 2211.94 106.029   1
  -4   4   1 7128.61 198.913   3
  -4   4   0 20.8628 49.0342   2
  -4   4   0 3.70248 67.3142   3
  -4   4  -1 570.598 85.1984   3
  -4   4  -1 557.903 70.8671   2
  -4   4  -2 2876.19 131.312   3
  -4   4  -2 2794.92 123.120   2
  -4   4  -3 1813.18 106.724   2
  -4   4  -3 1870.57 109.688   3
  -4   4  -4 504.194 76.1445   2
  -4   4  -4 544.568 70.8559   3
  -4   4  -5 883.510 97.4478   2
  -4   4  -5 923.173 81.5380   3
  -4   4  -6 2712.35 140.282   2
  -4   4  -6 2464.37 118.678   3
  -4   4  -7 4534.57 181.657   2
  -4   4  -8 235.149 78.8823   2
  -4   4  -9 983.989 117.664   2
  -4   4 -10 837.599 105.854   2
  -4   4 -11 14.5847 92.6339   2
   4  -3 -11 31.6377 61.2141   1
   4  -3 -10 125.733 50.9586   1
   4  -3  -9 338.136 61.6600   1
   4  -3  -8-66.0237 44.0439   1
  -4   3   8-45.3282 53.9570   3
   4  -3  -7-7.23788 48.3851   1
  -4   3   7 46.1958 55.3137   3
   4  -3  -6 9.34012 40.0088   1
  -4   3   6 20.1132 60.0309   3
   4  -3  -5 15.4661 40.9180   1
  -4   3   5 3.32573 62.2538   3
  -4   3   4 11796.1 243.033   3
   4  -3  -4 11953.6 224.195   1
  -4   3   3 515.675 79.3909   3
   4  -3  -3 544.245 59.2786   1
  -4   3   2 3752.82 143.435   3
   4  -3  -2 3575.85 123.242   1
  -4   3   1 528.277 76.9272   3
  -4   3   0 2875.89 125.298   3
  -4   3   0 2906.67 106.293   2
  -4   3  -1 3222.63 127.079   3
  -4   3  -1 3090.39 112.901   2
  -4   3  -2 134.108 51.0418   2
  -4   3  -2 144.363 54.9270   3
  -4   3  -3 390.995 63.0384   2
  -4   3  -3 414.669 64.2203   3
  -4   3  -4 2755.16 124.520   2
  -4   3  -4 2684.54 114.401   3
  -4   3  -5 1443.71 105.617   2
  -4   3  -5 1411.23 88.8608   3
  -4   3  -6 55413.9 542.740   2
  -4   3  -6 55808.3 462.811   3
  -4   3  -7 1935.47 124.537   2
  -4   3  -8 44.5154 72.4192   2
  -4   3  -9 1417.32 119.920   2
  -4   3 -10 87.8860 68.2155   2
  -4   3 -11 661.763 119.523   2
   4  -2 -13-52.7179 77.8759   1
   4  -2 -12 73.3689 68.2013   1
   4  -2 -11 0.42884 61.4958   1
   4  -2 -10 323.012 67.6895   1
   4  -2  -9 283.522 64.2540   1
  -4   2   8 975.732 85.4896   3
   4  -2  -8 758.217 81.0337   1
   4  -2  -7 60.2662 48.0108   1
  -4   2   7 23.9168 52.5098   3
   4  -2  -6 533.980 63.9358   1
  -4   2   6 493.523 74.8945   3
   4  -2  -5 259.221 55.2928   1
  -4   2   5 202.486 63.2984   3
  -4   2   4 780.128 81.1038   3
   4  -2  -4 857.104 70.1032   1
   4  -2  -3 877.191 64.2522   1
  -4   2   3 963.085 80.7778   3
  -4   2   2 902.281 80.6600   3
   4  -2  -2 917.105 70.7244   1
  -4   2   1 42.6777 34.8374   2
  -4   2   1 57.7259 60.3239   3
  -4   2   0 56165.1 464.242   3
  -4   2   0 56710.8 392.671   2
  -4   2  -1 4229.95 116.446   2
  -4   2  -1 4215.78 133.659   3
  -4   2  -2 5041.70 132.735   2
  -4   2  -2 5059.82 142.501   3
  -4   2  -3 948.034 75.7812   2
  -4   2  -3 915.561 70.4528   3
  -4   2  -4 6246.71 161.826   2
  -4   2  -4 6249.44 152.849   3
  -4   2  -5 3075.97 131.314   2
  -4   2  -5 3385.12 114.361   3
  -4   2  -6 955.020 94.1769   2
  -4   2  -6 859.384 68.6562   3
  -4   2  -7 4925.34 171.803   2
  -4   2  -8 1902.02 127.295   2
  -4   2  -9 384.502 83.8011   2
  -4   2 -10 2386.13 147.215   2
  -4   2 -11 136.941 87.4522   2
  -4   2 -12-24.1738 78.2711   2
   4  -1 -13-22.3528 83.7611   1
   4  -1 -12 49.6700 65.3776   1
   4  -1 -11 246.979 80.3260   1
   4  -1 -10 255.067 69.4755   1
   4  -1  -9 227.930 64.6436   1
   4  -1  -8 11.0402 51.3218   1
  -4   1   8-16.7788 43.8822   3
  -4   1   7 499.325 67.3271   3
   4  -1  -7 497.627 70.0289   1
  -4   1   6 887.328 78.8544   3
   4  -1  -6 885.259 76.1210   1
  -4   1   5 4358.17 143.220   3
   4  -1  -5 4351.52 136.979   1
  -4   1   4 6418.80 164.819   3
   4  -1  -4 6276.06 156.517   1
  -4   1   3 1591.38 92.7114   3
   4  -1  -3 1615.19 83.0108   1
  -4   1   2 3532.05 125.356   3
   4  -1  -2 3503.21 111.226   1
  -4   1   1 2013.12 98.5526   3
   4  -1  -1 2120.32 89.5595   1
  -4   1   1 2040.40 67.4624   2
  -4   1   0 14900.2 177.907   2
   4  -1   0 14767.1 117.867   0
  -4   1   0 14707.5 229.539   3
  -4   1  -1 23686.0 240.967   2
  -4   1  -1 23506.6 282.839   3
  -4   1  -2 1376.28 71.5031   2
  -4   1  -2 1348.75 78.6470   3
  -4   1  -3 1641.04 82.0179   2
  -4   1  -3 1650.02 82.3785   3
  -4   1  -4 1611.48 85.7439   2
  -4   1  -4 1464.25 77.2690   3
  -4   1  -5 739.048 73.1208   2
  -4   1  -5 700.311 57.4932   3
  -4   1  -6 32617.2 378.412   2
  -4   1  -6 33019.5 305.613   3
  -4   1  -7 385.741 71.7834   2
  -4   1  -8 935.604 91.4657   2
  -4   1  -9 225.829 74.5840   2
  -4   1 -10 2750.50 145.867   2
  -4   1 -11-44.5485 69.3649   2
  -4   1 -12 96.9212 84.1652   2
  -4   1 -13 608.234 115.933   2
   4   0 -12 187.918 71.7086   1
   4   0 -11 253.134 85.0129   1
   4   0 -10 292.167 70.1181   1
   4   0  -9 134.247 59.0175   1
   4   0  -8 183.906 53.2489   1
   4   0  -7 82.1712 50.1249   1
  -4   0   7 136.496 59.4357   3
  -4   0   6 5619.19 158.597   3
   4   0  -6 5623.41 165.475   1
  -4   0   5 3001.04 121.753   3
   4   0  -5 2731.35 111.623   1
  -4   0   4 997.952 79.0570   3
   4   0  -4 841.443 66.0896   1
   4   0  -3 1076.83 70.8208   1
   4   0  -2 13415.3 161.318   0
   4   0  -2 12724.2 195.874   1
   4   0  -1 216.523 46.0257   1
   4   0  -1 185.375 25.4360   0
  -4   0   1 209.371 24.3168   2
  -4   0   0 27122.2 210.611   2
   4   0   0 27185.8 191.371   0
  -4   0  -1 15171.0 174.803   2
  -4   0  -1 14869.6 222.415   3
   4   0   1 15569.2 142.142   0
  -4   0  -2 6809.86 130.473   2
  -4   0  -2 6694.03 148.078   3
   4   0   2 7195.77 100.722   0
  -4   0  -3 150.885 41.0739   2
   4   0   3 158.280 23.4251   0
  -4   0  -3 179.850 46.8913   3
  -4   0  -4 13749.3 207.858   2
   4   0   4 13467.0 152.736   0
  -4   0  -4 14108.3 199.474   3
   4   0   5 195.044 32.6037   0
  -4   0  -5 151.475 46.1414   2
  -4   0  -5 158.554 40.8413   3
  -4   0  -6 2946.93 120.175   2
   4   0   6 2978.50 92.2423   0
  -4   0  -6 3039.69 91.2151   3
  -4   0  -7 1765.44 105.744   2
   4   0   7 1935.98 83.5469   0
  -4   0  -8 1311.85 100.611   2
   4   0   8 1483.64 81.7592   0
  -4   0  -9-4.50974 71.1332   2
   4   0   9 3.88103 41.6444   0
  -4   0 -10 7145.98 215.378   2
  -4   0 -11-9.70171 70.0598   2
  -4   0 -12 174.515 78.5039   2
  -4   0 -13 8.08473 84.9721   2
   4   1 -12 1063.47 117.221   1
   4   1 -11 210.904 75.4110   1
   4   1 -10 430.878 79.2973   1
   4   1  -9 165.379 62.6021   1
   4   1  -8 1841.98 108.733   1
   4   1  -7-20.2336 48.9175   1
   4   1  -6 1556.78 94.6576   1
   4   1  -5 8.91179 47.6493   1
   4   1  -4 4278.16 117.177   0
   4   1  -4 4203.54 127.377   1
   4   1  -3 9276.60 156.002   0
   4   1  -3 9191.98 174.014   1
   4   1  -2 52776.3 338.791   0
   4   1  -2 52798.7 400.257   1
  -4  -1   1 4713.23 61.3211   2
   4   1  -1 4111.92 92.4606   0
   4   1  -1 4298.63 112.234   1
  -4  -1   0 10578.6 116.218   2
   4   1   0 10171.4 136.953   0
   4   1   0 10405.8 170.319   1
  -4  -1  -1 7866.96 114.351   2
   4   1   1 8423.02 122.542   0
  -4  -1  -2 3109.03 84.4161   2
   4   1   2 3069.34 76.4248   0
   4   1   3 18189.3 182.106   0
  -4  -1  -3 17922.3 211.243   2
  -4  -1  -4 36.2752 41.1466   2
   4   1   4 60.8612 28.6320   0
  -4  -1  -5 1184.33 75.9807   2
   4   1   5 1196.03 59.4055   0
  -4  -1  -5 1276.83 65.4769   3
  -4  -1  -6 1318.47 85.1806   2
   4   1   6 1343.73 70.1995   0
  -4  -1  -6 1390.52 65.2933   3
  -4  -1  -7 126.394 61.8336   2
   4   1   7 106.214 43.8073   0
  -4  -1  -8 968.501 85.9907   2
   4   1   8 1166.22 77.6585   0
  -4  -1  -9 262.070 68.5038   2
   4   1   9 312.297 56.4381   0
  -4  -1 -10 1949.83 127.577   2
   4   1  10 2038.10 113.041   0
  -4  -1 -11 695.411 92.9113   2
   4   1  11 637.992 78.6687   0
  -4  -1 -12 366.563 94.1147   2
   4   1  12 299.631 70.9537   0
   4   1  13 201.089 71.1495   0
  -4  -1 -13 237.702 87.6665   2
   4   2 -12 705.271 95.1206   1
   4   2 -11 490.406 88.5212   1
   4   2 -10 968.408 100.031   1
   4   2  -9 765.702 85.8782   1
   4   2  -8 2578.31 131.315   1
   4   2  -7-12.2520 49.7538   1
   4   2  -6 726.332 72.7515   1
   4   2  -5 4396.57 132.160   0
   4   2  -5 4600.03 141.681   1
   4   2  -4 1235.00 73.6022   0
   4   2  -4 1215.40 76.4926   1
   4   2  -3 7828.32 153.308   0
   4   2  -3 8347.77 165.507   1
   4   2  -2 938.141 62.6202   0
   4   2  -2 978.093 63.8366   1
   4   2  -1 86642.2 449.917   0
   4   2  -1 86851.2 472.282   1
  -4  -2   0 6890.42 86.4218   2
   4   2   0 6827.31 126.319   0
   4   2   0 6821.21 134.194   1
  -4  -2  -1 8709.68 116.569   2
   4   2   1 8702.42 138.644   0
   4   2   1 8940.25 148.222   1
  -4  -2  -2 19953.3 198.047   2
   4   2   2 20028.7 207.789   0
  -4  -2  -3 69.5574 37.6041   2
   4   2   3 67.1438 30.7895   0
   4   2   4 16689.4 200.249   0
  -4  -2  -4 16861.5 218.673   2
  -4  -2  -5 7130.40 158.013   2
   4   2   5 7499.70 147.017   0
  -4  -2  -6 5518.39 150.196   2
   4   2   6 5576.62 135.659   0
  -4  -2  -7 265.924 67.9390   2
   4   2   7 288.297 56.0728   0
  -4  -2  -8 2456.60 122.797   2
   4   2   8 2615.26 112.703   0
   4   2   9 2.85043 52.1830   0
  -4  -2  -9 3.70783 64.4281   2
   4   2  10 451.371 70.1341   0
  -4  -2 -10 385.991 76.7685   2
   4   2  11 780.606 89.7918   0
  -4  -2 -11 598.247 87.6376   2
   4   2  12 783.625 94.0374   0
  -4  -2 -12 652.253 114.545   2
  -4  -2 -13 27.9898 79.3722   2
   4   2  13 34.6104 66.1418   0
   4   2  14 248.265 84.7362   0
   4   3 -12 314.786 90.1453   1
   4   3 -11 499.928 83.8378   1
   4   3 -10-10.1088 68.6768   1
   4   3  -9 2079.18 130.185   1
   4   3  -8 4886.84 177.666   1
   4   3  -7 4291.63 155.682   1
   4   3  -6 1692.16 100.487   0
   4   3  -6 1802.37 98.7550   1
   4   3  -5 1572.66 91.8986   0
   4   3  -5 1583.71 89.8988   1
   4   3  -4 1128.59 73.2273   0
   4   3  -4 1205.20 77.5065   1
   4   3  -3 19244.3 249.888   0
   4   3  -3 20057.0 256.694   1
   4   3  -2 41964.7 351.945   0
   4   3  -2 43197.5 352.386   1
  -4  -3   1 94672.9 257.938   2
   4   3  -1 96432.5 511.903   0
   4   3  -1 94936.3 489.745   1
   4   3   0 30.5340 37.7662   0
   4   3   0 38.7991 33.0499   1
  -4  -3   0 38.5065 21.6328   2
   4   3   1 106.202 41.0259   0
  -4  -3  -1 29.9295 26.6522   2
   4   3   1 38.7487 29.8030   1
  -4  -3  -2 34305.2 264.301   2
   4   3   2 34100.9 297.445   0
  -4  -3  -3 265.583 45.1582   2
   4   3   3 256.867 44.1384   0
   4   3   4 7921.06 152.248   0
  -4  -3  -4 7887.62 155.164   2
   4   3   5 2829.39 100.750   0
  -4  -3  -5 2842.54 108.143   2
  -4  -3  -6 279.755 59.2710   2
   4   3   6 326.067 53.1593   0
   4   3   7 202.844 54.4214   0
  -4  -3  -7 264.790 66.5333   2
  -4  -3  -8 10242.8 231.575   2
   4   3   8 10488.0 217.292   0
  -4  -3  -9 1429.02 105.125   2
   4   3   9 1472.82 99.3934   0
   4   3  10 677.145 80.9758   0
  -4  -3 -10 624.879 89.8523   2
   4   3  11 651.719 85.1413   0
  -4  -3 -11 595.107 96.4325   2
   4   3  12 897.729 96.2136   0
  -4  -3 -12 838.965 114.247   2
   4   3  13 303.862 73.0530   0
  -4  -3 -13 285.993 101.272   2
   4   4 -11 94.7431 82.9029   1
   4   4 -10 25.9155 60.3635   1
   4   4  -9 3562.98 166.896   1
   4   4  -8 3180.14 152.809   1
   4   4  -7 389.649 65.3410   1
   4   4  -7 347.480 73.3532   0
   4   4  -6 2746.39 127.215   0
   4   4  -6 2954.93 126.875   1
   4   4  -5 189.467 50.1312   1
   4   4  -5 142.466 55.3348   0
   4   4  -4 5217.12 149.108   0
   4   4  -4 5083.40 137.820   1
   4   4  -3 144.467 40.6492   1
   4   4  -3 123.994 50.4845   0
   4   4  -2 1416.10 80.2873   0
   4   4  -2 1435.35 74.2996   1
   4   4  -1 5321.08 135.481   0
   4   4  -1 5602.38 122.904   1
  -4  -4   0 19384.4 173.801   2
   4   4   0 19229.6 205.510   1
   4   4   0 18672.3 245.868   0
  -4  -4  -1 17872.2 186.681   2
   4   4   1 18595.9 196.901   1
   4   4   1 17423.3 237.184   0
  -4  -4  -2 43448.2 317.548   2
   4   4   2 44249.4 280.415   1
   4   4   2 43262.9 364.199   0
   4   4   3 520.521 57.3841   0
  -4  -4  -3 550.567 53.4690   2
   4   4   3 527.773 39.9086   1
   4   4   4 510.844 56.2540   0
  -4  -4  -4 557.126 62.0513   2
   4   4   5 983.930 71.3960   0
  -4  -4  -5 936.343 73.0070   2
  -4  -4  -6 113.024 56.8989   2
   4   4   6 126.643 52.7527   0
  -4  -4  -7 2085.38 117.265   2
   4   4   7 2189.81 108.319   0
   4   4   8 347.372 67.2632   0
  -4  -4  -8 352.804 77.6676   2
   4   4   9 52.2073 57.3276   0
  -4  -4  -9 85.1426 66.9802   2
  -4  -4 -10 125.610 78.9329   2
   4   4  10 35.3523 60.5555   0
  -4  -4 -11 21.9870 84.9842   2
   4   4  11 125.396 73.6992   0
  -4  -4 -12 1494.25 130.934   2
   4   4  12 1710.37 130.785   0
  -4  -4 -13 159.410 83.5653   2
   4   4  13 77.4713 67.3594   0
   4   5 -11 71.4919 71.2587   1
   4   5 -10 53.7867 64.8761   1
   4   5  -9 2385.12 143.397   1
   4   5  -8 242.887 62.4441   1
   4   5  -7 394.998 67.8553   1
   4   5  -7 472.243 74.1207   0
   4   5  -6 1439.99 102.797   0
   4   5  -6 1582.86 100.415   1
   4   5  -5 476.998 69.4335   0
   4   5  -5 593.440 67.6097   1
   4   5  -4 1597.83 97.2839   0
   4   5  -4 1855.69 93.3128   1
   4   5  -3 273.632 47.1784   1
   4   5  -3 232.264 60.5434   0
   4   5  -2 1421.39 87.9591   0
   4   5  -2 1516.26 69.5927   1
   4   5  -1 3484.99 96.2834   1
   4   5  -1 3176.99 118.139   0
   4   5   0 2235.49 74.6365   1
   4   5   0 1905.90 97.6061   0
   4   5   1 16906.9 176.274   1
   4   5   1 16153.7 242.160   0
   4   5   2 1307.24 50.3810   1
   4   5   2 1220.68 82.6539   0
  -4  -5  -3 331.373 50.8368   2
   4   5   3 371.624 59.0978   0
  -4  -5  -4 495.162 63.9921   2
   4   5   4 412.305 60.4029   0
   4   5   5 50.9493 54.1975   0
  -4  -5  -5 41.2283 51.3800   2
   4   5   6 1400.65 91.1714   0
  -4  -5  -6 1366.15 99.2336   2
  -4  -5  -7 100.658 70.1942   2
   4   5   7 83.6153 52.7844   0
  -4  -5  -8 211.048 77.9384   2
   4   5   8 160.669 62.9092   0
  -4  -5  -9 3132.32 150.999   2
   4   5   9 3390.24 148.205   0
   4   5  10-5.66702 69.9842   0
  -4  -5 -10-17.1326 80.3667   2
   4   5  11 103.221 66.3871   0
  -4  -5 -11 91.8765 80.2035   2
   4   5  12 629.411 95.9774   0
  -4  -5 -12 607.819 108.601   2
   4   6 -11 6.75600 77.6013   1
   4   6 -10 827.192 100.656   1
   4   6  -9 455.176 82.2308   1
   4   6  -8 1261.08 108.755   0
   4   6  -8 1336.12 112.281   1
   4   6  -7 57.8905 59.8098   1
   4   6  -7 131.569 70.3175   0
   4   6  -6 3.23778 53.7178   1
   4   6  -6 12.4786 62.5789   0
   4   6  -5 3050.80 134.866   0
   4   6  -5 3533.57 133.192   1
   4   6  -4 9976.93 202.596   1
   4   6  -4 9489.99 216.782   0
   4   6  -3 5785.23 146.961   1
   4   6  -3 5026.89 159.581   0
   4   6  -2 1280.12 69.1471   1
   4   6  -2 1075.46 87.6763   0
   4   6  -1 4333.28 107.193   1
   4   6  -1 4008.02 138.906   0
   4   6   0 1442.84 95.2437   0
   4   6   1 3272.55 127.084   0
   4   6   2 8382.97 194.168   0
   4   6   3 5816.34 161.367   0
  -4  -6  -4 233.742 63.8864   2
   4   6   4 224.134 63.0377   0
   4   6   5 1101.10 88.6362   0
  -4  -6  -5 1317.04 95.3081   2
   4   6   6 3349.22 137.111   0
  -4  -6  -6 3477.76 143.503   2
   4   6   7 132.149 62.1830   0
  -4  -6  -7 123.568 78.3862   2
  -4  -6  -8 273.378 88.4502   2
   4   6   8 242.462 66.8942   0
   4   6   9 1148.01 102.290   0
  -4  -6  -9 1284.31 114.580   2
  -4  -6 -10-11.0925 82.0333   2
   4   6  10 33.2286 78.0945   0
  -4  -6 -11 154.239 79.6211   2
   4   6  11 145.206 82.9937   0
  -4  -6 -12 579.516 113.342   2
   4   6  12 572.012 97.8685   0
   4   7 -10 19.2525 77.6757   1
   4   7  -9 4251.84 196.906   1
   4   7  -8 1726.92 126.953   0
   4   7  -8 1811.72 119.819   1
   4   7  -7 216.208 74.6432   1
   4   7  -7 227.044 81.7058   0
   4   7  -6 124.621 55.7031   1
   4   7  -6 170.251 70.8676   0
   4   7  -5 649.455 84.2386   0
   4   7  -5 737.524 71.0537   1
   4   7  -4 19.8873 40.6591   1
   4   7  -4 49.6292 48.5103   0
   4   7  -3 2642.18 126.800   0
   4   7  -2 15.9217 53.4788   0
   4   7  -1 1086.03 88.0032   0
   4   7   0-8.77489 59.2006   0
   4   7   1 2498.15 120.990   0
   4   7   2 1354.76 99.7892   0
   4   7   3 34.7764 57.7409   0
   4   7   4-5.37579 55.3138   0
   4   7   5 2372.56 124.127   0
   4   7   6 36.9643 62.3445   0
  -4  -7  -6-1.68725 66.7372   2
   4   7   7 296.116 66.4198   0
  -4  -7  -7 276.226 80.5581   2
  -4  -7  -8 711.843 98.9006   2
   4   7   8 586.850 84.1104   0
   4   7   9 9.35624 58.8255   0
  -4  -7  -9-124.298 79.5195   2
  -4  -7 -10-28.3583 88.4428   2
   4   7  10-9.35613 76.9060   0
  -4  -7 -11 63.9508 86.1895   2
   4   7  11 78.0503 84.4562   0
   4   8  -9-107.654 81.6863   1
   4   8  -8 1730.48 132.181   0
   4   8  -8 1920.52 132.523   1
   4   8  -7 218.487 63.3456   1
   4   8  -7 193.594 80.6683   0
   4   8  -6-1.19204 60.1273   0
   4   8  -5 681.439 84.8646   0
   4   8  -4 312.362 71.1518   0
   4   8  -3 905.841 96.5569   0
   4   8  -2 1261.59 99.2722   0
   4   8  -1 1017.00 92.6953   0
   4   8   0 100.424 64.1003   0
   4   8   1 96.0984 57.9733   0
   4   8   2 19.3575 56.0765   0
   4   8   3 15.5558 58.0998   0
   4   8   4 34.6560 56.9755   0
   4   8   5 453.994 81.3515   0
   4   8   6 475.335 85.0680   0
   4   8   7 327.150 69.4997   0
  -4  -8  -7 297.656 92.5931   2
   4   8   8 227.784 76.3051   0
  -4  -8  -8 123.193 76.3834   2
   4   8   9 45.1827 65.9030   0
  -4  -8  -9 16.0812 83.9566   2
   4   8  10 248.034 89.2360   0
  -4  -8 -10 266.966 95.8407   2
   4   9  -8 1054.87 124.320   0
   4   9  -7 1625.20 131.460   0
   4   9  -6 42.4706 66.1740   0
   4   9  -5 60.1994 75.3388   0
   4   9  -4 101.279 66.9698   0
   4   9  -3 274.979 75.9493   0
   4   9  -2 84.6036 67.7446   0
   4   9  -1 507.801 81.9632   0
   4   9   0 2290.78 131.892   0
   4   9   1 3923.77 162.808   0
   4   9   2 536.355 91.0024   0
   4   9   3 42.3721 68.7701   0
   4   9   4 225.871 76.2324   0
   4   9   5 332.517 76.3532   0
   4   9   6 41.3214 73.4433   0
  -4  -9  -7 75.6642 75.1247   2
   4   9   7 89.0511 66.2043   0
   4   9   8 14.7929 73.2074   0
  -4  -9  -8 15.1360 85.3460   2
   4   9   9-16.1840 74.2272   0
  -4  -9  -9 43.8255 81.4401   2
   4  10  -6 9.48438 79.0557   0
   4  10  -5 1235.88 119.267   0
   4  10  -4 4.78362 77.2558   0
   4  10  -3 1018.29 103.513   0
   4  10  -2 21.2821 71.3130   0
   4  10  -1 532.978 90.2345   0
   4  10   0 2790.99 147.253   0
   4  10   1 523.369 94.2680   0
   4  10   2 11.8638 77.4020   0
   4  10   3 397.989 89.4393   0
   4  10   4 154.825 77.5054   0
   4  10   5 143.716 70.8622   0
   4  10   6 67.4129 77.0069   0
   4  10   7 9.33168 75.7245   0
  -4 -10  -8 61.8054 85.8108   2
   4  10   8-99.1557 75.2154   0
   4  11  -4 616.843 99.4243   0
   4  11  -3 217.442 70.2629   0
   4  11  -2 155.591 68.6141   0
   4  11  -1 259.776 91.7445   0
   4  11   0 420.903 84.9288   0
   4  11   1 738.231 101.039   0
   4  11   2 562.189 102.608   0
   4  11   3 213.338 82.4803   0
   4  11   4 1.43256 76.7116   0
   4  11   5 31.5156 80.5559   0
   4  11   6-113.656 85.8070   0
   4  12   0 60.1125 83.0252   0
   4  12   1 34.9463 69.8514   0
   4  12   2-53.6209 86.0283   0
  -5   8   1 43.2858 106.414   3
  -5   8   0 12.2912 104.950   3
  -5   8  -1 26.1536 80.4507   3
  -5   8  -2 40.6870 83.0881   3
  -5   8  -3 204.445 103.436   3
  -5   8  -4-100.273 105.099   3
  -5   7   6 292.158 96.2235   3
  -5   7   5 159.928 94.1020   3
  -5   7   4 125.220 88.7379   3
  -5   7   3-34.0948 81.9142   3
  -5   7   2 195.454 102.368   3
  -5   7   1 2644.76 170.377   3
  -5   7   0 1.59542 87.6426   3
  -5   7  -1 605.739 99.2531   3
  -5   7  -2 628.060 112.065   3
  -5   7  -3 378.666 79.2706   2
  -5   7  -3 493.164 96.8150   3
  -5   7  -4 62.5837 82.6639   2
  -5   7  -4 95.3214 74.4609   3
  -5   7  -5 441.991 106.253   2
  -5   7  -5 293.316 91.9150   3
  -5   6   8 106.160 84.5219   3
  -5   6   7 3194.85 175.189   3
  -5   6   6 713.875 119.073   3
  -5   6   5 444.405 100.487   3
  -5   6   4 546.127 100.262   3
   5  -6  -3 483.866 75.7669   1
  -5   6   3 387.903 93.4370   3
   5  -6  -2-14.6556 59.1937   1
  -5   6   2 13.8919 80.7424   3
  -5   6   1 2687.65 160.741   3
   5  -6  -1 2648.04 131.485   1
  -5   6   0-56.4161 80.6116   3
  -5   6  -1-5.53336 71.1054   3
  -5   6  -2 15.9165 57.9130   2
  -5   6  -2 0.92018 76.6264   3
  -5   6  -3 1743.28 120.811   3
  -5   6  -3 1632.63 120.253   2
  -5   6  -4 150.473 79.4359   2
  -5   6  -4 187.953 67.8700   3
  -5   6  -5 30.1212 77.3524   2
  -5   6  -5-35.7359 72.5946   3
  -5   6  -6 19.0573 85.9038   2
  -5   6  -7-5.78408 79.9187   2
  -5   5   8 1377.19 126.507   3
  -5   5   7 5388.49 212.373   3
   5  -5  -6 17.2437 49.2609   1
  -5   5   6-3.60913 75.6090   3
  -5   5   5 1381.10 123.079   3
   5  -5  -5 1443.92 105.178   1
  -5   5   4 1948.21 132.637   3
   5  -5  -4 2090.60 114.729   1
  -5   5   3 1226.13 118.796   3
   5  -5  -3 1394.05 98.2648   1
   5  -5  -2 373.610 67.7535   1
  -5   5   2 275.145 88.2937   3
   5  -5  -1 87.7972 57.2470   1
  -5   5   1 59.8034 70.9034   3
  -5   5   0 809.861 104.377   3
  -5   5  -1-13.6890 63.0870   2
  -5   5  -1-20.2522 66.8594   3
  -5   5  -2 42.4042 60.6572   2
  -5   5  -2 45.8088 72.5360   3
  -5   5  -3 3013.97 154.634   3
  -5   5  -3 2944.98 150.308   2
  -5   5  -4 39.1278 66.2116   2
  -5   5  -4 30.1480 69.1887   3
  -5   5  -5 762.210 97.3667   2
  -5   5  -5 904.152 98.4684   3
  -5   5  -6 222.656 84.8430   2
  -5   5  -7 155.233 83.3124   2
  -5   5  -8 135.891 92.4404   2
   5  -4  -9 323.351 73.2639   1
   5  -4  -8 67.7297 50.7605   1
  -5   4   8 17.5252 72.4749   3
  -5   4   7 4320.19 182.272   3
   5  -4  -7 4153.27 161.665   1
   5  -4  -6 606.523 75.4954   1
  -5   4   6 674.490 92.9399   3
  -5   4   5 2417.80 144.114   3
   5  -4  -5 2322.11 118.237   1
   5  -4  -4 197.192 59.6325   1
  -5   4   4 228.879 84.9953   3
  -5   4   3 16119.4 322.742   3
   5  -4  -3 15754.9 282.444   1
   5  -4  -2 99.5323 61.6314   1
  -5   4   2 153.152 80.5407   3
  -5   4   1 719.395 95.2002   3
   5  -4  -1 794.151 78.5666   1
  -5   4   0 1824.55 123.256   3
  -5   4   0 1764.45 102.008   2
  -5   4  -1 497.575 70.0247   2
  -5   4  -1 535.425 88.1842   3
  -5   4  -2 405.533 78.5033   3
  -5   4  -2 570.260 81.9785   2
  -5   4  -3 4615.62 169.215   2
  -5   4  -3 4694.56 173.220   3
  -5   4  -4 2428.14 134.675   2
  -5   4  -4 2442.79 131.538   3
  -5   4  -5 421.117 81.9364   2
  -5   4  -5 411.604 75.6314   3
  -5   4  -6 430.200 87.9636   2
  -5   4  -7 67.3832 63.8110   2
  -5   4  -8 503.453 94.7975   2
  -5   4  -9 741.007 113.385   2
  -5   4 -10 133.406 97.3506   2
   5  -3 -11 824.774 98.5831   1
   5  -3 -10 10.3295 52.8794   1
   5  -3  -9 1732.50 117.476   1
  -5   3   8 976.451 98.4009   3
   5  -3  -8 997.026 98.2321   1
   5  -3  -7 533.941 72.2809   1
  -5   3   7 527.143 88.7485   3
  -5   3   6 1821.49 123.007   3
   5  -3  -6 1864.16 109.897   1
   5  -3  -5 155.246 58.0198   1
  -5   3   5 102.095 71.0910   3
  -5   3   4 7795.93 222.925   3
   5  -3  -4 7847.87 203.054   1
   5  -3  -3 250.791 56.3963   1
  -5   3   3 261.770 80.6782   3
  -5   3   2 2373.97 133.079   3
   5  -3  -2 2599.96 124.146   1
  -5   3   1 2156.72 128.578   3
   5  -3  -1 2110.09 109.761   1
  -5   3   0 2383.00 127.454   3
  -5   3   0 2670.82 111.047   2
  -5   3  -1 904.306 92.5759   3
  -5   3  -1 934.534 77.2705   2
  -5   3  -2 81.6384 52.1264   2
  -5   3  -2 95.5902 63.8759   3
  -5   3  -3 824.003 77.9203   2
  -5   3  -3 863.089 89.4137   3
  -5   3  -4 398.151 74.1701   2
  -5   3  -4 322.547 66.4507   3
  -5   3  -5 595.536 83.8256   2
  -5   3  -5 433.487 69.7601   3
  -5   3  -6 296.804 82.9103   2
  -5   3  -7 345.104 77.9020   2
  -5   3  -8 84.6001 66.4811   2
  -5   3  -9 148.571 88.7196   2
  -5   3 -10 943.801 118.888   2
   5  -2 -11 255.436 71.4610   1
   5  -2 -10 728.718 91.3623   1
   5  -2  -9 371.447 68.9891   1
   5  -2  -8 288.475 70.7479   1
  -5   2   8 273.523 68.0916   3
   5  -2  -7 62.9522 56.6569   1
  -5   2   7 74.7571 61.3714   3
  -5   2   6 817.948 89.8540   3
   5  -2  -6 720.348 76.8383   1
  -5   2   5 892.757 94.8560   3
   5  -2  -5 881.702 80.0369   1
  -5   2   4 10805.4 246.570   3
   5  -2  -4 11690.9 241.514   1
  -5   2   3 1667.42 115.746   3
   5  -2  -3 1603.05 95.2124   1
   5  -2  -2 437.085 60.7332   1
  -5   2   2 361.831 83.1574   3
   5  -2  -1 199.082 55.0721   1
  -5   2   1 182.561 72.2369   3
  -5   2   1 154.722 40.2466   2
  -5   2   0 490.588 81.7675   3
  -5   2   0 417.255 52.5583   2
  -5   2  -1 513.823 57.4954   2
  -5   2  -1 487.911 76.0746   3
  -5   2  -2 524.763 61.5605   2
  -5   2  -2 559.672 78.2180   3
  -5   2  -3 474.223 64.8872   2
  -5   2  -3 416.672 70.9280   3
  -5   2  -4 7181.36 188.395   2
  -5   2  -4 7068.93 183.443   3
  -5   2  -5 5225.32 169.617   2
  -5   2  -5 5281.63 159.400   3
  -5   2  -6 5300.63 179.543   2
  -5   2  -7 1848.04 124.816   2
  -5   2  -8 443.975 89.1801   2
  -5   2  -9 34.0116 95.7325   2
  -5   2 -10 110.449 73.4530   2
  -5   2 -11-6.17622 79.9252   2
   5  -1 -11 108.995 67.1803   1
   5  -1 -10 92.8972 57.1349   1
   5  -1  -9 609.277 82.2230   1
   5  -1  -8 45.1749 55.5310   1
  -5   1   8 71.3987 50.9583   3
   5  -1  -7 81.9237 60.2501   1
  -5   1   7 79.6448 63.0420   3
  -5   1   6 1510.88 105.551   3
   5  -1  -6 1324.97 94.3089   1
  -5   1   5 9477.63 226.853   3
   5  -1  -5 9226.11 212.247   1
  -5   1   4 6769.95 192.413   3
   5  -1  -4 6763.08 182.056   1
   5  -1  -3 387.155 60.7677   1
  -5   1   3 407.823 85.1866   3
  -5   1   2 546.464 81.3935   3
   5  -1  -2 493.425 64.4199   1
   5  -1  -1 362.269 59.8504   1
  -5   1   1 388.996 77.2148   3
  -5   1   1 413.619 39.6309   2
  -5   1   0 157.621 36.4214   2
  -5   1   0 215.922 70.7664   3
  -5   1  -1 1461.42 72.9847   2
  -5   1  -1 1383.32 96.2973   3
  -5   1  -2 569.668 60.5597   2
  -5   1  -2 614.276 77.0278   3
  -5   1  -3-8.28864 45.8346   2
  -5   1  -3-6.08192 53.9498   3
  -5   1  -4 3762.30 132.347   2
  -5   1  -4 3667.61 129.218   3
  -5   1  -5 1467.85 99.8592   2
  -5   1  -5 1487.27 88.9352   3
  -5   1  -6 1039.03 93.6569   2
  -5   1  -6 1037.51 78.5061   3
  -5   1  -7 118.281 63.7455   2
  -5   1  -8 56.8380 69.7226   2
  -5   1  -9 350.777 78.0738   2
  -5   1 -10 810.841 102.163   2
  -5   1 -11 317.367 85.8172   2
  -5   1 -12 120.734 87.4497   2
   5   0 -11 3345.62 177.962   1
   5   0 -10 3934.74 173.287   1
   5   0  -9-37.2145 56.4233   1
   5   0  -8 513.521 76.4003   1
  -5   0   8 552.666 72.4201   3
   5   0  -7 58.9632 53.1425   1
  -5   0   7 22.9427 61.8054   3
  -5   0   6 650.645 80.3418   3
   5   0  -6 613.824 72.5936   1
   5   0  -5 295.697 64.1273   1
  -5   0   5 263.678 77.6658   3
  -5   0   4 2567.43 128.426   3
   5   0  -4 2588.67 117.134   1
  -5   0   3 4436.56 156.892   3
   5   0  -3 4691.52 148.711   1
   5   0  -2 145.168 34.0437   0
   5   0  -2 83.2885 48.5430   1
  -5   0   2 132.104 62.6087   3
   5   0  -1 269.800 53.8658   1
   5   0  -1 257.433 33.1575   0
  -5   0   1 247.590 68.8148   3
  -5   0   0 3661.60 89.4208   2
   5   0   0 3707.24 82.2865   0
  -5   0   0 3816.25 139.964   3
   5   0   0 3631.00 124.106   1
  -5   0  -1 567.319 47.3952   2
  -5   0  -1 611.945 77.0608   3
  -5   0  -2 819.610 59.0552   2
  -5   0  -2 745.225 76.7252   3
  -5   0  -3 81.0088 40.7478   2
  -5   0  -3 90.8165 53.7190   3
  -5   0  -4 1246.51 82.6019   2
  -5   0  -4 1230.45 83.4962   3
  -5   0  -5 2028.20 102.762   2
  -5   0  -5 2093.70 97.4398   3
  -5   0  -6 6008.08 171.150   2
  -5   0  -6 6429.59 152.464   3
  -5   0  -7 9454.74 222.542   2
  -5   0  -8 79.2827 71.5744   2
  -5   0  -9-4.50330 69.3541   2
  -5   0 -10 908.965 105.366   2
  -5   0 -11 211.922 80.8327   2
  -5   0 -12 120.902 82.1193   2
   5   1 -11 110.073 79.5628   1
   5   1 -10 1009.43 115.817   1
   5   1  -9 32.2524 59.4352   1
   5   1  -8 399.595 66.6480   1
  -5  -1   8 402.471 73.8481   3
   5   1  -7 80.8725 57.1888   1
  -5  -1   7 130.844 61.7151   3
   5   1  -6 895.970 84.1172   1
   5   1  -5 5499.95 166.768   1
   5   1  -4 6638.73 152.621   0
   5   1  -4 6758.88 174.543   1
   5   1  -3 3333.83 105.663   0
   5   1  -3 3444.73 125.656   1
   5   1  -2 2396.82 84.3520   0
   5   1  -2 2414.75 103.867   1
   5   1  -1 113.877 44.0736   1
   5   1  -1 70.1720 29.9373   0
   5   1   0 1664.63 65.2401   0
   5   1   0 1663.33 86.7955   1
  -5  -1  -1 1821.08 66.6581   2
   5   1   1 1695.77 63.6897   0
   5   1   2 20.0494 24.9482   0
  -5  -1  -2 9.20903 30.1332   2
  -5  -1  -3 458.722 48.9465   2
   5   1   3 475.971 40.5134   0
   5   1   4 660.217 47.4350   0
  -5  -1  -4 732.078 62.0468   2
   5   1   5 4784.86 113.043   0
  -5  -1  -5 4817.68 143.080   2
  -5  -1  -5 4832.92 135.610   3
  -5  -1  -6 1493.53 95.9563   2
   5   1   6 1644.83 74.2689   0
  -5  -1  -6 1596.16 84.3037   3
  -5  -1  -7 2610.42 125.702   2
   5   1   7 2902.95 104.097   0
  -5  -1  -8 33.5019 64.1773   2
  -5  -1  -9 593.088 89.8228   2
  -5  -1 -10 203.158 77.2062   2
  -5  -1 -11 33.6041 86.0146   2
  -5  -1 -12 112.447 70.1385   2
   5   2 -11 1275.51 126.967   1
   5   2 -10 2291.59 147.227   1
   5   2  -9 1107.74 102.706   1
   5   2  -8 621.495 81.0390   1
   5   2  -7 49.8346 56.1185   1
   5   2  -6-15.0005 56.8303   1
   5   2  -5 14.6292 48.7292   1
   5   2  -5 21.0945 48.6559   0
   5   2  -4 3658.28 123.653   0
   5   2  -4 3868.40 135.199   1
   5   2  -3 947.145 67.5841   0
   5   2  -3 937.400 74.1949   1
   5   2  -2 418.117 52.3251   0
   5   2  -2 401.512 55.7043   1
   5   2  -1 1118.83 65.2335   0
   5   2  -1 1179.91 72.6412   1
   5   2   0 406.553 45.4825   0
   5   2   0 455.358 55.4152   1
  -5  -2  -1 3502.50 83.2913   2
   5   2   1 3474.78 98.6194   0
   5   2   1 3378.67 110.776   1
   5   2   2 125.904 36.2321   0
  -5  -2  -2 114.761 32.0676   2
  -5  -2  -3 996.386 64.2642   2
   5   2   3 1056.26 59.1513   0
   5   2   4 4095.79 109.817   0
  -5  -2  -4 4108.14 119.219   2
   5   2   5 1533.21 74.9336   0
  -5  -2  -5 1613.38 91.4580   2
   5   2   6 25.5665 35.4171   0
  -5  -2  -6 1.28618 50.6301   2
  -5  -2  -7 1678.55 104.865   2
   5   2   7 1916.23 92.9743   0
  -5  -2  -8-22.5806 59.2595   2
   5   2   8 58.1053 45.4256   0
  -5  -2  -9 923.292 92.5042   2
   5   2   9 997.001 81.2150   0
  -5  -2 -10 2119.16 136.029   2
   5   2  10 2304.68 120.415   0
  -5  -2 -11 352.139 83.7841   2
   5   2  11 343.774 72.5457   0
  -5  -2 -12-14.6432 69.3913   2
   5   3 -11-19.8552 77.6488   1
   5   3 -10 45.0052 70.3544   1
   5   3  -9 15.9297 64.6283   1
   5   3  -8 1053.30 97.8234   1
   5   3  -7 2448.76 127.046   1
   5   3  -6 165.840 58.8442   1
   5   3  -6 142.779 57.0740   0
   5   3  -5 459.703 70.9700   1
   5   3  -5 529.497 66.3977   0
   5   3  -4 1357.95 88.2461   0
   5   3  -4 1489.47 91.6473   1
   5   3  -3 780.683 69.3831   0
   5   3  -3 865.800 73.2052   1
   5   3  -2 7492.41 162.578   0
   5   3  -2 7659.75 167.467   1
   5   3  -1 35.0603 38.9295   1
   5   3  -1 17.6821 45.6588   0
   5   3   0 84.2156 38.9731   0
   5   3   0 118.702 40.0854   1
  -5  -3  -1 2658.01 72.8083   2
   5   3   1 2622.24 95.1337   0
   5   3   1 2712.80 95.4364   1
   5   3   2 5.65440 37.6948   0
  -5  -3  -2 7.30931 31.2118   2
   5   3   2-6.41394 33.3698   1
  -5  -3  -3 136.330 39.5327   2
   5   3   3 160.129 44.4214   0
   5   3   4 1227.85 73.2231   0
  -5  -3  -4 1280.81 76.2315   2
   5   3   5 8.77279 43.6213   0
  -5  -3  -5-9.38333 50.9563   2
   5   3   6 1081.52 74.6633   0
  -5  -3  -6 1216.97 86.7705   2
  -5  -3  -7 6570.41 183.397   2
   5   3   7 6835.08 171.004   0
  -5  -3  -8 457.920 76.3319   2
   5   3   8 506.879 68.7437   0
  -5  -3  -9 44.6090 66.6469   2
   5   3   9 20.6609 51.6626   0
   5   3  10 72.2988 58.3195   0
  -5  -3 -10 63.6596 72.3040   2
   5   3  11 74.8577 65.4015   0
  -5  -3 -11 51.4456 75.1406   2
   5   3  12 459.706 80.5476   0
  -5  -3 -12 448.867 98.1841   2
   5   3  13 133.225 65.8719   0
   5   4 -11 497.851 93.3003   1
   5   4 -10 36.7396 81.2426   1
   5   4  -9 178.068 70.8779   1
   5   4  -8 4671.56 185.728   1
   5   4  -7 218.303 69.0043   1
   5   4  -7 297.545 67.8980   0
   5   4  -6 849.224 83.1007   0
   5   4  -6 940.678 83.1664   1
   5   4  -5 1288.45 94.3432   0
   5   4  -5 1483.40 91.4774   1
   5   4  -4 590.422 71.9563   0
   5   4  -4 610.862 70.4276   1
   5   4  -3 662.453 73.0131   0
   5   4  -3 815.174 74.7753   1
   5   4  -2 2247.50 101.522   0
   5   4  -2 2405.03 99.8620   1
   5   4  -1 1982.69 95.5698   0
   5   4  -1 2063.51 88.1444   1
   5   4   0 31.8326 45.2669   0
   5   4   0 35.8092 34.6496   1
   5   4   1 5092.45 138.513   0
   5   4   1 5015.29 119.478   1
   5   4   2 63.4356 51.2495   0
  -5  -4  -2 78.4451 38.7558   2
   5   4   2 84.3546 33.5023   1
  -5  -4  -3 1162.53 67.3928   2
   5   4   3 1318.29 65.4448   1
   5   4   3 1197.00 78.0791   0
   5   4   4 2738.89 106.759   0
  -5  -4  -4 2747.38 104.528   2
   5   4   5 710.777 65.9310   0
  -5  -4  -5 751.987 72.0592   2
   5   4   6 1288.59 86.5012   0
  -5  -4  -6 1272.90 88.8703   2
   5   4   7 6820.99 180.010   0
  -5  -4  -7 6579.22 185.442   2
  -5  -4  -8 222.537 76.9789   2
   5   4   8 132.310 62.6768   0
  -5  -4  -9-14.4480 59.8737   2
   5   4   9 34.0590 55.9991   0
  -5  -4 -10 758.425 101.624   2
   5   4  10 766.732 90.0297   0
  -5  -4 -11 296.911 82.5956   2
   5   4  11 316.310 76.4035   0
   5   4  12 31.0493 60.9922   0
  -5  -4 -12 59.4988 87.4039   2
   5   4  13 324.201 90.3428   0
   5   5 -10 93.2256 69.3069   1
   5   5  -9 32.8597 65.7584   1
   5   5  -8 1944.26 126.222   1
   5   5  -7 287.449 75.2153   1
   5   5  -7 196.357 68.3447   0
   5   5  -6 47.7083 54.7596   1
   5   5  -6-2.41961 60.8079   0
   5   5  -5 258.564 56.2865   1
   5   5  -5 254.577 67.1302   0
   5   5  -4 12.4813 42.0667   1
   5   5  -4-0.89015 54.1260   0
   5   5  -3 188.144 48.5028   1
   5   5  -3 177.103 55.6511   0
   5   5  -2 64.8490 43.8520   1
   5   5  -2 81.6167 44.1530   0
   5   5  -1 301.723 48.4826   1
   5   5  -1 292.877 62.7706   0
   5   5   0-8.62413 53.3409   0
   5   5   0 28.2783 35.8141   1
   5   5   1 2278.86 79.8956   1
   5   5   1 2140.03 102.991   0
  -5  -5  -2 616.970 52.9723   2
   5   5   2 607.782 48.3035   1
   5   5   2 640.098 71.2457   0
  -5  -5  -3 112.104 44.1005   2
   5   5   3 120.256 54.2086   0
  -5  -5  -4 52.5747 52.3605   2
   5   5   4 18.0621 49.6489   0
  -5  -5  -5 91.9358 52.6121   2
   5   5   5 82.4791 45.9612   0
   5   5   6 32.4340 49.6216   0
  -5  -5  -6-2.58718 53.1753   2
   5   5   7 1159.92 91.1989   0
  -5  -5  -7 1151.69 98.7481   2
   5   5   8 320.988 67.1746   0
  -5  -5  -8 413.508 75.9764   2
  -5  -5  -9 444.359 80.5622   2
   5   5   9 423.454 80.7056   0
  -5  -5 -10 1653.11 129.295   2
   5   5  10 1715.31 119.952   0
  -5  -5 -11 278.822 86.9818   2
   5   5  11 288.810 86.2674   0
  -5  -5 -12 936.723 109.370   2
   5   5  12 866.868 110.843   0
   5   6 -10-175.957 101.697   1
   5   6  -9-40.7842 80.9351   1
   5   6  -8 225.905 80.3165   1
   5   6  -8 214.151 87.1881   0
   5   6  -7 60.2703 55.2283   1
   5   6  -7 45.8429 71.2651   0
   5   6  -6 195.987 57.4261   1
   5   6  -6 173.882 70.2139   0
   5   6  -5 269.285 56.8614   1
   5   6  -5 180.944 64.8025   0
   5   6  -4 478.155 76.4389   0
   5   6  -4 622.031 67.2880   1
   5   6  -3 157.807 48.4338   1
   5   6  -3 170.250 56.6949   0
   5   6  -2 43.5051 31.9680   1
   5   6  -2 21.8906 50.9413   0
   5   6  -1 1417.03 73.1773   1
   5   6  -1 1555.54 96.7020   0
   5   6   0 47.0880 56.9722   0
   5   6   1 16.4953 56.9551   0
  -5  -6  -2 1427.82 77.4114   2
   5   6   2 1499.11 99.0628   0
  -5  -6  -3 327.562 53.9321   2
   5   6   3 261.322 58.2510   0
   5   6   4 1039.30 84.8875   0
  -5  -6  -4 1141.04 84.1559   2
   5   6   5 953.671 82.8951   0
  -5  -6  -5 952.217 84.7376   2
   5   6   6 729.358 84.5902   0
  -5  -6  -6 798.653 87.5627   2
   5   6   7 6858.36 199.760   0
  -5  -6  -7 7028.84 203.396   2
   5   6   8 4018.62 161.825   0
  -5  -6  -8 4172.13 175.814   2
   5   6   9 7.78440 69.1593   0
  -5  -6  -9 28.8416 78.7265   2
  -5  -6 -10 321.801 85.1976   2
   5   6  10 419.524 87.0978   0
  -5  -6 -11 369.801 97.8818   2
   5   6  11 378.860 89.9357   0
   5   7  -9 1258.00 120.425   1
   5   7  -8 15.4501 70.3083   1
   5   7  -8 99.2704 92.0146   0
   5   7  -7 494.523 77.8544   1
   5   7  -7 417.277 90.1700   0
   5   7  -6 65.7629 54.5656   1
   5   7  -6 72.6516 60.3296   0
   5   7  -5 6.55004 55.7935   1
   5   7  -5 50.8500 58.7307   0
   5   7  -4 103.009 50.8268   1
   5   7  -4 101.813 61.6132   0
   5   7  -3 11.5758 56.5604   0
   5   7  -2-10.9233 61.4541   0
   5   7  -1 1567.93 103.204   0
   5   7   0 787.776 86.6494   0
   5   7   1 545.814 80.8365   0
   5   7   2 1318.13 99.4914   0
  -5  -7  -3 1213.01 84.3298   2
   5   7   3 1224.52 99.3379   0
  -5  -7  -4 119.451 50.7331   2
   5   7   4 68.8184 64.4051   0
  -5  -7  -5-9.02174 57.2750   2
   5   7   5 8.32357 64.0957   0
  -5  -7  -6 479.209 79.3250   2
   5   7   6 443.280 80.3439   0
   5   7   7 768.402 87.8033   0
  -5  -7  -7 960.757 101.123   2
   5   7   8 181.869 74.4354   0
  -5  -7  -8 295.168 84.5392   2
   5   7   9-4.61623 68.4411   0
  -5  -7  -9-1.32645 78.0990   2
   5   7  10 386.234 91.5702   0
  -5  -7 -10 381.967 88.6918   2
   5   7  11 348.822 99.0729   0
  -5  -7 -11 441.597 112.559   2
   5   8  -9 194.828 85.7665   1
   5   8  -8 199.866 86.7485   0
   5   8  -7 101.162 87.4221   0
   5   8  -6-12.5846 63.2982   0
   5   8  -5 66.3100 74.1738   0
   5   8  -4 2.74166 67.8210   0
   5   8  -3-16.5770 63.1689   0
   5   8  -2 52.8075 68.0569   0
   5   8  -1 84.7048 70.0825   0
   5   8   0 69.1425 71.3835   0
   5   8   1 110.110 68.2624   0
   5   8   2 743.555 86.1218   0
   5   8   3 22.0325 64.9564   0
  -5  -8  -4 450.095 63.9191   2
   5   8   4 398.654 72.4893   0
  -5  -8  -5 13.6884 55.9216   2
   5   8   5 1.10852 70.1858   0
  -5  -8  -6 455.358 82.0511   2
   5   8   6 463.530 82.7313   0
  -5  -8  -7 117.574 72.6310   2
   5   8   7 111.324 76.5226   0
   5   8   8 211.284 81.9667   0
  -5  -8  -8 201.374 81.9566   2
   5   8   9 41.1812 70.8730   0
  -5  -8  -9-50.8247 75.3755   2
   5   8  10 418.084 86.6690   0
  -5  -8 -10 341.850 95.8706   2
   5   9  -6-23.5800 72.3018   0
   5   9  -5 7.20346 66.7847   0
   5   9  -4-43.9077 63.4446   0
   5   9  -3 265.063 82.5221   0
   5   9  -2 14.9532 65.7902   0
   5   9  -1 33.0597 64.0101   0
   5   9   0 57.7202 73.6216   0
   5   9   1-53.4088 62.2144   0
   5   9   2 520.560 86.3635   0
   5   9   3 187.453 69.7142   0
   5   9   4 22.7156 72.3596   0
  -5  -9  -5 755.855 89.7518   2
   5   9   5 861.751 103.477   0
  -5  -9  -6-1.22338 68.7970   2
   5   9   6-19.5713 74.8007   0
  -5  -9  -7-30.9137 79.7747   2
   5   9   7-16.1144 78.6708   0
  -5  -9  -8 328.848 85.6410   2
   5   9   8 329.972 87.3153   0
  -5  -9  -9 47.1084 82.8281   2
   5  10  -5 16.2095 71.0813   0
   5  10  -4 149.330 78.5797   0
   5  10  -3 86.3633 74.1762   0
   5  10  -2 104.669 75.6104   0
   5  10  -1 162.875 66.2529   0
   5  10   0 1927.46 132.904   0
   5  10   1 41.9313 80.8341   0
   5  10   2 105.380 69.3867   0
   5  10   3 110.941 87.7919   0
   5  10   4 20.5088 79.2162   0
   5  10   5 149.763 76.9096   0
  -5 -10  -6 812.254 105.011   2
   5  10   6 870.734 98.9663   0
  -5 -10  -7 38.3419 81.9276   2
   5  10   7 4.39114 80.5922   0
   5  11  -2 118.832 83.6500   0
   5  11  -1 39.3139 81.8011   0
   5  11   0 1175.13 124.988   0
   5  11   1 273.912 86.8713   0
   5  11   2 222.056 90.4697   0
   5  11   3 49.2214 73.5961   0
   5  11   4-82.6089 74.7618   0
  -5 -11  -6 29.6363 89.7053   2
   6  -7   0-84.4880 67.2213   1
  -6   7   0-109.998 96.2370   3
  -6   7  -1 100.978 88.7607   3
  -6   7  -2 37.9799 86.6678   3
  -6   7  -3 256.597 104.723   3
  -6   7  -4 160.805 112.169   3
  -6   6   5-15.4662 73.3895   3
  -6   6   4-27.6060 100.267   3
   6  -6  -3 144.542 58.8509   1
  -6   6   3 88.8701 83.7406   3
  -6   6   2 553.924 120.357   3
   6  -6  -2 697.984 88.4416   1
   6  -6  -1 85.0353 57.3793   1
  -6   6   1 79.6491 96.9539   3
  -6   6   0 665.822 123.068   3
  -6   6  -1 50.2640 75.7137   3
  -6   6  -2 580.683 85.4277   3
  -6   6  -2 526.889 89.0746   2
  -6   6  -3 1.93698 72.1295   2
  -6   6  -3 45.9148 84.2211   3
  -6   6  -4 138.947 80.5855   2
  -6   6  -4 112.682 93.3987   3
  -6   6  -5 473.792 98.0523   2
  -6   6  -5 414.920 93.8133   3
  -6   5   8 68.0159 87.0092   3
  -6   5   7 6.41387 72.6035   3
   6  -5  -6 200.673 59.9583   1
  -6   5   6 187.261 104.572   3
   6  -5  -5 132.114 52.2944   1
  -6   5   5 209.748 100.179   3
   6  -5  -4-35.2081 57.0609   1
  -6   5   4-89.1028 72.9907   3
   6  -5  -3 96.3274 53.7063   1
  -6   5   3 29.5475 92.7529   3
   6  -5  -2-5.21237 59.8204   1
  -6   5   2 14.7863 75.5181   3
   6  -5  -1-21.2386 60.4002   1
  -6   5   1 40.7021 87.7711   3
  -6   5   0 1787.91 138.582   3
  -6   5  -1 1153.54 125.444   3
  -6   5  -1 1159.58 105.259   2
  -6   5  -2 533.273 84.4880   2
  -6   5  -2 529.184 97.4145   3
  -6   5  -3 1149.74 113.566   3
  -6   5  -3 1060.92 104.535   2
  -6   5  -4 2176.17 142.672   3
  -6   5  -4 2114.91 142.923   2
  -6   5  -5 526.309 100.452   2
  -6   5  -5 797.706 100.743   3
  -6   5  -6 27.3662 70.4206   2
  -6   5  -7 297.171 89.0266   2
   6  -4  -9 21.6525 70.3789   1
   6  -4  -8 67.8121 69.8656   1
  -6   4   8 45.4057 85.1775   3
   6  -4  -7 239.844 70.9832   1
  -6   4   7 238.349 93.8650   3
  -6   4   6 893.093 112.010   3
   6  -4  -6 704.649 93.2096   1
   6  -4  -5 255.827 67.3964   1
  -6   4   5 382.116 97.6624   3
  -6   4   4 1808.11 134.049   3
   6  -4  -4 1635.83 114.420   1
  -6   4   3 5203.87 210.339   3
   6  -4  -3 4675.06 170.907   1
  -6   4   2 744.121 109.411   3
   6  -4  -2 792.047 90.8932   1
   6  -4  -1 50.7440 65.9088   1
  -6   4   1 44.6128 84.6632   3
  -6   4   0 66.1065 77.1817   3
  -6   4  -1 71.4830 54.4241   2
  -6   4  -1 146.958 75.7331   3
  -6   4  -2 2900.70 154.716   3
  -6   4  -2 2905.16 140.911   2
  -6   4  -3 963.544 102.747   3
  -6   4  -3 934.809 97.3893   2
  -6   4  -4 924.261 98.1759   2
  -6   4  -4 988.055 97.6545   3
  -6   4  -5 206.351 80.0466   2
  -6   4  -5 220.034 76.2589   3
  -6   4  -6 45.8379 61.8840   2
  -6   4  -7 850.154 108.703   2
  -6   4  -8 376.240 85.7552   2
   6  -3 -10-9.55940 75.9495   1
   6  -3  -9 27.2418 56.5346   1
   6  -3  -8 31.9337 71.3659   1
  -6   3   8 31.7905 79.6490   3
   6  -3  -7 57.3671 64.3010   1
  -6   3   7-7.33539 77.0249   3
   6  -3  -6 823.857 88.8005   1
  -6   3   6 656.016 104.455   3
   6  -3  -5 144.990 62.6879   1
  -6   3   5 135.028 73.0444   3
  -6   3   4 1453.34 126.086   3
   6  -3  -4 1634.89 115.796   1
   6  -3  -3 9.21307 55.4996   1
  -6   3   3 7.99893 76.0274   3
  -6   3   2 2121.46 138.749   3
   6  -3  -2 2245.48 131.339   1
  -6   3   1 2779.68 154.858   3
   6  -3  -1 2704.51 137.845   1
  -6   3   0 396.224 93.7704   3
  -6   3  -1 2544.10 139.495   3
  -6   3  -1 2524.65 119.207   2
  -6   3  -2-22.0391 51.4503   2
  -6   3  -2 27.0309 72.5375   3
  -6   3  -3 7952.97 214.309   2
  -6   3  -3 8032.74 225.683   3
  -6   3  -4 557.584 84.0463   2
  -6   3  -4 520.792 83.5815   3
  -6   3  -5 367.100 70.2413   2
  -6   3  -5 340.424 78.4802   3
  -6   3  -6 141.072 69.7696   2
  -6   3  -7 864.397 104.355   2
  -6   3  -8 214.019 86.5799   2
  -6   3  -9 105.691 79.5279   2
   6  -2 -10 320.081 74.5904   1
   6  -2  -9 143.368 67.3772   1
   6  -2  -8 102.410 68.3358   1
  -6   2   8 118.915 65.2942   3
   6  -2  -7 109.071 72.9721   1
  -6   2   7 261.784 82.5984   3
   6  -2  -6 258.283 73.5850   1
  -6   2   6 226.760 80.0213   3
  -6   2   5 979.569 105.753   3
   6  -2  -5 994.631 98.0990   1
   6  -2  -4 432.032 79.4444   1
  -6   2   4 501.029 90.3728   3
  -6   2   3 14129.0 305.392   3
   6  -2  -3 13871.0 273.978   1
   6  -2  -2 3.65810 59.7430   1
  -6   2   2 33.3971 76.0870   3
  -6   2   1 3839.44 166.374   3
   6  -2  -1 3794.86 152.579   1
  -6   2   0 299.466 79.6575   3
  -6   2  -1 1188.49 107.527   3
  -6   2  -1 1297.05 84.4427   2
  -6   2  -2 337.810 59.2634   2
  -6   2  -2 354.458 80.9878   3
  -6   2  -3 3503.46 135.587   2
  -6   2  -3 3281.49 149.658   3
  -6   2  -4 1208.82 95.8563   2
  -6   2  -4 1260.08 101.122   3
  -6   2  -5 8020.41 219.697   2
  -6   2  -5 7477.63 204.350   3
  -6   2  -6 562.943 87.6458   2
  -6   2  -7 2653.12 143.512   2
  -6   2  -8 994.780 101.316   2
  -6   2  -9 99.6655 82.4655   2
  -6   2 -10 455.778 101.657   2
   6  -1 -10-0.92037 62.9997   1
   6  -1  -9 130.423 67.5543   1
   6  -1  -8-98.8673 66.1324   1
  -6   1   8 9.18899 70.9105   3
   6  -1  -7 52.1132 60.0818   1
  -6   1   7-3.67776 70.7288   3
   6  -1  -6 88.6818 59.3495   1
  -6   1   6 51.5094 73.9310   3
   6  -1  -5 14.0460 54.4591   1
  -6   1   5 2.72147 67.3225   3
   6  -1  -4 405.303 73.2603   1
  -6   1   4 377.636 93.6575   3
  -6   1   3 7259.49 217.114   3
   6  -1  -3 6943.98 196.880   1
   6  -1  -2 249.451 62.6297   1
  -6   1   2 246.385 82.3327   3
  -6   1   1 559.614 88.1758   3
   6  -1  -1 565.658 76.6833   1
  -6   1   0 831.685 99.0199   3
   6  -1   0 847.551 83.9316   1
  -6   1  -1 1267.50 105.711   3
  -6   1  -2 1289.79 80.7736   2
  -6   1  -2 1369.03 103.556   3
  -6   1  -3 476.294 64.3562   2
  -6   1  -3 377.223 74.0485   3
  -6   1  -4 603.678 71.4515   2
  -6   1  -4 621.529 78.8283   3
  -6   1  -5 2325.82 121.727   2
  -6   1  -5 2292.28 119.376   3
  -6   1  -6 9076.14 233.771   2
  -6   1  -7 10792.2 264.721   2
  -6   1  -8 36.8891 78.4223   2
  -6   1  -9 291.134 82.6063   2
  -6   1 -10-41.6270 83.4442   2
   6   0 -10 365.321 86.8812   1
   6   0  -9 32.5069 68.3286   1
   6   0  -8 174.518 73.8588   1
  -6   0   8 287.364 82.1510   3
   6   0  -7 75.5578 58.3403   1
  -6   0   7 80.6359 72.4615   3
  -6   0   6 1095.80 102.511   3
   6   0  -6 1187.91 100.062   1
  -6   0   5 1228.65 110.327   3
   6   0  -5 1275.77 101.484   1
   6   0  -4 75.9300 56.4683   1
  -6   0   4 92.3048 77.2933   3
  -6   0   3 2126.25 132.468   3
   6   0  -3 2205.17 119.155   1
   6   0  -2 467.397 70.5202   1
  -6   0   2 508.294 86.3963   3
  -6   0   1 4275.24 168.498   3
   6   0  -1 4164.83 150.745   1
  -6   0   0 16226.5 297.783   3
   6   0   0 16781.4 286.438   1
  -6   0  -1 75.8765 65.4782   3
  -6   0  -2 859.223 66.2635   2
  -6   0  -2 701.925 84.3198   3
  -6   0  -3 116.841 45.0428   2
  -6   0  -3 126.831 70.0578   3
  -6   0  -4 1639.30 97.1778   2
  -6   0  -4 1661.50 101.623   3
  -6   0  -5 6150.41 176.241   2
  -6   0  -5 5840.71 170.588   3
  -6   0  -6 67.3189 63.0670   2
  -6   0  -7 4339.99 169.802   2
  -6   0  -8 153.304 79.5478   2
  -6   0  -9 1427.39 120.001   2
  -6   0 -10-72.2713 70.7758   2
  -6   0 -11 41.9288 71.3904   2
   6   1 -10 85.9921 71.0104   1
   6   1  -9 54.0516 58.3442   1
   6   1  -8 175.149 65.4444   1
  -6  -1   8 243.538 84.1304   3
   6   1  -7 16.4047 57.5064   1
  -6  -1   7 18.6597 68.8301   3
   6   1  -6-31.8648 56.3820   1
  -6  -1   6 43.3662 77.1224   3
  -6  -1   5 1691.35 122.319   3
   6   1  -5 1680.70 109.614   1
   6   1  -4 3.76270 51.7051   1
   6   1  -3 7418.81 162.564   0
   6   1  -3 7554.21 198.646   1
   6   1  -2 1222.39 69.7439   0
   6   1  -2 1250.46 89.5316   1
   6   1  -1 2145.93 108.111   1
   6   1   0 244.236 62.7684   1
   6   1   1 6995.53 181.368   1
  -6  -1  -3 922.627 68.5758   2
  -6  -1  -3 880.830 89.4973   3
  -6  -1  -4 609.251 66.5818   2
  -6  -1  -4 519.983 71.5952   3
  -6  -1  -5 500.919 65.8409   2
  -6  -1  -5 472.264 68.7217   3
  -6  -1  -6 1281.77 90.0266   2
  -6  -1  -7 6235.02 192.044   2
  -6  -1  -8 423.791 78.5263   2
  -6  -1  -9-17.8595 74.1115   2
  -6  -1 -10 275.179 74.4097   2
  -6  -1 -11 85.7263 82.7666   2
   6   2 -10 195.108 84.2929   1
   6   2  -9 8.42151 57.5952   1
   6   2  -8 163.990 65.9776   1
   6   2  -7 42.6816 68.1106   1
   6   2  -6 1131.79 99.5873   1
   6   2  -5 519.466 65.7305   0
   6   2  -5 575.859 71.0931   1
   6   2  -4 271.546 65.6695   1
   6   2  -4 357.046 60.6753   0
   6   2  -3 5617.99 152.473   0
   6   2  -3 6041.34 173.490   1
   6   2  -2 2242.86 96.0439   0
   6   2  -2 2244.89 111.917   1
   6   2  -1 6647.56 149.452   0
   6   2  -1 6919.52 174.341   1
   6   2   0 2471.78 93.7545   0
   6   2   0 2394.75 109.307   1
   6   2   1 30.4770 37.3881   0
   6   2   1-4.13106 49.9377   1
   6   2   2 103.036 40.7464   0
  -6  -2  -3 2090.59 89.5035   2
   6   2   3 2102.68 85.6857   0
  -6  -2  -4 992.444 72.5387   2
   6   2   4 1115.44 65.7004   0
  -6  -2  -5 553.219 67.9763   2
  -6  -2  -6 570.508 60.8152   2
  -6  -2  -7 482.353 77.1688   2
  -6  -2  -8 796.429 89.6236   2
  -6  -2  -9 1143.85 104.985   2
  -6  -2 -10 1015.15 108.405   2
  -6  -2 -11 188.841 94.2113   2
   6   3 -10-7.38759 89.1191   1
   6   3  -9 16.3496 70.8495   1
   6   3  -8 294.419 68.1655   1
   6   3  -7 1126.34 98.9409   1
   6   3  -6 131.326 61.7630   1
   6   3  -6 122.175 57.5506   0
   6   3  -5 36.6572 50.3247   1
   6   3  -5 4.90703 50.9542   0
   6   3  -4-2.17384 52.9072   1
   6   3  -4-12.0765 44.0630   0
   6   3  -3 316.488 60.6695   1
   6   3  -3 313.049 66.1858   0
   6   3  -2 17691.0 262.829   0
   6   3  -2 17845.8 278.643   1
   6   3  -1 1065.31 79.8257   0
   6   3  -1 1055.98 84.1556   1
   6   3   0 7822.66 172.540   0
   6   3   0 7975.53 177.072   1
   6   3   1 235.566 51.1107   0
   6   3   1 273.895 52.6146   1
   6   3   2 450.441 57.8220   0
   6   3   2 456.826 59.2547   1
   6   3   3 2499.65 102.950   0
  -6  -3  -4 1025.63 71.0807   2
   6   3   4 1147.52 72.2251   0
  -6  -3  -5 282.421 57.1493   2
   6   3   5 297.820 52.0274   0
  -6  -3  -6 32.7077 53.9986   2
   6   3   6 26.1112 40.5808   0
   6   3   7 673.595 68.7657   0
  -6  -3  -7 610.496 75.6316   2
   6   3   8 175.200 55.6796   0
  -6  -3  -8 97.0099 66.7961   2
  -6  -3  -9 791.705 91.4979   2
   6   3   9 859.237 79.8550   0
  -6  -3 -10 961.522 103.639   2
  -6  -3 -11 16.0387 75.7708   2
   6   4 -10 271.019 76.1731   1
   6   4  -9 52.0607 71.5704   1
   6   4  -8 1360.48 119.226   1
   6   4  -7 0.77341 65.0400   1
   6   4  -7 73.6568 57.9387   0
   6   4  -6 100.453 54.4724   1
   6   4  -6 131.461 69.5551   0
   6   4  -5 383.842 64.9856   1
   6   4  -5 355.613 70.2105   0
   6   4  -4 900.452 81.4296   0
   6   4  -4 846.271 80.9435   1
   6   4  -3 5712.99 171.456   0
   6   4  -3 5574.32 166.190   1
   6   4  -2 12684.0 238.980   0
   6   4  -2 12952.4 236.985   1
   6   4  -1 25130.1 325.637   0
   6   4  -1 26103.2 319.119   1
   6   4   0 249.602 50.6501   1
   6   4   0 161.130 59.0081   0
   6   4   1 396.712 62.5212   0
   6   4   1 374.583 53.2237   1
   6   4   2 1411.74 85.1274   0
   6   4   2 1645.79 83.3085   1
   6   4   3 3416.15 126.146   0
   6   4   3 3783.20 119.364   1
  -6  -4  -4 1263.01 80.6111   2
   6   4   4 1283.83 80.6680   0
  -6  -4  -5 55.7346 47.2465   2
   6   4   5 42.8396 44.7060   0
   6   4   6 644.728 70.1901   0
  -6  -4  -6 549.310 69.8070   2
   6   4   7 2138.50 110.043   0
  -6  -4  -7 2092.14 118.104   2
   6   4   8 870.644 81.2370   0
  -6  -4  -8 825.556 96.1618   2
  -6  -4  -9 1127.53 108.318   2
   6   4   9 1231.66 97.8114   0
  -6  -4 -10 319.676 81.1564   2
   6   4  10 400.717 76.6074   0
  -6  -4 -11 121.687 68.0306   2
   6   4  11 78.2544 62.0995   0
   6   4  12 27.7421 83.7744   0
   6   5  -9 42.5929 68.7853   1
   6   5  -8 543.310 91.4055   1
   6   5  -7 3734.49 166.762   0
   6   5  -7 3708.59 166.756   1
   6   5  -6 153.311 59.8358   1
   6   5  -6 159.094 69.7316   0
   6   5  -5 366.661 63.2931   1
   6   5  -5 113.612 58.1975   0
   6   5  -4 153.991 51.2167   1
   6   5  -4 148.852 63.7479   0
   6   5  -3 464.517 64.2468   1
   6   5  -3 476.446 73.7147   0
   6   5  -2 8227.46 205.897   0
   6   5  -2 8421.95 193.610   1
   6   5  -1 1062.99 91.7085   0
   6   5  -1 1121.44 78.0805   1
   6   5   0 3593.25 135.258   0
   6   5   0 3461.74 115.503   1
   6   5   1 13.6948 50.3294   0
   6   5   1 11.1175 39.4013   1
   6   5   2 1435.77 90.8482   0
   6   5   3 704.299 75.3406   0
   6   5   4 261.562 58.5133   0
  -6  -5  -5 527.403 63.0945   2
   6   5   5 538.414 79.8870   0
   6   5   6 851.789 80.5550   0
  -6  -5  -6 910.389 86.5103   2
   6   5   7 261.461 62.2972   0
  -6  -5  -7 226.151 68.2105   2
   6   5   8 681.338 84.1410   0
  -6  -5  -8 636.450 83.2464   2
   6   5   9 733.395 86.5641   0
  -6  -5  -9 708.095 97.4234   2
   6   5  10 1352.00 120.123   0
  -6  -5 -10 1413.00 129.003   2
   6   5  11 222.340 65.3816   0
  -6  -5 -11 179.502 76.9647   2
   6   6  -9 81.6306 72.7391   1
   6   6  -8 1588.13 127.014   0
   6   6  -8 1709.90 127.252   1
   6   6  -7 26.3483 59.4797   1
   6   6  -7 56.9119 76.2642   0
   6   6  -6 363.167 74.8683   1
   6   6  -6 353.682 84.6756   0
   6   6  -5 482.677 75.1453   1
   6   6  -5 475.322 83.9961   0
   6   6  -4 885.044 94.0939   0
   6   6  -4 919.704 77.3761   1
   6   6  -3 10.9820 40.7287   1
   6   6  -3-10.7854 61.5055   0
   6   6  -2 352.873 52.8771   1
   6   6  -2 395.752 76.3742   0
   6   6  -1 1181.07 95.9050   0
   6   6   0 4289.34 158.555   0
   6   6   1 235.008 68.5218   0
   6   6   2 8488.93 211.498   0
   6   6   3 1012.71 89.6151   0
   6   6   4-11.1880 62.3771   0
  -6  -6  -5 195.521 58.8481   2
   6   6   5 177.713 66.5507   0
  -6  -6  -6 29.2215 61.1562   2
   6   6   6-28.0780 63.3924   0
  -6  -6  -7 486.230 74.6532   2
   6   6   7 416.311 79.8183   0
   6   6   8 346.025 79.5656   0
  -6  -6  -8 429.722 91.8220   2
   6   6   9 528.220 87.9681   0
  -6  -6  -9 501.748 83.2627   2
   6   6  10 642.721 96.7634   0
  -6  -6 -10 601.803 102.481   2
   6   6  11 141.103 83.4176   0
  -6  -6 -11 49.6357 82.4881   2
   6   7  -9 317.766 92.2582   1
   6   7  -8 386.372 87.0202   1
   6   7  -8 423.724 90.8204   0
   6   7  -7 305.671 70.3397   1
   6   7  -7 269.917 84.8057   0
   6   7  -6 133.188 59.7723   1
   6   7  -6 158.921 70.6270   0
   6   7  -5-14.3028 49.0891   1
   6   7  -5 26.2584 72.3239   0
   6   7  -4 62.0466 65.6077   0
   6   7  -3 461.776 82.0273   0
   6   7  -2 681.470 90.2759   0
   6   7  -1 193.951 75.2856   0
   6   7   0 1753.14 117.313   0
   6   7   1 1194.79 105.202   0
   6   7   2 304.453 68.8761   0
   6   7   3 732.734 93.4216   0
   6   7   4-44.0078 66.2839   0
   6   7   5-0.36301 59.8037   0
  -6  -7  -6 50.7828 60.1864   2
   6   7   6 10.7864 63.2535   0
  -6  -7  -7 100.882 70.0261   2
   6   7   7 104.117 73.6398   0
  -6  -7  -8 14.5517 79.5350   2
   6   7   8 32.4906 66.7159   0
   6   7   9-63.1623 71.9878   0
  -6  -7  -9 64.7448 88.5814   2
   6   7  10 496.594 83.1622   0
  -6  -7 -10 705.747 108.310   2
   6   8  -6-5.23654 82.0824   0
   6   8  -5-15.2876 70.5478   0
   6   8  -4 3438.87 168.728   0
   6   8  -3 271.152 76.2466   0
   6   8  -2-28.1802 65.3865   0
   6   8  -1 483.502 85.9894   0
   6   8   0 406.722 81.6453   0
   6   8   1 461.944 87.9772   0
   6   8   2 3264.33 157.269   0
   6   8   3 74.3217 64.5628   0
   6   8   4 30.5964 67.2797   0
   6   8   5 191.194 71.2189   0
  -6  -8  -6 835.432 89.2468   2
   6   8   6 760.204 97.9214   0
  -6  -8  -7 90.0989 64.3094   2
   6   8   7 33.9806 68.0930   0
  -6  -8  -8 1.32136 77.3771   2
   6   8   8 17.8213 71.8312   0
  -6  -8  -9 87.8903 79.6040   2
   6   8   9 80.5088 90.8749   0
   6   9  -5-14.7197 97.2862   0
   6   9  -4 31.1468 80.0163   0
   6   9  -3 591.336 91.6933   0
   6   9  -2 40.0738 68.8966   0
   6   9  -1 125.762 81.1970   0
   6   9   0 24.8090 83.1581   0
   6   9   1-20.4037 77.6187   0
   6   9   2 447.046 90.1142   0
   6   9   3 88.1021 70.5443   0
   6   9   4-3.55691 63.2932   0
   6   9   5 87.8643 62.7106   0
   6   9   6-70.4997 66.8874   0
  -6  -9  -7 180.391 74.9020   2
   6   9   7 73.7594 80.1872   0
  -6  -9  -8 78.7909 83.1090   2
   6  10  -3 10.7261 70.7362   0
   6  10  -2 386.856 89.2794   0
   6  10  -1 461.758 89.9472   0
   6  10   0 709.516 111.776   0
   6  10   1 160.393 91.1966   0
   6  10   2 97.5364 80.5358   0
   6  10   3-5.24281 61.3490   0
   6  10   4-9.07833 64.5204   0
   6  10   5 48.1560 85.2355   0
   7  -6  -3-34.9046 81.0229   1
   7  -5  -5 5.44180 82.5781   1
   7  -5  -4 139.235 72.2449   1
   7  -5  -3 353.274 80.0353   1
  -7   5   3 266.122 101.064   3
   7  -5  -2 47.3034 73.4461   1
  -7   5   2-14.8702 89.6208   3
   7  -5  -1 1.41438 76.8104   1
  -7   5   1 36.0426 107.607   3
  -7   5   0 1281.01 137.453   3
   7  -5   0 1258.58 116.533   1
  -7   5  -1 321.134 96.9613   3
  -7   5  -2-53.3054 81.8248   3
  -7   5  -3 188.490 81.7398   2
  -7   5  -3 110.373 74.2493   3
  -7   5  -4 194.606 80.2934   2
  -7   5  -4 91.6338 78.9429   3
  -7   5  -5 180.653 86.5794   2
  -7   4   6 1761.25 145.383   3
   7  -4  -6 1800.61 131.892   1
   7  -4  -5 41.3291 68.6035   1
  -7   4   5-7.26146 81.9984   3
  -7   4   4 1667.84 142.775   3
   7  -4  -4 1750.45 133.620   1
   7  -4  -3 19.6790 67.4303   1
  -7   4   3 18.8165 76.1039   3
   7  -4  -2 443.293 88.4807   1
  -7   4   2 427.702 96.6133   3
   7  -4  -1 234.364 82.8847   1
  -7   4   1 205.233 96.4021   3
  -7   4   0 1408.81 139.928   3
   7  -4   0 1494.64 121.945   1
  -7   4  -1 58.5210 72.0527   3
  -7   4  -2 10.8686 70.4284   3
  -7   4  -3 96.3814 79.3974   3
  -7   4  -4 377.026 83.4970   2
  -7   4  -4 315.239 91.7514   3
  -7   4  -5 202.043 82.3972   2
  -7   4  -5 156.995 77.7500   3
  -7   4  -6-5.51807 72.2981   2
  -7   3   8 74.9252 78.8517   3
  -7   3   7 1900.36 147.708   3
   7  -3  -7 1943.44 141.580   1
  -7   3   6 1931.90 156.185   3
   7  -3  -6 1787.88 127.848   1
   7  -3  -5 408.634 88.0841   1
  -7   3   5 396.703 94.0871   3
  -7   3   4 927.486 120.904   3
   7  -3  -4 1014.39 105.909   1
  -7   3   3 1103.06 120.398   3
   7  -3  -3 1009.05 108.313   1
   7  -3  -2-45.1139 56.2817   1
  -7   3   2 46.5322 73.0424   3
   7  -3  -1 24.0769 70.3645   1
  -7   3   1 206.502 94.3747   3
   7  -3   0 28.8649 96.2333   1
  -7   3   0 59.3282 84.7449   3
  -7   3  -1 1180.82 119.986   3
  -7   3  -2 107.776 87.4233   3
  -7   3  -3 35.5611 72.2827   3
  -7   3  -4 496.949 78.9302   2
  -7   3  -4 466.473 86.3249   3
  -7   3  -5 132.444 75.6490   2
  -7   3  -5 245.126 93.2909   3
  -7   3  -6 31.8792 67.6895   2
  -7   3  -7 32.7157 79.3018   2
  -7   3  -8 161.325 75.4126   2
   7  -2  -8 409.303 73.0418   1
  -7   2   8 452.267 99.5864   3
  -7   2   7 1839.31 140.932   3
   7  -2  -7 1907.31 132.588   1
   7  -2  -6 153.085 78.7743   1
  -7   2   6 167.653 87.5394   3
   7  -2  -5 38.0110 61.1205   1
  -7   2   5-20.9325 75.6231   3
  -7   2   4 1126.90 114.259   3
   7  -2  -4 1386.73 120.484   1
  -7   2   3 2870.85 170.794   3
   7  -2  -3 2696.68 156.289   1
  -7   2   2 2518.48 159.721   3
   7  -2  -2 2419.85 139.414   1
   7  -2  -1 3.22584 66.5517   1
  -7   2   1-34.2284 88.3322   3
   7  -2   0 156.198 76.4963   1
  -7   2   0 83.6294 85.6567   3
  -7   2  -1 2061.94 138.558   3
  -7   2  -2 236.141 79.4571   3
  -7   2  -3 2629.53 149.167   3
  -7   2  -4 21.8362 57.7654   2
  -7   2  -4-22.6287 66.2070   3
  -7   2  -5 124.503 72.7486   2
  -7   2  -5 165.108 71.8886   3
  -7   2  -6 312.227 75.7150   2
  -7   2  -7 229.807 79.0013   2
  -7   2  -8 191.913 80.6550   2
   7  -1  -8 274.004 89.0331   1
  -7   1   8 323.611 91.9434   3
  -7   1   7 1624.02 134.988   3
   7  -1  -7 1527.98 122.068   1
   7  -1  -6 148.060 72.2733   1
  -7   1   6 127.054 80.8690   3
   7  -1  -5 271.833 79.9414   1
  -7   1   5 271.765 99.1773   3
   7  -1  -4 58.3448 67.1884   1
  -7   1   4 43.2477 86.8620   3
  -7   1   3 1300.00 123.390   3
   7  -1  -3 1367.87 111.326   1
  -7   1   2 1083.87 117.043   3
   7  -1  -2 1055.26 98.5203   1
   7  -1  -1 20.6975 62.9438   1
  -7   1   1 42.7388 83.0493   3
  -7   1   0 1086.77 116.719   3
   7  -1   0 1007.96 99.1959   1
  -7   1  -1 1932.22 134.528   3
  -7   1  -2 917.280 108.633   3
  -7   1  -3 332.052 80.8545   3
  -7   1  -4 109.131 70.6761   3
  -7   1  -5 1010.21 97.9841   2
  -7   1  -5 1087.48 99.1472   3
  -7   1  -6 944.429 99.2697   2
  -7   1  -7 397.688 79.6684   2
  -7   1  -8 376.858 91.4833   2
  -7   1  -9 161.207 71.2464   2
  -7   0   8 1499.56 130.323   3
   7   0  -8 1417.08 125.044   1
   7   0  -7 642.356 94.1443   1
  -7   0   7 600.528 108.742   3
   7   0  -6 62.0484 73.0853   1
  -7   0   6 45.1995 84.1129   3
   7   0  -5 231.120 71.4925   1
  -7   0   5 144.637 77.4517   3
   7   0  -4 265.436 74.7477   1
  -7   0   4 206.838 90.9775   3
  -7   0   3 1789.75 135.498   3
   7   0  -3 1724.56 117.725   1
   7   0  -2 509.754 81.7951   1
  -7   0   2 498.102 100.492   3
   7   0  -1 216.379 65.5093   1
  -7   0   1 189.918 88.6121   3
   7   0   0 40.6697 55.8666   1
  -7   0   0 32.3107 76.0834   3
   7   0   1 118.511 65.2214   1
  -7   0  -1 109.979 64.7069   3
  -7   0  -2 793.050 95.2494   3
  -7   0  -3 1301.77 108.274   3
  -7   0  -4 1003.64 97.6906   3
  -7   0  -5 728.094 82.6059   2
  -7   0  -5 684.763 92.2448   3
  -7   0  -6 962.589 95.9757   2
  -7   0  -7 204.242 71.9538   2
  -7   0  -8 284.531 83.5991   2
  -7   0  -9 41.1276 82.4976   2
  -7   0 -10 4.05812 72.4290   2
   7   1  -9-10.3326 76.6093   1
  -7  -1   8 940.923 109.050   3
   7   1  -8 895.862 101.555   1
   7   1  -7 599.045 93.3297   1
  -7  -1   7 721.359 109.354   3
  -7  -1   6 3121.28 168.582   3
   7   1  -6 2944.01 151.946   1
   7   1  -5 738.225 87.4370   1
  -7  -1   5 732.565 108.692   3
   7   1  -4 162.792 69.1579   1
  -7  -1   4 148.038 82.6212   3
  -7  -1   3 2826.59 158.855   3
   7   1  -3 2759.35 139.185   1
   7   1  -2 102.171 64.5054   1
  -7  -1   2 96.4282 78.6926   3
   7   1  -1 30.1902 57.8944   1
  -7  -1   1 31.3020 76.0073   3
   7   1   0 8.73693 54.5273   1
  -7  -1   0 58.7295 73.0273   3
   7   1   1 241.959 65.0492   1
  -7  -1  -1 224.129 82.6944   3
  -7  -1  -2 1844.95 124.289   3
  -7  -1  -3 1100.99 103.135   3
  -7  -1  -4 2493.25 135.873   3
  -7  -1  -5 504.267 92.9901   3
  -7  -1  -6 3134.29 141.322   2
  -7  -1  -7 125.028 65.9691   2
  -7  -1  -8-32.2810 63.5864   2
  -7  -1  -9 88.8680 70.8397   2
  -7  -1 -10 187.813 74.9007   2
   7   2  -9-168.930 70.0260   1
   7   2  -8 106.015 70.6283   1
  -7  -2   8 136.254 84.0583   3
   7   2  -7 847.196 95.0747   1
  -7  -2   7 885.906 118.623   3
   7   2  -6 326.112 86.6599   1
   7   2  -5 83.8437 76.3063   1
   7   2  -4 16.4497 57.4832   1
   7   2  -3 1006.27 93.1256   1
   7   2  -2 1398.30 99.9183   1
   7   2  -1 67.8323 58.5420   1
   7   2   0 18.2678 57.6499   1
   7   2   1 149.096 60.6425   1
   7   2   2 768.051 78.5304   1
  -7  -2  -5 48.7547 83.1320   3
  -7  -2  -6 85.0481 54.2737   2
  -7  -2  -7 222.936 71.3079   2
  -7  -2  -8 64.1683 68.0523   2
  -7  -2  -9 302.660 86.8309   2
  -7  -2 -10 79.0675 77.3538   2
   7   3  -9-6.58344 72.4200   1
   7   3  -8-36.5782 61.2327   1
   7   3  -7 100.347 69.7320   1
   7   3  -6 781.105 94.6088   1
   7   3  -5 1472.10 105.735   0
   7   3  -5 1471.70 116.580   1
   7   3  -4 141.875 62.9396   1
   7   3  -4 144.310 57.1022   0
   7   3  -3-17.5997 58.8676   1
   7   3  -3-11.9703 44.8502   0
   7   3  -2 374.969 64.2336   1
   7   3  -2 340.628 63.6125   0
   7   3  -1 348.154 70.8913   1
   7   3  -1 321.383 54.3198   0
   7   3   0 109.677 56.0634   1
   7   3   0 68.3928 43.9712   0
   7   3   1 91.0308 52.5380   1
   7   3   1 52.4740 35.9905   0
   7   3   2 25.4720 45.5173   1
   7   3   3 124.008 51.7770   1
  -7  -3  -6 101.767 58.2009   2
  -7  -3  -7 182.021 60.2767   2
  -7  -3  -8 1212.56 103.322   2
  -7  -3  -9 389.208 73.6545   2
  -7  -3 -10 73.9743 74.8302   2
   7   4  -8 191.345 69.9367   1
   7   4  -7 327.312 71.2894   1
   7   4  -6 524.235 79.6782   0
   7   4  -6 633.001 82.8571   1
   7   4  -5 534.445 87.4854   1
   7   4  -5 543.649 77.2357   0
   7   4  -4 472.934 75.5822   1
   7   4  -4 497.884 79.8489   0
   7   4  -3 780.151 88.1412   0
   7   4  -3 766.091 80.0521   1
   7   4  -2 1335.62 95.9509   0
   7   4  -2 1343.97 94.1111   1
   7   4  -1 658.219 71.4985   0
   7   4  -1 787.992 80.3050   1
   7   4   0 153.363 52.1175   1
   7   4   0 202.232 49.7596   0
   7   4   1 291.583 55.6181   0
   7   4   1 269.720 53.8893   1
   7   4   2 1.10584 50.6582   0
   7   4   2-20.8798 42.9035   1
   7   4   3 3104.65 124.649   0
   7   4   3 3295.52 129.936   1
   7   4   4 3093.63 127.957   0
   7   4   4 3451.81 129.276   1
   7   4   5 571.368 63.9643   0
   7   4   6 139.548 51.4027   0
  -7  -4  -7-157.575 57.9104   2
  -7  -4  -8 267.195 64.1944   2
  -7  -4  -9 203.195 69.5832   2
  -7  -4 -10 59.9660 64.9229   2
   7   5  -8 46.8276 100.666   1
   7   5  -7 469.000 82.0658   1
   7   5  -7 474.595 83.6256   0
   7   5  -6 457.385 70.6450   1
   7   5  -6 474.330 82.3404   0
   7   5  -5 252.574 64.6678   1
   7   5  -5 129.394 65.2148   0
   7   5  -4 698.418 90.9397   0
   7   5  -4 729.324 80.2713   1
   7   5  -3 46.2009 61.1854   1
   7   5  -3 14.0333 55.8174   0
   7   5  -2 511.101 66.6671   1
   7   5  -2 418.813 70.3810   0
   7   5  -1 1592.93 105.346   0
   7   5  -1 1551.61 93.6950   1
   7   5   0 81.4405 44.7146   1
   7   5   0 98.9647 59.4015   0
   7   5   1 327.741 59.9148   0
   7   5   1 285.272 52.8946   1
   7   5   2 210.288 55.9104   0
   7   5   3-17.6184 47.3357   0
   7   5   4-15.3134 56.8086   0
   7   5   5 296.984 64.6608   0
   7   5   6 26.9019 58.9413   0
   7   5   7 111.328 58.9381   0
  -7  -5  -8 93.0483 66.1929   2
   7   5   8 71.9424 59.2576   0
  -7  -5  -9 21.3196 58.7267   2
   7   5   9 25.4131 56.2778   0
   7   5  10-20.9372 64.5293   0
  -7  -5 -10 1.87552 80.6921   2
   7   6  -8 481.269 89.7515   1
   7   6  -7 1.42963 72.1101   1
   7   6  -7 18.4317 72.7710   0
   7   6  -6 344.686 74.2508   1
   7   6  -6 352.141 81.6736   0
   7   6  -5-18.9948 54.4851   1
   7   6  -5-95.4518 63.6704   0
   7   6  -4 837.834 97.2894   0
   7   6  -4 806.509 81.2503   1
   7   6  -3 45.5917 47.9648   1
   7   6  -3-20.5283 61.8646   0
   7   6  -2-1.45835 66.9239   0
   7   6  -1 235.658 67.6664   0
   7   6   0 390.717 68.4422   0
   7   6   1 442.322 72.4379   0
   7   6   2 73.6482 63.4570   0
   7   6   3 978.057 87.8793   0
   7   6   4 322.539 63.7813   0
   7   6   5 633.036 82.9262   0
   7   6   6 2145.61 125.614   0
   7   6   7 1495.89 112.400   0
  -7  -6  -8 238.655 67.5120   2
   7   6   8 186.690 76.0701   0
  -7  -6  -9 264.437 71.9298   2
   7   6   9 430.655 79.8541   0
  -7  -6 -10-16.4453 79.3949   2
   7   6  10 15.4516 80.3823   0
   7   7  -7 56.5694 77.0230   1
   7   7  -6 83.9560 68.4434   1
   7   7  -6 118.589 68.9325   0
   7   7  -5-27.0190 65.1390   0
   7   7  -4 453.398 83.3159   0
   7   7  -3 24.7644 72.9014   0
   7   7  -2 126.759 85.6735   0
   7   7  -1 315.320 76.7022   0
   7   7   0 809.262 95.2971   0
   7   7   1 1633.49 112.922   0
   7   7   2 41.8515 62.0948   0
   7   7   3 59.0272 62.8833   0
   7   7   4 225.513 65.6696   0
   7   7   5 203.945 66.0274   0
   7   7   6 273.411 71.1640   0
   7   7   7 1138.09 107.917   0
   7   7   8 110.977 70.9943   0
  -7  -7  -9-40.0543 76.4424   2
   7   7   9-15.1452 72.3991   0
   7   8  -5 85.0523 70.3410   0
   7   8  -4 168.864 77.6701   0
   7   8  -3 72.6014 71.4613   0
   7   8  -2 30.3646 78.3828   0
   7   8  -1 119.628 78.4400   0
   7   8   0 365.157 87.0093   0
   7   8   1-19.2381 72.9830   0
   7   8   2 235.798 82.2234   0
   7   8   3 246.600 72.8392   0
   7   8   4 38.4770 62.8428   0
   7   8   5 4.04423 69.5703   0
   7   8   6 1223.48 121.152   0
   7   8   7 1326.21 120.425   0
   7   9  -3 5.87456 81.0893   0
   7   9  -2 47.7691 70.0826   0
   7   9  -1 18.3874 62.9900   0
   7   9   0 145.503 76.7760   0
   7   9   1 728.394 106.158   0
   7   9   2 419.655 93.2624   0
   7   9   3 104.069 67.8713   0
   7   9   4-56.5599 59.3899   0
   7   9   5 93.5635 87.3841   0
  -8   4  -2 196.828 103.954   3
  -8   4  -3 558.219 104.235   3
  -8   4  -4 191.586 95.4505   3
   8  -3  -3 147.163 87.1241   1
  -8   3   3 232.531 100.151   3
   8  -3  -2-101.065 67.6953   1
  -8   3   2-39.6475 94.9874   3
   8  -3  -1 189.689 70.9824   1
  -8   3   1 87.9668 96.2054   3
   8  -3   0 309.041 89.1694   1
  -8   3   0 298.734 87.3427   3
   8  -3   1 277.558 82.7806   1
  -8   3  -1 256.241 100.185   3
  -8   3  -2 179.510 78.4272   3
  -8   3  -3 395.966 90.5852   3
  -8   3  -4 907.390 112.637   3
   8  -2  -5 129.297 86.0110   1
  -8   2   5 114.566 99.6667   3
  -8   2   4 1842.17 156.760   3
   8  -2  -4 1725.32 134.244   1
  -8   2   3 2052.45 155.068   3
   8  -2  -3 2023.05 149.301   1
   8  -2  -2 52.8077 60.6727   1
  -8   2   2 49.5853 90.0653   3
   8  -2  -1 151.438 70.3141   1
  -8   2   1 127.262 89.9324   3
   8  -2   0 36.2566 78.9256   1
  -8   2   0 93.8694 81.3593   3
   8  -2   1 112.434 64.3688   1
  -8   2  -1 166.590 82.6683   3
  -8   2  -2 1324.47 125.079   3
  -8   2  -3 294.048 81.2134   3
  -8   2  -4 1321.13 130.552   3
  -8   1   6 195.744 96.7369   3
   8  -1  -5 422.282 87.4520   1
  -8   1   5 549.350 116.625   3
   8  -1  -4 721.163 101.985   1
  -8   1   4 425.700 103.932   3
   8  -1  -3 15.1286 84.6916   1
  -8   1   3-12.6140 76.4385   3
   8  -1  -2 748.194 95.5442   1
  -8   1   2 696.687 112.654   3
   8  -1  -1 453.622 89.6855   1
  -8   1   1 540.371 107.732   3
   8  -1   0 130.213 65.4942   1
  -8   1   0 102.270 97.1830   3
   8  -1   1 342.892 89.6503   1
  -8   1  -1 270.420 92.9155   3
   8  -1   2 100.155 63.6293   1
  -8   1  -2 61.2210 94.4584   3
  -8   1  -3 1512.98 127.427   3
  -8   1  -4 5.87707 70.9048   3
  -8   1  -5 2248.63 144.866   3
  -8   1  -8 157.357 80.9814   2
  -8   0   7 6.19168 92.0488   3
   8   0  -6 578.269 100.665   1
  -8   0   6 512.274 126.847   3
   8   0  -5 112.467 72.6820   1
  -8   0   5 35.7430 91.4989   3
   8   0  -4 96.3042 62.8359   1
  -8   0   4 189.906 98.8847   3
  -8   0   3 1825.21 145.139   3
   8   0  -3 1884.36 133.348   1
   8   0  -2 167.540 72.5442   1
  -8   0   2 208.376 99.2913   3
  -8   0   1 2543.23 163.329   3
   8   0  -1 2419.93 138.929   1
   8   0   0 57.1058 76.1113   1
  -8   0   0 121.524 87.3910   3
   8   0   1 38.0858 71.9792   1
  -8   0  -1 52.6949 83.7841   3
   8   0   2 200.024 69.6429   1
  -8   0  -2 172.621 84.1801   3
  -8   0  -3 585.320 95.3285   3
  -8   0  -4 3556.80 176.467   3
  -8   0  -5 2753.99 154.728   3
  -8  -1   7 4.95922 82.5706   3
   8   1  -6 60.4092 69.4954   1
  -8  -1   6 97.5589 91.9077   3
   8   1  -5 3.74016 66.6785   1
  -8  -1   5 44.8892 89.0391   3
   8   1  -4 68.3725 70.3879   1
  -8  -1   4-5.07754 86.9289   3
  -8  -1   3 2259.06 156.740   3
   8   1  -3 2348.83 143.081   1
  -8  -1   2 932.119 125.990   3
   8   1  -2 909.898 109.552   1
   8   1  -1 25.3799 66.1627   1
  -8  -1   1 3.79355 92.7632   3
  -8  -1   0 1587.69 136.123   3
   8   1   0 1612.67 119.492   1
   8   1   1 4.85397 69.7025   1
  -8  -1  -1-35.5644 84.9968   3
   8   1   2 160.496 64.3924   1
  -8  -1  -2 132.712 79.5764   3
  -8  -1  -3 27.1654 68.3248   3
  -8  -1  -4 142.160 86.8865   3
  -8  -1  -5 974.451 112.894   3
  -8  -1  -9 212.797 91.8302   2
  -8  -2   8 66.6408 94.0627   3
   8   2  -7 564.938 93.3397   1
  -8  -2   7 714.453 123.080   3
  -8  -2   6 1174.78 138.739   3
   8   2  -6 1076.01 119.513   1
   8   2  -5 396.806 80.1592   1
  -8  -2   5 455.669 114.132   3
   8   2  -4-67.4253 65.7732   1
  -8  -2   4-6.14737 82.6935   3
   8   2  -3 380.158 86.1734   1
   8   2  -2 413.843 81.6016   1
   8   2  -1 2106.59 133.292   1
   8   2   0 1080.88 101.184   1
   8   2   1 79.5263 67.1958   1
  -8  -2  -1 71.9131 81.7407   3
   8   2   2-13.6786 58.0393   1
  -8  -2  -2 75.4872 88.9013   3
   8   2   3 110.295 60.8139   1
  -8  -2  -3 25.6318 72.0068   3
  -8  -2  -4 24.1877 80.5397   3
  -8  -2  -5 1925.79 138.434   3
  -8  -2  -9 193.166 82.8605   2
  -8  -3   8-24.3530 100.983   3
   8   3  -7 234.139 79.1260   1
   8   3  -6 43.9548 66.9869   1
   8   3  -5 24.0898 68.2798   1
   8   3  -4 89.2941 61.1964   1
   8   3  -3 384.381 79.0863   1
   8   3  -2 381.972 82.8347   1
   8   3  -1 331.336 81.4684   1
   8   3   0 255.028 72.4089   1
   8   3   1 369.541 67.7840   1
   8   3   2 1776.55 109.459   1
   8   3   3 212.098 64.6634   1
   8   3   4 50.8871 50.5261   1
   8   4  -7 414.839 81.3730   1
   8   4  -6 354.908 74.6302   1
   8   4  -6 439.510 85.4104   0
   8   4  -5 210.002 75.2823   1
   8   4  -5 313.634 80.1419   0
   8   4  -4 424.337 86.6247   1
   8   4  -4 393.993 72.8571   0
   8   4  -3 4873.65 173.611   0
   8   4  -3 4770.24 182.457   1
   8   4  -2 835.441 81.7139   0
   8   4  -2 752.764 92.2742   1
   8   4  -1 161.221 62.6243   1
   8   4   0 313.621 67.2854   1
   8   4   1 150.924 58.3684   1
   8   4   2 93.1489 50.2974   1
   8   4   3 1544.77 102.227   1
   8   5  -6 175.392 70.7873   1
   8   5  -6 115.889 76.7224   0
   8   5  -5 430.153 83.5248   1
   8   5  -5 322.766 83.8159   0
   8   5  -4-21.1378 66.1050   1
   8   5  -4 39.5555 63.6608   0
   8   5  -3 536.071 88.1784   1
   8   5  -3 582.854 89.4194   0
   8   5  -2 4501.29 170.500   0
   8   5  -2 4678.82 175.487   1
   8   5  -1 481.625 75.7079   1
   8   5  -1 464.297 83.5044   0
   8   5   0 162.705 52.0220   1
   8   5   0 163.809 59.5776   0
   8   5   1 219.593 64.3065   0
   8   5   2 295.073 71.9876   0
   8   5   3 155.791 62.7484   0
   8   6  -6-131.552 67.5735   1
   8   6  -5 236.698 67.9465   1
   8   6  -5 187.188 84.5116   0
   8   6  -4 97.0289 54.5835   1
   8   6  -4-18.6212 74.1443   0
   8   6  -3 3380.59 167.754   0
   8   6  -2 2622.71 145.041   0
   8   6  -1 1113.98 101.904   0
   8   6   0 127.355 64.5539   0
   8   6   1 133.697 69.2696   0
   8   6   2-14.8759 64.8144   0
   8   6   3 847.164 95.5282   0
   8   6   4-33.8378 57.5609   0
   8   6   5 161.397 61.4843   0
   8   6   6 258.333 71.0084   0
   8   6   7 1415.24 108.924   0
   8   7  -4-30.8479 79.2812   0
   8   7  -3 40.2453 78.7510   0
   8   7  -2 519.520 90.4630   0
   8   7  -1 18.7133 76.0752   0
   8   7   0 22.5812 79.9581   0
   8   7   1 769.549 100.005   0
   8   7   2-104.335 53.0567   0
   8   7   3 262.661 79.4808   0
   8   7   4 66.2109 65.3060   0
   8   7   5 156.968 68.6323   0
   8   7   6 147.162 77.9476   0
   8   7   7-20.9389 80.4754   0
   8   7   8-57.8617 81.5630   0
   8   8  -2 57.4103 75.9003   0
   8   8  -1 84.0930 63.4869   0
   8   8   0 517.371 90.9015   0
   8   8   1-46.5044 67.6216   0
   8   8   2 113.792 66.4341   0
   8   8   3 415.452 83.9754   0
   8   8   4-11.4084 64.1724   0
   8   8   5 187.185 77.8233   0
  -9   1   0 59.3092 93.7540   3
  -9   1  -1 48.1058 92.1525   3
  -9   1  -2 639.950 129.480   3
  -9   1  -3 198.185 93.5920   3
  -9   1  -4 90.4390 82.1981   3
   9   0  -2 218.998 87.9393   1
  -9   0   2 298.040 96.9710   3
   9   0  -1 527.265 89.5160   1
  -9   0   1 521.008 116.428   3
   9   0   0 56.6441 73.9166   1
  -9   0   0 84.4131 123.772   3
   9   0   1 102.154 81.6222   1
  -9   0  -1 39.5011 107.635   3
   9   0   2 106.437 71.4419   1
  -9   0  -2 80.6852 80.6182   3
   9   0   3 64.0151 72.6072   1
  -9   0  -3 83.2003 80.3279   3
  -9   0  -4-20.0778 79.6656   3
   9   1  -3 26.1804 74.4011   1
  -9  -1   3 98.0453 88.5524   3
   9   1  -2 383.985 86.1252   1
  -9  -1   2 585.750 127.335   3
   9   1  -1 73.1216 75.7317   1
  -9  -1   1 65.0265 94.8210   3
   9   1   0-11.6567 71.3941   1
  -9  -1   0 3.78145 81.1950   3
   9   1   1 690.239 104.202   1
  -9  -1  -1 655.130 113.383   3
   9   1   2 170.902 79.2411   1
  -9  -1  -2 178.796 92.7024   3
   9   1   3 54.4520 75.0222   1
  -9  -1  -3 94.3456 86.9151   3
   9   1   4 467.327 88.3349   1
  -9  -1  -4 345.557 99.7251   3
   9   2  -4 125.638 69.7686   1
   9   2  -3 58.9620 67.5190   1
  -9  -2   3 35.1445 90.6010   3
   9   2  -2 303.647 88.8082   1
  -9  -2   2 348.688 124.057   3
   9   2  -1 152.870 76.1459   1
  -9  -2   1 232.396 101.148   3
   9   2   0-16.4700 64.1303   1
  -9  -2   0-83.6616 93.7216   3
   9   2   1 165.918 75.5314   1
  -9  -2  -1 212.596 98.4339   3
   9   2   2-20.6684 64.6864   1
  -9  -2  -2 5.18958 94.4989   3
   9   2   3 26.4525 64.4629   1
  -9  -2  -3 97.6584 82.6403   3
   9   2   4 56.9950 68.0294   1
  -9  -2  -4 1.98531 82.1002   3
   9   3  -4 121.260 76.9031   1
   9   3  -3 0.00000 64.7468   1
   9   3  -2 301.498 72.9245   1
   9   3  -1-23.7822 73.3867   1
   9   3   0 166.215 75.2530   1
   9   3   1 362.979 73.2726   1
   9   3   2 16.7862 52.8653   1
   9   3   3-50.0518 57.9809   1
  -9  -3  -3 23.6554 88.0452   3
   9   3   4 78.2944 65.7594   1
  -9  -3  -4 39.8888 85.6799   3
   9   3   5 686.285 87.2021   1
   9   4  -4 203.154 71.8893   1
   9   4  -3 347.644 79.7306   1
   9   4  -2 38.5429 54.6359   1
   9   4  -1 93.0695 60.5189   1
   9   4   0-28.2367 74.4964   1
   9   4   1 147.692 79.8845   1
   9   4   2 441.947 80.2385   1
   9   5  -4 18.2637 69.1513   1
   9   5  -3-37.8893 60.8366   1
   9   5  -2-13.0854 59.8640   1
   9   5  -1 2.48408 55.3417   1
   9   6  -4 96.5560 71.3889   0
   9   6  -3 269.799 84.1087   0
   9   6  -2 28.5510 74.2092   0
   9   6  -1-6.78516 60.8134   0
   9   7  -2 50.4652 84.2988   0
   9   7  -1-22.2442 63.9453   0
   9   7   0 16.3097 76.1474   0
   9   7   1 12.1036 62.1932   0
   9   7   2 163.400 77.9379   0
   9   7   3 132.738 78.7473   0
   9   7   4 98.8095 83.5351   0
;
_shelx_hkl_checksum              56091
_shelx_res_file
;
    BD206.res created by SHELXL-2014/7
TITL BD206_a.res in P-1
REM Old TITL BD206 in P-1
REM SHELXT solution in P-1
REM R1 0.158,  Rweak 0.008,  Alpha 0.035,  Orientation as input
REM Formula found by SHELXT:  C13 O7 N2
CELL  0.71073   7.2618   8.9419  11.0001   85.545   86.177   75.248
ZERR    2.000   0.0004   0.0006   0.0007    0.005    0.005    0.005
LATT  1
SFAC C H O N
UNIT 26 26 14 4
OMIT -4 52
ACTA
HTAB
EQIV $1 -x+2, -y, -z+1
HTAB O7 O2_$1
HTAB N1 O1
HTAB O4 O1
HTAB O4 O2
HTAB O6 O7
EQIV $2 x, y, z-1
HTAB O7 O2_$2
HTAB C8 O3
EQIV $3 x-1, y+1, z+1
HTAB C10 O7_$3
EQIV $4 x, y, z+1
HTAB C13 O6_$4
L.S. 10
BOND $H
LIST 6
FMAP 2
PLAN 20
WGHT    0.051000
EXTI    0.138028
FVAR       6.26103
O1    3    0.493646    0.085826    0.851414    11.00000    0.04230    0.04236 =
         0.02345    0.00470    0.00087    0.00077
N1    4    0.274519    0.387403    0.845852    11.00000    0.03469    0.03402 =
         0.04797    0.00574   -0.00438    0.00019
AFIX  43
H1    2    0.337026    0.299713    0.877519    11.00000   -1.20000
AFIX   0
C1    1    0.568885    0.020927    0.947805    11.00000    0.03458    0.02796 =
         0.02310   -0.00223    0.00046   -0.00363
O2    3    0.742119   -0.014329    0.964930    11.00000    0.03394    0.07192 =
         0.03277    0.00399   -0.00117   -0.01371
N2    4    0.382684    0.334607    1.074794    11.00000    0.03967    0.03197 =
         0.04792    0.00245   -0.00374   -0.00605
C2    1    0.680919    0.056042    0.565446    11.00000    0.03202    0.04208 =
         0.02860    0.00275   -0.00247   -0.00708
O3    3    0.554523    0.170176    0.547374    11.00000    0.06207    0.05898 =
         0.03741    0.00131    0.00158    0.01873
C3    1    0.801162   -0.032237    0.461159    11.00000    0.03028    0.04214 =
         0.02867    0.00070   -0.00296   -0.00833
O4    3    0.731013   -0.009415    0.671940    11.00000    0.04492    0.06028 =
         0.02518    0.00378    0.00236    0.00349
AFIX   3
H4    2    0.645716    0.029651    0.736956    11.00000   -1.20000
AFIX   0
C4    1    0.219967    0.507128    0.918154    11.00000    0.02794    0.03042 =
         0.05609    0.00427    0.00178   -0.00638
C5    1    0.114172    0.646022    0.866718    11.00000    0.04041    0.03199 =
         0.07550    0.01091   -0.00291   -0.00408
AFIX  43
H5    2    0.071333    0.730957    0.914109    11.00000   -1.20000
AFIX   0
O5    3    0.913748   -0.155281    0.477415    11.00000    0.05416    0.04738 =
         0.03839   -0.00060   -0.00090    0.00796
C6    1    0.072174    0.658716    0.745395    11.00000    0.04000    0.04796 =
         0.08328    0.02846   -0.01276   -0.00801
AFIX  43
H6A   2    0.000560    0.752150    0.711339    11.00000   -1.20000
AFIX   0
O6    3    0.762640    0.044521    0.356637    11.00000    0.04933    0.05123 =
         0.02646    0.00221    0.00151    0.00153
AFIX   3
H6    2    0.839784   -0.002849    0.293352    11.00000   -1.20000
AFIX   0
C7    1    0.135419    0.534313    0.674633    11.00000    0.04703    0.06855 =
         0.05916    0.02170   -0.01448   -0.01416
AFIX  43
H7    2    0.109773    0.543038    0.592311    11.00000   -1.20000
AFIX   0
O7    3    0.946119   -0.067114    0.165106    11.00000    0.03889    0.05966 =
         0.03109   -0.00247    0.00073   -0.00900
AFIX   3
H7A   2    1.035932   -0.033445    0.131676    11.00000   -1.20000
H7B   2    0.867302   -0.047839    0.099120    11.00000   -1.20000
AFIX   0
C8    1    0.237338    0.396619    0.727655    11.00000    0.04643    0.05738 =
         0.05011    0.00242   -0.00672   -0.00767
AFIX  43
H8    2    0.280220    0.310357    0.681687    11.00000   -1.20000
AFIX   0
C9    1    0.279390    0.478440    1.045660    11.00000    0.02960    0.03237 =
         0.05071    0.00012    0.00287   -0.00916
C10   1    0.231619    0.592256    1.128328    11.00000    0.05195    0.03709 =
         0.07271   -0.00867    0.00519   -0.00772
AFIX  43
H10   2    0.162301    0.691686    1.104731    11.00000   -1.20000
AFIX   0
C11   1    0.288495    0.556046    1.246804    11.00000    0.06757    0.06552 =
         0.06369   -0.02409    0.01039   -0.02681
AFIX  43
H11   2    0.257007    0.630509    1.304345    11.00000   -1.20000
AFIX   0
C12   1    0.392164    0.408487    1.278194    11.00000    0.05794    0.06872 =
         0.04954   -0.00482   -0.00270   -0.02889
AFIX  43
H12   2    0.431343    0.380488    1.357362    11.00000   -1.20000
AFIX   0
C13   1    0.436563    0.303027    1.189192    11.00000    0.04676    0.04632 =
         0.05183    0.00505   -0.00755   -0.01365
AFIX  43
H13   2    0.508619    0.203659    1.210372    11.00000   -1.20000
REM #####
REM #####
AFIX   0
HKLF 4
REM  BD206_a.res in P-1
REM R1 =  0.0322 for    2054 Fo > 4sig(Fo)  and  0.0434 for all    2648 data
REM    200 parameters refined using      0 restraints
END
WGHT      0.0510      0.0000
REM Instructions for potential hydrogen bonds
HTAB N1 O1
HTAB O4 O1
HTAB O4 O2
HTAB O6 O7
HTAB O7 O2_$1
HTAB O7 O2_$2
HTAB C8 O3
HTAB C10 O7_$3
HTAB C13 O6_$4
REM Highest difference peak  0.160,  deepest hole -0.155,  1-sigma level  0.032
Q1    1   0.5000  0.0000  1.0000  10.50000  0.05    0.16
Q2    1   0.2176  0.4878  0.9957  11.00000  0.05    0.13
Q3    1   0.4448  0.2532  1.0146  11.00000  0.05    0.13
Q4    1   0.1207  0.5659  0.9012  11.00000  0.05    0.13
Q5    1   0.2555  0.4822  0.8946  11.00000  0.05    0.13
Q6    1   0.7340 -0.0074  0.5130  11.00000  0.05    0.12
Q7    1   0.1608  0.6615  0.7953  11.00000  0.05    0.12
Q8    1   0.2658  0.5006  0.9803  11.00000  0.05    0.12
Q9    1   0.2343  0.5148  1.0981  11.00000  0.05    0.12
Q10   1   0.6610  0.1871  0.5554  11.00000  0.05    0.12
Q11   1   0.6446  0.1255  0.3499  11.00000  0.05    0.12
Q12   1   0.1223  0.4588  0.7120  11.00000  0.05    0.11
Q13   1   0.0412  0.6505  0.8219  11.00000  0.05    0.11
Q14   1   0.5782  0.1320  0.7991  11.00000  0.05    0.11
Q15   1   0.6024  0.2074  0.4570  11.00000  0.05    0.11
Q16   1   0.0468  0.6853  0.7613  11.00000  0.05    0.11
Q17   1   0.3053  0.4789  1.2538  11.00000  0.05    0.10
Q18   1   0.3752  0.3425  1.2536  11.00000  0.05    0.10
Q19   1   0.9206  0.0428  0.1417  11.00000  0.05    0.10
Q20   1   0.5621  0.1227  0.5482  11.00000  0.05    0.10
;
_shelx_res_checksum              83894
loop_
_space_group_symop_operation_xyz
'x, y, z'
'-x, -y, -z'
loop_
_atom_site_type_symbol
_atom_site_label
_atom_site_fract_x
_atom_site_fract_y
_atom_site_fract_z
_atom_site_U_iso_or_equiv
_atom_site_adp_type
_atom_site_calc_flag
_atom_site_occupancy
O O1 0.49365(11) 0.08583(10) 0.85141(7) 0.0386(2) Uani d 1
N N1 0.27452(14) 0.38740(12) 0.84585(10) 0.0408(3) Uani d 1
H H1 0.3370 0.2997 0.8775 0.049 Uiso calc 1
C C1 0.56889(16) 0.02093(13) 0.94780(10) 0.0294(3) Uani d 1
O O2 0.74212(11) -0.01433(10) 0.96493(8) 0.0465(3) Uani d 1
N N2 0.38268(15) 0.33461(12) 1.07479(10) 0.0406(3) Uani d 1
C C2 0.68092(17) 0.05604(14) 0.56545(11) 0.0349(3) Uani d 1
O O3 0.55452(14) 0.17018(12) 0.54737(8) 0.0594(3) Uani d 1
C C3 0.80116(17) -0.03224(15) 0.46116(10) 0.0339(3) Uani d 1
O O4 0.73101(12) -0.00942(11) 0.67194(7) 0.0470(3) Uani d 1
H H4 0.6457 0.0297 0.7370 0.056 Uiso d 1
C C4 0.21997(17) 0.50713(14) 0.91815(12) 0.0389(3) Uani d 1
C C5 0.11417(19) 0.64602(15) 0.86672(15) 0.0510(4) Uani d 1
H H5 0.0713 0.7310 0.9141 0.061 Uiso calc 1
O O5 0.91375(13) -0.15528(11) 0.47742(8) 0.0506(3) Uani d 1
C C6 0.0722(2) 0.65872(18) 0.74540(17) 0.0589(4) Uani d 1
H H6A 0.0006 0.7522 0.7113 0.071 Uiso calc 1
O O6 0.76264(12) 0.04452(10) 0.35664(7) 0.0453(3) Uani d 1
H H6 0.8398 -0.0028 0.2934 0.054 Uiso d 1
C C7 0.1354(2) 0.53431(19) 0.67463(15) 0.0591(4) Uani d 1
H H7 0.1098 0.5430 0.5923 0.071 Uiso calc 1
O O7 0.94612(12) -0.06711(10) 0.16511(7) 0.0440(3) Uani d 1
H H7A 1.0359 -0.0334 0.1317 0.053 Uiso d 1
H H7B 0.8673 -0.0478 0.0991 0.053 Uiso d 1
C C8 0.2373(2) 0.39662(18) 0.72765(14) 0.0524(4) Uani d 1
H H8 0.2802 0.3104 0.6817 0.063 Uiso calc 1
C C9 0.27939(17) 0.47844(14) 1.04566(12) 0.0377(3) Uani d 1
C C10 0.2316(2) 0.59226(17) 1.12833(15) 0.0546(4) Uani d 1
H H10 0.1623 0.6917 1.1047 0.066 Uiso calc 1
C C11 0.2885(2) 0.5560(2) 1.24680(16) 0.0633(4) Uani d 1
H H11 0.2570 0.6305 1.3043 0.076 Uiso calc 1
C C12 0.3922(2) 0.40849(19) 1.27819(14) 0.0563(4) Uani d 1
H H12 0.4313 0.3805 1.3574 0.068 Uiso calc 1
C C13 0.43656(19) 0.30303(16) 1.18919(13) 0.0481(4) Uani d 1
H H13 0.5086 0.2037 1.2104 0.058 Uiso calc 1
loop_
_atom_site_aniso_label
_atom_site_aniso_U_11
_atom_site_aniso_U_22
_atom_site_aniso_U_33
_atom_site_aniso_U_12
_atom_site_aniso_U_13
_atom_site_aniso_U_23
O1 0.0423(5) 0.0424(5) 0.0235(4) 0.0008(4) 0.0009(4) 0.0047(4)
N1 0.0347(6) 0.0340(6) 0.0480(7) 0.0002(5) -0.0044(5) 0.0057(5)
C1 0.0346(7) 0.0280(6) 0.0231(6) -0.0036(5) 0.0005(5) -0.0022(5)
O2 0.0339(5) 0.0719(7) 0.0328(5) -0.0137(5) -0.0012(4) 0.0040(4)
N2 0.0397(6) 0.0320(6) 0.0479(7) -0.0060(5) -0.0037(5) 0.0025(5)
C2 0.0320(6) 0.0421(7) 0.0286(6) -0.0071(6) -0.0025(5) 0.0027(5)
O3 0.0621(6) 0.0590(7) 0.0374(6) 0.0187(5) 0.0016(5) 0.0013(5)
C3 0.0303(6) 0.0421(8) 0.0287(6) -0.0083(6) -0.0030(5) 0.0007(5)
O4 0.0449(5) 0.0603(6) 0.0252(5) 0.0035(4) 0.0024(4) 0.0038(4)
C4 0.0279(6) 0.0304(7) 0.0561(9) -0.0064(5) 0.0018(6) 0.0043(6)
C5 0.0404(7) 0.0320(8) 0.0755(11) -0.0041(6) -0.0029(7) 0.0109(7)
O5 0.0542(6) 0.0474(6) 0.0384(5) 0.0080(5) -0.0009(4) -0.0006(4)
C6 0.0400(8) 0.0480(10) 0.0833(12) -0.0080(7) -0.0128(8) 0.0285(8)
O6 0.0493(5) 0.0512(6) 0.0265(5) 0.0015(4) 0.0015(4) 0.0022(4)
C7 0.0470(9) 0.0685(11) 0.0592(10) -0.0142(8) -0.0145(7) 0.0217(8)
O7 0.0389(5) 0.0597(6) 0.0311(5) -0.0090(4) 0.0007(4) -0.0025(4)
C8 0.0464(8) 0.0574(9) 0.0501(9) -0.0077(7) -0.0067(7) 0.0024(7)
C9 0.0296(6) 0.0324(7) 0.0507(8) -0.0092(5) 0.0029(5) 0.0001(6)
C10 0.0519(9) 0.0371(8) 0.0727(11) -0.0077(7) 0.0052(8) -0.0087(7)
C11 0.0676(10) 0.0655(11) 0.0637(11) -0.0268(9) 0.0104(8) -0.0241(8)
C12 0.0579(9) 0.0687(11) 0.0495(9) -0.0289(8) -0.0027(7) -0.0048(8)
C13 0.0468(8) 0.0463(8) 0.0518(9) -0.0137(7) -0.0076(7) 0.0051(7)
loop_
_atom_type_symbol
_atom_type_description
_atom_type_scat_dispersion_real
_atom_type_scat_dispersion_imag
_atom_type_scat_source
C C 0.0033 0.0016 'International Tables Vol C Tables 4.2.6.8 and 6.1.1.4'
H H 0.0000 0.0000 'International Tables Vol C Tables 4.2.6.8 and 6.1.1.4'
O O 0.0106 0.0060 'International Tables Vol C Tables 4.2.6.8 and 6.1.1.4'
N N 0.0061 0.0033 'International Tables Vol C Tables 4.2.6.8 and 6.1.1.4'
loop_
_geom_angle_atom_site_label_1
_geom_angle_atom_site_label_2
_geom_angle_atom_site_label_3
_geom_angle_site_symmetry_3
_geom_angle
C8 N1 C4 . 123.91(11)
C8 N1 H1 . 118.0
C4 N1 H1 . 118.0
O2 C1 O1 . 125.34(10)
O2 C1 C1 2_657 118.21(12)
O1 C1 C1 2_657 116.44(12)
C13 N2 C9 . 117.25(12)
O3 C2 O4 . 125.59(12)
O3 C2 C3 . 122.43(11)
O4 C2 C3 . 111.97(10)
O5 C3 O6 . 126.36(12)
O5 C3 C2 . 122.97(11)
O6 C3 C2 . 110.67(11)
C2 O4 H4 . 114.2
N1 C4 C5 . 117.27(13)
N1 C4 C9 . 116.89(11)
C5 C4 C9 . 125.84(13)
C6 C5 C4 . 120.14(15)
C6 C5 H5 . 119.9
C4 C5 H5 . 119.9
C7 C6 C5 . 120.36(13)
C7 C6 H6A . 119.8
C5 C6 H6A . 119.8
C3 O6 H6 . 112.1
C6 C7 C8 . 118.73(15)
C6 C7 H7 . 120.6
C8 C7 H7 . 120.6
H7A O7 H7B . 98.0
N1 C8 C7 . 119.56(14)
N1 C8 H8 . 120.2
C7 C8 H8 . 120.2
N2 C9 C10 . 122.62(13)
N2 C9 C4 . 115.25(12)
C10 C9 C4 . 122.13(12)
C9 C10 C11 . 118.92(14)
C9 C10 H10 . 120.5
C11 C10 H10 . 120.5
C12 C11 C10 . 118.99(14)
C12 C11 H11 . 120.5
C10 C11 H11 . 120.5
C11 C12 C13 . 118.18(15)
C11 C12 H12 . 120.9
C13 C12 H12 . 120.9
N2 C13 C12 . 124.03(13)
N2 C13 H13 . 118.0
C12 C13 H13 . 118.0
loop_
_geom_bond_atom_site_label_1
_geom_bond_atom_site_label_2
_geom_bond_site_symmetry_2
_geom_bond_distance
O1 C1 . 1.2569(13)
N1 C8 . 1.3375(17)
N1 C4 . 1.3453(17)
N1 H1 . 0.8600
C1 O2 . 1.2401(13)
C1 C1 2_657 1.559(2)
N2 C13 . 1.3306(16)
N2 C9 . 1.3402(15)
C2 O3 . 1.1997(14)
C2 O4 . 1.2996(13)
C2 C3 . 1.5355(18)
C3 O5 . 1.2007(14)
C3 O6 . 1.3014(13)
O4 H4 . 0.9417
C4 C5 . 1.3841(17)
C4 C9 . 1.4791(19)
C5 C6 . 1.378(2)
C5 H5 . 0.9300
C6 C7 . 1.371(2)
C6 H6A . 0.9300
O6 H6 . 0.9224
C7 C8 . 1.3733(19)
C7 H7 . 0.9300
O7 H7A . 0.8379
O7 H7B . 0.9327
C8 H8 . 0.9300
C9 C10 . 1.380(2)
C10 C11 . 1.383(2)
C10 H10 . 0.9300
C11 C12 . 1.373(2)
C11 H11 . 0.9300
C12 C13 . 1.378(2)
C12 H12 . 0.9300
C13 H13 . 0.9300
loop_
_geom_hbond_atom_site_label_D
_geom_hbond_atom_site_label_H
_geom_hbond_atom_site_label_A
_geom_hbond_site_symmetry_A
_geom_hbond_distance_DH
_geom_hbond_distance_HA
_geom_hbond_distance_DA
_geom_hbond_angle_DHA
O7 H7A O2 2_756 0.84 1.99 2.8192(12) 170.0
N1 H1 O1 . 0.86 1.99 2.7586(13) 147.9
O4 H4 O1 . 0.94 1.64 2.5795(11) 176.0
O4 H4 O2 . 0.94 2.62 3.2259(12) 122.4
O6 H6 O7 . 0.92 1.63 2.5467(11) 169.4
O7 H7B O2 1_554 0.93 1.75 2.6802(12) 173.7
C8 H8 O3 . 0.93 2.52 3.3132(18) 143.5
C10 H10 O7 1_466 0.93 2.43 3.2562(17) 147.6
C13 H13 O6 1_556 0.93 2.59 3.3876(16) 143.8

_cod_database_fobs_code 1549872
