#------------------------------------------------------------------------------
#$Date: 2018-09-08 05:13:48 +0300 (Sat, 08 Sep 2018) $
#$Revision: 210559 $
#$URL: file:///home/coder/svn-repositories/cod/cif/1/54/98/1549899.cif $
#------------------------------------------------------------------------------
#
# This file is available in the Crystallography Open Database (COD),
# http://www.crystallography.net/. The original data for this entry
# were provided by IUCr Journals, http://journals.iucr.org/.
#
# The file may be used within the scientific community so long as
# proper attribution is given to the journal article from which the
# data were obtained.
#
data_1549899
loop_
_publ_author_name
'Wang, Zhaodong'
'Ni, Haitao'
_publ_section_title
;
 Methyl
 4-{<i>N</i>'-[(1<i>E</i>)-1-(pyrazin-2-yl)ethylidene]hydrazinecarbonyl}benzoate
;
_journal_coeditor_code           TK4050
_journal_issue                   9
_journal_name_full               IUCrData
_journal_page_first              x181230
_journal_paper_doi               10.1107/S2414314618012300
_journal_volume                  3
_journal_year                    2018
_chemical_formula_iupac          'C15 H14 N4 O3'
_chemical_formula_moiety         'C15 H14 N4 O3'
_chemical_formula_sum            'C15 H14 N4 O3'
_chemical_formula_weight         298.30
_chemical_name_systematic
;
Methyl
4-{<i>N</i>'-[(1<i>E</i>)-1-(pyrazin-2-yl)ethylidene]hydrazinecarbonyl}benzoate
;
_space_group_crystal_system      triclinic
_space_group_IT_number           1
_space_group_name_Hall           'P 1'
_space_group_name_H-M_alt        'P 1'
_symmetry_space_group_name_Hall  'P 1'
_symmetry_space_group_name_H-M   'P 1'
_atom_sites_solution_hydrogens   geom
_atom_sites_solution_primary     dual
_audit_creation_method
;
Olex2 1.2
(compiled 2018.05.29 svn.r3508 for OlexSys, GUI svn.r5506)
;
_cell_angle_alpha                93.818(12)
_cell_angle_beta                 91.29(3)
_cell_angle_gamma                94.252(10)
_cell_formula_units_Z            2
_cell_length_a                   5.859(5)
_cell_length_b                   7.479(6)
_cell_length_c                   16.329(14)
_cell_measurement_reflns_used    1904
_cell_measurement_temperature    296.15
_cell_measurement_theta_max      27.170
_cell_measurement_theta_min      2.501
_cell_volume                     711.7(10)
_computing_cell_refinement
;
SAINT (Bruker, 2013)
;
_computing_data_collection
;
APEX2  (Bruker, 2013)
;
_computing_data_reduction
;
SAINT (Bruker, 2013)
;
_computing_molecular_graphics
;
<i>OLEX2</i> (Dolomanov <i>et al.</i>,  2009)
;
_computing_publication_material
;
<i>OLEX2</i> (Dolomanov <i>et al.</i>,  2009)
;
_computing_structure_refinement
;
SHELXL2018 (Sheldrick, 2015<i>b</i>)
;
_computing_structure_solution
;
SHELXT (Sheldrick, 2015<i>a</i>)
;
_diffrn_ambient_temperature      296.15
_diffrn_measured_fraction_theta_full 0.994
_diffrn_measured_fraction_theta_max 0.923
_diffrn_measurement_device_type  'Bruker P4'
_diffrn_measurement_method       '\w scan'
_diffrn_radiation_type           MoK\a
_diffrn_radiation_wavelength     0.71073
_diffrn_reflns_av_R_equivalents  0.0260
_diffrn_reflns_limit_h_max       7
_diffrn_reflns_limit_h_min       -7
_diffrn_reflns_limit_k_max       9
_diffrn_reflns_limit_k_min       -9
_diffrn_reflns_limit_l_max       21
_diffrn_reflns_limit_l_min       -21
_diffrn_reflns_number            5678
_diffrn_reflns_theta_full        25.242
_diffrn_reflns_theta_max         27.557
_diffrn_reflns_theta_min         2.501
_diffrn_standards_decay_%        1
_diffrn_standards_interval_count 60
_diffrn_standards_number         1
_exptl_absorpt_coefficient_mu    0.100
_exptl_absorpt_correction_T_max  0.7456
_exptl_absorpt_correction_T_min  0.6539
_exptl_absorpt_correction_type   multi-scan
_exptl_absorpt_process_details
;
(SADABS; Bruker, 2014)
;
_exptl_crystal_colour            colourless
_exptl_crystal_density_diffrn    1.392
_exptl_crystal_description       block
_exptl_crystal_F_000             312
_exptl_crystal_size_max          0.2
_exptl_crystal_size_mid          0.14
_exptl_crystal_size_min          0.12
_refine_diff_density_max         0.187
_refine_diff_density_min         -0.288
_refine_ls_abs_structure_details
;
 Refined as an inversion twin.
;
_refine_ls_abs_structure_Flack   -2(2)
_refine_ls_extinction_method     none
_refine_ls_goodness_of_fit_ref   1.118
_refine_ls_hydrogen_treatment    constr
_refine_ls_matrix_type           full
_refine_ls_number_parameters     402
_refine_ls_number_reflns         4773
_refine_ls_number_restraints     3
_refine_ls_restrained_S_all      1.118
_refine_ls_R_factor_all          0.0705
_refine_ls_R_factor_gt           0.0501
_refine_ls_shift/su_max          0.000
_refine_ls_shift/su_mean         0.000
_refine_ls_structure_factor_coef Fsqd
_refine_ls_weighting_details
'w=1/[\s^2^(Fo^2^)+(0.0382P)^2^+0.0177P] where P=(Fo^2^+2Fc^2^)/3'
_refine_ls_weighting_scheme      calc
_refine_ls_wR_factor_gt          0.0990
_refine_ls_wR_factor_ref         0.1060
_reflns_number_gt                3720
_reflns_number_total             4773
_reflns_threshold_expression     'I > 2\s(I)'
_cod_data_source_file            tk4050sup1.cif
_cod_data_source_block           I
_cod_database_code               1549899
_shelx_space_group_comment
;
The symmetry employed for this shelxl refinement is uniquely defined
by the following loop, which should always be used as a source of
symmetry information in preference to the above space-group names.
They are only intended as comments.
;
_shelx_estimated_absorpt_t_min   0.980
_shelx_estimated_absorpt_t_max   0.988
_shelx_hkl_file
;
  -1   0   0    1.90    0.43
  -1   0   0    2.00    0.32
  -1   0   0    1.70    0.28
  -2   0   0  746.28   14.96
  -2   0   0  729.06   14.23
  -2   0   0  721.31   13.92
  -3   0   0    2.25    0.57
  -3   0   0    2.38    0.80
  -3   0   0    2.59    0.66
  -4   0   0   86.05    2.80
  -4   0   0   94.24    4.11
  -4   0   0   91.86    3.18
  -5   0   0    4.82    0.94
  -5   0   0    4.94    1.15
  -5   0   0    7.11    1.59
  -6   0   0   20.07    1.89
  -6   0   0   19.22    1.61
  -6   0   0   17.04    2.52
  -7   0   0    1.68    1.15
  -7   0   0    1.49    1.44
   7   0   0    5.26    1.43
  -8   0   0    3.42    2.07
  -8   0   0    2.70    1.31
   9   0   0   50.35    3.69
   8  -1   0   11.38    2.34
  -8   1   0    0.19    1.05
  -8   1   0   -0.05    1.76
   7  -1   0    2.40    1.31
  -7   1   0   -0.18    1.22
  -7   1   0    0.12    0.93
   6  -1   0    0.72    1.05
  -6   1   0   -0.18    1.35
  -6   1   0   -0.75    0.78
  -5   1   0   -0.40    0.49
  -5   1   0    0.66    1.02
  -5   1   0    0.59    0.87
  -4   1   0   -0.50    0.83
  -4   1   0   -0.64    0.36
  -4   1   0   -0.26    0.63
  -3   1   0   -0.35    0.55
  -3   1   0    0.21    0.46
  -3   1   0    0.24    0.35
  -2   1   0   -0.17    0.27
  -2   1   0   -0.57    0.57
  -2   1   0   -0.59    0.41
  -1   1   0   -0.17    0.10
  -1   1   0   -0.10    0.34
  -1   1   0   -0.41    0.28
   0  -1   0   -0.19    0.09
   0  -1   0   -0.48    0.10
   0   1   0   -0.36    0.08
  -1  -1   0   -4.20    0.41
  -1  -1   0   -4.24    0.37
   1   1   0   -4.20    0.40
  -2  -1   0   -0.35    0.45
  -2  -1   0   -0.43    0.50
  -2  -1   0   -0.62    0.40
  -3  -1   0    0.07    0.58
  -3  -1   0    0.37    0.47
  -3  -1   0   -0.03    0.43
  -4  -1   0   -0.35    0.73
  -4  -1   0   -0.44    0.48
  -4  -1   0   -0.20    0.54
  -5  -1   0   -0.12    0.63
  -5  -1   0   -0.82    0.70
  -5  -1   0   -0.14    0.79
  -6  -1   0   -0.22    0.65
  -6  -1   0    0.78    0.87
  -6  -1   0    0.63    1.06
  -7  -1   0   -1.60    1.16
  -7  -1   0   -1.10    0.80
  -7  -1   0    0.64    0.86
  -8  -1   0   -1.08    1.29
  -8  -1   0    0.30    1.01
  -9   2   0   -0.83    2.07
  -9   2   0   -0.25    1.32
   8  -2   0   14.17    3.46
  -8   2   0    4.42    1.57
  -8   2   0    2.79    2.03
   7  -2   0   11.57    2.65
  -7   2   0    5.49    1.42
  -7   2   0    6.13    2.17
   6  -2   0   11.03    2.32
  -6   2   0   12.17    1.83
  -6   2   0   10.91    2.29
   5  -2   0    1.19    1.10
  -5   2   0    2.09    0.93
  -5   2   0    2.53    1.45
   4  -2   0  331.85    9.03
  -4   2   0  306.81    9.23
  -4   2   0  329.23    7.95
  -4   2   0  319.47    6.70
   3  -2   0   44.64    2.53
  -3   2   0   46.28    2.11
  -3   2   0   43.86    1.33
  -3   2   0   48.42    2.80
   2  -2   0  112.12    3.74
  -2   2   0  112.31    3.19
  -2   2   0  112.28    3.85
   1  -2   0  433.09    9.34
   1  -2   0  441.90    8.16
  -1   2   0  457.85    9.61
  -1   2   0  437.81    8.86
   0  -2   0  224.32    4.83
   0  -2   0  220.15    4.50
   0   2   0  222.80    4.59
  -1  -2   0  534.47   10.48
  -1  -2   0  544.37   10.62
   1   2   0  540.15   10.35
  -2  -2   0 4353.84   86.40
  -2  -2   0 4432.20   83.24
   2   2   0 4342.95   82.99
  -3  -2   0  452.54   10.16
  -3  -2   0  441.55    9.60
   3   2   0  442.21    9.30
  -4  -2   0  396.16    8.82
  -4  -2   0  373.10    9.84
  -4  -2   0  397.25    8.97
  -5  -2   0   14.86    1.65
  -5  -2   0   11.17    1.47
  -5  -2   0   12.63    1.84
  -6  -2   0   21.55    1.93
  -6  -2   0   19.54    2.57
  -6  -2   0   22.08    2.00
  -7  -2   0    1.85    1.17
  -7  -2   0    1.46    1.04
  -7  -2   0    0.36    1.07
  -8  -2   0    2.03    1.43
   8   2   0   14.32    1.37
  -9   3   0   -0.12    1.15
  -9   3   0   -3.38    1.75
   8  -3   0    5.48    2.83
  -8   3   0   -0.47    1.87
  -8   3   0    1.19    1.26
   7  -3   0    1.73    2.14
  -7   3   0   -0.05    1.14
  -7   3   0   -0.75    1.47
   6  -3   0    0.12    1.53
  -6   3   0   -0.04    1.36
  -6   3   0   -0.96    0.75
   5  -3   0   -0.17    1.13
  -5   3   0   -0.13    1.28
  -5   3   0   -1.12    0.68
   4  -3   0    0.86    0.95
  -4   3   0   -0.02    1.16
  -4   3   0   -0.38    0.66
   3  -3   0    0.35    0.74
  -3   3   0    0.11    0.58
  -3   3   0    0.23    0.80
   2  -3   0   -0.12    0.20
   2  -3   0   -0.62    0.60
  -2   3   0   -0.44    0.50
  -2   3   0    0.05    0.73
   1  -3   0   -0.37    0.26
   1  -3   0    0.04    0.58
  -1   3   0   -0.34    0.46
   0  -3   0    0.29    0.64
   0  -3   0   -0.41    0.36
   0   3   0   -1.01    0.43
  -1  -3   0   -0.30    0.51
  -1  -3   0   -0.99    0.46
   1   3   0    0.09    0.44
  -2  -3   0    0.06    0.40
  -2  -3   0   -0.50    0.39
   2   3   0   -0.05    0.39
  -3  -3   0   -0.20    0.46
  -3  -3   0   -0.31    0.55
   3   3   0   -0.76    0.47
  -4  -3   0   -0.29    0.59
  -4  -3   0    0.36    0.71
   4   3   0   -0.64    0.49
  -5  -3   0    0.12    0.80
  -5  -3   0   -0.26    0.67
   5   3   0   -0.44    0.63
  -6  -3   0   -0.24    0.79
  -6  -3   0   -0.25    0.97
   6   3   0    0.26    0.87
  -7  -3   0   -0.08    0.88
   7   3   0    1.61    0.88
  -8  -3   0    0.23    1.01
  -9   4   0    2.63    1.65
   8  -4   0    8.58    3.17
  -8   4   0    3.65    1.68
   7  -4   0   11.88    3.41
  -7   4   0    4.96    2.44
  -7   4   0    7.02    1.77
   6  -4   0    3.84    2.16
  -6   4   0    3.02    1.82
  -6   4   0    3.75    1.28
   5  -4   0   49.05    3.92
  -5   4   0   55.38    4.17
  -5   4   0   49.99    2.94
   4  -4   0   76.38    4.16
  -4   4   0   77.61    3.38
  -4   4   0   80.95    4.45
   3  -4   0  158.62    5.61
  -3   4   0  153.92    4.73
  -3   4   0  151.54    5.64
   2  -4   0  339.07    8.68
   2  -4   0  332.13    6.37
  -2   4   0  341.11    7.83
   1  -4   0  583.52   10.96
   1  -4   0  564.44   12.40
  -1   4   0  567.16   11.70
   0  -4   0  126.71    3.70
   0  -4   0  123.76    3.20
   0   4   0  123.95    3.32
  -1  -4   0  232.91    5.56
  -1  -4   0  235.50    5.55
   1   4   0  235.51    5.35
  -2  -4   0  155.53    4.20
  -2  -4   0  160.92    4.43
   2   4   0  155.93    4.00
  -3  -4   0   43.71    2.16
  -3  -4   0   42.50    2.17
   3   4   0   44.51    1.92
  -4  -4   0  301.33    7.73
  -4  -4   0  293.83    7.93
   4   4   0  298.51    7.11
  -5  -4   0    9.98    1.61
  -5  -4   0    9.54    1.56
   5   4   0   12.13    1.52
  -6  -4   0   69.01    3.52
   6   4   0   74.09    3.32
  -7  -4   0   15.81    2.16
   7   4   0   21.55    2.14
  -8  -4   0    1.02    1.13
   8  -5   0   -0.02    2.91
  -8   5   0    0.29    1.31
   7  -5   0    1.24    2.94
  -7   5   0    0.57    1.16
   6  -5   0   -1.98    1.71
  -6   5   0   -0.04    0.95
   5  -5   0   -0.72    1.40
  -5   5   0   -0.22    0.90
   4  -5   0    0.55    1.23
  -4   5   0   -0.85    0.80
   3  -5   0    0.71    1.05
  -3   5   0    0.34    0.77
   2  -5   0    0.05    0.96
   2  -5   0   -0.08    0.25
  -2   5   0   -0.33    0.66
   1  -5   0    0.42    0.40
   1  -5   0   -0.08    0.83
  -1   5   0   -0.72    0.55
   0  -5   0    0.21    0.45
   0  -5   0   -0.18    0.71
   0   5   0   -0.22    0.56
  -1  -5   0   -0.53    0.50
  -1  -5   0   -0.35    0.65
   1   5   0    0.15    0.61
  -2  -5   0   -0.37    0.47
  -2  -5   0   -0.24    0.60
   2   5   0    0.27    0.64
  -3  -5   0   -0.06    0.69
  -3  -5   0    0.01    0.52
   3   5   0   -0.33    0.55
  -4  -5   0   -0.30    0.51
  -4  -5   0   -0.27    0.80
   4   5   0   -0.45    0.63
  -5  -5   0    0.56    0.80
   5   5   0   -0.45    0.85
  -6  -5   0   -0.75    0.85
   6   5   0    0.12    0.95
  -7  -5   0    0.46    1.09
   7   5   0   -0.95    1.01
  -8  -5   0   -0.20    1.11
  -9  -5   0    1.07    1.39
   8  -6   0    1.76    3.03
  -8   6   0    1.89    1.40
   7  -6   0    9.26    3.76
  -7   6   0    6.91    1.89
   6  -6   0   34.97    4.82
  -6   6   0   23.93    2.52
   5  -6   0    9.93    2.64
  -5   6   0    8.37    1.72
   4  -6   0   24.62    3.26
  -4   6   0   24.31    2.24
   3  -6   0    4.19    1.55
  -3   6   0    4.38    1.21
   2  -6   0   86.06    2.24
   2  -6   0   88.92    4.19
  -2   6   0   86.43    3.41
   1  -6   0  192.29    6.01
   1  -6   0  193.63    4.55
  -1   6   0  187.68    5.24
   0  -6   0  281.36    7.38
   0  -6   0  285.98    6.56
   0   6   0  275.54    6.76
  -1  -6   0  124.58    3.86
  -1  -6   0  123.16    4.11
   1   6   0  120.86    3.71
  -2  -6   0  144.49    4.41
  -2  -6   0  141.41    4.50
   2   6   0  145.25    4.19
  -3  -6   0    0.00    0.60
  -3  -6   0    0.24    0.63
   3   6   0    1.03    0.88
  -4  -6   0   10.91    1.69
   4   6   0    7.71    1.34
  -5  -6   0   17.94    2.22
   5   6   0   17.67    1.94
  -6  -6   0   14.82    2.20
   6   6   0   12.90    1.82
  -7  -6   0    9.74    2.05
  -8  -6   0    9.73    2.11
  -8   7   0    1.09    1.56
   7  -7   0    0.32    2.96
  -7   7   0    0.74    1.26
   6  -7   0   -0.89    2.69
  -6   7   0    0.57    1.15
   5  -7   0   -0.44    2.04
  -5   7   0   -0.58    0.99
   4  -7   0   -0.05    1.66
  -4   7   0    0.08    0.97
   3  -7   0    0.35    1.44
  -3   7   0   -0.15    0.94
   2  -7   0    0.69    1.44
  -2   7   0   -0.58    0.88
   1  -7   0    0.81    0.60
   1  -7   0    0.01    1.16
  -1   7   0   -0.66    0.76
   0  -7   0    0.65    1.23
   0  -7   0    0.29    0.67
   0   7   0   -0.04    0.85
  -1  -7   0    0.87    1.05
  -1  -7   0    0.00    0.68
   1   7   0    0.25    0.84
  -2  -7   0   -0.08    0.76
  -2  -7   0   -0.97    0.80
   2   7   0    0.05    0.84
  -3  -7   0   -0.55    0.86
  -3  -7   0   -0.23    0.66
   3   7   0    0.15    0.92
  -4  -7   0    0.36    1.04
   4   7   0    0.99    0.97
  -5  -7   0    0.73    1.04
   5   7   0   -0.52    0.95
  -6  -7   0    0.97    1.18
   6   7   0   -1.75    1.08
  -7  -7   0   -0.42    1.12
  -8  -7   0    3.11    1.60
   7  -8   0    6.93    4.33
  -7   8   0    3.40    1.74
   6  -8   0   -0.86    3.00
  -6   8   0    0.01    1.18
   5  -8   0    3.55    2.77
  -5   8   0    7.95    1.80
   4  -8   0   33.23    4.23
  -4   8   0   34.35    2.77
   3  -8   0   23.65    3.17
  -3   8   0   23.63    2.29
   2  -8   0    8.02    2.05
  -2   8   0    7.24    1.55
   1  -8   0   -0.13    0.62
   1  -8   0    1.52    1.48
  -1   8   0   -0.54    0.94
   0  -8   0    3.48    0.95
   0  -8   0    2.91    1.45
   0   8   0    3.37    1.18
  -1  -8   0   39.67    2.29
  -1  -8   0   40.07    2.88
   1   8   0   42.96    2.63
  -2  -8   0    3.62    1.19
  -2  -8   0    4.41    1.19
   2   8   0    5.70    1.35
  -3  -8   0  127.58    4.82
   3   8   0  128.23    4.42
  -4  -8   0   81.28    3.98
   4   8   0   78.86    3.48
  -5  -8   0   34.19    2.85
   5   8   0   32.95    2.63
  -6  -8   0   27.89    2.81
   6   8   0   29.25    3.02
  -7  -8   0    7.09    1.99
   6  -9   0   -4.35    2.73
  -6   9   0    0.65    1.42
   5  -9   0   -2.78    2.60
  -5   9   0    0.96    1.26
   4  -9   0   -0.84    2.20
  -4   9   0    0.60    1.19
   3  -9   0   -2.06    1.73
  -3   9   0   -1.60    0.91
   2  -9   0   -0.04    1.74
  -2   9   0    1.16    1.17
   1  -9   0   -1.41    1.67
  -1   9   0    0.41    1.08
   0  -9   0    0.53    0.83
   0  -9   0   -0.06    1.54
   0   9   0    0.08    1.10
  -1  -9   0   -0.32    0.84
  -1  -9   0   -0.36    1.21
   1   9   0   -0.47    1.19
  -2  -9   0   -0.04    0.92
   2   9   0    0.07    1.22
  -3  -9   0   -1.88    1.01
   3   9   0    0.59    1.26
  -4  -9   0   -0.69    1.00
   4   9   0   -0.45    1.08
  -5  -9   0    2.25    1.40
   5   9   0   -2.77    1.17
  -6  -9   0   -0.47    1.20
  -7  -9   0    0.16    1.35
   6 -10   0   -4.35    3.47
  -6  10   0    4.10    1.77
   5 -10   0    5.80    4.00
  -5  10   0    6.61    1.96
   4 -10   0    3.21    3.25
  -4  10   0    4.39    1.64
   3 -10   0    5.33    2.73
  -3  10   0    6.89    1.75
   2 -10   0   25.53    3.67
  -2  10   0   24.25    2.46
   1 -10   0    7.50    2.30
  -1  10   0   10.71    1.83
   0 -10   0   29.05    3.34
   0  10   0   29.54    2.51
  -1 -10   0    0.07    0.98
   1  10   0    0.13    1.30
  -2 -10   0   40.22    2.74
   2  10   0   39.37    2.90
  -3 -10   0   28.76    2.57
   3  10   0   29.35    2.69
  -4 -10   0    8.17    1.88
   4  10   0    9.99    2.07
  -5 -10   0   13.91    2.45
   5  10   0   16.93    2.39
  -6 -10   0    1.19    1.47
   5 -11   0   -3.69    3.02
  -5  11   0    0.64    1.42
   4 -11   0   -3.83    2.63
  -4  11   0    2.73    1.65
   3 -11   0   -3.41    2.45
  -3  11   0   -0.12    1.24
   2 -11   0   -1.72    2.40
  -2  11   0   -0.19    1.20
   1 -11   0   -1.27    1.76
  -1  11   0    1.23    1.31
   0  11   0    0.60    1.40
  -1 -11   0    1.00    1.27
   1  11   0   -0.70    1.18
  -2 -11   0   -0.45    0.98
   2  11   0   -0.64    1.24
  -3 -11   0    1.01    1.20
   3  11   0   -1.53    1.35
  -4 -11   0    0.33    1.23
   4  11   0   -2.30    1.38
  -5 -11   0   -0.59    1.32
  -6 -11   0   -0.48    1.56
   4 -12   0    4.61    3.85
  -4  12   0   10.42    2.34
   3 -12   0   -4.97    3.07
  -3  12   0    1.84    1.51
   2 -12   0    0.27    2.54
  -2  12   0    4.98    1.76
  -1  12   0   18.81    2.57
   0  12   0   11.28    2.17
   1  12   0   13.84    2.36
  -2 -12   0    3.98    1.48
   2  12   0    4.99    1.90
  -3 -12   0   11.06    2.17
   3  12   0   11.49    2.30
  -4 -12   0   15.43    2.54
   4  12   0   16.84    2.50
  -5 -12   0    8.00    2.17
   3 -13   0   -5.37    2.81
  -2  13   0    0.83    1.44
  -1  13   0    0.55    1.41
   0  13   0   -0.13    1.33
   1  13   0   -0.19    1.40
   2  13   0    0.25    1.59
  -3 -13   0   -0.82    1.23
   3  13   0    0.68    1.69
  -4 -13   0   -0.99    1.34
   0  14   0    5.21    1.92
   1  14   0    0.54    1.71
   2  14   0    3.44    1.98
   2  14  -1    2.93    1.82
   1  14  -1   10.19    2.37
   0  14  -1   14.43    3.12
  -4 -13   1   -1.29    1.27
   3  13  -1    0.34    1.46
  -3 -13   1    0.47    1.42
   2  13  -1    0.84    1.40
   1  13  -1    1.14    1.47
   0  13  -1    2.01    1.50
  -1  13  -1    1.54    1.46
  -2  13  -1    0.51    1.46
   3 -13   1   -4.72    3.28
  -5 -12   1    5.56    2.03
  -4 -12   1   12.63    2.41
   3  12  -1    7.46    1.99
  -3 -12   1    5.93    1.81
   2  12  -1    7.42    1.86
  -2 -12   1    8.22    3.02
   1  12  -1    4.12    1.61
   0  12  -1    0.52    1.26
  -1  12  -1    0.73    1.41
  -2  12  -1   10.41    2.14
   2 -12   1    8.32    3.38
  -3  12  -1    2.39    1.55
   3 -12   1   -3.26    3.12
   4 -12   1   -4.01    3.77
  -5 -11   1    0.12    1.43
   4  11  -1   -0.66    1.54
  -4 -11   1   -0.91    1.20
   3  11  -1   -0.21    1.43
  -3 -11   1    2.60    1.46
   2  11  -1    0.75    1.33
  -2 -11   1    0.29    1.11
   1  11  -1    0.35    1.36
   0  11  -1    0.45    1.27
  -1  11  -1   -0.27    1.26
   1 -11   1   -1.91    1.84
  -2  11  -1    0.22    1.18
   2 -11   1   -3.09    2.41
  -3  11  -1    0.00    1.21
   3 -11   1   -5.20    2.51
  -4  11  -1    0.32    1.28
   4 -11   1   -4.53    2.77
  -5  11  -1   -1.23    2.15
   5 -11   1   -6.39    3.11
  -6 -10   1    2.81    1.77
  -5 -10   1   15.66    2.57
   4  10  -1   18.10    2.35
  -4 -10   1   21.00    2.70
   3  10  -1    3.40    1.53
  -3 -10   1    1.82    1.30
   2  10  -1    1.60    1.34
  -2 -10   1    1.55    1.10
   1  10  -1    2.02    1.28
  -1 -10   1    0.68    1.07
   0  10  -1    5.28    1.50
   0 -10   1    3.61    1.94
  -1  10  -1   11.76    1.90
   1 -10   1   10.03    2.46
  -2  10  -1   14.63    2.28
   2 -10   1   13.24    2.94
  -3  10  -1   13.71    2.28
   3 -10   1    8.15    3.40
  -4  10  -1    6.72    1.84
   4 -10   1    1.56    2.88
  -5  10  -1    5.01    1.86
   5 -10   1    1.13    3.61
  -7  -9   1   -0.12    1.45
  -6  -9   1   -0.20    1.26
   5   9  -1   -0.09    1.97
  -5  -9   1   -0.51    1.19
   4   9  -1   -0.72    1.25
  -4  -9   1   -0.25    1.08
   3   9  -1   -0.68    1.02
  -3  -9   1    0.63    1.00
   2   9  -1   -0.94    1.02
  -2  -9   1   -0.83    0.80
   1   9  -1    0.22    1.10
  -1  -9   1    0.24    1.29
  -1  -9   1    0.38    0.95
   0   9  -1   -1.05    1.00
   0  -9   1   -0.26    1.59
   0  -9   1   -0.89    0.67
  -1   9  -1   -0.48    1.01
   1  -9   1   -0.99    1.77
  -2   9  -1    0.52    1.18
   2  -9   1   -0.62    1.80
  -3   9  -1    0.63    1.12
   3  -9   1   -1.81    1.95
  -4   9  -1   -0.19    1.04
   4  -9   1   -1.41    2.26
  -5   9  -1   -0.58    1.12
   5  -9   1   -0.49    3.09
  -6   9  -1   -0.57    1.22
   6  -9   1   -2.34    3.22
  -7  -8   1    9.70    2.25
  -6  -8   1    7.79    2.02
   5   8  -1   41.83    2.81
  -5  -8   1   46.21    3.24
   4   8  -1    6.99    1.57
  -4  -8   1    6.62    1.59
   3   8  -1   14.00    1.78
  -3  -8   1   14.41    1.96
   2   8  -1   27.58    2.13
  -2  -8   1   28.02    2.43
  -2  -8   1   28.47    2.19
   1   8  -1   15.99    1.83
  -1  -8   1   15.64    2.14
  -1  -8   1   18.41    1.68
   0   8  -1    3.43    1.34
   0  -8   1    3.24    0.94
   0  -8   1    3.06    1.58
  -1   8  -1    4.15    1.30
   1  -8   1    3.57    1.95
  -2   8  -1    8.31    1.63
   2  -8   1    9.99    2.51
  -3   8  -1   27.86    2.45
   3  -8   1   28.86    3.80
  -4   8  -1    1.45    1.28
   4  -8   1   -1.30    2.33
  -5   8  -1   15.49    2.35
   5  -8   1   17.93    3.92
  -6   8  -1    1.99    1.47
   6  -8   1   -4.35    2.94
  -7   8  -1    2.87    1.69
   7  -8   1    1.15    4.26
  -8  -7   1   -1.57    1.13
  -7  -7   1    1.37    1.33
  -6  -7   1    1.53    1.25
   5   7  -1   -0.52    1.00
  -5  -7   1    1.99    1.24
   4   7  -1   -0.17    1.03
  -4  -7   1    0.13    1.01
   3   7  -1    0.43    0.93
  -3  -7   1   -1.07    0.83
  -3  -7   1    0.16    0.74
   2   7  -1   -0.52    0.93
  -2  -7   1   -0.38    0.78
  -2  -7   1    0.13    0.88
   1   7  -1   -0.64    0.81
  -1  -7   1   -0.13    0.68
  -1  -7   1   -0.20    1.09
   0   7  -1   -0.48    0.78
   0  -7   1    0.55    1.32
   0  -7   1   -0.27    0.62
  -1   7  -1   -0.01    0.84
   1  -7   1    0.47    1.51
   1  -7   1    0.27    0.54
  -2   7  -1   -1.12    0.84
   2  -7   1    0.89    1.46
  -3   7  -1   -0.55    0.89
   3  -7   1   -0.27    1.71
  -4   7  -1    1.23    1.11
   4  -7   1   -0.35    1.74
  -5   7  -1   -0.38    1.06
   5  -7   1   -1.00    2.16
  -6   7  -1    0.89    1.25
   6  -7   1   -0.72    2.77
  -7   7  -1    0.70    1.26
   7  -7   1   -0.30    3.23
  -8  -6   1    3.04    1.51
  -7  -6   1    9.80    2.07
   6   6  -1    1.36    1.19
  -6  -6   1    2.39    1.26
   5   6  -1   48.70    2.64
  -5  -6   1   47.93    3.04
   4   6  -1   63.87    2.81
  -4  -6   1   61.43    3.19
  -4  -6   1   60.50    3.19
   3   6  -1   77.17    2.89
  -3  -6   1   74.97    3.33
  -3  -6   1   78.09    3.35
   2   6  -1  108.02    3.43
  -2  -6   1  101.60    3.70
  -2  -6   1  104.94    3.86
   1   6  -1   17.64    1.45
  -1  -6   1   17.31    1.87
  -1  -6   1   19.60    1.46
   0   6  -1   70.00    2.73
   0  -6   1   73.47    2.55
   0  -6   1   69.01    3.30
  -1   6  -1    7.71    1.22
   1  -6   1    7.87    1.68
   1  -6   1    8.20    0.83
  -2   6  -1   85.47    3.45
   2  -6   1   88.08    4.27
  -3   6  -1  121.05    4.47
   3  -6   1  114.52    5.34
  -4   6  -1   16.76    2.12
   4  -6   1   13.00    2.48
  -5   6  -1    8.34    1.78
   5  -6   1   12.15    2.87
  -6   6  -1    3.99    1.49
   6  -6   1    3.82    2.97
  -7   6  -1    3.07    1.51
   7  -6   1    3.12    3.37
  -8   6  -1   14.24    2.76
   8  -6   1   19.35    4.87
  -9  -5   1   -0.64    1.21
  -8  -5   1   -0.09    1.19
  -7  -5   1    0.47    1.08
   6   5  -1    0.10    0.93
  -6  -5   1    0.45    1.00
   5   5  -1   -0.47    0.69
  -5  -5   1   -0.10    0.78
  -5  -5   1   -0.29    0.94
   4   5  -1    0.21    0.73
  -4  -5   1   -0.16    0.58
  -4  -5   1    0.46    0.88
   3   5  -1   -0.21    0.59
  -3  -5   1    1.08    0.81
  -3  -5   1   -0.21    0.53
   2   5  -1    0.47    0.61
  -2  -5   1   -0.38    0.57
  -2  -5   1   -0.28    0.60
   1   5  -1    0.89    0.63
  -1  -5   1    0.05    0.52
  -1  -5   1    0.15    0.78
   0   5  -1    0.48    0.62
   0  -5   1   -0.02    0.41
   0  -5   1   -0.27    0.80
  -1   5  -1    0.10    0.65
   1  -5   1    0.10    0.36
   1  -5   1    0.93    0.97
  -2   5  -1   -0.07    0.71
   2  -5   1   -0.18    0.20
   2  -5   1   -0.52    0.89
  -3   5  -1   -0.47    0.74
   3  -5   1   -0.28    1.08
  -4   5  -1   -0.84    0.81
   4  -5   1   -0.55    1.41
  -5   5  -1    0.27    1.09
   5  -5   1    0.30    1.64
  -6   5  -1    1.17    1.14
   6  -5   1    0.52    2.13
  -7   5  -1    0.43    1.17
   7  -5   1   -0.02    2.90
  -8   5  -1    0.51    1.37
   8  -5   1    1.31    3.76
  -9  -4   1    1.79    1.52
  -8  -4   1   21.05    2.68
  -7  -4   1    6.89    1.62
   6   4  -1   98.46    3.76
  -6  -4   1  104.28    5.14
  -6  -4   1   94.61    4.20
   5   4  -1    2.29    0.94
  -5  -4   1    2.35    1.13
  -5  -4   1    2.46    1.00
   4   4  -1   42.74    2.04
  -4  -4   1   41.99    2.55
  -4  -4   1   43.06    2.45
   3   4  -1  126.72    3.53
  -3  -4   1  126.54    4.08
  -3  -4   1  121.85    4.15
   2   4  -1  106.32    2.98
  -2  -4   1  102.18    3.41
  -2  -4   1  104.07    3.40
   1   4  -1  499.24   10.11
  -1  -4   1  497.04   10.38
  -1  -4   1  497.65   10.69
   0   4  -1  119.87    3.27
   0  -4   1  120.56    3.85
   0  -4   1  120.81    3.12
  -1   4  -1   39.17    1.78
   1  -4   1   38.16    2.32
   1  -4   1   36.46    1.22
  -2   4  -1   37.78    1.96
   2  -4   1   38.13    2.48
  -3   4  -1  173.68    5.15
   3  -4   1  168.56    5.95
  -4   4  -1    6.77    1.36
   4  -4   1    5.24    1.58
  -5   4  -1    8.79    1.69
   5  -4   1    7.52    2.06
  -6   4  -1    0.67    1.03
   6  -4   1    1.10    2.02
  -7   4  -1    5.47    1.77
   7  -4   1    7.32    3.13
  -8   4  -1    2.68    1.68
   8  -4   1    5.60    3.53
  -9   4  -1    1.97    1.57
  -8  -3   1   -1.00    0.98
   7   3  -1    1.81    0.89
  -7  -3   1   -0.53    0.89
   6   3  -1    0.34    0.77
  -6  -3   1    0.99    1.09
  -6  -3   1    1.03    0.97
   5   3  -1    0.32    0.72
  -5  -3   1   -0.04    0.80
  -5  -3   1   -0.91    0.70
   4   3  -1   -0.48    0.57
  -4  -3   1   -0.15    0.70
  -4  -3   1   -0.28    0.66
   3   3  -1   -0.17    0.45
  -3  -3   1   -0.48    0.41
  -3  -3   1   -0.21    0.43
   2   3  -1   -0.34    0.35
  -2  -3   1   -0.47    0.40
  -2  -3   1   -0.16    0.54
   1   3  -1   -0.22    0.41
  -1  -3   1   -0.35    0.45
  -1  -3   1   -0.46    0.59
   0   3  -1   -0.80    0.44
   0  -3   1    0.12    0.67
   0  -3   1   -0.11    0.39
  -1   3  -1   -0.15    0.51
   1  -3   1    0.63    0.71
   1  -3   1    0.00    0.23
  -2   3  -1   -0.20    0.54
   2  -3   1    0.24    0.72
  -3   3  -1   -0.65    0.54
   3  -3   1   -0.73    0.68
  -4   3  -1    0.11    0.72
  -4   3  -1    0.44    1.06
   4  -3   1   -0.05    0.91
  -5   3  -1    0.21    0.85
  -5   3  -1   -0.41    1.17
   5  -3   1   -0.70    1.10
  -6   3  -1   -0.48    1.43
  -6   3  -1    0.43    1.04
   6  -3   1    0.51    1.58
  -7   3  -1    1.45    1.20
  -7   3  -1   -1.23    1.47
   7  -3   1    0.63    2.18
  -8   3  -1    0.14    1.21
   8  -3   1    3.75    2.85
   9  -3   1    9.89    3.61
   7   2  -1    4.74    0.92
  -7  -2   1   -0.25    1.16
  -7  -2   1    1.16    0.97
  -7  -2   1    2.04    1.13
  -6  -2   1   72.44    3.32
  -6  -2   1   78.90    4.53
  -6  -2   1   72.51    3.31
  -5  -2   1   42.84    2.37
  -5  -2   1   43.46    2.32
  -5  -2   1   45.10    3.21
   4   2  -1  810.77   16.43
  -4  -2   1  820.04   16.95
  -4  -2   1  837.91   18.05
   3   2  -1   92.04    2.71
  -3  -2   1   96.48    3.51
  -3  -2   1   88.22    3.01
   2   2  -1  569.98   11.09
  -2  -2   1  566.18   11.86
  -2  -2   1  569.03   11.56
   1   2  -1 1734.74   33.93
  -1  -2   1 1736.41   36.73
  -1  -2   1 1725.37   32.13
   0   2  -1   44.68    1.37
   0  -2   1   44.26    1.74
   0  -2   1   43.67    1.29
  -1   2  -1   11.53    0.93
   1  -2   1   12.34    0.39
   1  -2   1   11.39    1.17
  -2   2  -1  175.27    4.47
   2  -2   1  174.76    5.02
  -3   2  -1   39.15    2.51
  -3   2  -1   36.15    1.95
  -3   2  -1   35.76    1.08
   3  -2   1   37.86    2.37
  -4   2  -1    5.02    1.05
  -4   2  -1    3.60    1.28
  -4   2  -1    4.68    0.58
   4  -2   1    3.83    1.18
  -5   2  -1    9.98    1.97
  -5   2  -1   12.69    1.69
   5  -2   1    8.75    1.81
  -6   2  -1   -0.12    1.32
  -6   2  -1   -0.69    0.79
   6  -2   1    1.36    1.73
  -7   2  -1    0.56    1.56
  -7   2  -1    0.93    1.05
   7  -2   1    3.52    2.31
  -8   2  -1   -1.13    1.69
  -8   2  -1    0.78    1.11
   8  -2   1    3.56    2.49
   9  -2   1   18.10    3.89
  -8  -1   1    0.03    1.40
  -7  -1   1   -0.58    0.71
  -7  -1   1    0.02    0.76
  -7  -1   1   -0.03    1.12
  -6  -1   1   -0.15    1.12
  -6  -1   1    0.06    0.75
  -6  -1   1   -0.29    0.68
  -5  -1   1   -0.09    0.66
  -5  -1   1   -0.02    0.71
  -5  -1   1    0.12    0.96
  -4  -1   1   -0.17    0.61
  -4  -1   1    0.32    0.56
  -4  -1   1   -0.67    0.55
  -3  -1   1    0.54    0.48
  -3  -1   1   -0.07    0.48
  -3  -1   1   -0.31    0.57
  -2  -1   1   -0.27    0.48
  -2  -1   1   -0.47    0.47
  -2  -1   1   -0.95    0.37
   1   1  -1   -0.36    0.22
  -1  -1   1   -0.57    0.30
  -1  -1   1   -0.50    0.24
   0   1  -1   -0.36    0.23
   0  -1   1   -0.33    0.15
   0  -1   1   -0.07    0.36
  -1   1  -1   -0.34    0.31
   1  -1   1   -0.20    0.40
  -2   1  -1    0.04    0.60
  -2   1  -1   -0.32    0.41
  -2   1  -1    0.00    0.23
   2  -1   1   -0.50    0.59
  -3   1  -1    0.28    0.68
  -3   1  -1    0.13    0.31
  -3   1  -1    0.27    0.52
   3  -1   1   -0.27    0.57
  -4   1  -1   -0.92    0.75
  -4   1  -1   -0.66    0.56
  -4   1  -1    0.12    0.38
   4  -1   1    0.01    0.65
  -5   1  -1   -0.45    0.75
  -5   1  -1    0.09    0.51
  -5   1  -1   -0.76    1.00
   5  -1   1   -1.10    0.87
  -6   1  -1   -0.48    1.15
  -6   1  -1    0.05    0.80
   6  -1   1    0.51    1.29
  -7   1  -1    0.76    1.52
  -7   1  -1    0.26    0.90
   7  -1   1    1.54    1.53
  -8   1  -1   -1.12    1.42
  -8   1  -1    0.94    1.11
   8  -1   1    6.84    2.51
  -9   1  -1    0.79    1.43
   8   0  -1   36.41    3.19
  -7   0   1   -0.80    1.32
  -7   0   1    1.14    0.96
  -6   0   1   57.92    2.98
  -6   0   1   54.77    2.60
  -6   0   1   58.98    4.12
  -5   0   1   12.82    1.49
  -5   0   1   14.37    1.27
  -4   0   1   88.03    4.26
  -4   0   1  114.44    3.31
  -4   0   1  114.48    3.51
  -3   0   1   18.84    1.09
  -3   0   1   15.45    1.61
  -3   0   1   19.95    1.19
  -2   0   1 9391.59  171.18
  -2   0   1 8199.14  171.14
  -2   0   1 9999.00  178.83
  -1   0   1    1.84    0.36
  -1   0   1    1.62    0.39
  -1   0   1    1.71    0.58
   0   0   1   -0.28    0.06
  -1   0  -1    5.33    0.36
  -1   0  -1    5.84    0.50
  -1   0  -1    6.05    0.53
   1   0   1    4.10    0.54
  -2   0  -1  157.99    3.97
  -2   0  -1  164.79    4.40
  -2   0  -1  160.90    3.59
  -3   0  -1   35.67    1.40
  -3   0  -1   34.29    1.69
  -3   0  -1   26.22    1.91
  -4   0  -1   97.16    3.35
  -4   0  -1   92.61    2.86
  -5   0  -1    0.11    0.99
  -5   0  -1    0.60    0.57
  -5   0  -1    1.63    0.91
   5   0   1    0.11    0.88
  -6   0  -1    0.30    0.65
  -6   0  -1    0.28    0.85
  -6   0  -1    1.16    1.26
   6   0   1    0.69    1.11
  -7   0  -1    3.04    1.61
  -7   0  -1    5.66    1.53
   7   0   1    8.49    1.92
  -8   0  -1   -0.30    0.95
  -8   0  -1   -1.07    1.54
   8   0   1    8.51    1.97
   9   0   1   17.76    3.66
  -9   1   1   -1.88    1.96
  -8   1   1   -0.11    0.96
  -8   1   1    0.57    1.78
   7  -1  -1    4.39    1.39
  -7   1   1   -0.12    1.42
  -7   1   1    0.81    0.97
  -6   1   1   -0.58    0.78
  -6   1   1    0.24    1.37
  -5   1   1   -0.20    0.57
  -5   1   1   -0.41    0.65
  -5   1   1    0.01    0.91
  -4   1   1   -0.16    0.47
  -4   1   1   -0.06    0.51
  -4   1   1   -0.62    0.75
  -3   1   1    0.22    0.48
  -3   1   1    0.15    0.36
  -3   1   1   -0.45    0.60
  -2   1   1    0.28    0.34
  -2   1   1   -0.36    0.41
  -2   1   1    0.03    0.56
  -1   1   1   -1.05    0.35
  -1   1   1   -1.00    0.27
   0  -1  -1   -0.42    0.09
   0   1   1   -0.46    0.07
   0   1   1   -0.32    0.09
  -1  -1  -1    0.28    0.25
  -1  -1  -1   -0.30    0.29
  -1  -1  -1   -0.09    0.19
  -2  -1  -1    0.28    0.42
  -2  -1  -1    0.32    0.44
  -2  -1  -1    0.37    0.44
  -3  -1  -1   -0.43    0.45
  -3  -1  -1   -0.07    0.53
  -3  -1  -1    0.27    0.45
  -4  -1  -1    0.06    0.62
  -4  -1  -1    0.32    0.64
  -4  -1  -1   -0.16    0.54
  -5  -1  -1   -0.11    0.59
  -5  -1  -1    0.22    0.73
  -5  -1  -1   -0.40    0.93
  -6  -1  -1   -0.39    0.73
  -6  -1  -1    0.30    0.91
  -6  -1  -1   -0.56    0.93
  -7  -1  -1   -0.14    1.32
  -7  -1  -1    0.46    0.91
  -8  -1  -1   -0.40    1.06
  -8   2   1    1.89    1.20
  -8   2   1   -0.57    1.78
   7  -2  -1    3.96    1.61
  -7   2   1   -0.32    1.60
  -7   2   1   -0.24    0.92
   6  -2  -1   80.68    4.70
  -6   2   1   79.25    5.09
  -6   2   1   76.47    3.74
  -5   2   1    2.95    1.47
  -5   2   1    1.86    0.67
  -5   2   1    1.68    0.86
  -4   2   1  172.20    4.13
  -4   2   1  184.26    6.53
  -4   2   1  168.94    4.96
  -3   2   1    1.79    0.64
  -3   2   1    2.52    0.44
  -3   2   1    1.08    0.88
  -2   2   1  281.50    7.20
  -2   2   1  270.53    6.14
   1  -2  -1  406.31    7.59
   1  -2  -1  388.77    8.55
  -1   2   1  405.96    8.76
  -1   2   1  407.04    8.04
   0  -2  -1 2780.95   51.73
   0  -2  -1 2806.72   53.51
   0   2   1 2621.55   51.95
  -1  -2  -1  423.94    8.46
  -1  -2  -1  416.34    8.03
   1   2   1  428.20    8.31
  -2  -2  -1  715.17   14.02
   2   2   1  703.01   13.81
  -3  -2  -1   21.93    1.34
  -3  -2  -1   19.97    1.33
  -3  -2  -1   23.17    1.59
  -4  -2  -1   11.42    1.16
  -4  -2  -1   11.37    1.22
  -4  -2  -1    8.94    1.32
  -5  -2  -1   25.37    1.87
  -5  -2  -1   26.44    2.35
  -5  -2  -1   24.43    1.76
  -6  -2  -1   26.08    2.10
  -6  -2  -1   26.72    2.82
  -6  -2  -1   28.49    2.05
  -7  -2  -1    1.98    1.21
  -7  -2  -1    2.02    1.52
  -7  -2  -1    2.33    1.04
  -8  -2  -1    2.50    1.27
   8  -3  -1    6.15    2.39
  -8   3   1   -0.17    0.94
  -8   3   1   -1.15    1.88
   7  -3  -1    5.85    2.21
  -7   3   1   -1.62    0.74
  -7   3   1   -0.87    1.34
   6  -3  -1    0.92    1.40
  -6   3   1    0.49    1.55
  -6   3   1   -0.26    0.76
   5  -3  -1   -0.33    1.04
  -5   3   1   -0.78    0.66
  -5   3   1   -0.76    1.08
   4  -3  -1    0.02    0.81
  -4   3   1    0.42    1.11
  -4   3   1    0.18    0.68
   3  -3  -1   -0.32    0.66
  -3   3   1   -0.25    0.53
  -3   3   1    0.84    0.89
   2  -3  -1   -0.61    0.56
   2  -3  -1    0.25    0.38
  -2   3   1   -0.19    0.69
  -2   3   1   -0.65    0.46
   1  -3  -1   -0.67    0.37
   1  -3  -1   -1.31    0.53
  -1   3   1   -0.26    0.46
  -1   3   1   -0.01    0.59
   0  -3  -1   -0.89    0.42
   0  -3  -1    0.54    0.50
   0   3   1    0.00    0.45
  -1  -3  -1   -0.18    0.40
  -1  -3  -1   -0.09    0.42
   1   3   1    0.37    0.46
  -2  -3  -1   -0.21    0.43
  -2  -3  -1    0.22    0.33
   2   3   1    0.31    0.45
  -3  -3  -1   -0.19    0.38
  -3  -3  -1   -0.38    0.57
   3   3   1    0.07    0.54
  -4  -3  -1    0.19    0.65
  -4  -3  -1    0.12    0.62
   4   3   1   -0.10    0.64
  -5  -3  -1   -0.88    0.70
  -5  -3  -1   -0.10    0.71
   5   3   1    0.21    0.68
  -6  -3  -1   -0.01    0.94
  -6  -3  -1    0.28    0.82
   6   3   1    0.75    0.81
  -7  -3  -1    0.15    0.86
  -8  -3  -1    0.32    0.97
   8  -4  -1    6.78    2.61
  -8   4   1   -1.36    2.06
  -8   4   1    0.87    1.39
   7  -4  -1    9.27    3.16
  -7   4   1    3.07    2.13
  -7   4   1    3.18    1.35
   6  -4  -1    6.00    2.25
  -6   4   1    3.12    1.81
  -6   4   1    5.39    1.47
   5  -4  -1   11.26    2.21
  -5   4   1   10.80    2.24
  -5   4   1   11.78    1.76
   4  -4  -1   70.15    4.01
  -4   4   1   75.24    4.32
  -4   4   1   75.93    3.29
   3  -4  -1  291.66    8.45
   3  -4  -1  301.14    5.89
  -3   4   1  309.23    7.48
  -3   4   1  293.02    8.67
   2  -4  -1   55.56    1.52
   2  -4  -1   55.59    2.82
  -2   4   1   59.29    2.37
  -2   4   1   56.15    2.97
   1  -4  -1  229.11    6.01
   1  -4  -1  226.51    4.79
  -1   4   1  230.14    5.40
   0  -4  -1  225.04    5.03
   0  -4  -1  223.33    5.41
   0   4   1  226.31    5.17
  -1  -4  -1    5.53    0.78
  -1  -4  -1    4.80    0.79
   1   4   1    6.56    0.83
  -2  -4  -1  180.91    4.78
  -2  -4  -1  172.25    4.25
   2   4   1  177.19    4.40
  -3  -4  -1    3.06    0.91
  -3  -4  -1    2.92    0.65
   3   4   1    3.12    0.79
  -4  -4  -1  143.87    4.66
  -4  -4  -1  146.96    4.69
   4   4   1  144.91    4.32
  -5  -4  -1   42.40    2.79
  -5  -4  -1   37.86    2.43
   5   4   1   40.64    2.30
  -6  -4  -1    0.40    0.88
   6   4   1    0.50    0.97
  -7  -4  -1    2.39    1.17
   7   4   1    8.19    1.60
  -8  -4  -1    0.73    1.15
   8   4   1    4.55    1.35
   8  -5  -1    3.07    2.86
  -8   5   1    1.73    1.32
   7  -5  -1    0.57    2.42
  -7   5   1   -1.67    1.52
  -7   5   1    0.95    1.16
   6  -5  -1    1.26    1.87
  -6   5   1    0.47    0.97
  -6   5   1    0.54    1.68
   5  -5  -1    0.10    1.41
  -5   5   1   -1.07    0.81
  -5   5   1   -0.27    1.42
   4  -5  -1    0.72    1.17
  -4   5   1    0.54    1.34
  -4   5   1    0.10    0.83
   3  -5  -1   -0.19    0.36
   3  -5  -1   -0.76    0.90
  -3   5   1    0.21    1.07
  -3   5   1   -0.21    0.71
   2  -5  -1   -0.67    0.74
   2  -5  -1    0.07    0.34
  -2   5   1   -0.62    0.60
   1  -5  -1   -0.32    0.63
   1  -5  -1   -0.17    0.38
  -1   5   1    0.11    0.58
   0  -5  -1   -0.30    0.47
   0  -5  -1   -0.03    0.71
   0   5   1   -0.30    0.59
  -1  -5  -1   -0.39    0.58
  -1  -5  -1   -0.10    0.57
   1   5   1    0.70    0.65
  -2  -5  -1   -0.43    0.60
  -2  -5  -1   -0.35    0.39
   2   5   1    0.16    0.63
  -3  -5  -1   -0.05    0.73
  -3  -5  -1   -0.08    0.40
   3   5   1   -0.25    0.58
  -4  -5  -1    0.26    0.61
  -4  -5  -1   -0.52    0.78
   4   5   1    0.04    0.64
  -5  -5  -1    0.68    0.97
   5   5   1   -0.97    0.83
  -6  -5  -1   -0.35    0.84
   6   5   1   -0.06    0.97
  -7  -5  -1    0.10    1.16
   7   5   1    1.59    1.25
  -8  -5  -1    0.25    1.11
  -9  -5  -1   -1.32    1.07
   8  -6  -1    8.55    3.56
  -8   6   1    3.72    1.72
   7  -6  -1    4.36    2.98
  -7   6   1    4.44    1.56
   6  -6  -1    3.45    2.48
  -6   6   1    2.51    1.31
   5  -6  -1   22.61    3.39
  -5   6   1   21.13    2.18
   4  -6  -1    2.56    1.66
  -4   6   1    1.68    1.10
   3  -6  -1   27.80    2.81
  -3   6   1   26.53    2.07
   2  -6  -1   85.48    4.01
   2  -6  -1   85.56    2.31
  -2   6   1   86.36    3.34
   1  -6  -1  198.17    5.99
   1  -6  -1  201.25    4.68
  -1   6   1  190.12    5.27
   0  -6  -1  136.20    4.42
   0  -6  -1  137.07    3.81
   0   6   1  135.51    4.01
  -1  -6  -1   36.43    2.07
  -1  -6  -1   38.72    1.99
   1   6   1   35.25    1.90
  -2  -6  -1   48.09    2.42
  -2  -6  -1   51.05    2.24
   2   6   1   48.98    2.24
  -3  -6  -1   33.68    1.88
  -3  -6  -1   31.90    2.17
   3   6   1   31.19    1.98
  -4  -6  -1   42.21    2.61
   4   6   1   39.95    2.25
  -5  -6  -1    2.04    1.16
   5   6   1    0.51    0.95
  -6  -6  -1    7.61    1.69
   6   6   1    4.39    1.47
  -7  -6  -1   11.59    2.03
   7   6   1   12.11    2.18
  -8  -6  -1   -0.28    1.16
  -9  -6  -1    0.79    1.38
  -8   7   1    2.68    1.72
   7  -7  -1    3.46    3.11
  -7   7   1   -0.18    1.00
   6  -7  -1    0.12    2.43
  -6   7   1    0.21    1.11
   5  -7  -1    1.19    2.12
  -5   7   1    0.36    0.99
   4  -7  -1    0.69    1.64
  -4   7   1   -1.63    0.83
   3  -7  -1    0.56    1.34
  -3   7   1    0.08    0.97
   2  -7  -1    0.80    1.23
  -2   7   1    0.08    0.89
   1  -7  -1    0.56    0.58
   1  -7  -1    1.08    1.07
  -1   7   1   -0.33    0.78
   0  -7  -1   -0.69    0.87
   0  -7  -1    0.17    0.64
   0   7   1   -0.11    0.72
  -1  -7  -1   -0.36    0.87
  -1  -7  -1   -0.60    0.72
   1   7   1   -0.38    0.74
  -2  -7  -1    0.24    0.72
  -2  -7  -1   -0.44    0.75
   2   7   1   -0.71    0.90
  -3  -7  -1    0.53    0.94
   3   7   1   -0.23    0.84
  -4  -7  -1    0.21    0.97
   4   7   1    0.03    1.10
  -5  -7  -1   -0.64    0.93
   5   7   1    0.31    1.05
  -6  -7  -1    0.03    1.03
   6   7   1   -1.40    1.17
  -7  -7  -1   -0.26    1.14
   7   7   1    0.34    1.53
  -8  -7  -1    1.77    1.42
   7  -8  -1   -1.11    3.15
  -7   8   1    2.38    1.49
   6  -8  -1    8.78    3.93
  -6   8   1    7.85    1.97
   5  -8  -1   19.72    3.83
  -5   8   1   14.37    2.29
   4  -8  -1    9.13    2.77
  -4   8   1    9.78    1.83
   3  -8  -1    8.13    2.38
  -3   8   1    8.27    1.64
   2  -8  -1   13.59    2.26
  -2   8   1   16.88    2.02
   1  -8  -1   11.62    1.99
   1  -8  -1   12.57    1.21
  -1   8   1   13.07    1.72
   0  -8  -1   19.62    2.50
   0  -8  -1   20.49    1.66
   0   8   1   19.19    2.07
  -1  -8  -1  157.09    4.94
  -1  -8  -1  158.38    5.24
   1   8   1  156.14    4.94
  -2  -8  -1   81.88    3.66
   2   8   1   85.85    3.49
  -3  -8  -1   34.27    2.53
   3   8   1   33.59    2.34
  -4  -8  -1   47.11    3.02
   4   8   1   49.24    2.94
  -5  -8  -1   14.94    2.22
   5   8   1   14.58    2.07
  -6  -8  -1   12.88    2.22
   6   8   1   11.54    2.21
  -7  -8  -1    6.88    1.90
  -8  -8  -1    0.33    1.44
  -7   9   1    2.65    2.83
   6  -9  -1   -1.94    2.83
  -6   9   1   -0.55    1.14
   5  -9  -1   -0.47    2.96
  -5   9   1   -0.94    1.21
   4  -9  -1    0.03    2.21
  -4   9   1    0.50    1.16
   3  -9  -1   -0.88    1.70
  -3   9   1   -0.77    1.00
   2  -9  -1   -1.21    1.72
  -2   9   1   -0.27    1.05
   1  -9  -1   -0.51    1.40
  -1   9   1   -0.55    1.01
   0  -9  -1    1.39    1.55
   0  -9  -1   -0.24    0.73
   0   9   1    0.11    1.06
  -1  -9  -1    0.03    0.85
  -1  -9  -1   -0.49    1.18
   1   9   1    0.02    1.12
  -2  -9  -1   -1.15    1.04
   2   9   1    0.21    1.25
  -3  -9  -1   -0.61    0.92
   3   9   1   -0.42    1.25
  -4  -9  -1    0.42    1.05
   4   9   1   -0.48    1.12
  -5  -9  -1    0.43    1.29
   5   9   1   -1.06    1.25
  -6  -9  -1   -0.55    1.21
   6   9   1   -0.94    1.52
  -7  -9  -1   -0.25    1.28
   6 -10  -1   -1.70    3.36
  -6  10   1    1.66    1.43
   5 -10  -1    5.74    3.83
  -5  10   1    9.37    2.23
   4 -10  -1   -1.55    2.44
  -4  10   1    3.56    1.51
   3 -10  -1   14.12    3.29
  -3  10   1   19.33    2.61
   2 -10  -1   24.66    3.37
  -2  10   1   26.78    2.53
   1 -10  -1    4.22    1.91
  -1  10   1    4.46    1.53
   0 -10  -1    9.22    2.12
   0  10   1    9.19    1.76
  -1 -10  -1    7.18    1.46
   1  10   1    6.01    1.61
  -2 -10  -1   35.44    2.57
   2  10   1   36.72    2.70
  -3 -10  -1   86.14    4.21
   3  10   1   96.26    4.26
  -4 -10  -1    6.02    1.70
   4  10   1    7.56    1.92
  -5 -10  -1   26.71    3.11
   5  10   1   25.70    2.83
  -6 -10  -1    8.39    2.19
   5 -11  -1   -4.79    2.87
  -5  11   1    0.43    1.36
   4 -11  -1   -4.36    2.39
  -4  11   1    0.45    1.31
   3 -11  -1   -2.25    2.58
  -3  11   1   -0.07    1.22
   2 -11  -1   -1.25    2.07
  -2  11   1    0.84    1.36
   1 -11  -1   -1.66    1.83
  -1  11   1   -0.77    1.17
   0  11   1    0.54    1.25
  -1 -11  -1    0.39    0.97
   1  11   1    1.16    1.31
  -2 -11  -1   -0.19    0.98
   2  11   1    1.48    1.55
  -3 -11  -1    0.60    1.19
   3  11   1    0.55    1.39
  -4 -11  -1   -0.82    1.36
   4  11   1   -2.09    1.39
  -5 -11  -1   -0.18    1.21
   5  11   1   -2.29    1.57
  -6 -11  -1   -0.58    1.34
   4 -12  -1    1.82    3.45
  -4  12   1    2.67    1.64
   3 -12  -1    8.59    3.79
  -3  12   1   11.34    2.30
   2 -12  -1    0.18    2.35
  -2  12   1    1.70    1.60
  -1  12   1    2.78    1.52
   0  12   1   10.22    2.04
   1  12   1   23.08    2.75
  -2 -12  -1   25.58    2.88
   2  12   1   23.63    2.75
  -3 -12  -1   15.92    2.47
   3  12   1   15.64    2.39
  -4 -12  -1    7.83    1.99
   4  12   1    5.95    1.97
  -5 -12  -1    4.59    1.91
   5  12   1    2.99    2.19
   4 -13  -1   -4.48    3.98
   3 -13  -1   -7.40    3.13
  -3  13   1    1.21    2.48
  -2  13   1    1.46    1.59
  -1  13   1    1.49    1.61
   0  13   1    1.83    1.57
   1  13   1   -1.15    1.30
   2  13   1    0.08    1.47
  -3 -13  -1    0.76    1.24
   3  13   1    0.42    1.55
  -4 -13  -1    1.06    1.51
   4  13   1   -0.97    1.69
   0  14   1    1.82    1.68
   1  14   1    0.31    1.80
   2  14   1    1.61    1.65
   3  14   1    2.37    1.99
   2  13  -2    3.79    1.81
   1  13  -2    2.85    1.57
   0  13  -2    2.25    1.55
  -1  13  -2    1.72    1.49
  -2  13  -2    1.39    1.47
   2 -13   2   -4.68    4.56
   3 -13   2   -3.05    3.05
  -4 -12   2   -0.59    1.29
  -3 -12   2    5.81    1.81
   2  12  -2    8.61    1.96
   1  12  -2    6.56    1.89
   0  12  -2    4.48    1.79
  -1  12  -2    6.71    1.84
   1 -12   2    1.16    2.74
  -2  12  -2    2.86    1.65
   2 -12   2   -1.28    2.93
  -3  12  -2    5.14    1.81
   3 -12   2    2.49    3.27
   4 -12   2   -3.29    3.82
  -5 -11   2    0.52    1.48
  -4 -11   2    0.00    1.25
   3  11  -2   -0.32    1.17
  -3 -11   2    0.44    1.17
   2  11  -2    0.46    1.23
  -2 -11   2    0.65    1.13
   1  11  -2    0.05    1.36
   0  11  -2   -0.17    1.13
   0 -11   2    1.13    1.91
  -1  11  -2   -0.58    1.10
   1 -11   2   -1.17    2.00
  -2  11  -2    1.05    1.32
   2 -11   2   -3.26    2.57
  -3  11  -2    1.20    1.37
   3 -11   2   -4.22    2.49
  -4  11  -2    0.76    1.37
   4 -11   2   -4.20    3.05
   5 -11   2   -9.64    4.80
  -6 -10   2   -1.53    1.29
  -5 -10   2   -0.41    1.29
  -4 -10   2    5.68    1.70
   3  10  -2    2.53    1.36
  -3 -10   2    2.46    1.36
   2  10  -2    3.20    1.38
  -2 -10   2    2.47    1.35
   1  10  -2    7.10    1.57
  -1 -10   2    8.43    2.02
  -1 -10   2    7.28    1.52
   0  10  -2   11.35    1.89
   0 -10   2    6.42    2.26
  -1  10  -2   27.69    2.54
   1 -10   2   24.26    3.51
  -2  10  -2    0.85    1.16
   2 -10   2   -1.36    2.33
  -3  10  -2    4.59    1.57
   3 -10   2    4.89    2.98
  -4  10  -2   14.07    2.40
   4 -10   2   13.17    3.88
  -5  10  -2    2.11    1.56
   5 -10   2   -3.19    3.39
  -6  -9   2    2.22    1.62
  -5  -9   2   -0.30    1.21
   4   9  -2   -0.09    1.23
  -4  -9   2    0.33    1.13
   3   9  -2   -0.92    0.97
  -3  -9   2   -1.64    0.92
   2   9  -2   -0.53    1.08
  -2  -9   2    0.60    1.15
  -2  -9   2   -0.61    0.99
   1   9  -2    0.17    1.04
  -1  -9   2   -0.66    0.76
  -1  -9   2   -0.35    1.32
   0   9  -2   -0.90    0.96
   0  -9   2   -0.47    1.30
   0  -9   2   -0.59    1.46
  -1   9  -2    0.21    1.22
   1  -9   2   -0.02    1.71
  -2   9  -2   -0.38    1.04
   2  -9   2   -0.95    1.86
  -3   9  -2   -0.34    1.08
   3  -9   2   -0.65    2.20
  -4   9  -2    0.89    1.35
   4  -9   2   -1.03    2.54
  -5   9  -2    0.59    1.23
   5  -9   2   -1.25    2.82
  -6   9  -2    1.64    1.58
   6  -9   2   -1.78    3.02
  -7  -8   2    5.87    1.94
  -6  -8   2    7.88    1.98
  -5  -8   2    0.24    1.25
   4   8  -2   19.81    2.10
  -4  -8   2   13.77    2.12
   3   8  -2    6.46    1.36
  -3  -8   2    6.54    1.56
   2   8  -2   40.66    2.44
  -2  -8   2   37.12    2.50
  -2  -8   2   39.37    2.93
   1   8  -2   20.49    1.95
  -1  -8   2   22.91    2.72
  -1  -8   2   20.99    1.81
   0   8  -2    8.97    1.55
   0  -8   2    8.90    1.30
   0  -8   2    8.42    2.14
  -1   8  -2    7.73    1.55
   1  -8   2    6.89    2.12
  -2   8  -2   17.92    2.15
   2  -8   2   16.41    2.84
  -3   8  -2   17.50    2.26
   3  -8   2   17.36    3.28
  -4   8  -2    0.23    1.08
   4  -8   2    0.17    2.13
  -5   8  -2    4.16    1.58
   5  -8   2    4.42    3.19
  -6   8  -2    3.02    1.63
   6  -8   2    5.25    3.80
  -7   8  -2    9.62    2.30
   7  -8   2   10.27    5.78
  -8  -7   2   -0.56    1.38
  -7  -7   2   -0.09    1.28
  -6  -7   2   -2.00    1.05
  -5  -7   2    0.15    1.03
   4   7  -2   -0.73    0.84
  -4  -7   2    0.85    1.11
   3   7  -2   -1.50    0.92
  -3  -7   2    0.17    0.89
  -3  -7   2    0.23    0.97
   2   7  -2   -1.15    0.81
  -2  -7   2   -0.41    0.91
  -2  -7   2    0.15    0.95
   1   7  -2   -0.38    0.92
  -1  -7   2    0.49    1.07
  -1  -7   2   -0.12    0.82
   0   7  -2   -0.79    0.83
   0  -7   2   -0.48    0.61
   0  -7   2    1.05    1.50
  -1   7  -2   -0.52    0.85
   1  -7   2   -0.91    0.48
   1  -7   2   -0.76    1.57
  -2   7  -2   -0.04    0.93
   2  -7   2    0.92    1.59
  -3   7  -2   -0.83    0.94
   3  -7   2    0.65    1.71
  -4   7  -2   -1.34    0.87
   4  -7   2   -0.38    1.88
  -5   7  -2    0.00    1.13
   5  -7   2   -2.18    2.24
  -6   7  -2    2.87    1.55
   6  -7   2   -1.85    2.97
  -7   7  -2    1.30    1.45
   7  -7   2   -3.82    3.66
  -8  -6   2   11.95    2.40
  -7  -6   2   14.50    2.35
  -6  -6   2   22.58    2.66
   5   6  -2   48.28    2.58
  -5  -6   2   53.27    3.22
   4   6  -2    4.71    1.14
  -4  -6   2    5.17    1.31
  -4  -6   2    5.52    1.43
   3   6  -2   25.52    1.71
  -3  -6   2   27.65    2.12
  -3  -6   2   25.52    2.19
   2   6  -2  125.11    3.82
  -2  -6   2  130.38    4.32
  -2  -6   2  128.96    4.62
   1   6  -2   19.96    1.52
  -1  -6   2   21.05    2.15
  -1  -6   2   20.02    1.51
   0  -6   2  189.79    6.02
   0  -6   2  187.30    4.87
  -1   6  -2  180.48    5.26
   1  -6   2  190.58    6.30
   1  -6   2  186.02    4.42
  -2   6  -2    1.30    0.94
   2  -6   2    2.18    1.41
  -3   6  -2    1.01    0.97
   3  -6   2   -0.79    1.36
  -4   6  -2    6.12    1.52
   4  -6   2   10.29    2.38
  -5   6  -2    2.53    1.26
   5  -6   2    1.66    2.36
  -6   6  -2   15.78    2.42
   6  -6   2   16.15    4.03
  -7   6  -2   10.86    2.28
   7  -6   2   16.97    4.63
  -8   6  -2   11.58    2.47
   8  -6   2   12.50    5.05
  -9  -5   2   -0.25    1.92
  -8  -5   2    0.43    1.28
  -7  -5   2   -0.02    1.02
  -6  -5   2    0.22    1.06
   5   5  -2   -0.93    0.76
  -5  -5   2    0.23    0.76
  -5  -5   2    0.39    0.78
   4   5  -2    0.72    0.69
  -4  -5   2    0.34    0.91
  -4  -5   2   -0.25    0.65
   3   5  -2   -0.30    0.65
  -3  -5   2    0.45    0.77
  -3  -5   2    0.27    0.72
   2   5  -2   -0.12    0.58
  -2  -5   2   -0.07    0.71
  -2  -5   2   -0.06    0.65
   1   5  -2    0.29    0.59
  -1  -5   2    0.01    0.56
  -1  -5   2    0.12    0.87
   0   5  -2   -0.03    0.61
   0  -5   2    0.14    0.51
   0  -5   2    0.25    0.94
  -1   5  -2   -0.45    0.62
   1  -5   2   -0.29    0.99
   1  -5   2   -0.40    0.32
  -2   5  -2   -0.21    0.69
   2  -5   2    0.19    1.09
  -3   5  -2   -0.01    0.81
   3  -5   2    1.19    1.31
  -4   5  -2    0.73    1.01
   4  -5   2    0.05    1.39
  -5   5  -2   -0.82    0.89
   5  -5   2   -0.13    1.69
  -6   5  -2   -0.17    0.98
   6  -5   2   -1.55    2.24
  -7   5  -2    1.49    1.27
   7  -5   2   -4.00    2.67
  -8   5  -2   -0.58    1.22
   8  -5   2   -1.49    3.32
  -9  -4   2   -1.51    1.39
  -8  -4   2    9.04    2.06
  -7  -4   2   -1.12    0.94
   6   4  -2   42.97    2.75
  -6  -4   2   36.93    3.14
  -6  -4   2   39.60    2.75
   5   4  -2    9.64    1.28
  -5  -4   2    8.32    1.66
  -5  -4   2    7.91    1.51
   4   4  -2    7.37    1.03
  -4  -4   2    5.52    1.22
  -4  -4   2    7.19    1.34
   3   4  -2  159.96    4.10
  -3  -4   2  156.76    4.80
  -3  -4   2  156.33    5.08
   2   4  -2  156.29    3.91
  -2  -4   2  156.02    4.69
  -2  -4   2  154.18    4.46
   1   4  -2    3.34    0.65
  -1  -4   2    2.75    0.84
  -1  -4   2    3.58    0.76
   0  -4   2  128.98    4.26
   0  -4   2  132.16    3.39
  -1   4  -2   85.25    2.83
   1  -4   2   86.09    3.48
   1  -4   2   79.42    2.11
  -2   4  -2  178.80    5.02
   2  -4   2  182.49    5.81
  -3   4  -2   92.18    3.57
   3  -4   2   93.91    4.28
  -4   4  -2    5.32    1.32
   4  -4   2    4.64    1.58
  -5   4  -2    7.84    1.60
   5  -4   2    8.60    2.19
  -6   4  -2    2.09    1.23
   6  -4   2    2.81    2.59
  -7   4  -2    3.63    1.54
   7  -4   2    3.52    3.07
  -8   4  -2    9.12    2.23
   8  -4   2   13.82    4.31
  -8  -3   2    0.17    1.15
  -7  -3   2    0.20    1.08
  -7  -3   2    0.42    1.02
   6   3  -2    0.04    0.77
  -6  -3   2   -0.27    0.89
  -6  -3   2    0.27    0.91
   5   3  -2    0.63    0.71
  -5  -3   2    1.25    0.89
  -5  -3   2    0.30    0.78
   4   3  -2   -0.39    0.50
  -4  -3   2   -0.10    0.68
  -4  -3   2   -0.39    0.55
   3   3  -2    0.16    0.44
  -3  -3   2    0.08    0.50
  -3  -3   2   -0.38    0.58
   2   3  -2   -0.26    0.38
  -2  -3   2   -0.20    0.55
  -2  -3   2    0.23    0.57
   1   3  -2   -0.13    0.38
  -1  -3   2   -0.09    0.59
  -1  -3   2   -0.03    0.47
   0   3  -2   -0.44    0.42
   0  -3   2    0.27    0.39
   0  -3   2   -0.10    0.71
  -1   3  -2    0.42    0.51
   1  -3   2    0.18    0.26
   1  -3   2    0.42    0.74
  -2   3  -2    0.12    0.57
   2  -3   2   -0.88    0.68
  -3   3  -2   -0.04    0.62
   3  -3   2    0.70    0.87
  -4   3  -2   -0.39    0.65
   4  -3   2   -0.18    0.96
  -5   3  -2    0.12    0.92
   5  -3   2   -1.30    1.33
  -6   3  -2   -0.39    0.89
   6  -3   2   -2.18    1.52
  -7   3  -2    1.07    1.23
   7  -3   2   -2.36    2.06
  -8   3  -2   -0.55    1.21
   8  -3   2    2.95    3.29
  -9   3  -2    0.33    1.43
   9  -3   2    4.88    3.40
  -8  -2   2    2.54    1.28
  -7  -2   2   14.32    2.02
  -7  -2   2   10.21    2.19
   6   2  -2   68.55    2.88
  -6  -2   2   60.40    4.09
  -6  -2   2   61.64    3.14
   5   2  -2    7.60    1.10
  -5  -2   2    4.75    1.12
  -5  -2   2    3.63    1.28
   4   2  -2  393.42    8.23
  -4  -2   2  381.22    8.84
  -4  -2   2  344.42    9.81
   3   2  -2  113.21    3.06
  -3  -2   2  112.01    4.10
  -3  -2   2  116.93    3.58
   2   2  -2  213.09    4.56
  -2  -2   2  205.44    5.54
  -2  -2   2  223.38    5.27
   1   2  -2   71.40    1.83
  -1  -2   2   68.74    2.49
  -1  -2   2   73.04    2.20
   0   2  -2  214.99    4.53
   0  -2   2  209.68    4.50
   0  -2   2  215.77    5.20
  -1   2  -2  287.32    6.24
   1  -2   2  286.34    6.79
  -2   2  -2  155.20    4.05
  -2   2  -2  139.37    2.79
   2  -2   2  151.05    4.54
  -3   2  -2   18.55    0.68
  -3   2  -2   19.40    1.46
   3  -2   2   17.66    1.78
  -4   2  -2   20.72    2.24
  -4   2  -2   21.18    1.81
  -4   2  -2   17.93    0.86
   4  -2   2   18.08    2.08
  -5   2  -2   31.59    3.03
  -5   2  -2   32.17    2.34
   5  -2   2   32.79    3.18
  -6   2  -2   16.30    2.20
  -6   2  -2   13.47    2.43
   6  -2   2   17.18    2.89
  -7   2  -2    1.76    1.17
   7  -2   2    1.38    2.09
  -8   2  -2    0.98    1.18
   8  -2   2    2.78    2.63
  -9   2  -2    0.48    1.41
   9  -2   2   11.45    3.55
  -8  -1   2    0.53    1.53
  -7  -1   2   -0.51    0.93
  -7  -1   2   -0.38    1.11
  -6  -1   2    0.24    0.83
  -6  -1   2   -0.68    1.08
  -6  -1   2   -0.62    0.67
  -5  -1   2    0.48    0.69
  -5  -1   2   -0.31    0.67
  -5  -1   2   -0.12    0.97
  -4  -1   2   -0.10    0.53
  -4  -1   2    0.05    0.62
  -4  -1   2    0.59    0.72
  -3  -1   2   -0.29    0.54
  -3  -1   2   -0.01    0.51
  -3  -1   2   -0.11    0.39
   2   1  -2   -0.75    0.29
  -2  -1   2   -0.19    0.50
  -2  -1   2   -0.06    0.46
   1   1  -2    0.01    0.21
  -1  -1   2    0.12    0.40
  -1  -1   2   -0.49    0.39
   0   1  -2   -0.67    0.22
   0  -1   2    0.05    0.25
   0  -1   2    0.49    0.54
  -1   1  -2   -0.19    0.36
   1  -1   2    0.28    0.53
  -2   1  -2   -0.12    0.44
  -2   1  -2   -0.31    0.24
   2  -1   2   -0.03    0.58
  -3   1  -2    0.23    0.51
  -3   1  -2    0.17    0.66
  -3   1  -2    0.08    0.29
   3  -1   2    0.00    0.59
  -4   1  -2    0.11    0.38
  -4   1  -2    0.94    0.71
  -4   1  -2    0.04    0.95
   4  -1   2   -0.16    0.72
  -5   1  -2    0.36    1.11
  -5   1  -2   -0.46    0.81
  -5   1  -2   -0.20    0.48
   5  -1   2   -0.85    0.86
  -6   1  -2   -0.34    1.30
  -6   1  -2    0.28    0.88
   6  -1   2    0.29    1.23
  -7   1  -2   -1.12    1.36
  -7   1  -2   -0.21    1.04
   7  -1   2    0.91    1.66
  -8   1  -2   -1.72    1.33
  -8   1  -2    0.10    0.99
   8  -1   2    2.64    2.39
   9  -1   2   14.45    3.30
  -9   0   2   -0.76    1.66
  -8   0   2    6.97    2.29
  -7   0   2   -0.20    0.86
  -7   0   2    0.33    1.18
  -6   0   2   28.77    1.97
  -6   0   2   29.07    2.14
  -6   0   2   29.56    3.13
  -5   0   2    0.59    1.04
  -5   0   2    1.02    0.72
  -5   0   2    1.92    0.83
  -4   0   2  691.08   13.98
  -4   0   2  689.16   13.95
  -4   0   2  656.71   15.91
  -3   0   2   18.95    1.75
  -3   0   2   19.27    1.21
  -3   0   2   17.36    1.10
  -2   0   2 2291.62   43.25
  -2   0   2 2246.13   44.55
  -2   0   2 2298.26   43.78
  -1   0   2   16.22    0.80
  -1   0   2   16.11    0.55
   0   0   2  219.54    4.65
  -1   0  -2    3.54    0.52
  -1   0  -2    2.89    0.40
   1   0   2    3.36    0.55
  -2   0  -2  345.69    6.90
  -2   0  -2  352.62    7.52
  -2   0  -2  342.46    7.69
   2   0   2  342.85    7.63
  -3   0  -2   10.04    1.07
  -3   0  -2   11.15    1.42
  -3   0  -2   10.69    0.83
   3   0   2    9.13    1.17
  -4   0  -2   50.18    2.90
  -4   0  -2   45.70    2.29
  -4   0  -2   49.27    1.89
   4   0   2   47.24    2.69
  -5   0  -2    2.73    1.00
  -5   0  -2    1.91    1.05
  -5   0  -2    2.34    0.70
   5   0   2    1.20    1.04
  -6   0  -2   14.73    2.30
  -6   0  -2   16.21    2.03
   6   0   2   14.29    2.24
  -7   0  -2    0.11    0.86
  -7   0  -2   -0.61    1.26
   7   0   2    2.43    1.33
  -8   0  -2    0.31    1.06
  -8   0  -2   -0.85    1.39
  -9   0  -2   -0.44    1.16
  -9   1   2   -0.12    1.76
  -8   1   2   -1.60    1.42
  -7   1   2    0.86    0.98
  -7   1   2   -0.18    1.27
  -6   1   2    0.41    0.83
  -6   1   2    0.14    1.18
  -6   1   2    0.32    0.80
  -5   1   2    0.11    1.09
  -5   1   2   -0.46    0.59
  -5   1   2    0.03    0.62
  -4   1   2    0.66    0.58
  -4   1   2   -0.71    0.77
  -4   1   2    0.12    0.58
  -3   1   2   -0.12    0.43
  -3   1   2    0.60    0.74
  -3   1   2   -0.22    0.40
  -2   1   2    0.12    0.42
  -2   1   2   -0.17    0.39
  -2   1   2   -0.12    0.52
  -1   1   2   -0.23    0.25
  -1   1   2   -0.38    0.41
   0  -1  -2    0.09    0.37
   0   1   2   -0.56    0.19
   0   1   2    0.05    0.22
  -1  -1  -2   -0.27    0.34
  -1  -1  -2    0.29    0.31
   1   1   2    0.09    0.24
  -2  -1  -2   -0.01    0.42
  -2  -1  -2   -0.04    0.45
  -2  -1  -2   -0.13    0.40
   2   1   2   -0.65    0.36
  -3  -1  -2   -0.36    0.46
  -3  -1  -2   -0.07    0.48
  -3  -1  -2    0.37    0.54
   3   1   2   -0.12    0.45
  -4  -1  -2    0.35    0.64
  -4  -1  -2    0.15    0.70
  -4  -1  -2    0.07    0.49
   4   1   2   -0.01    0.50
  -5  -1  -2    0.18    0.76
  -5  -1  -2   -0.20    0.61
  -5  -1  -2    0.09    0.96
   5   1   2    0.52    0.77
  -6  -1  -2   -0.32    0.86
  -6  -1  -2    0.06    0.70
  -6  -1  -2   -0.55    0.90
   6   1   2    0.23    0.91
  -7  -1  -2    0.09    0.87
  -7  -1  -2    0.66    1.20
   7   1   2    1.71    0.98
  -8  -1  -2   -0.25    0.96
   8   1   2    6.54    1.70
  -9  -1  -2   -0.76    1.07
  -8   2   2    0.66    1.71
   7  -2  -2    7.12    1.78
  -7   2   2    1.20    1.63
  -7   2   2    2.59    1.18
  -6   2   2   33.83    3.77
  -6   2   2   31.88    2.35
  -5   2   2    1.44    0.81
  -5   2   2    0.90    0.66
  -5   2   2    0.41    1.00
  -4   2   2  106.34    3.52
  -4   2   2  105.75    2.98
  -4   2   2  105.40    4.83
  -3   2   2  317.45    8.56
  -3   2   2  298.10    7.01
  -2   2   2  918.64   18.13
  -2   2   2  972.38   19.62
  -1   2   2  687.88   13.31
  -1   2   2  711.60   14.28
   0  -2  -2  207.64    4.29
   0   2   2  205.16    4.40
   0   2   2  199.56    4.24
  -1  -2  -2  580.32   11.34
   1   2   2  586.35   11.30
  -2  -2  -2   37.15    1.55
  -2  -2  -2   36.38    1.38
   2   2   2   33.60    1.47
  -3  -2  -2  103.63    3.31
  -3  -2  -2  103.39    3.17
  -3  -2  -2  102.78    3.21
  -4  -2  -2    7.63    1.08
  -4  -2  -2    7.97    1.24
  -4  -2  -2    7.62    1.14
  -5  -2  -2    2.53    1.13
  -5  -2  -2    3.91    1.04
  -5  -2  -2    2.14    0.81
  -6  -2  -2    6.25    1.29
  -6  -2  -2    3.89    1.43
  -6  -2  -2    3.98    1.21
   6   2   2    5.87    1.30
  -7  -2  -2    0.59    1.00
  -7  -2  -2    1.32    0.90
   7   2   2    4.09    1.13
  -8  -2  -2    3.72    1.56
   8  -3  -2   11.32    2.32
  -8   3   2    0.60    1.20
  -8   3   2   -1.23    1.88
   7  -3  -2    4.59    1.78
  -7   3   2   -0.37    1.68
  -7   3   2   -0.10    0.91
   6  -3  -2    0.15    1.14
  -6   3   2    0.45    0.81
  -6   3   2   -0.25    1.35
  -5   3   2    0.09    1.24
  -5   3   2   -0.69    0.63
  -4   3   2   -1.16    0.97
  -4   3   2   -0.30    0.58
  -3   3   2    0.37    0.54
  -3   3   2    0.03    0.81
  -2   3   2   -0.51    0.57
  -2   3   2    0.06    0.46
   1  -3  -2    0.25    0.48
  -1   3   2    0.30    0.65
  -1   3   2   -0.10    0.46
   0  -3  -2   -0.72    0.47
   0  -3  -2    0.11    0.40
   0   3   2    0.12    0.46
   0   3   2    0.41    0.47
  -1  -3  -2    0.02    0.30
  -1  -3  -2   -0.82    0.50
   1   3   2    0.03    0.44
  -2  -3  -2    0.24    0.57
  -2  -3  -2    0.03    0.28
   2   3   2   -0.36    0.46
  -3  -3  -2    0.08    0.41
  -3  -3  -2   -0.36    0.55
   3   3   2    0.04    0.51
  -4  -3  -2   -0.35    0.64
  -4  -3  -2    0.32    0.56
   4   3   2    0.25    0.64
  -5  -3  -2    0.04    0.74
  -5  -3  -2    0.69    0.83
   5   3   2   -0.43    0.63
  -6  -3  -2   -0.14    0.73
  -6  -3  -2    0.04    0.86
   6   3   2    1.04    0.85
  -7  -3  -2    0.93    0.89
   7   3   2    1.85    0.84
   8   3   2    6.03    1.23
   9   3   2   10.31    1.55
   8  -4  -2    8.53    2.43
  -8   4   2   -0.24    1.02
  -8   4   2    0.84    2.25
   7  -4  -2   15.72    3.37
  -7   4   2   10.15    1.92
  -7   4   2    9.21    2.62
   6  -4  -2    2.00    1.58
  -6   4   2    2.95    1.12
  -6   4   2    0.98    1.61
   5  -4  -2    0.42    1.22
  -5   4   2    1.48    1.07
  -5   4   2    1.41    1.35
   4  -4  -2   30.07    2.71
  -4   4   2   34.05    2.14
  -4   4   2   32.44    3.04
   3  -4  -2  128.24    4.99
  -3   4   2  132.63    4.12
  -3   4   2  132.71    5.30
   2  -4  -2   20.78    1.03
   2  -4  -2   19.18    1.75
  -2   4   2   19.07    1.91
  -2   4   2   19.69    1.37
   1  -4  -2  133.15    3.15
   1  -4  -2  127.29    4.03
  -1   4   2  128.98    3.51
  -1   4   2  132.15    4.17
   0  -4  -2   10.28    1.02
   0  -4  -2   13.22    0.95
   0   4   2   12.46    1.04
  -1  -4  -2   82.49    2.63
  -1  -4  -2   85.68    2.28
   1   4   2   81.50    2.53
  -2  -4  -2  103.21    3.28
  -2  -4  -2  104.90    2.65
   2   4   2  105.22    3.08
  -3  -4  -2  144.66    3.89
  -3  -4  -2  144.44    4.37
   3   4   2  137.91    4.00
  -4  -4  -2   15.82    1.54
  -4  -4  -2   14.87    1.42
   4   4   2   15.30    1.40
  -5  -4  -2   66.79    3.29
  -5  -4  -2   65.63    3.13
   5   4   2   65.41    2.98
  -6  -4  -2    3.28    1.14
   6   4   2    1.78    1.06
  -7  -4  -2   -0.07    0.88
   7   4   2    2.13    1.24
  -8  -4  -2   -0.06    0.98
   8   4   2    5.34    1.52
   8  -5  -2    4.86    2.62
  -8   5   2   -1.16    0.97
  -8   5   2   -0.26    2.12
   7  -5  -2    4.17    2.40
  -7   5   2    0.81    1.14
  -7   5   2   -0.03    1.87
   6  -5  -2    1.31    1.84
  -6   5   2   -0.10    1.59
  -6   5   2   -0.06    0.84
   5  -5  -2    0.17    1.40
  -5   5   2   -0.89    1.34
  -5   5   2    0.75    0.90
   4  -5  -2   -0.10    1.10
  -4   5   2   -1.30    0.97
  -4   5   2   -0.43    0.88
   3  -5  -2    0.35    0.94
   3  -5  -2   -0.17    0.53
  -3   5   2    0.49    1.08
  -3   5   2   -0.25    0.67
   2  -5  -2   -0.01    0.72
   2  -5  -2   -0.07    0.45
  -2   5   2   -0.31    0.60
  -2   5   2   -0.60    0.92
   1  -5  -2   -0.24    0.59
   1  -5  -2   -0.01    0.47
  -1   5   2   -0.23    0.60
   0  -5  -2   -0.42    0.46
   0  -5  -2    0.03    0.60
   0   5   2   -0.80    0.51
  -1  -5  -2   -0.55    0.61
  -1  -5  -2   -0.05    0.55
   1   5   2    0.34    0.66
  -2  -5  -2    0.30    0.66
  -2  -5  -2    0.11    0.34
   2   5   2    0.17    0.65
  -3  -5  -2    0.22    0.38
  -3  -5  -2   -0.45    0.70
   3   5   2   -0.39    0.56
  -4  -5  -2   -0.06    0.50
  -4  -5  -2   -0.35    0.83
   4   5   2   -0.11    0.70
  -5  -5  -2   -0.43    0.86
   5   5   2   -0.33    0.93
  -6  -5  -2    0.32    0.91
   6   5   2   -0.43    1.06
  -7  -5  -2    0.02    1.01
   7   5   2    0.08    1.15
  -8  -5  -2   -0.91    1.11
   8   5   2    1.61    1.34
  -9  -5  -2    0.82    1.25
   8  -6  -2   11.35    3.73
   7  -6  -2    3.71    2.97
  -7   6   2   -0.05    2.10
  -7   6   2    0.53    1.04
   6  -6  -2    4.30    2.43
  -6   6   2    5.86    2.27
  -6   6   2    5.35    1.54
   5  -6  -2    1.88    1.94
  -5   6   2   -0.85    1.71
  -5   6   2    1.23    1.10
   4  -6  -2   36.82    3.48
  -4   6   2   37.96    3.60
  -4   6   2   36.03    2.52
   3  -6  -2   45.51    3.44
  -3   6   2   43.86    2.54
  -3   6   2   45.35    3.44
   2  -6  -2   71.43    2.18
   2  -6  -2   74.63    3.77
  -2   6   2   76.44    3.06
   1  -6  -2   49.02    2.68
   1  -6  -2   50.85    1.90
  -1   6   2   52.33    2.35
   0  -6  -2   59.38    2.64
   0  -6  -2   57.88    2.23
   0   6   2   57.57    2.41
  -1  -6  -2   24.89    1.62
  -1  -6  -2   27.44    1.72
   1   6   2   27.89    1.70
  -2  -6  -2   36.15    2.09
  -2  -6  -2   36.14    1.70
   2   6   2   37.33    1.97
  -3  -6  -2   32.78    1.68
  -3  -6  -2   31.85    2.18
   3   6   2   31.71    1.92
  -4  -6  -2   12.26    1.78
   4   6   2   12.72    1.65
  -5  -6  -2   41.01    2.74
   5   6   2   36.22    2.51
  -6  -6  -2   14.86    2.11
   6   6   2   23.51    2.52
  -7  -6  -2    3.04    1.35
   7   6   2    4.24    1.68
  -8  -6  -2   -0.59    1.04
   8   6   2    1.18    1.39
  -9  -6  -2    1.24    1.42
  -8   7   2    2.41    1.44
   7  -7  -2    1.79    2.64
  -7   7   2    0.59    1.09
   6  -7  -2    2.19    2.54
  -6   7   2   -0.15    1.01
   5  -7  -2   -0.27    1.75
  -5   7   2   -0.58    0.92
   4  -7  -2   -0.65    1.59
  -4   7   2   -0.08    1.05
   3  -7  -2    0.42    1.40
  -3   7   2   -0.88    0.85
   2  -7  -2    0.22    1.09
   2  -7  -2    0.56    0.52
  -2   7   2   -0.68    0.85
   1  -7  -2    0.40    0.58
   1  -7  -2   -0.80    0.94
  -1   7   2    0.22    0.85
   0  -7  -2    0.25    0.60
   0  -7  -2    0.09    0.94
   0   7   2    0.06    0.78
  -1  -7  -2   -0.17    0.81
  -1  -7  -2   -0.46    0.73
   1   7   2    0.65    0.85
  -2  -7  -2   -0.72    0.80
  -2  -7  -2    0.50    0.66
   2   7   2    0.37    0.85
  -3  -7  -2    0.07    0.90
   3   7   2    0.55    0.89
  -4  -7  -2   -1.26    0.90
   4   7   2   -1.15    0.86
  -5  -7  -2    0.35    1.02
   5   7   2    0.61    1.25
  -6  -7  -2   -0.35    1.03
   6   7   2   -0.10    1.27
  -7  -7  -2    0.41    1.19
   7   7   2   -0.73    1.35
  -8  -7  -2    0.56    1.30
   7  -8  -2    2.62    3.26
  -7   8   2    3.05    1.52
   6  -8  -2    1.70    2.68
  -6   8   2   -0.66    1.06
   5  -8  -2   29.19    4.30
  -5   8   2   26.13    2.59
   4  -8  -2    6.98    2.49
  -4   8   2    6.92    1.71
   3  -8  -2   26.26    3.33
  -3   8   2   28.50    2.40
   2  -8  -2   90.99    4.66
  -2   8   2   81.28    3.66
   1  -8  -2   39.19    1.96
   1  -8  -2   37.90    3.07
  -1   8   2   35.60    2.44
   0  -8  -2   25.11    1.79
   0  -8  -2   24.39    2.43
   0   8   2   27.28    2.11
  -1  -8  -2    6.37    1.27
  -1  -8  -2    6.06    1.36
   1   8   2    6.22    1.35
  -2  -8  -2   26.69    2.13
   2   8   2   26.95    2.12
  -3  -8  -2   32.08    2.45
   3   8   2   31.76    2.32
  -4  -8  -2   15.70    2.15
   4   8   2   14.90    1.93
  -5  -8  -2   11.04    1.95
   5   8   2    8.64    1.83
  -6  -8  -2   19.21    2.64
   6   8   2   28.05    3.09
  -7  -8  -2    3.36    1.57
   7   8   2    4.37    2.05
  -8  -8  -2    0.94    1.39
  -7   9   2    0.95    1.32
   6  -9  -2   -2.04    2.77
  -6   9   2    0.34    1.08
   5  -9  -2   -0.62    2.44
  -5   9   2   -0.48    1.08
   4  -9  -2   -2.41    1.86
  -4   9   2    1.03    1.15
   3  -9  -2   -0.86    1.61
  -3   9   2   -0.06    1.04
   2  -9  -2    0.10    1.44
  -2   9   2   -0.35    1.02
   1  -9  -2   -0.56    1.48
  -1   9   2   -0.45    1.06
   0  -9  -2   -0.37    1.30
   0  -9  -2    0.48    0.78
   0   9   2   -0.05    1.12
  -1  -9  -2   -0.58    0.98
   1   9   2   -0.54    1.11
  -2  -9  -2   -0.73    0.92
   2   9   2   -0.21    1.11
  -3  -9  -2    0.60    1.08
   3   9   2    0.25    1.18
  -4  -9  -2    0.65    1.15
   4   9   2    0.46    1.34
  -5  -9  -2   -0.01    1.12
   5   9   2   -0.67    1.42
  -6  -9  -2    1.35    1.43
   6   9   2   -2.01    1.47
  -7  -9  -2    0.44    1.25
   7   9   2   -2.40    2.01
   6 -10  -2    1.49    3.26
  -6  10   2    3.81    1.67
   5 -10  -2    1.41    2.76
  -5  10   2    4.16    1.65
   4 -10  -2    5.19    2.85
  -4  10   2    6.82    1.81
   3 -10  -2    7.39    2.57
  -3  10   2    8.74    1.88
   2 -10  -2   11.58    2.49
  -2  10   2   15.08    2.17
   1 -10  -2    4.17    1.81
  -1  10   2    5.50    1.54
   0 -10  -2  159.65    7.02
   0 -10  -2  167.47    5.23
   0  10   2  164.25    5.67
  -1 -10  -2  226.52    6.68
   1  10   2  219.67    6.77
  -2 -10  -2   83.22    4.00
   2  10   2   81.51    3.85
  -3 -10  -2   86.86    4.22
   3  10   2   87.68    4.04
  -4 -10  -2    3.79    1.51
   4  10   2    5.03    1.70
  -5 -10  -2   31.96    3.00
   5  10   2   31.16    3.23
  -6 -10  -2    1.20    1.49
   6  10   2    1.35    1.73
  -7 -10  -2   -1.23    1.57
   5 -11  -2   -1.14    3.30
  -5  11   2    1.58    1.54
   4 -11  -2   -2.09    2.54
  -4  11   2    0.31    1.27
   3 -11  -2   -1.83    2.41
  -3  11   2    2.30    1.45
   2 -11  -2   -3.14    1.97
  -2  11   2   -0.58    1.16
   1 -11  -2   -0.35    1.82
  -1  11   2   -0.81    1.30
   0  11   2    0.82    1.26
  -1 -11  -2    1.37    1.15
   1  11   2    0.81    1.42
  -2 -11  -2    0.96    1.08
   2  11   2    1.32    1.35
  -3 -11  -2   -0.26    1.02
   3  11   2   -1.16    1.27
  -4 -11  -2    0.18    1.22
   4  11   2   -0.86    1.39
  -5 -11  -2    0.17    1.29
   5  11   2    0.06    1.58
  -6 -11  -2    1.53    1.50
   6  11   2   -2.82    1.71
   5 -12  -2    2.79    5.98
   4 -12  -2    2.16    2.98
  -4  12   2    4.22    1.69
   3 -12  -2    5.39    3.37
  -3  12   2    5.19    1.83
   2 -12  -2    9.11    3.31
  -2  12   2   12.59    2.33
  -1  12   2    7.91    1.93
   0  12   2    9.38    2.01
   1  12   2   12.06    2.21
  -2 -12  -2   31.03    2.63
   2  12   2   28.72    2.88
  -3 -12  -2    6.14    1.71
   3  12   2    3.25    1.73
  -4 -12  -2   11.34    2.36
   4  12   2    8.61    2.09
  -5 -12  -2   11.17    2.42
   5  12   2    8.29    2.30
   4 -13  -2   -7.77    3.42
  -3  13   2    1.58    1.54
  -2  13   2    1.48    1.60
  -1  13   2    0.77    1.51
   0  13   2    0.28    1.61
   1  13   2    0.50    1.49
   2  13   2    0.47    1.47
  -3 -13  -2    0.22    1.28
   3  13   2   -0.33    1.55
  -4 -13  -2    1.00    1.34
   4  13   2   -1.07    1.72
   5  13   2   -1.41    1.83
  -1  14   2   11.43    2.59
   0  14   2    0.45    1.74
   1  14   2    2.61    1.75
   2  14   2   13.85    2.66
  -3 -14  -2   -1.34    1.58
   3  14   2    2.19    1.89
   1  13  -3    0.63    1.31
   0  13  -3    4.21    1.80
  -1  13  -3    0.81    1.36
   2 -13   3   -4.92    2.99
  -4 -12   3    8.44    2.19
  -3 -12   3    6.24    1.88
   2  12  -3    6.55    1.96
   1  12  -3    2.25    1.55
   0  12  -3    1.55    1.34
  -1  12  -3    8.97    2.00
   1 -12   3    4.75    2.61
  -2  12  -3    7.97    2.00
   2 -12   3    7.46    3.35
  -3  12  -3    2.95    1.56
   3 -12   3    0.50    3.31
  -5 -11   3    1.19    1.58
  -4 -11   3    0.13    1.38
  -3 -11   3   -1.15    1.10
   2  11  -3    0.53    1.21
  -2 -11   3   -1.46    1.16
   1  11  -3    2.15    1.51
   0  11  -3    0.38    1.20
   0 -11   3    1.96    2.01
  -1  11  -3    0.17    1.32
   1 -11   3   -0.37    2.49
  -2  11  -3    1.18    1.34
   2 -11   3   -2.85    2.70
  -3  11  -3    1.17    1.37
   3 -11   3   -5.48    2.54
  -4  11  -3    1.82    1.51
   4 -11   3   -2.53    3.09
  -6 -10   3    3.17    1.94
  -5 -10   3    1.19    1.45
  -4 -10   3    1.22    1.44
   3  10  -3    3.84    1.73
  -3 -10   3    3.60    1.43
   2  10  -3   11.94    1.98
  -2 -10   3   13.72    2.06
   1  10  -3   25.41    2.53
  -1 -10   3   29.25    3.34
  -1 -10   3   24.50    2.18
   0  10  -3   12.67    1.96
   0 -10   3   12.46    2.48
  -1  10  -3   15.01    2.18
   1 -10   3   18.85    3.39
  -2  10  -3    8.39    1.91
   2 -10   3    3.92    2.67
  -3  10  -3    6.88    1.92
   3 -10   3    8.39    3.26
  -4  10  -3    5.72    1.81
   4 -10   3    1.85    3.37
  -5  10  -3   10.30    2.26
   5 -10   3    7.29    4.34
  -6  -9   3    0.16    1.33
  -5  -9   3    0.65    1.35
  -4  -9   3    1.07    1.30
   3   9  -3   -0.40    1.00
  -3  -9   3    0.41    1.09
   2   9  -3   -0.47    1.08
  -2  -9   3    1.72    1.22
  -2  -9   3   -0.15    0.88
   1   9  -3    0.33    1.04
  -1  -9   3    0.74    1.40
  -1  -9   3    0.17    0.95
   0   9  -3   -0.38    0.97
   0  -9   3   -0.53    1.42
  -1   9  -3   -0.50    0.98
   1  -9   3   -0.74    2.00
  -2   9  -3    0.87    1.10
   2  -9   3    0.24    2.02
  -3   9  -3   -0.18    1.08
   3  -9   3   -1.31    2.15
  -4   9  -3    1.39    1.32
   4  -9   3    0.68    2.75
  -5   9  -3    0.00    1.23
   5  -9   3   -1.96    2.86
  -6   9  -3    0.39    1.37
   6  -9   3   -5.37    3.00
  -7  -8   3    2.06    1.72
  -6  -8   3    0.54    1.35
  -5  -8   3    2.25    1.46
  -4  -8   3   25.30    2.44
   3   8  -3    1.74    1.14
  -3  -8   3    3.91    1.31
  -3  -8   3    2.28    1.22
   2   8  -3    6.16    1.43
  -2  -8   3    7.19    1.58
  -2  -8   3    5.29    1.43
   1   8  -3    2.77    1.17
  -1  -8   3    3.54    1.65
  -1  -8   3    3.08    1.03
   0   8  -3    9.42    1.66
   0  -8   3    8.80    1.30
   0  -8   3    9.20    2.13
  -1   8  -3   54.90    3.04
   1  -8   3   53.85    4.62
  -2   8  -3    5.76    1.59
   2  -8   3    5.76    2.31
  -3   8  -3   19.03    2.36
   3  -8   3   20.07    3.55
  -4   8  -3    1.60    1.33
   4  -8   3    0.36    2.26
  -5   8  -3    2.95    1.52
   5  -8   3    7.85    3.37
  -6   8  -3    7.32    2.10
   6  -8   3    4.14    3.90
  -7  -7   3   -0.18    1.36
  -6  -7   3   -1.15    1.08
  -5  -7   3   -0.52    1.03
   4   7  -3   -0.25    0.92
  -4  -7   3    0.89    1.01
  -4  -7   3    0.18    0.85
   3   7  -3   -0.07    0.98
  -3  -7   3   -0.42    0.96
  -3  -7   3   -0.11    0.90
   2   7  -3   -0.39    0.83
  -2  -7   3    0.93    0.89
  -2  -7   3   -0.38    1.05
   1   7  -3    1.57    0.90
  -1  -7   3   -0.54    0.70
  -1  -7   3    1.04    1.34
   0   7  -3   -0.58    0.83
   0  -7   3   -0.50    1.37
   0  -7   3   -0.36    0.63
  -1   7  -3   -0.55    0.87
   1  -7   3   -0.21    0.61
   1  -7   3   -0.61    1.53
  -2   7  -3   -0.02    0.92
   2  -7   3   -0.41    1.64
  -3   7  -3    0.30    1.05
   3  -7   3    0.16    1.80
  -4   7  -3    0.67    1.11
   4  -7   3   -0.74    1.86
  -5   7  -3   -0.18    1.08
   5  -7   3   -0.04    2.55
  -6   7  -3    1.96    1.42
   6  -7   3   -1.75    2.98
  -7   7  -3    0.60    1.33
   7  -7   3   -7.19    3.30
  -8  -6   3   24.22    3.19
  -7  -6   3    2.89    1.50
  -6  -6   3    9.28    1.95
  -5  -6   3   18.55    2.34
   4   6  -3   78.74    3.02
  -4  -6   3   71.61    3.85
  -4  -6   3   74.24    3.62
   3   6  -3    8.93    1.29
  -3  -6   3    7.74    1.51
  -3  -6   3    8.36    1.52
   2   6  -3   98.47    3.26
  -2  -6   3   97.04    3.69
  -2  -6   3   97.79    4.21
   1   6  -3   44.83    2.22
  -1  -6   3   44.16    2.20
  -1  -6   3   41.68    2.80
   0   6  -3    1.57    0.95
   0  -6   3    2.43    0.70
   0  -6   3    0.90    1.29
  -1   6  -3   71.19    3.00
   1  -6   3   70.00    2.29
   1  -6   3   69.94    3.94
  -2   6  -3   12.78    1.68
   2  -6   3   13.58    2.27
  -3   6  -3   18.36    1.96
   3  -6   3   16.60    2.60
  -4   6  -3    1.30    1.12
   4  -6   3    2.12    1.94
  -5   6  -3    5.22    1.57
   5  -6   3    3.29    2.44
  -6   6  -3    2.41    1.41
   6  -6   3    0.93    2.94
  -7   6  -3    6.52    1.93
   7  -6   3    8.07    4.13
   8  -6   3   -3.27    5.80
  -8  -5   3   -1.15    1.11
  -7  -5   3   -0.53    1.05
  -6  -5   3    0.33    1.11
  -5  -5   3    0.31    0.90
  -5  -5   3   -1.08    0.88
   4   5  -3   -0.77    0.69
  -4  -5   3   -0.53    0.81
   3   5  -3   -0.43    0.66
  -3  -5   3   -0.84    0.60
  -3  -5   3   -0.07    0.63
   2   5  -3   -0.11    0.62
  -2  -5   3   -0.19    0.79
  -2  -5   3   -0.11    0.67
   1   5  -3    0.56    0.66
  -1  -5   3   -0.25    0.63
  -1  -5   3   -0.46    0.81
   0   5  -3    0.32    0.63
   0  -5   3   -0.37    1.12
   0  -5   3   -0.37    0.49
  -1   5  -3    0.03    0.66
   1  -5   3   -0.39    1.10
   1  -5   3   -0.02    0.41
  -2   5  -3   -0.52    0.70
   2  -5   3    0.99    1.27
  -3   5  -3   -0.50    0.81
   3  -5   3   -0.23    1.24
  -4   5  -3    0.02    0.93
   4  -5   3    1.03    1.63
  -5   5  -3    0.02    0.98
   5  -5   3    0.54    1.90
  -6   5  -3    1.61    1.23
   6  -5   3   -2.44    2.42
  -7   5  -3   -2.44    1.18
   7  -5   3   -5.18    2.86
  -8   5  -3    0.35    1.56
   8  -5   3   -3.38    3.60
  -9  -4   3    1.24    1.53
  -8  -4   3   29.95    2.92
  -7  -4   3    1.66    1.27
  -6  -4   3   75.19    4.51
  -6  -4   3   79.51    3.91
   5   4  -3   -0.34    0.70
  -5  -4   3   -0.38    0.91
  -5  -4   3    0.42    0.89
   4   4  -3   48.45    2.05
  -4  -4   3   48.80    3.11
  -4  -4   3   47.56    2.64
   3   4  -3   23.34    1.34
  -3  -4   3   20.21    1.67
  -3  -4   3   22.35    2.01
   2   4  -3   56.80    1.99
  -2  -4   3   53.63    2.39
  -2  -4   3   56.88    2.76
   1   4  -3   22.56    1.29
  -1  -4   3   25.01    1.50
  -1  -4   3   23.62    1.87
   0   4  -3  340.31    7.49
   0  -4   3  348.13    8.56
   0  -4   3  340.78    7.35
  -1   4  -3  520.12   11.03
   1  -4   3  514.62   11.97
   1  -4   3  520.65   10.15
  -2   4  -3   79.15    3.11
   2  -4   3   84.99    3.89
  -3   4  -3    6.08    1.21
   3  -4   3    9.27    1.74
  -4   4  -3   17.37    1.87
   4  -4   3   18.05    2.48
  -5   4  -3   19.87    2.12
   5  -4   3   18.90    2.96
  -6   4  -3    3.72    1.42
   6  -4   3    4.37    2.60
  -7   4  -3   13.66    2.42
   7  -4   3   17.47    4.18
  -8   4  -3    1.39    1.44
   8  -4   3    3.27    4.11
  -8  -3   3   -0.64    1.13
  -7  -3   3    0.82    1.35
  -7  -3   3   -0.61    1.10
  -6  -3   3    0.56    0.91
  -6  -3   3    0.74    1.03
   5   3  -3   -0.84    0.59
  -5  -3   3   -0.43    0.78
  -5  -3   3   -0.34    0.94
   4   3  -3   -0.13    0.54
  -4  -3   3    0.47    0.81
  -4  -3   3   -0.45    0.63
   3   3  -3    0.07    0.43
  -3  -3   3    0.02    0.57
  -3  -3   3    0.21    0.52
   2   3  -3   -0.28    0.40
  -2  -3   3   -0.14    0.41
  -2  -3   3   -0.15    0.54
   1   3  -3   -0.03    0.43
  -1  -3   3   -0.86    0.61
  -1  -3   3   -0.16    0.44
   0   3  -3   -0.35    0.47
   0  -3   3    0.32    0.40
   0  -3   3    0.53    0.84
  -1   3  -3   -0.46    0.48
   1  -3   3    0.83    0.90
   1  -3   3   -0.30    0.29
  -2   3  -3   -0.56    0.54
  -2   3  -3   -0.16    0.22
   2  -3   3    0.30    0.88
  -3   3  -3    0.13    0.63
   3  -3   3   -0.43    0.92
  -4   3  -3    0.16    0.78
   4  -3   3   -1.19    0.99
  -5   3  -3    0.37    0.98
   5  -3   3    0.18    1.47
  -6   3  -3   -0.13    1.02
   6  -3   3   -1.21    1.80
  -7   3  -3   -1.28    1.12
   7  -3   3    0.57    2.55
  -8   3  -3    0.34    1.19
   8  -3   3    0.75    3.12
  -9   3  -3    1.59    1.53
   9  -3   3    4.96    3.65
  -8  -2   3    2.29    1.32
  -8  -2   3    2.28    1.70
  -7  -2   3    2.82    1.40
  -7  -2   3    4.80    1.82
  -6  -2   3  114.87    5.74
  -6  -2   3  121.11    4.58
   5   2  -3   28.43    1.71
  -5  -2   3   29.01    2.10
  -5  -2   3   30.82    2.77
   4   2  -3  302.71    6.74
  -4  -2   3  300.68    8.67
  -4  -2   3  295.86    7.60
   3   2  -3  212.82    4.79
  -3  -2   3  213.92    5.57
  -3  -2   3  213.42    6.33
   2   2  -3  127.08    2.93
  -2  -2   3  126.74    4.11
  -2  -2   3  129.18    3.64
   1   2  -3  116.96    2.65
  -1  -2   3  115.39    3.65
  -1  -2   3  117.81    3.15
   0   2  -3   43.29    1.47
   0  -2   3   42.37    1.47
   0  -2   3   41.82    2.14
  -1   2  -3  175.80    4.28
   1  -2   3  174.94    4.87
  -2   2  -3   87.15    2.93
  -2   2  -3   86.94    1.94
   2  -2   3   92.17    3.48
  -3   2  -3   43.78    1.22
  -3   2  -3   44.96    2.22
   3  -2   3   44.42    2.66
  -4   2  -3    9.13    0.64
  -4   2  -3    7.11    1.29
   4  -2   3    8.76    1.67
  -5   2  -3    0.00    0.89
   5  -2   3    1.76    1.32
  -6   2  -3    5.72    1.56
   6  -2   3    4.95    2.01
  -7   2  -3    3.24    1.35
   7  -2   3    4.55    2.73
  -8   2  -3    0.89    1.25
   8  -2   3    5.49    3.13
  -9   2  -3   10.69    2.50
   9  -2   3   27.34    5.04
  -8  -1   3    0.22    1.30
  -7  -1   3    1.10    1.04
  -7  -1   3    0.49    1.24
  -6  -1   3   -0.19    1.17
  -6  -1   3   -1.26    0.63
  -6  -1   3    0.15    0.88
  -5  -1   3    1.12    0.71
  -5  -1   3   -0.20    0.90
  -5  -1   3    0.46    0.82
  -4  -1   3   -0.43    0.52
  -4  -1   3    0.42    0.76
  -4  -1   3   -1.33    0.70
  -3  -1   3   -0.67    0.50
  -3  -1   3    0.08    0.56
  -3  -1   3    0.17    0.36
   2   1  -3   -0.28    0.26
  -2  -1   3    0.17    0.55
  -2  -1   3   -0.10    0.38
   1   1  -3    0.10    0.23
  -1  -1   3   -0.25    0.53
  -1  -1   3    0.42    0.48
   0   1  -3   -0.68    0.26
   0  -1   3   -0.57    0.64
  -1   1  -3   -0.45    0.39
   1  -1   3    0.97    0.75
  -2   1  -3   -0.82    0.45
  -2   1  -3   -0.29    0.29
   2  -1   3   -0.34    0.71
  -3   1  -3    0.07    0.31
  -3   1  -3    0.03    0.55
   3  -1   3    0.08    0.67
  -4   1  -3   -0.74    0.61
  -4   1  -3   -0.18    0.36
   4  -1   3   -0.03    0.87
  -5   1  -3    0.17    0.86
   5  -1   3   -1.07    0.86
  -6   1  -3    0.00    0.89
   6  -1   3   -0.43    1.22
  -7   1  -3    0.48    1.11
   7  -1   3   -1.05    1.53
  -8   1  -3    1.35    1.37
   8  -1   3    1.80    2.37
  -9   1  -3   -0.49    1.36
   9  -1   3    7.86    3.45
  -9   0   3   -1.17    1.57
  -8   0   3    4.79    2.01
  -7   0   3    1.95    1.48
  -7   0   3    2.93    1.11
  -6   0   3   65.44    3.07
  -6   0   3   71.49    4.67
  -6   0   3   63.53    3.03
  -5   0   3    1.32    1.23
  -5   0   3    2.72    0.95
  -5   0   3    2.75    0.85
  -4   0   3  663.59   13.79
  -4   0   3  684.33   15.89
  -4   0   3  646.06   13.54
  -3   0   3    5.28    0.68
  -3   0   3    6.43    0.89
  -2   0   3  834.16   16.99
  -2   0   3  800.45   15.28
  -2   0   3  811.66   15.82
  -1   0   3    8.70    1.05
   0   0  -3  413.22    8.01
   0   0   3  437.48    8.72
  -1   0  -3    1.70    0.48
  -1   0  -3    2.62    0.50
   1   0   3    1.68    0.64
  -2   0  -3 1192.79   22.78
  -2   0  -3 1175.97   22.05
   2   0   3 1185.77   22.87
  -3   0  -3    1.68    0.49
  -3   0  -3    1.30    0.68
   3   0   3    2.78    0.84
  -4   0  -3   18.96    1.98
  -4   0  -3   17.96    1.54
  -4   0  -3   17.50    1.16
   4   0   3   16.36    1.69
  -5   0  -3   10.93    1.78
  -5   0  -3    8.75    1.08
  -5   0  -3    8.20    1.41
   5   0   3    9.47    1.65
  -6   0  -3    1.39    1.02
  -6   0  -3    1.12    1.43
   6   0   3    1.60    1.36
  -7   0  -3    2.50    1.52
  -7   0  -3    1.34    1.12
   7   0   3    2.00    1.40
  -8   0  -3   13.84    2.30
   8   0   3   26.44    3.94
  -9   0  -3    1.55    1.38
  -9   1   3   -2.85    1.71
  -8   1   3   -1.00    1.47
  -7   1   3   -0.06    1.48
  -6   1   3   -0.16    0.79
  -6   1   3   -0.86    1.05
  -6   1   3   -0.23    0.70
  -5   1   3   -0.15    0.67
  -5   1   3    0.13    1.19
  -5   1   3   -0.03    0.70
  -4   1   3   -0.28    0.50
  -4   1   3   -0.49    0.80
  -4   1   3   -0.11    0.63
  -3   1   3   -0.02    0.67
  -3   1   3   -0.30    0.48
  -3   1   3   -0.15    0.39
  -2   1   3    0.11    0.33
  -2   1   3    0.02    0.63
  -1   1   3   -0.06    0.26
  -1   1   3   -0.74    0.42
   0   1   3   -0.55    0.32
   0   1   3   -0.05    0.22
  -1  -1  -3   -0.21    0.43
  -1  -1  -3   -0.44    0.33
   1   1   3    0.65    0.41
  -2  -1  -3   -0.77    0.40
  -2  -1  -3    0.21    0.50
   2   1   3   -0.11    0.43
  -3  -1  -3   -0.06    0.52
  -3  -1  -3   -0.31    0.40
  -3  -1  -3    0.20    0.52
   3   1   3   -0.05    0.49
  -4  -1  -3    0.34    0.65
  -4  -1  -3   -0.52    0.66
  -4  -1  -3    0.41    0.54
   4   1   3    0.41    0.57
  -5  -1  -3   -0.35    0.74
  -5  -1  -3    0.14    0.79
  -5  -1  -3   -0.42    0.52
   5   1   3   -0.23    0.80
  -6  -1  -3    1.18    1.01
  -6  -1  -3   -0.35    0.66
  -6  -1  -3    0.68    1.25
   6   1   3   -0.69    0.92
  -7  -1  -3    0.12    0.94
  -7  -1  -3   -0.58    1.22
   7   1   3    0.95    1.15
  -8  -1  -3   -1.95    1.01
  -9  -1  -3    0.16    1.36
  -9   2   3   -0.69    1.77
  -7   2   3    9.86    1.72
  -7   2   3    9.49    2.48
  -6   2   3    1.68    0.86
  -6   2   3    0.66    1.17
  -5   2   3   36.89    3.38
  -5   2   3   33.32    1.79
  -5   2   3   31.88    2.09
  -4   2   3  123.35    3.63
  -4   2   3   86.89    4.74
  -3   2   3  145.44    5.27
  -3   2   3  135.00    3.78
  -2   2   3  303.16    6.46
  -2   2   3  301.72    7.87
  -1   2   3 1296.98   25.53
  -1   2   3 1300.89   25.12
   0  -2  -3   15.21    0.85
   0   2   3   14.08    0.93
   0   2   3   15.24    0.77
  -1  -2  -3    7.25    0.82
   1   2   3    6.60    0.73
   1   2   3    6.21    0.45
  -2  -2  -3   22.39    1.26
   2   2   3   22.10    1.01
   2   2   3   20.04    1.20
  -3  -2  -3   36.58    1.77
  -3  -2  -3   37.72    1.86
  -3  -2  -3   36.34    1.75
   3   2   3   38.55    1.76
  -4  -2  -3  144.37    4.65
  -4  -2  -3  143.26    4.46
  -4  -2  -3  147.09    4.30
   4   2   3  145.65    4.49
  -5  -2  -3    3.26    0.96
  -5  -2  -3    4.09    1.14
  -5  -2  -3    4.36    1.12
   5   2   3    4.46    1.06
  -6  -2  -3    6.31    1.42
  -6  -2  -3    5.28    1.22
  -6  -2  -3    5.18    1.55
   6   2   3    5.86    1.38
  -7  -2  -3    1.14    0.85
  -7  -2  -3    0.88    1.07
   7   2   3    2.66    1.26
  -8  -2  -3   -0.54    1.07
  -9  -2  -3   -1.08    1.07
  -9   3   3   -1.97    1.83
  -8   3   3   -0.24    1.65
  -7   3   3   -0.14    0.87
  -7   3   3   -0.39    1.48
  -6   3   3   -0.61    1.32
  -6   3   3   -1.00    0.73
  -5   3   3    1.15    1.27
  -5   3   3    0.32    0.69
  -4   3   3   -0.19    0.62
  -4   3   3    0.92    1.11
  -3   3   3    0.32    0.55
  -3   3   3   -0.28    0.76
  -2   3   3   -0.02    0.48
  -2   3   3    0.19    0.63
   1  -3  -3    0.60    0.59
  -1   3   3    0.17    0.43
  -1   3   3   -0.28    0.54
   0  -3  -3    0.04    0.60
   0   3   3    0.25    0.49
   0   3   3   -0.37    0.43
  -1  -3  -3   -0.58    0.55
   1   3   3    0.11    0.44
  -2  -3  -3    0.13    0.56
  -2  -3  -3    0.06    0.22
  -2  -3  -3    0.04    0.22
   2   3   3    0.13    0.48
   2   3   3   -0.03    0.20
  -3  -3  -3   -0.09    0.57
  -3  -3  -3   -0.18    0.39
   3   3   3   -0.14    0.50
  -4  -3  -3   -0.47    0.62
  -4  -3  -3    0.24    0.60
   4   3   3   -0.24    0.54
  -5  -3  -3   -0.05    0.80
  -5  -3  -3   -0.04    0.73
   5   3   3    0.66    0.65
   5   3   3    0.21    0.74
  -6  -3  -3    0.23    0.87
  -6  -3  -3    0.34    0.91
   6   3   3   -0.27    0.82
   6   3   3    1.54    0.78
  -7  -3  -3    0.76    0.96
   7   3   3    2.40    0.89
   8   3   3    3.65    0.92
   8  -4  -3   13.34    2.41
  -8   4   3    0.58    1.97
   7  -4  -3    7.96    2.33
  -7   4   3    2.04    2.02
  -7   4   3    3.38    1.36
   6  -4  -3    8.84    2.18
  -6   4   3    6.14    1.44
  -6   4   3    4.10    1.90
   5  -4  -3  152.37    6.42
  -5   4   3  147.98    5.06
  -5   4   3  156.62    7.06
  -4   4   3   24.49    1.85
  -4   4   3   27.84    2.93
  -3   4   3   11.74    1.34
  -3   4   3   12.32    1.84
   2  -4  -3   59.45    1.90
  -2   4   3   55.29    2.25
  -2   4   3   57.55    3.08
   1  -4  -3    1.07    0.66
   1  -4  -3    0.98    0.63
  -1   4   3    1.24    0.58
  -1   4   3    1.05    0.78
   0  -4  -3  187.95    4.57
   0  -4  -3  184.23    4.40
   0   4   3  184.43    4.44
   0   4   3  185.11    4.62
  -1  -4  -3  250.16    5.78
  -1  -4  -3  243.06    5.01
   1   4   3  253.27    5.70
  -2  -4  -3   76.47    2.70
  -2  -4  -3   69.63    1.67
   2   4   3   77.33    2.54
  -3  -4  -3  177.98    4.25
  -3  -4  -3  178.99    5.01
   3   4   3  179.10    4.84
  -4  -4  -3   80.16    3.29
  -4  -4  -3   82.83    2.99
   4   4   3   82.23    3.19
  -5  -4  -3   15.57    1.87
   5   4   3   16.92    1.80
  -6  -4  -3    0.20    0.85
   6   4   3    2.89    1.19
  -7  -4  -3    1.18    0.94
   7   4   3    4.05    1.36
  -8  -4  -3    1.69    1.19
   8   4   3    8.14    1.77
   9   4   3   20.34    2.01
  -8   5   3   -2.77    1.73
   7  -5  -3    3.96    2.15
  -7   5   3   -2.21    1.54
  -7   5   3    0.03    1.08
   6  -5  -3    0.75    1.71
  -6   5   3    0.89    1.04
  -6   5   3    2.49    1.77
   5  -5  -3    0.69    1.36
  -5   5   3    0.22    0.84
  -5   5   3    0.65    1.40
   4  -5  -3   -0.66    0.96
  -4   5   3   -0.23    1.15
  -4   5   3    0.18    0.80
   3  -5  -3   -0.29    0.61
   3  -5  -3    0.23    0.94
  -3   5   3    0.16    0.70
  -3   5   3   -0.17    0.97
   2  -5  -3   -0.17    0.66
   2  -5  -3    0.10    0.60
  -2   5   3    0.49    0.89
  -2   5   3    0.64    0.65
   1  -5  -3   -0.48    0.52
   1  -5  -3    0.38    0.57
  -1   5   3    0.23    0.70
  -1   5   3    0.03    0.59
   0  -5  -3   -0.44    0.54
   0  -5  -3   -0.27    0.48
   0   5   3   -0.38    0.55
  -1  -5  -3   -0.29    0.46
  -1  -5  -3    0.16    0.60
   1   5   3    0.05    0.56
  -2  -5  -3   -0.71    0.63
  -2  -5  -3    0.15    0.24
   2   5   3   -0.11    0.59
  -3  -5  -3    0.11    0.32
  -3  -5  -3    0.02    0.72
   3   5   3    0.38    0.64
  -4  -5  -3   -0.14    0.80
   4   5   3   -0.60    0.67
  -5  -5  -3   -0.11    0.88
   5   5   3   -0.77    0.83
  -6  -5  -3   -0.43    0.81
   6   5   3    0.24    1.04
  -7  -5  -3    0.16    0.96
   7   5   3    0.11    1.12
  -8  -5  -3    0.37    1.14
   8   5   3    1.94    1.38
   9   5   3    8.44    2.15
   8  -6  -3   11.05    3.09
  -8   6   3    2.56    1.51
  -8   6   3   -1.15    2.05
  -7   6   3    6.21    1.66
  -7   6   3    6.29    2.69
   6  -6  -3   22.44    3.81
  -6   6   3   13.66    2.95
  -6   6   3   17.24    2.32
   5  -6  -3   20.93    3.29
  -5   6   3   15.60    2.85
  -5   6   3   15.30    2.08
   4  -6  -3   43.03    3.71
  -4   6   3   45.92    3.86
  -4   6   3   41.30    2.64
   3  -6  -3   28.44    2.77
   3  -6  -3   27.80    1.79
  -3   6   3   30.42    2.22
  -3   6   3   36.55    3.34
   2  -6  -3   45.05    1.76
   2  -6  -3   44.02    2.93
  -2   6   3   42.09    2.94
  -2   6   3   44.67    2.30
   1  -6  -3   16.47    1.77
   1  -6  -3   18.10    1.27
  -1   6   3   19.31    1.53
   0  -6  -3  126.32    3.67
   0  -6  -3  125.39    3.95
   0   6   3  127.55    3.83
  -1  -6  -3   32.96    1.72
  -1  -6  -3   31.22    1.81
   1   6   3   34.41    1.89
  -2  -6  -3   74.89    2.22
  -2  -6  -3   73.43    3.01
   2   6   3   73.40    2.81
  -3  -6  -3   57.66    2.85
   3   6   3   61.40    2.71
  -4  -6  -3   49.01    2.86
   4   6   3   51.26    2.61
  -5  -6  -3   17.04    2.16
   5   6   3   22.26    2.31
  -6  -6  -3   -0.09    0.90
   6   6   3    0.86    1.14
  -7  -6  -3   -0.92    0.93
   7   6   3   -0.22    1.22
  -8  -6  -3    2.17    1.30
   8   6   3    5.51    1.78
  -9  -6  -3    0.58    1.29
  -8   7   3   -0.45    1.10
   7  -7  -3    4.18    2.71
  -7   7   3    0.77    1.24
  -7   7   3   -3.86    2.12
   6  -7  -3    0.62    2.24
  -6   7   3    0.57    1.06
  -6   7   3   -0.23    1.93
   5  -7  -3   -0.60    1.60
  -5   7   3    0.23    0.97
  -5   7   3   -0.71    1.44
   4  -7  -3   -0.96    1.34
  -4   7   3    0.54    1.55
  -4   7   3    0.08    0.97
   3  -7  -3   -1.20    1.04
  -3   7   3   -0.47    1.02
  -3   7   3    0.03    1.33
   2  -7  -3   -0.04    0.97
   2  -7  -3    0.04    0.60
  -2   7   3   -0.38    0.84
   1  -7  -3    0.27    0.94
   1  -7  -3   -0.03    0.64
  -1   7   3    0.48    0.93
   0  -7  -3    0.66    0.76
   0  -7  -3   -0.60    0.75
   0   7   3   -0.12    0.80
  -1  -7  -3   -0.16    0.82
  -1  -7  -3    0.14    0.76
   1   7   3   -0.08    0.81
  -2  -7  -3    1.32    0.91
   2   7   3   -0.31    0.78
  -3  -7  -3   -0.43    0.95
   3   7   3   -0.21    0.96
  -4  -7  -3   -0.14    1.02
   4   7   3    0.00    0.95
  -5  -7  -3    1.09    1.10
   5   7   3   -0.47    1.21
  -6  -7  -3   -0.92    0.90
   6   7   3   -0.04    1.36
  -7  -7  -3    0.02    1.11
   7   7   3   -0.91    1.32
  -8  -7  -3    2.13    1.54
   8   7   3   -0.04    1.65
   7  -8  -3    8.75    3.39
  -7   8   3    4.95    1.80
   6  -8  -3    5.25    2.91
  -6   8   3    5.19    1.66
   5  -8  -3   16.25    3.38
  -5   8   3   19.92    2.63
   4  -8  -3   15.14    3.00
  -4   8   3   16.34    2.23
   3  -8  -3   39.05    3.66
  -3   8   3   40.00    2.84
   2  -8  -3   16.72    2.36
  -2   8   3   14.83    1.93
   1  -8  -3   39.79    3.00
   1  -8  -3   38.43    1.99
  -1   8   3   39.21    2.47
   0  -8  -3   67.25    2.86
   0  -8  -3   66.12    3.30
   0   8   3   69.73    3.11
  -1  -8  -3   40.06    2.46
  -1  -8  -3   42.46    2.37
   1   8   3   39.52    2.42
  -2  -8  -3   25.37    2.09
   2   8   3   23.92    2.03
  -3  -8  -3   12.12    1.85
   3   8   3   12.67    1.83
  -4  -8  -3   45.73    2.98
   4   8   3   39.42    2.86
  -5  -8  -3   13.21    2.15
   5   8   3   16.12    2.25
  -6  -8  -3    0.33    1.19
   6   8   3   -1.08    1.54
  -7  -8  -3    0.14    1.25
   7   8   3    0.15    1.61
  -8  -8  -3    1.90    1.50
   8   8   3    2.63    2.78
  -7   9   3    2.50    1.55
   6  -9  -3   -0.80    2.61
  -6   9   3    1.40    1.25
   5  -9  -3   -3.17    2.20
  -5   9   3    0.33    1.07
   4  -9  -3   -1.50    2.09
  -4   9   3    1.35    1.15
   3  -9  -3   -1.48    1.48
  -3   9   3   -0.59    1.05
   2  -9  -3    0.51    1.55
  -2   9   3    0.88    1.17
   1  -9  -3   -0.07    0.77
   1  -9  -3    0.98    1.43
  -1   9   3   -1.67    0.92
   0  -9  -3   -1.03    0.68
   0  -9  -3    0.04    1.28
   0   9   3    0.23    1.11
  -1  -9  -3    0.88    1.00
   1   9   3    1.19    1.23
  -2  -9  -3   -0.62    1.01
   2   9   3   -1.30    1.04
  -3  -9  -3    0.18    1.07
   3   9   3    1.70    1.37
  -4  -9  -3   -0.46    1.07
   4   9   3   -1.16    1.12
  -5  -9  -3   -0.18    1.10
   5   9   3   -1.25    1.19
  -6  -9  -3    0.32    1.20
   6   9   3   -0.80    1.57
  -7  -9  -3   -0.19    1.29
   7   9   3   -1.99    1.64
   6 -10  -3    2.34    3.67
  -6  10   3    7.04    1.92
   5 -10  -3    9.09    3.40
  -5  10   3    7.77    1.95
   4 -10  -3   21.50    3.87
  -4  10   3   19.65    2.65
   3 -10  -3   14.58    2.91
  -3  10   3   13.74    2.17
   2 -10  -3   56.41    4.26
  -2  10   3   61.16    3.47
   1 -10  -3  144.98    6.11
  -1  10   3  146.22    5.35
   0 -10  -3   96.29    3.83
   0  10   3   93.77    4.17
  -1 -10  -3   55.39    3.03
   1  10   3   52.67    3.17
  -2 -10  -3   13.12    1.96
   2  10   3   10.01    1.85
  -3 -10  -3   27.08    2.54
   3  10   3   26.31    2.50
  -4 -10  -3    5.88    1.74
   4  10   3    4.39    1.70
  -5 -10  -3    1.75    1.42
   5  10   3   -0.20    1.50
  -6 -10  -3   12.59    2.39
   6  10   3    8.80    2.24
  -7 -10  -3    9.45    2.35
   7  10   3    6.51    2.30
   5 -11  -3   -4.99    2.89
  -5  11   3    0.00    1.27
   4 -11  -3   -1.48    2.31
  -4  11   3    0.19    1.31
   3 -11  -3   -1.52    1.95
  -3  11   3    0.45    1.33
   2 -11  -3   -2.19    1.65
  -2  11   3   -0.15    1.19
  -1  11   3    0.26    1.33
   0  11   3   -0.18    1.37
  -1 -11  -3    0.25    1.07
   1  11   3    1.84    1.53
  -2 -11  -3    0.06    1.08
   2  11   3   -0.05    1.29
  -3 -11  -3    0.17    1.15
   3  11   3    0.04    1.50
  -4 -11  -3   -0.68    1.11
   4  11   3   -0.81    1.39
  -5 -11  -3    3.14    1.66
   5  11   3   -1.05    1.60
  -6 -11  -3    0.50    1.52
   6  11   3   -4.81    1.68
   5 -12  -3   -2.68    3.16
   4 -12  -3    0.89    3.37
  -4  12   3    7.48    2.21
   3 -12  -3    1.70    2.94
  -3  12   3    6.08    1.90
  -1  12   3   17.78    2.57
   0  12   3   12.60    2.25
   1  12   3   10.89    2.24
  -2 -12  -3   16.62    2.31
   2  12   3   16.45    2.45
  -3 -12  -3    8.24    1.97
   3  12   3    8.02    2.04
  -4 -12  -3    2.56    1.50
   4  12   3    0.26    1.59
  -5 -12  -3    2.61    1.61
   5  12   3    0.19    1.68
   6  12   3    2.60    2.07
   4 -13  -3   -5.63    2.96
  -3  13   3    1.99    1.58
  -2  13   3    1.99    1.58
  -1  13   3   -0.02    1.42
   0  13   3   -1.07    1.42
   1  13   3    0.76    1.52
  -2 -13  -3    0.48    1.25
   2  13   3    0.99    1.49
  -3 -13  -3    0.20    1.36
   3  13   3   -0.44    1.58
  -4 -13  -3    2.24    1.59
   4  13   3   -1.16    1.77
   5  13   3   -5.37    1.55
  -1  14   3    1.20    1.61
   0  14   3   12.52    2.52
   1  14   3    0.73    1.68
   2  14   3    3.93    2.07
  -3 -14  -3    1.65    1.51
   3  14   3   -0.12    1.66
  -4 -14  -3    7.21    2.51
   0  13  -4    2.07    1.47
  -1  13  -4    0.86    1.39
  -4 -12   4    1.85    1.68
  -3 -12   4    2.26    1.55
   1  12  -4    1.88    1.46
   0  12  -4    8.47    1.98
  -1  12  -4    2.26    1.52
   1 -12   4   -0.16    2.17
  -2  12  -4    4.64    1.72
   2 -12   4    2.77    3.39
  -3  12  -4   -0.04    1.29
   3 -12   4   -4.28    3.22
  -5 -11   4   -0.45    1.83
  -4 -11   4   -0.06    1.54
  -3 -11   4   -0.37    1.21
  -2 -11   4   -0.23    1.33
   1  11  -4   -0.08    1.23
   0  11  -4    1.16    1.27
   0 -11   4   -0.03    1.95
  -1  11  -4    3.99    1.53
   1 -11   4    1.29    2.30
  -2  11  -4    0.82    1.24
   2 -11   4   -0.72    2.55
  -3  11  -4    0.65    1.49
   3 -11   4   -5.59    2.63
  -4  11  -4    0.97    1.57
   4 -11   4   -5.39    2.86
  -5 -10   4   10.97    2.38
  -4 -10   4    0.79    1.39
  -3 -10   4    2.75    1.40
   2  10  -4    8.38    1.77
  -2 -10   4    9.89    1.94
   1  10  -4    8.56    1.71
  -1 -10   4    8.45    2.10
   0  10  -4    9.93    1.84
   0 -10   4   12.43    2.72
  -1  10  -4    3.11    1.41
   1 -10   4   -0.86    1.97
  -2  10  -4    6.16    1.72
   2 -10   4    7.08    2.98
  -3  10  -4   22.44    2.84
   3 -10   4   20.49    4.04
  -4  10  -4    3.94    1.67
   4 -10   4    2.12    3.17
  -5  10  -4    0.73    1.41
   5 -10   4   -6.73    3.58
  -6  -9   4   -1.51    1.27
  -5  -9   4   -1.17    1.16
  -4  -9   4   -0.81    1.14
  -3  -9   4   -1.07    0.99
   2   9  -4    0.24    1.06
  -2  -9   4    1.11    1.12
  -2  -9   4   -0.43    0.96
   1   9  -4    1.00    1.16
  -1  -9   4    0.54    1.31
  -1  -9   4   -1.08    0.78
   0   9  -4    0.46    1.12
   0  -9   4   -0.55    1.67
  -1   9  -4    0.61    1.11
   1  -9   4   -2.49    1.96
  -2   9  -4    0.53    1.22
   2  -9   4   -1.47    2.12
  -3   9  -4   -0.10    1.13
   3  -9   4   -2.20    2.33
  -4   9  -4    2.28    1.42
   4  -9   4   -3.52    3.01
  -5   9  -4    2.17    1.49
   5  -9   4   -2.87    3.00
  -6   9  -4    1.71    1.84
   6  -9   4   -5.57    3.20
  -7  -8   4    0.80    1.67
  -6  -8   4   11.53    2.39
  -5  -8   4    5.33    1.75
  -4  -8   4    8.40    1.83
   3   8  -4   10.98    1.73
  -3  -8   4   10.13    1.84
  -3  -8   4   11.26    1.89
   2   8  -4    5.32    1.39
  -2  -8   4    2.55    1.15
  -2  -8   4    4.04    1.49
   1   8  -4   18.12    1.99
  -1  -8   4   16.08    2.47
  -1  -8   4   16.58    1.89
   0   8  -4    3.29    1.21
   0  -8   4    3.95    1.05
   0  -8   4    3.28    1.79
  -1   8  -4   15.90    1.99
   1  -8   4   17.28    2.84
  -2   8  -4    5.40    1.46
   2  -8   4    5.02    2.36
  -3   8  -4   51.95    3.40
   3  -8   4   52.01    5.02
  -4   8  -4    5.06    1.64
   4  -8   4    0.39    2.59
  -5   8  -4   26.25    3.17
   5  -8   4   25.86    4.54
  -6   8  -4   -0.07    1.36
   6  -8   4   -6.27    2.80
  -7  -7   4   -0.55    1.30
  -6  -7   4    1.23    1.43
  -5  -7   4   -0.20    1.11
  -4  -7   4   -0.17    1.04
  -4  -7   4    0.93    0.96
   3   7  -4    0.10    0.98
  -3  -7   4   -1.45    0.88
  -3  -7   4    1.05    1.09
   2   7  -4   -0.45    0.95
  -2  -7   4   -0.79    0.84
  -2  -7   4   -0.29    1.11
   1   7  -4    0.15    0.90
  -1  -7   4   -1.04    1.30
  -1  -7   4   -0.56    0.73
   0   7  -4   -0.66    0.99
   0  -7   4   -0.40    0.69
   0  -7   4    0.44    1.65
  -1   7  -4   -1.27    0.83
   1  -7   4   -0.23    1.68
  -2   7  -4   -0.01    1.00
   2  -7   4    0.43    1.87
  -3   7  -4    0.16    1.03
   3  -7   4   -2.25    1.84
  -4   7  -4   -0.20    1.10
   4  -7   4    0.79    2.14
  -5   7  -4   -0.87    0.99
   5  -7   4   -0.45    2.73
  -6   7  -4   -1.60    1.07
   6  -7   4   -1.26    2.88
  -7   7  -4   -0.85    1.25
   7  -7   4   -6.70    3.46
  -8  -6   4    5.18    2.04
  -7  -6   4    2.06    1.45
  -6  -6   4   21.12    2.72
  -5  -6   4    4.20    1.51
  -5  -6   4    4.90    1.44
  -4  -6   4   23.55    2.47
  -4  -6   4   19.43    2.25
   3   6  -4   63.98    2.65
  -3  -6   4   64.47    3.22
  -3  -6   4   64.35    3.67
   2   6  -4   10.66    1.36
  -2  -6   4    8.17    1.60
  -2  -6   4   10.19    1.51
   1   6  -4  117.55    3.74
  -1  -6   4  119.74    4.87
  -1  -6   4  122.94    3.99
   0   6  -4   11.80    1.43
   0  -6   4   12.68    1.33
   0  -6   4   12.11    2.02
  -1   6  -4   12.61    1.58
   1  -6   4   14.68    2.35
   1  -6   4   13.97    1.07
  -2   6  -4    7.15    1.41
   2  -6   4    6.60    2.01
  -3   6  -4   -1.50    0.97
   3  -6   4    1.74    2.01
  -4   6  -4   25.69    2.40
   4  -6   4   26.79    3.47
  -5   6  -4   87.31    4.45
   5  -6   4   86.18    6.01
  -6   6  -4   25.73    2.79
   6  -6   4   40.41    5.65
  -7   6  -4   12.65    2.50
   7  -6   4    8.47    4.54
  -8  -5   4    0.22    1.40
  -7  -5   4    0.23    1.33
  -6  -5   4    0.58    1.23
  -6  -5   4    2.45    1.35
  -5  -5   4    1.09    1.16
  -5  -5   4    0.37    0.87
   4   5  -4   -0.46    0.76
  -4  -5   4   -0.34    0.95
  -4  -5   4    0.02    0.95
   3   5  -4    0.44    0.73
  -3  -5   4    0.50    0.91
  -3  -5   4   -0.15    0.87
   2   5  -4   -0.62    0.63
  -2  -5   4    0.71    0.86
  -2  -5   4   -0.13    0.68
   1   5  -4   -0.53    0.64
  -1  -5   4    0.05    0.95
  -1  -5   4   -0.41    0.56
   0   5  -4    0.22    0.63
   0  -5   4   -0.51    0.46
   0  -5   4    1.30    1.18
  -1   5  -4    0.00    0.75
   1  -5   4   -0.82    1.22
   1  -5   4    0.05    0.45
  -2   5  -4    0.07    0.75
   2  -5   4   -0.91    1.33
  -3   5  -4   -0.52    0.84
   3  -5   4    1.09    1.55
  -4   5  -4   -0.67    0.91
   4  -5   4   -0.05    1.66
  -5   5  -4   -0.22    1.04
   5  -5   4    0.22    1.97
  -6   5  -4    1.29    1.30
   6  -5   4   -2.24    2.47
  -7   5  -4    3.20    1.62
   7  -5   4   -2.15    3.13
  -8   5  -4    0.59    1.57
   8  -5   4   -5.45    3.11
  -8  -4   4   42.62    3.41
  -7  -4   4    4.30    1.62
  -6  -4   4   50.42    3.22
  -6  -4   4   50.33    3.92
  -5  -4   4   32.76    2.96
  -5  -4   4   38.15    2.65
   4   4  -4    6.50    1.00
  -4  -4   4    8.05    1.46
  -4  -4   4    6.38    1.45
   3   4  -4   24.03    1.39
  -3  -4   4   22.07    1.79
  -3  -4   4   23.46    2.13
   2   4  -4   35.83    1.55
  -2  -4   4   34.09    2.33
  -2  -4   4   35.08    1.98
   1   4  -4  404.00    8.53
  -1  -4   4  406.87    9.03
  -1  -4   4  414.74   10.00
   0   4  -4  175.38    4.46
   0  -4   4  173.70    5.62
   0  -4   4  173.68    4.38
  -1   4  -4   10.18    1.23
   1  -4   4    8.01    1.57
   1  -4   4   10.70    0.83
  -2   4  -4   13.68    1.41
   2  -4   4   17.04    2.28
  -3   4  -4    5.07    1.18
   3  -4   4    6.61    1.66
  -4   4  -4    2.61    1.11
   4  -4   4    3.91    1.68
  -5   4  -4   20.58    2.41
   5  -4   4   21.06    3.16
  -6   4  -4   10.78    2.04
   6  -4   4   16.11    3.42
  -7   4  -4   82.02    4.75
   7  -4   4   87.58    6.39
  -8   4  -4    8.35    2.19
   8  -4   4   10.31    4.14
  -9  -3   4    0.19    1.84
  -8  -3   4   -0.08    1.21
  -7  -3   4   -0.03    1.04
  -7  -3   4    0.38    1.35
  -6  -3   4   -0.07    1.01
  -6  -3   4   -0.04    1.03
  -5  -3   4   -0.80    0.87
  -5  -3   4    0.61    0.91
   4   3  -4   -0.32    0.51
  -4  -3   4    1.22    0.94
  -4  -3   4   -0.36    0.73
   3   3  -4   -0.08    0.45
  -3  -3   4    0.49    0.60
  -3  -3   4    0.05    0.69
   2   3  -4   -0.15    0.45
  -2  -3   4    0.19    0.58
  -2  -3   4    0.06    0.75
   1   3  -4    0.49    0.44
  -1  -3   4    1.51    0.82
  -1  -3   4    0.39    0.54
   0   3  -4   -0.47    0.44
   0  -3   4   -0.19    0.41
   0  -3   4    0.35    0.88
  -1   3  -4   -0.43    0.49
   1  -3   4    0.74    0.99
  -2   3  -4   -0.35    0.55
   2  -3   4   -0.26    0.96
  -3   3  -4   -0.32    0.64
   3  -3   4    0.28    1.04
  -4   3  -4   -0.83    0.71
   4  -3   4    1.32    1.42
  -5   3  -4   -0.78    0.97
   5  -3   4   -0.09    1.51
  -6   3  -4   -0.52    0.94
   6  -3   4   -1.13    1.94
  -7   3  -4   -0.87    1.10
   7  -3   4   -0.88    2.57
  -8   3  -4    0.18    1.25
   8  -3   4   -0.66    3.30
   9  -3   4   -1.21    4.37
  -8  -2   4   16.94    3.17
  -8  -2   4   18.55    2.56
  -7  -2   4    2.96    1.31
  -7  -2   4    3.72    1.80
  -6  -2   4   41.65    2.82
  -6  -2   4   41.72    3.67
   5   2  -4   35.84    1.85
  -5  -2   4   35.60    3.09
  -5  -2   4   33.97    2.35
   4   2  -4   82.93    2.59
  -4  -2   4   82.98    4.13
  -4  -2   4   86.13    3.39
   3   2  -4   27.29    1.14
  -3  -2   4   29.68    2.23
  -3  -2   4   23.86    1.65
   2   2  -4  197.24    4.13
  -2  -2   4  198.15    5.77
  -2  -2   4  198.29    5.10
   1   2  -4   68.31    1.78
  -1  -2   4   71.64    2.34
  -1  -2   4   68.76    2.87
   0   2  -4  127.82    3.15
   0  -2   4  129.25    4.09
   0  -2   4  132.03    3.25
  -1   2  -4   40.63    1.75
   1  -2   4   43.32    2.35
  -2   2  -4   17.61    0.81
  -2   2  -4   17.09    1.32
   2  -2   4   18.49    1.86
  -3   2  -4  125.37    4.10
  -3   2  -4  123.98    2.80
   3  -2   4  128.18    4.67
  -4   2  -4   30.08    2.14
   4  -2   4   29.53    2.61
  -5   2  -4    0.48    0.97
   5  -2   4   -0.22    1.24
  -6   2  -4    5.08    1.54
   6  -2   4    3.94    1.97
  -7   2  -4   16.27    2.43
   7  -2   4   26.29    4.17
  -8   2  -4    1.13    1.30
   8  -2   4    0.62    3.05
  -9   2  -4   24.47    3.42
   9  -2   4   33.34    5.66
  -8  -1   4    0.13    1.35
  -7  -1   4   -0.43    1.06
  -7  -1   4   -0.68    1.17
  -6  -1   4   -1.21    0.75
  -6  -1   4    0.64    1.13
  -5  -1   4   -0.48    0.58
  -5  -1   4    0.87    0.94
  -5  -1   4   -0.92    0.89
  -4  -1   4   -0.20    0.82
  -4  -1   4   -0.27    0.47
  -4  -1   4   -0.39    0.67
   3   1  -4    0.08    0.32
  -3  -1   4    0.05    0.56
  -3  -1   4   -0.11    0.58
   2   1  -4   -0.21    0.21
  -2  -1   4   -0.37    0.57
  -2  -1   4    0.11    0.53
   1   1  -4   -0.49    0.20
  -1  -1   4   -0.37    0.56
  -1  -1   4   -0.26    0.48
   0   1  -4   -0.07    0.32
   0  -1   4    0.05    0.74
  -1   1  -4   -0.18    0.45
   1  -1   4    0.51    0.77
  -2   1  -4    0.43    0.38
  -2   1  -4   -0.01    0.51
   2  -1   4    0.29    0.83
  -3   1  -4   -0.44    0.29
  -3   1  -4   -0.22    0.56
   3  -1   4    0.27    0.78
  -4   1  -4    0.11    0.39
  -4   1  -4   -0.74    0.61
   4  -1   4   -0.49    0.92
   5  -1   4    1.01    1.18
  -6   1  -4   -0.23    0.88
   6  -1   4    0.97    1.57
  -7   1  -4    0.23    1.12
   7  -1   4   -2.53    1.52
  -8   1  -4   -0.34    1.30
   8  -1   4   -0.92    2.25
  -9   1  -4    0.03    1.46
  -9   0   4    0.88    2.05
  -8   0   4   10.48    2.64
  -7   0   4   -0.25    1.03
  -7   0   4    0.46    1.48
  -6   0   4   61.12    2.96
  -6   0   4   53.98    4.19
  -5   0   4    4.39    1.09
  -5   0   4    4.36    0.93
  -5   0   4    5.26    1.53
  -4   0   4    4.52    1.02
  -4   0   4    6.03    0.86
  -4   0   4    6.03    1.46
  -3   0   4   39.74    1.49
  -3   0   4   42.47    1.92
  -3   0   4   44.69    2.69
  -2   0   4  298.09    5.87
  -2   0   4  294.01    7.63
  -2   0   4  307.76    6.67
  -1   0   4    7.72    1.04
   0   0  -4  797.95   14.74
   0   0   4  782.13   15.64
  -1   0  -4    1.80    0.57
  -1   0  -4    2.63    0.61
   1   0   4    1.71    0.75
  -2   0  -4  200.54    4.38
  -2   0  -4  202.41    4.99
   2   0   4  190.04    5.08
  -3   0  -4    9.67    0.81
  -3   0  -4    7.54    1.08
   3   0   4    7.97    1.18
  -4   0  -4   82.43    3.29
  -4   0  -4   81.60    2.58
   4   0   4   79.06    3.57
  -5   0  -4    2.14    1.00
  -5   0  -4    1.54    0.69
   5   0   4    1.86    1.08
  -6   0  -4   25.07    2.28
   6   0   4   19.78    2.64
  -7   0  -4    6.68    1.66
   7   0   4   12.16    2.46
  -8   0  -4    5.06    1.77
   8   0   4   10.05    2.93
  -9   0  -4    1.80    1.55
  -9   1   4    0.88    2.00
  -8   1   4   -0.18    1.51
  -7   1   4    0.21    1.29
  -6   1   4   -0.41    0.69
  -6   1   4    0.37    1.22
  -6   1   4   -0.09    0.89
  -5   1   4   -0.28    0.64
  -5   1   4   -0.16    0.60
  -5   1   4    0.49    1.04
  -4   1   4    0.00    0.70
  -4   1   4   -0.21    0.46
  -4   1   4    0.59    0.97
  -3   1   4   -0.29    0.71
  -3   1   4   -0.15    0.50
  -3   1   4    0.17    0.37
  -2   1   4    0.10    0.63
  -2   1   4   -0.21    0.26
  -1   1   4   -0.52    0.52
  -1   1   4   -0.20    0.22
   0   1   4    0.03    0.45
   0   1   4   -0.37    0.26
  -1  -1  -4   -0.55    0.38
  -1  -1  -4   -0.34    0.53
   1   1   4   -0.30    0.60
  -2  -1  -4   -0.70    0.48
  -2  -1  -4    0.17    0.52
   2   1   4    0.53    0.56
  -3  -1  -4   -0.45    0.45
  -3  -1  -4   -0.47    0.53
   3   1   4   -0.15    0.54
  -4  -1  -4   -0.03    0.65
  -4  -1  -4   -0.24    0.52
   4   1   4   -0.22    0.58
  -5  -1  -4   -1.02    0.70
  -5  -1  -4    0.51    0.67
   5   1   4    0.34    0.88
  -6  -1  -4   -0.04    0.69
  -6  -1  -4    1.04    1.03
   6   1   4   -0.29    1.02
  -7  -1  -4    0.87    1.16
   7   1   4    0.53    1.26
  -8  -1  -4   -0.63    1.06
  -9  -1  -4   -0.16    1.35
  -8   2   4    3.92    2.11
  -7   2   4   12.15    2.76
  -6   2   4    8.73    2.13
  -6   2   4   11.57    1.62
  -5   2   4    8.98    2.00
  -5   2   4    7.53    1.21
  -4   2   4   81.17    4.32
  -4   2   4   77.22    2.79
  -3   2   4   67.76    3.58
  -3   2   4   75.53    2.43
  -2   2   4  152.77    3.58
  -2   2   4  142.94    4.97
  -1   2   4   48.08    1.43
  -1   2   4   45.83    2.17
   0  -2  -4  294.78    6.19
   0   2   4  298.02    5.98
   0   2   4  292.48    6.40
  -1  -2  -4  300.63    6.39
   1   2   4  298.92    6.32
   1   2   4  294.59    5.99
  -2  -2  -4  112.37    3.25
  -2  -2  -4  110.91    3.12
   2   2   4  112.11    2.83
   3   2   4   23.56    1.43
  -4  -2  -4    3.75    0.83
  -4  -2  -4    3.28    0.93
   4   2   4    4.02    0.88
  -5  -2  -4   30.83    2.20
  -5  -2  -4   30.34    2.33
  -5  -2  -4   31.61    1.94
   5   2   4   33.29    2.32
  -6  -2  -4   10.47    1.76
  -6  -2  -4   12.41    1.83
  -6  -2  -4   12.96    1.66
   6   2   4   13.37    1.88
  -7  -2  -4    3.80    1.37
  -8  -2  -4   14.27    2.29
  -9  -2  -4    0.75    1.36
  -8   3   4   -0.08    2.03
  -7   3   4    1.00    1.73
  -6   3   4   -0.01    0.76
  -6   3   4    0.32    1.27
  -5   3   4   -0.92    0.62
  -5   3   4    0.52    1.26
  -4   3   4    0.97    1.01
  -4   3   4   -0.09    0.51
  -3   3   4   -0.06    0.81
  -3   3   4    0.39    0.51
  -2   3   4    0.09    0.66
  -2   3   4    0.48    0.47
   1  -3  -4    0.57    0.70
  -1   3   4   -0.04    0.58
  -1   3   4   -0.35    0.38
   0  -3  -4    0.30    0.66
   0   3   4    0.51    0.45
   0   3   4   -0.19    0.42
  -1  -3  -4   -0.02    0.50
   1   3   4    0.01    0.23
   1   3   4   -0.17    0.42
  -2  -3  -4   -0.34    0.57
   2   3   4    0.07    0.27
   2   3   4   -0.15    0.46
  -3  -3  -4   -0.25    0.57
   3   3   4    0.12    0.55
   3   3   4   -0.24    0.35
  -4  -3  -4   -0.73    0.60
  -4  -3  -4   -0.49    0.53
   4   3   4   -0.26    0.46
   4   3   4   -0.46    0.62
  -5  -3  -4   -1.21    0.61
  -5  -3  -4    0.77    0.89
  -5  -3  -4    0.65    0.86
   5   3   4   -0.35    0.67
  -6  -3  -4   -0.67    0.68
  -6  -3  -4   -0.74    0.88
  -7  -3  -4    0.15    0.86
  -7  -3  -4   -0.01    1.06
   7   3   4    1.98    0.84
  -7   4   4   23.08    3.74
  -7   4   4   25.11    2.68
  -6   4   4    7.54    1.48
  -6   4   4    7.21    2.25
  -5   4   4   14.65    2.58
  -5   4   4   20.47    1.81
  -4   4   4   38.85    2.19
  -4   4   4   39.15    3.37
  -3   4   4   42.89    2.10
  -3   4   4   40.75    2.94
   2  -4  -4  242.02    5.46
  -2   4   4  244.53    5.82
  -2   4   4  251.79    7.20
   1  -4  -4  392.68    8.13
  -1   4   4  394.38    9.26
  -1   4   4  389.75    8.27
   0  -4  -4  135.87    3.61
   0   4   4  128.65    3.67
   0   4   4  135.05    3.52
  -1  -4  -4  456.85    9.69
  -1  -4  -4  455.28    8.73
   1   4   4  463.40    9.56
  -2  -4  -4  252.47    6.14
   2   4   4  250.95    5.99
  -3  -4  -4  102.23    3.50
   3   4   4   98.59    3.35
   3   4   4  102.10    2.52
  -4  -4  -4   68.58    2.54
  -4  -4  -4   70.70    3.00
   4   4   4   68.57    2.90
   4   4   4   72.05    2.52
  -5  -4  -4   13.11    1.72
   5   4   4   14.55    1.79
  -6  -4  -4    0.21    0.85
   6   4   4    0.17    0.97
  -7  -4  -4    4.63    1.36
   7   4   4    9.07    1.73
  -8  -4  -4   11.60    1.95
   8   4   4   21.22    2.60
   9   4   4   16.94    1.68
  -7   5   4    0.32    0.92
  -7   5   4   -0.56    1.74
   6  -5  -4    3.08    1.50
  -6   5   4    0.51    0.97
  -6   5   4    0.35    1.60
   5  -5  -4   -0.24    1.07
  -5   5   4    0.03    0.90
  -5   5   4   -0.32    1.34
  -4   5   4   -0.32    0.73
  -4   5   4    0.44    1.28
   3  -5  -4    0.32    0.79
  -3   5   4   -0.22    0.65
  -3   5   4   -0.73    0.88
   2  -5  -4   -0.01    0.67
  -2   5   4   -0.36    0.78
  -2   5   4   -0.76    0.53
   1  -5  -4   -0.11    0.55
   1  -5  -4    0.44    0.70
  -1   5   4    0.24    0.74
  -1   5   4   -0.56    0.53
   0  -5  -4   -0.46    0.59
   0  -5  -4   -0.16    0.47
   0   5   4   -0.55    0.54
   0   5   4   -0.08    0.59
  -1  -5  -4   -0.06    0.38
  -1  -5  -4   -0.15    0.64
   1   5   4   -0.20    0.55
  -2  -5  -4    0.09    0.69
   2   5   4   -0.01    0.57
  -3  -5  -4   -0.07    0.19
  -3  -5  -4    0.71    0.83
   3   5   4   -0.03    0.60
  -4  -5  -4   -0.81    0.74
   4   5   4    0.14    0.76
  -5  -5  -4    0.79    0.98
   5   5   4   -0.58    0.98
  -6  -5  -4   -0.11    0.83
   6   5   4    0.84    1.13
  -7  -5  -4    0.96    1.06
   7   5   4    0.14    1.19
  -8  -5  -4    0.15    0.94
   8   5   4    3.40    1.62
   9   5   4   10.93    1.86
   8  -6  -4   18.10    3.34
   7  -6  -4   11.86    3.01
  -7   6   4    4.57    2.54
  -7   6   4    6.74    1.71
   6  -6  -4    5.53    2.32
  -6   6   4    1.61    1.80
  -6   6   4    0.37    1.08
   5  -6  -4    8.86    2.31
  -5   6   4    6.70    2.19
  -5   6   4    7.64    1.59
   4  -6  -4    1.84    1.46
  -4   6   4    2.10    1.69
  -4   6   4    2.47    1.15
   3  -6  -4   20.13    1.45
   3  -6  -4   18.24    2.33
  -3   6   4   19.90    2.59
  -3   6   4   17.39    1.83
   2  -6  -4   69.20    3.51
   2  -6  -4   68.51    2.41
  -2   6   4   68.57    2.83
  -2   6   4   69.14    3.69
   1  -6  -4    5.94    1.12
   1  -6  -4    6.52    0.95
  -1   6   4    5.95    1.21
  -1   6   4    8.10    1.17
   0  -6  -4   16.65    1.36
   0  -6  -4   18.09    1.51
   0   6   4   19.74    1.52
  -1  -6  -4  127.43    3.41
  -1  -6  -4  130.19    3.97
   1   6   4  129.78    3.91
  -2  -6  -4   81.50    1.96
  -2  -6  -4   81.15    3.19
   2   6   4   79.72    2.99
  -3  -6  -4   62.24    3.01
   3   6   4   69.00    2.85
  -4  -6  -4   60.24    3.15
   4   6   4   61.95    2.89
  -5  -6  -4   18.05    2.20
   5   6   4   20.71    2.03
  -6  -6  -4   14.20    2.10
   6   6   4   15.70    2.18
  -7  -6  -4    8.74    1.85
   7   6   4   11.84    2.17
  -8  -6  -4    3.63    1.48
   8   6   4    4.92    1.79
  -9  -6  -4    2.72    1.51
   9   6   4    8.61    2.12
   7  -7  -4    6.34    2.86
  -7   7   4    1.81    1.20
  -7   7   4   -0.99    2.14
   6  -7  -4    2.81    2.35
  -6   7   4   -0.20    1.07
  -6   7   4    0.43    1.97
   5  -7  -4    0.93    1.84
  -5   7   4   -1.22    1.45
  -5   7   4    0.57    0.95
   4  -7  -4   -1.27    1.39
  -4   7   4    0.60    0.93
  -4   7   4    1.15    1.54
   3  -7  -4   -0.73    1.07
  -3   7   4   -0.71    0.98
  -3   7   4    1.06    1.39
   2  -7  -4    0.44    0.74
   2  -7  -4   -0.17    0.89
  -2   7   4   -0.22    1.22
  -2   7   4    0.53    0.89
   1  -7  -4   -0.27    0.69
   1  -7  -4   -0.50    0.82
  -1   7   4   -0.02    0.79
   0  -7  -4   -0.63    0.68
   0  -7  -4   -0.26    0.63
   0   7   4    0.44    0.83
  -1  -7  -4   -0.01    0.70
  -1  -7  -4   -1.00    0.67
   1   7   4   -0.56    0.70
  -2  -7  -4   -0.37    0.84
   2   7   4    0.48    0.83
  -3  -7  -4   -0.61    0.87
   3   7   4   -0.46    0.80
  -4  -7  -4   -0.02    1.04
   4   7   4    0.08    0.96
  -5  -7  -4    1.16    1.14
   5   7   4   -0.03    1.09
  -6  -7  -4    0.14    1.08
   6   7   4    0.49    1.24
  -7  -7  -4    0.28    1.13
   7   7   4    0.25    1.46
  -8  -7  -4    0.09    1.18
   8   7   4    0.06    1.53
   7  -8  -4    7.03    3.36
  -7   8   4    4.06    1.59
   6  -8  -4    0.92    2.22
  -6   8   4   -0.64    1.88
  -6   8   4    2.39    1.37
   5  -8  -4   29.32    4.20
  -5   8   4   15.77    3.10
  -5   8   4   19.81    2.56
   4  -8  -4   28.20    3.88
  -4   8   4   20.45    2.17
  -4   8   4   21.22    3.11
   3  -8  -4    9.55    2.14
  -3   8   4   12.85    1.98
   2  -8  -4   37.89    3.10
  -2   8   4   42.77    2.63
   1  -8  -4   84.82    3.05
   1  -8  -4   84.63    4.00
  -1   8   4   81.85    3.58
   0  -8  -4    5.42    1.25
   0  -8  -4    4.85    1.23
   0   8   4    5.06    1.29
  -1  -8  -4   65.59    3.01
   1   8   4   72.03    3.14
  -2  -8  -4    5.85    1.40
   2   8   4    5.66    1.32
  -3  -8  -4   17.48    2.13
   3   8   4   18.55    2.04
  -4  -8  -4   10.19    1.85
   4   8   4   11.52    1.89
  -5  -8  -4    0.61    1.18
   5   8   4    0.99    1.35
  -6  -8  -4   21.82    2.79
   6   8   4   26.39    2.94
  -7  -8  -4    3.80    1.60
   7   8   4    6.39    2.22
  -8  -8  -4    9.13    2.13
   8   8   4    9.50    2.44
  -7   9   4    1.57    1.42
   6  -9  -4    0.59    2.66
  -6   9   4    1.32    1.29
   5  -9  -4   -1.34    2.04
  -5   9   4    1.34    1.36
   4  -9  -4   -0.55    1.83
  -4   9   4   -0.42    1.00
   3  -9  -4   -0.21    1.44
  -3   9   4   -0.03    1.08
   2  -9  -4   -0.24    1.23
  -2   9   4    0.07    1.07
   1  -9  -4    0.64    0.83
   1  -9  -4   -0.63    1.20
  -1   9   4    0.82    1.16
   0  -9  -4   -0.15    0.93
   0  -9  -4   -0.52    1.19
   0   9   4   -0.26    1.11
  -1  -9  -4    0.25    0.95
   1   9   4   -0.32    1.08
  -2  -9  -4   -1.22    0.92
   2   9   4   -0.77    1.06
  -3  -9  -4    0.39    1.16
   3   9   4    0.64    1.14
  -4  -9  -4   -0.05    0.83
   4   9   4   -1.04    1.15
  -5  -9  -4   -0.86    1.09
   5   9   4   -2.67    1.48
  -6  -9  -4    0.14    1.21
   6   9   4   -1.67    1.75
  -7  -9  -4    1.75    1.41
   7   9   4   -3.28    1.82
   8   9   4   -1.83    1.77
   6 -10  -4    1.81    2.94
  -6  10   4    1.83    1.29
   5 -10  -4    7.21    3.15
  -5  10   4    4.37    1.77
   4 -10  -4   18.30    3.53
  -4  10   4   16.16    2.45
   3 -10  -4   71.92    5.30
  -3  10   4   65.45    3.76
   2 -10  -4   19.63    2.75
  -2  10   4   22.81    2.55
   1 -10  -4   10.38    2.08
  -1  10   4   12.59    2.00
   0 -10  -4   27.67    2.19
   0  10   4   29.14    2.68
  -1 -10  -4   37.65    2.55
   1  10   4   39.83    2.80
  -2 -10  -4   21.03    2.40
   2  10   4   16.51    2.18
  -3 -10  -4   32.85    2.74
   3  10   4   32.72    2.70
  -4 -10  -4   30.66    2.80
   4  10   4   33.52    2.88
  -5 -10  -4   15.32    2.51
   5  10   4   16.47    2.67
  -6 -10  -4    0.77    1.32
   6  10   4    0.79    1.92
  -7 -10  -4    1.24    1.47
   7  10   4   -1.86    2.13
   5 -11  -4   -2.44    2.69
  -5  11   4    0.48    1.24
   4 -11  -4   -2.53    2.08
  -4  11   4    1.39    1.31
   3 -11  -4   -1.48    2.18
  -3  11   4    1.47    1.41
   2 -11  -4   -2.27    1.67
  -2  11   4   -1.12    1.08
  -1  11   4   -0.03    1.35
   0  11   4   -0.52    1.23
  -1 -11  -4    0.57    1.05
   1  11   4    0.90    1.33
  -2 -11  -4    2.14    1.38
   2  11   4   -0.11    1.27
  -3 -11  -4   -0.14    1.14
   3  11   4   -2.22    1.24
  -4 -11  -4    0.87    1.38
   4  11   4   -1.53    1.34
  -5 -11  -4   -0.74    1.22
   5  11   4   -1.31    1.57
  -6 -11  -4   -0.70    1.20
   6  11   4   -1.27    1.74
   7  11   4   -0.30    1.94
   5 -12  -4   -6.07    2.46
   4 -12  -4   -3.87    2.71
  -4  12   4    3.27    1.59
   3 -12  -4    6.59    3.00
  -3  12   4    7.56    2.05
  -2  12   4    7.03    1.98
  -1  12   4   29.59    2.90
   0  12   4   25.03    2.86
  -1 -12  -4   17.41    2.33
   1  12   4   14.62    2.35
  -2 -12  -4    8.49    1.81
   2  12   4    3.85    1.74
  -3 -12  -4    2.84    1.48
   3  12   4    3.31    1.83
  -4 -12  -4    8.93    2.03
   4  12   4    7.86    2.20
  -5 -12  -4    9.74    2.32
   5  12   4    9.56    2.34
   6  12   4    7.71    2.66
   4 -13  -4   -7.01    3.06
  -3  13   4    3.16    1.69
  -2  13   4    0.91    1.48
  -1  13   4   -0.08    1.42
   0  13   4    2.04    1.77
   1  13   4   -1.69    1.35
  -2 -13  -4    1.81    1.30
   2  13   4    0.63    1.60
  -3 -13  -4    0.00    1.25
   3  13   4   -2.26    1.41
  -4 -13  -4    1.18    1.37
   4  13   4   -1.69    1.52
   5  13   4   -2.16    1.75
  -1  14   4    2.89    1.81
   0  14   4    3.17    1.90
   1  14   4    1.86    1.79
   2  14   4    1.16    1.69
  -3 -14  -4    5.93    1.96
   3  14   4    5.55    2.17
  -4 -14  -4    0.86    1.63
   0  12  -5    3.67    1.62
  -1  12  -5    1.39    1.36
   1 -12   5    0.78    2.59
  -2  12  -5    9.87    2.25
   2 -12   5    5.74    3.16
  -4 -11   5    1.16    1.56
  -3 -11   5    0.19    1.40
   1  11  -5   -0.07    1.79
   0  11  -5    1.29    1.24
   0 -11   5    0.21    2.00
  -1  11  -5    1.33    1.39
   1 -11   5    7.05    2.92
  -2  11  -5    0.02    1.32
   2 -11   5   -2.45    2.56
  -3  11  -5    2.47    1.63
   3 -11   5   -5.15    2.96
  -4  11  -5    0.50    1.67
   4 -11   5   -7.09    5.47
  -5 -10   5    4.86    1.99
  -4 -10   5    1.06    1.46
  -3 -10   5   12.62    2.23
  -2 -10   5    2.73    1.40
   1  10  -5   27.85    2.62
  -1 -10   5   31.66    3.75
   0  10  -5   11.08    2.00
   0 -10   5   10.66    2.70
  -1  10  -5   48.43    3.30
   1 -10   5   53.58    5.14
  -2  10  -5   25.43    2.61
   2 -10   5   22.20    4.03
  -3  10  -5    0.26    1.22
   3 -10   5    0.45    2.77
  -4  10  -5    0.41    1.31
   4 -10   5   -1.57    2.82
  -5  10  -5    5.97    3.26
  -6  -9   5   -0.48    1.62
  -5  -9   5   -0.34    1.29
  -4  -9   5   -0.26    1.22
  -3  -9   5    1.22    1.26
  -2  -9   5    1.69    1.29
  -2  -9   5   -0.50    0.96
   1   9  -5    0.22    1.08
  -1  -9   5   -2.20    0.83
  -1  -9   5    1.27    1.57
   0   9  -5    0.75    1.07
   0  -9   5    0.42    1.63
  -1   9  -5    1.37    1.16
   1  -9   5   -0.26    2.15
  -2   9  -5    0.34    1.06
   2  -9   5   -2.12    2.21
  -3   9  -5    0.29    1.13
   3  -9   5   -2.84    2.34
  -4   9  -5    1.24    1.30
   4  -9   5   -2.49    2.77
   5  -9   5    8.10    4.11
  -6  -8   5    1.09    1.59
  -5  -8   5    3.74    1.63
  -4  -8   5    5.92    1.73
  -3  -8   5    2.13    1.29
  -3  -8   5    2.98    1.32
   2   8  -5    3.05    1.19
  -2  -8   5    3.95    1.31
  -2  -8   5    4.71    1.50
   1   8  -5   12.06    1.65
  -1  -8   5   13.90    2.34
  -1  -8   5   11.43    1.65
   0   8  -5   -0.20    0.93
   0  -8   5   -0.64    1.06
   0  -8   5   -0.48    1.66
  -1   8  -5   89.90    3.95
   1  -8   5   86.31    5.42
  -2   8  -5   56.45    3.37
   2  -8   5   55.02    5.04
  -3   8  -5   57.70    3.53
   3  -8   5   63.35    5.52
  -4   8  -5   22.02    2.75
   4  -8   5   24.91    4.39
  -5   8  -5   11.55    2.34
   5  -8   5    7.95    3.53
  -6   8  -5    3.90    1.68
   6  -8   5   -0.41    3.30
  -7  -7   5   -0.91    1.41
  -6  -7   5   -1.20    1.21
  -5  -7   5    0.04    1.24
  -4  -7   5   -0.15    1.14
  -4  -7   5    0.67    0.99
  -3  -7   5   -0.04    0.97
  -3  -7   5   -0.38    1.00
   2   7  -5   -0.10    0.95
  -2  -7   5    0.08    1.03
  -2  -7   5    0.32    1.00
   1   7  -5   -0.66    0.95
  -1  -7   5   -0.42    1.24
  -1  -7   5    0.23    0.83
   0   7  -5   -0.49    0.97
   0  -7   5    0.30    1.75
   0  -7   5   -0.03    0.65
  -1   7  -5    0.45    1.08
   1  -7   5    0.37    2.06
  -2   7  -5    0.91    1.08
   2  -7   5    0.94    1.97
  -3   7  -5    0.13    1.02
   3  -7   5   -0.22    2.03
  -4   7  -5    0.46    1.14
   4  -7   5   -1.48    2.13
  -5   7  -5    0.14    1.34
   5  -7   5   -2.51    2.38
  -6   7  -5    0.71    1.45
   6  -7   5   -0.80    2.80
  -7   7  -5    1.21    1.58
   7  -7   5   12.57    4.58
  -7  -6   5    2.08    1.75
  -6  -6   5    3.06    1.61
  -5  -6   5    6.32    1.70
  -5  -6   5    7.52    1.78
  -4  -6   5    7.46    1.72
  -4  -6   5    5.51    1.52
  -3  -6   5    3.61    1.28
  -3  -6   5    3.25    1.29
   2   6  -5   26.00    1.84
  -2  -6   5   24.08    2.50
  -2  -6   5   25.81    2.03
   1   6  -5    5.28    1.05
  -1  -6   5    4.15    1.55
  -1  -6   5    5.55    1.24
   0   6  -5    1.97    0.94
   0  -6   5    1.63    1.51
   0  -6   5    1.70    0.81
  -1   6  -5   15.97    1.68
   1  -6   5   15.59    2.54
   1  -6   5   16.10    1.21
  -2   6  -5   12.78    1.74
   2  -6   5   12.77    2.50
  -3   6  -5   97.93    4.29
   3  -6   5  108.98    5.90
  -4   6  -5   85.97    4.22
   4  -6   5   81.99    5.60
  -5   6  -5   51.06    3.48
   5  -6   5   46.14    5.10
  -6   6  -5   18.72    2.73
   6  -6   5   26.49    4.46
  -7   6  -5    4.15    1.80
   7  -6   5    0.84    3.47
  -8  -5   5   -0.64    1.41
  -7  -5   5   -1.99    1.05
  -6  -5   5   -1.24    1.13
  -6  -5   5   -0.74    0.94
  -5  -5   5   -0.07    1.04
  -5  -5   5   -0.39    0.93
  -4  -5   5    0.37    1.03
  -4  -5   5   -0.31    0.94
   3   5  -5    0.04    0.76
  -3  -5   5   -0.14    0.90
  -3  -5   5    0.30    0.92
   2   5  -5    0.31    0.66
  -2  -5   5   -0.46    0.72
  -2  -5   5   -0.10    0.91
   1   5  -5   -0.36    0.67
  -1  -5   5   -0.18    0.68
  -1  -5   5   -0.51    1.03
   0   5  -5   -0.10    0.72
   0  -5   5    0.05    1.19
   0  -5   5   -0.17    0.60
  -1   5  -5    0.04    0.73
   1  -5   5    0.49    1.38
   1  -5   5   -0.55    0.50
  -2   5  -5    0.15    0.81
   2  -5   5    0.33    1.54
  -3   5  -5   -0.73    0.89
   3  -5   5   -0.24    1.65
  -4   5  -5   -0.83    0.90
   4  -5   5    1.66    1.86
  -5   5  -5    0.58    1.12
   5  -5   5   -2.53    2.09
  -6   5  -5    1.78    1.51
   6  -5   5   -1.88    2.67
  -7   5  -5    3.17    1.65
   7  -5   5   -2.57    2.99
  -8   5  -5    0.09    1.51
   8  -5   5   -8.47    3.52
  -8  -4   5   12.43    2.39
  -7  -4   5    2.03    1.46
  -7  -4   5    1.79    1.58
  -6  -4   5    4.58    1.71
  -6  -4   5    5.97    1.65
  -5  -4   5    5.43    1.54
  -5  -4   5    6.66    1.59
  -4  -4   5   21.13    2.37
  -4  -4   5   19.97    2.00
   3   4  -5   49.51    1.92
  -3  -4   5   48.23    3.20
  -3  -4   5   50.69    2.68
   2   4  -5   33.86    1.53
  -2  -4   5   30.44    1.95
  -2  -4   5   33.47    2.48
   1   4  -5   49.65    1.93
  -1  -4   5   49.78    3.03
  -1  -4   5   47.42    2.18
   0   4  -5   51.65    2.13
   0  -4   5   52.26    3.07
   0  -4   5   53.60    2.10
  -1   4  -5   22.49    1.56
   1  -4   5   24.80    2.53
  -2   4  -5   51.62    2.55
   2  -4   5   52.14    3.42
  -3   4  -5   10.86    1.58
   3  -4   5   12.45    2.16
  -4   4  -5   16.32    2.03
   4  -4   5   18.08    2.61
  -5   4  -5   66.32    3.70
   5  -4   5   64.06    4.85
  -6   4  -5   37.89    3.21
   6  -4   5   36.34    4.64
  -7   4  -5    4.05    1.77
   7  -4   5   -0.45    2.98
  -8   4  -5    2.12    1.66
   8  -4   5   -5.73    3.11
  -9  -3   5    1.07    1.57
  -8  -3   5   -0.02    1.36
  -7  -3   5    0.19    1.25
  -7  -3   5    0.71    1.19
  -6  -3   5    0.43    1.13
  -6  -3   5   -1.11    0.94
  -5  -3   5    0.51    1.03
  -5  -3   5   -0.60    0.92
  -4  -3   5   -0.58    0.76
  -4  -3   5   -0.21    0.90
   3   3  -5   -0.20    0.47
  -3  -3   5   -0.05    0.88
  -3  -3   5    0.07    0.76
   2   3  -5    0.59    0.45
  -2  -3   5   -0.36    0.71
  -2  -3   5    0.00    0.64
   1   3  -5   -0.13    0.41
  -1  -3   5   -0.60    0.51
  -1  -3   5   -0.72    0.77
   0   3  -5   -0.35    0.47
   0  -3   5    0.18    0.92
   0  -3   5   -0.34    0.46
  -1   3  -5   -0.65    0.47
   1  -3   5    0.02    1.05
  -2   3  -5    0.55    0.66
   2  -3   5    0.57    1.10
  -3   3  -5    0.11    0.71
   3  -3   5    0.25    1.16
  -4   3  -5    0.63    0.89
   4  -3   5   -0.13    1.47
  -5   3  -5    0.86    1.06
   5  -3   5   -1.52    1.51
  -6   3  -5   -0.03    1.07
   6  -3   5   -0.71    2.19
  -7   3  -5    0.63    1.22
   7  -3   5   -4.57    2.60
  -8   3  -5    0.06    1.23
   8  -3   5   -0.14    3.09
   9  -3   5   -5.66    3.21
  -8  -2   5    4.82    1.66
  -8  -2   5    5.16    2.07
  -7  -2   5    4.18    1.78
  -7  -2   5    5.40    1.66
  -6  -2   5   27.15    3.19
  -6  -2   5   29.56    2.42
  -5  -2   5    1.96    1.14
  -5  -2   5    0.99    1.10
   4   2  -5   68.03    2.16
  -4  -2   5   70.07    3.11
  -4  -2   5   70.73    3.95
   3   2  -5   61.45    1.78
  -3  -2   5   64.05    2.73
  -3  -2   5   63.42    3.41
   2   2  -5    7.10    0.59
  -2  -2   5    7.39    1.07
  -2  -2   5    6.80    1.26
   1   2  -5   94.53    2.31
  -1  -2   5   94.23    2.94
  -1  -2   5   96.21    3.65
   0   2  -5   97.12    2.63
   0  -2   5   95.89    3.61
  -1   2  -5  332.23    7.34
   1  -2   5  328.71    8.26
  -2   2  -5  131.19    3.09
  -2   2  -5  131.13    3.96
   2  -2   5  134.13    4.66
  -3   2  -5   11.09    1.41
  -3   2  -5    7.97    0.67
   3  -2   5    9.68    1.61
  -4   2  -5  128.03    4.63
   4  -2   5  130.93    5.36
  -5   2  -5   50.44    3.08
   5  -2   5   44.93    3.71
  -6   2  -5   18.25    2.39
   6  -2   5   22.62    3.47
  -7   2  -5    3.68    1.53
   7  -2   5    8.31    3.42
  -8   2  -5    5.67    2.01
   8  -2   5   11.60    4.09
  -9   2  -5    0.76    2.38
   9  -2   5   -6.31    3.26
  -9  -1   5   -0.07    1.64
  -8  -1   5   -1.28    1.38
  -8  -1   5   -0.49    1.25
  -7  -1   5    1.54    1.45
  -7  -1   5   -0.29    1.15
  -6  -1   5    0.73    1.20
  -6  -1   5    1.76    1.06
  -5  -1   5    0.80    0.92
  -5  -1   5   -0.41    0.92
   4   1  -5    0.51    0.42
  -4  -1   5   -0.91    0.74
  -4  -1   5    0.09    0.81
   3   1  -5   -0.22    0.28
  -3  -1   5   -0.28    0.47
  -3  -1   5    0.06    0.72
   2   1  -5   -0.03    0.21
  -2  -1   5   -0.51    0.57
  -2  -1   5    0.03    0.56
   1   1  -5   -0.18    0.19
  -1  -1   5   -0.40    0.57
  -1  -1   5   -0.48    0.50
   0   1  -5   -0.04    0.34
   0  -1   5   -0.71    0.74
  -1   1  -5   -0.25    0.45
   1  -1   5   -0.14    0.82
  -2   1  -5   -0.58    0.47
  -2   1  -5   -0.26    0.41
   2  -1   5   -0.26    0.81
  -3   1  -5   -0.30    0.57
  -3   1  -5    0.10    0.39
   3  -1   5    0.60    0.89
  -4   1  -5   -1.23    0.64
  -4   1  -5    0.15    0.40
   4  -1   5   -0.21    1.06
  -5   1  -5    0.17    0.90
   5  -1   5   -0.45    1.26
  -6   1  -5   -0.58    0.88
   6  -1   5   -0.43    1.60
  -7   1  -5   -0.46    1.01
   7  -1   5   -0.77    1.81
  -8   1  -5    0.65    1.25
   8  -1   5   -3.59    2.71
  -9   1  -5    0.81    1.64
  -9   0   5    0.53    1.70
  -8   0   5    4.98    2.20
  -7   0   5    0.77    1.58
  -7   0   5    1.93    1.19
  -6   0   5   15.92    2.70
  -6   0   5   18.22    1.82
  -5   0   5    2.87    1.37
  -5   0   5    4.86    1.17
  -4   0   5  113.83    3.77
  -4   0   5  106.97    3.13
  -4   0   5  114.38    5.16
  -3   0   5    1.23    0.83
  -3   0   5    1.69    0.41
  -3   0   5    1.73    0.71
  -2   0   5  410.35    8.44
  -2   0   5  361.01    9.42
  -1   0   5   14.28    1.41
   0   0  -5  389.91    7.62
   0   0   5  389.43    8.71
  -1   0  -5    0.29    0.49
   1   0   5   -0.35    0.72
  -2   0  -5  162.61    4.38
  -2   0  -5  165.29    3.86
   2   0   5  159.58    4.62
  -3   0  -5   23.38    1.63
  -3   0  -5   23.09    1.25
   3   0   5   25.30    1.86
  -4   0  -5  149.55    3.93
  -4   0  -5  151.63    4.83
   4   0   5  144.57    5.07
  -5   0  -5    9.44    1.14
  -5   0  -5   10.79    1.67
   5   0   5    9.80    1.78
  -6   0  -5   82.95    4.08
   6   0   5   84.72    4.71
  -7   0  -5    0.35    1.02
   7   0   5    1.05    1.50
  -8   0  -5   13.18    2.32
   8   0   5   19.08    4.11
  -9   0  -5    1.20    1.40
  -9   1   5   -1.27    1.64
  -8   1   5   -0.16    1.59
  -7   1   5   -0.24    1.29
  -6   1   5    0.62    1.01
  -6   1   5    0.62    1.37
  -5   1   5    0.24    0.59
  -5   1   5    1.03    1.12
  -5   1   5    0.14    0.79
  -4   1   5   -0.29    0.82
  -4   1   5    0.25    0.50
  -4   1   5    0.03    0.68
  -3   1   5    0.20    0.70
  -3   1   5   -0.04    0.31
  -2   1   5   -0.59    0.57
  -2   1   5   -0.05    0.24
  -1   1   5   -0.35    0.56
  -1   1   5   -0.19    0.21
   0   1   5   -0.46    0.29
   0   1   5   -0.45    0.51
  -1  -1  -5    0.02    0.57
  -1  -1  -5   -0.12    0.41
   1   1   5   -0.23    0.61
  -2  -1  -5    0.02    0.52
  -2  -1  -5   -0.63    0.47
   2   1   5    0.19    0.63
  -3  -1  -5   -0.35    0.51
  -3  -1  -5    0.47    0.61
   3   1   5    0.09    0.67
  -4  -1  -5   -1.22    0.54
  -4  -1  -5    0.08    0.50
   4   1   5    0.00    0.74
  -5  -1  -5    0.78    0.71
  -5  -1  -5   -1.41    0.70
   5   1   5    1.04    1.01
  -6  -1  -5   -0.11    0.79
  -6  -1  -5   -0.13    0.95
   6   1   5    0.30    1.13
  -7  -1  -5   -0.05    0.97
   7   1   5    0.23    1.35
  -8  -1  -5   -0.66    1.19
  -9  -1  -5   -1.36    1.10
  -9   2   5   -1.23    2.24
  -8   2   5    1.60    1.90
  -7   2   5   -0.02    1.40
  -6   2   5    5.94    1.93
  -5   2   5   12.76    1.38
  -5   2   5   14.56    2.42
  -4   2   5   40.29    1.90
  -4   2   5   45.20    3.32
  -3   2   5   73.19    2.34
  -3   2   5   71.32    3.68
  -2   2   5  179.81    4.05
  -2   2   5  177.45    5.70
  -1   2   5   95.14    2.26
  -1   2   5   91.56    3.34
   0  -2  -5   51.53    1.86
   0   2   5   47.48    1.94
   0   2   5   48.20    1.51
  -1  -2  -5  182.92    4.37
   1   2   5  182.01    4.22
   1   2   5  179.26    4.24
  -2  -2  -5  114.85    3.41
  -2  -2  -5  118.33    3.29
   2   2   5  118.83    3.13
  -3  -2  -5   25.72    1.67
  -3  -2  -5   28.80    1.62
   3   2   5   28.02    1.56
  -4  -2  -5   60.81    2.53
  -4  -2  -5   59.66    2.78
   4   2   5   61.70    2.70
  -5  -2  -5    0.97    0.73
  -5  -2  -5    0.72    0.98
   5   2   5    0.60    0.87
  -6  -2  -5   29.63    2.03
  -6  -2  -5   32.54    2.63
   6   2   5   32.28    2.68
  -7  -2  -5    1.88    1.31
  -8  -2  -5    9.88    2.03
  -9  -2  -5    6.15    1.96
  -8   3   5   -0.23    1.82
  -7   3   5    0.72    1.58
  -6   3   5    0.57    1.37
  -6   3   5   -0.36    1.16
  -5   3   5    0.28    1.32
  -5   3   5   -0.12    0.65
  -4   3   5    1.04    1.08
  -4   3   5   -0.28    0.55
  -3   3   5   -0.36    0.44
  -3   3   5   -0.37    0.79
  -2   3   5    0.22    0.42
  -2   3   5    0.03    0.70
  -1   3   5   -0.06    0.56
  -1   3   5    0.17    0.42
   0  -3  -5    0.92    0.70
   0   3   5    0.04    0.47
   0   3   5    0.10    0.40
  -1  -3  -5   -0.28    0.65
   1   3   5    0.01    0.32
   1   3   5   -0.05    0.48
  -2  -3  -5    0.10    0.61
   2   3   5    0.49    0.54
   2   3   5    0.02    0.34
  -3  -3  -5   -0.60    0.61
   3   3   5   -0.18    0.53
   3   3   5   -0.38    0.45
  -4  -3  -5   -0.04    0.66
  -4  -3  -5    0.84    0.79
   4   3   5    0.09    0.61
   4   3   5   -0.44    0.53
  -5  -3  -5   -1.10    0.75
  -5  -3  -5   -0.65    0.69
   5   3   5   -0.24    0.69
  -6  -3  -5    0.90    1.06
  -6  -3  -5    0.37    0.87
  -7  -3  -5    0.83    0.82
  -7  -3  -5   -1.24    0.95
   8   3   5    4.22    1.02
  -7   4   5    2.54    2.12
  -6   4   5   21.31    2.01
  -6   4   5   20.90    3.26
  -5   4   5   39.76    3.73
  -5   4   5   38.25    2.30
  -4   4   5   43.71    2.31
  -4   4   5   42.66    3.43
  -3   4   5   46.06    3.21
  -3   4   5   46.91    2.15
  -2   4   5  277.18    6.36
  -2   4   5  276.36    7.96
   1  -4  -5  422.01    8.83
  -1   4   5  411.03    8.77
  -1   4   5  435.87   10.05
   0  -4  -5  159.42    4.14
   0   4   5  158.72    3.99
   0   4   5  159.15    4.33
  -1  -4  -5   41.68    1.94
   1   4   5   42.12    1.77
   1   4   5   41.09    1.40
  -2  -4  -5   35.37    1.89
   2   4   5   35.44    1.75
  -3  -4  -5  142.05    4.32
   3   4   5  137.30    3.08
   3   4   5  139.75    4.21
  -4  -4  -5   19.93    1.71
   4   4   5   19.70    1.66
   4   4   5   18.63    1.28
  -5  -4  -5    7.04    1.38
   5   4   5    7.89    1.48
  -6  -4  -5    7.85    1.48
   6   4   5   10.61    1.73
  -7  -4  -5    2.49    1.21
   7   4   5    5.30    1.48
   8   4   5    8.08    1.71
   9   4   5   15.39    1.66
  -8   5   5   -0.58    2.07
   7  -5  -5    5.36    1.64
  -7   5   5   -0.56    1.74
  -6   5   5    0.51    0.88
  -6   5   5   -1.01    1.65
  -5   5   5   -1.04    1.16
  -5   5   5    0.59    0.87
  -4   5   5    0.41    0.74
  -4   5   5    0.92    1.31
   3  -5  -5    0.30    0.87
  -3   5   5    0.31    1.10
  -3   5   5   -0.46    0.61
   2  -5  -5   -0.26    0.66
  -2   5   5    0.55    0.94
  -2   5   5    0.09    0.64
   1  -5  -5   -0.22    0.77
  -1   5   5   -0.23    0.57
  -1   5   5   -0.54    0.65
   0  -5  -5   -0.53    0.70
   0   5   5   -0.27    0.55
   0   5   5   -0.14    0.56
  -1  -5  -5    0.10    0.32
  -1  -5  -5    0.04    0.57
   1   5   5   -0.21    0.64
  -2  -5  -5   -0.29    0.72
   2   5   5   -0.51    0.53
  -3  -5  -5   -0.42    0.73
   3   5   5   -0.09    0.61
  -4  -5  -5    0.76    0.89
   4   5   5   -0.63    0.73
  -5  -5  -5   -0.10    0.94
   5   5   5   -0.30    0.86
  -6  -5  -5   -0.37    0.86
   6   5   5   -1.04    1.09
  -7  -5  -5    0.45    0.96
   7   5   5    0.58    1.18
  -8  -5  -5    0.09    0.97
   8   5   5    1.97    1.37
   9   5   5    7.29    1.70
   8  -6  -5   32.08    4.43
   7  -6  -5   13.13    2.69
  -7   6   5    1.33    2.09
   6  -6  -5   47.39    4.18
  -6   6   5   39.01    4.46
  -6   6   5   34.49    2.77
   5  -6  -5   10.31    2.19
  -5   6   5    4.84    1.99
  -5   6   5    7.77    1.50
   4  -6  -5   45.65    3.58
  -4   6   5   47.12    2.74
  -4   6   5   45.18    3.92
   3  -6  -5    2.62    1.00
   3  -6  -5    3.26    1.25
  -3   6   5    2.83    1.56
  -3   6   5    4.05    1.09
   2  -6  -5   37.73    2.61
   2  -6  -5   39.88    1.98
  -2   6   5   41.41    2.16
  -2   6   5   41.00    3.07
   1  -6  -5   15.27    1.46
   1  -6  -5   13.00    1.44
  -1   6   5   14.62    1.80
  -1   6   5   13.30    1.43
   0  -6  -5   99.55    3.28
   0  -6  -5   99.42    3.36
   0   6   5  105.30    3.37
   0   6   5   97.61    3.42
  -1  -6  -5  163.06    4.74
  -1  -6  -5  163.77    3.96
   1   6   5  169.76    4.67
  -2  -6  -5  272.50    7.08
   2   6   5  278.69    6.88
  -3  -6  -5   26.64    2.06
   3   6   5   29.06    1.95
  -4  -6  -5   46.90    2.76
   4   6   5   46.42    2.58
  -5  -6  -5   62.64    3.42
   5   6   5   67.27    3.29
  -6  -6  -5    7.31    1.62
   6   6   5    6.58    1.66
  -7  -6  -5    3.10    1.38
   7   6   5    7.76    2.08
  -8  -6  -5    8.35    1.97
   8   6   5   18.82    2.72
  -9  -6  -5    2.94    1.65
   9   6   5    9.46    2.05
   7  -7  -5   10.54    2.59
  -7   7   5   -1.21    1.94
  -7   7   5    0.95    1.10
   6  -7  -5    5.45    2.21
  -6   7   5   -0.96    1.77
  -6   7   5   -0.03    0.93
   5  -7  -5    1.40    1.65
  -5   7   5   -1.16    1.41
  -5   7   5    0.35    0.90
   4  -7  -5    0.77    1.41
  -4   7   5   -0.23    1.57
  -4   7   5    0.37    0.89
   3  -7  -5    0.11    1.10
  -3   7   5   -0.21    0.84
  -3   7   5    0.48    1.30
   2  -7  -5   -0.87    0.81
   2  -7  -5    0.15    0.85
  -2   7   5   -0.16    1.19
  -2   7   5   -1.05    0.78
   1  -7  -5   -0.38    0.82
   1  -7  -5   -0.32    0.73
  -1   7   5    0.12    0.86
  -1   7   5   -0.88    0.87
   0  -7  -5   -0.40    0.76
   0  -7  -5   -0.14    0.63
   0   7   5    0.58    0.86
  -1  -7  -5   -0.29    0.63
  -1  -7  -5   -0.16    0.79
   1   7   5    0.74    0.82
  -2  -7  -5   -0.27    0.87
   2   7   5    0.06    0.79
  -3  -7  -5    1.43    1.10
   3   7   5   -0.15    0.82
  -4  -7  -5   -0.22    1.00
   4   7   5   -0.73    0.94
  -5  -7  -5   -1.18    0.97
   5   7   5   -0.39    1.17
  -6  -7  -5   -1.29    0.90
   6   7   5    0.07    1.29
  -7  -7  -5   -0.86    0.99
   7   7   5    0.15    1.46
  -8  -7  -5    0.46    1.19
   8   7   5    1.27    1.60
   7  -8  -5   15.50    3.41
  -7   8   5    3.79    2.74
  -7   8   5    3.88    1.53
   6  -8  -5   18.69    3.91
  -6   8   5   10.55    2.05
  -6   8   5   10.76    3.00
   5  -8  -5   25.20    4.11
  -5   8   5   17.68    2.46
  -5   8   5   14.26    3.02
   4  -8  -5   62.91    4.88
  -4   8   5   56.89    3.25
  -4   8   5   50.77    4.39
   3  -8  -5   14.68    2.42
  -3   8   5   10.81    2.26
  -3   8   5   12.64    1.86
   2  -8  -5   42.96    3.23
   2  -8  -5   43.31    2.20
  -2   8   5   49.07    3.48
  -2   8   5   49.16    2.87
   1  -8  -5   33.66    1.98
   1  -8  -5   29.38    2.42
  -1   8   5   29.81    2.24
   0  -8  -5  105.92    3.80
   0  -8  -5  107.93    4.03
   0   8   5  110.67    3.99
  -1  -8  -5   35.94    2.31
   1   8   5   35.82    2.32
  -2  -8  -5   57.25    3.04
   2   8   5   60.99    2.97
  -3  -8  -5    2.42    1.27
   3   8   5    3.72    1.36
  -4  -8  -5    7.55    1.70
   4   8   5    6.99    1.57
  -5  -8  -5    0.15    1.09
   5   8   5    2.20    1.56
  -6  -8  -5   16.53    2.50
   6   8   5   17.29    2.56
  -7  -8  -5    3.11    1.57
   7   8   5    1.27    1.93
  -8  -8  -5    3.31    1.65
   8   8   5    3.49    1.90
  -7   9   5    1.37    1.31
   6  -9  -5    2.68    2.49
  -6   9   5    0.73    1.16
   5  -9  -5   -1.55    2.30
  -5   9   5    1.37    1.29
  -5   9   5   -1.32    1.61
   4  -9  -5   -0.39    1.67
  -4   9   5    0.21    1.04
   3  -9  -5    0.37    1.50
  -3   9   5    0.36    1.15
   2  -9  -5   -0.70    1.18
  -2   9   5    0.32    1.23
   1  -9  -5   -0.52    0.87
   1  -9  -5   -0.87    1.10
  -1   9   5   -0.30    1.04
   0  -9  -5    0.01    0.94
   0   9   5    0.10    1.10
  -1  -9  -5    0.39    0.99
   1   9   5    0.52    1.20
  -2  -9  -5   -0.28    1.01
   2   9   5    0.65    1.29
  -3  -9  -5   -0.40    1.02
   3   9   5    0.52    1.15
  -4  -9  -5    0.34    1.15
   4   9   5   -1.70    1.16
  -5  -9  -5    0.58    1.21
   5   9   5    0.20    1.45
  -6  -9  -5    1.22    1.35
   6   9   5   -0.17    1.66
  -7  -9  -5    1.01    1.34
   7   9   5   -0.69    1.95
   8   9   5    1.46    2.04
   6 -10  -5   19.22    4.20
  -6  10   5   12.28    2.35
   5 -10  -5    4.98    3.11
  -5  10   5    5.53    1.76
   4 -10  -5    1.60    2.19
  -4  10   5    2.70    1.41
   3 -10  -5   11.49    2.75
  -3  10   5   10.51    1.97
   2 -10  -5   76.38    4.74
  -2  10   5   75.77    3.85
   1 -10  -5   64.43    4.01
  -1  10   5   69.91    3.61
   0 -10  -5    2.00    1.07
   0  10   5    0.94    1.29
  -1 -10  -5   99.02    4.21
   1  10   5   94.79    4.19
  -2 -10  -5   88.41    4.04
   2  10   5   88.52    4.04
  -3 -10  -5   30.44    2.68
   3  10   5   30.75    2.66
  -4 -10  -5    8.42    1.94
   4  10   5    9.78    2.01
  -5 -10  -5   16.69    2.56
   5  10   5   18.13    2.65
  -6 -10  -5    4.99    1.84
   6  10   5   -0.43    1.94
  -7 -10  -5    1.45    1.58
   7  10   5   -2.29    1.80
  -6  11   5    1.71    2.40
   5 -11  -5    0.27    2.55
  -5  11   5    1.23    1.22
   4 -11  -5   -1.38    2.21
  -4  11   5   -1.83    0.96
   3 -11  -5   -1.20    1.74
  -3  11   5   -1.16    1.12
   2 -11  -5   -2.43    1.55
  -2  11   5    0.47    1.23
  -1  11   5    0.05    1.21
   0 -11  -5   -0.31    0.94
   0  11   5    0.92    1.43
  -1 -11  -5    1.14    1.07
   1  11   5    0.09    1.26
  -2 -11  -5    1.70    1.22
   2  11   5   -0.88    1.27
  -3 -11  -5    0.82    1.32
   3  11   5    0.62    1.46
  -4 -11  -5   -0.18    1.24
   4  11   5   -0.59    1.46
  -5 -11  -5    0.20    1.46
   5  11   5   -1.17    1.79
  -6 -11  -5    0.83    1.44
   6  11   5   -2.58    1.92
   7  11   5   -2.99    1.73
   5 -12  -5   -1.70    2.68
   4 -12  -5    2.84    2.83
  -4  12   5    6.56    2.03
   3 -12  -5    4.95    2.84
  -3  12   5    7.58    2.06
  -2  12   5    5.91    1.80
  -1  12   5   27.92    2.90
   0  12   5    7.19    1.94
  -1 -12  -5    3.77    1.54
   1  12   5    2.30    1.78
  -2 -12  -5   15.74    2.42
   2  12   5   16.46    2.50
  -3 -12  -5    9.50    2.12
   3  12   5    8.09    2.08
  -4 -12  -5   38.09    3.35
   4  12   5   31.11    3.11
  -5 -12  -5    2.69    1.75
   5  12   5    0.49    1.82
   6  12   5    5.42    2.36
  -3  13   5    0.99    1.49
  -2  13   5    1.43    1.58
  -1  13   5    3.46    1.65
   0  13   5    0.01    1.51
   1  13   5   -1.95    1.60
  -2 -13  -5    2.65    1.43
   2  13   5    1.94    1.67
  -3 -13  -5    3.04    1.53
   3  13   5    0.48    1.67
  -4 -13  -5   -0.42    1.25
   4  13   5   -1.96    1.54
  -5 -13  -5    0.84    1.63
   5  13   5   -2.04    1.92
  -1  14   5    2.44    1.80
   0  14   5   11.72    2.48
   1  14   5    1.10    1.94
   2  14   5    2.41    1.88
  -3 -14  -5    1.34    1.48
   3  14   5    0.86    1.86
  -4 -14  -5    2.71    1.69
   0 -12   6    8.14    3.47
  -1  12  -6    9.23    2.12
   1 -12   6    6.77    3.10
  -2  12  -6    5.04    1.86
   2 -12   6    2.41    2.99
  -4 -11   6   -1.96    1.58
  -3 -11   6   -0.80    1.34
  -1 -11   6    1.28    1.89
   0  11  -6    1.34    1.22
   0 -11   6    1.40    2.19
  -1  11  -6    0.97    1.38
   1 -11   6   -0.78    2.06
  -2  11  -6    0.31    1.25
   2 -11   6   -3.53    2.64
  -3  11  -6    0.80    1.56
   3 -11   6   -1.23    3.01
  -5 -10   6    0.27    1.61
  -4 -10   6    2.09    1.62
  -3 -10   6   20.80    2.78
  -2 -10   6    2.49    1.53
  -2 -10   6    3.57    1.74
  -1 -10   6   73.44    5.02
   0  10  -6   18.77    2.33
   0 -10   6   16.18    3.10
  -1  10  -6    7.23    1.76
   1 -10   6    4.88    2.72
  -2  10  -6    8.75    1.98
   2 -10   6    6.90    3.35
  -3  10  -6    5.93    1.88
   3 -10   6    4.78    3.14
  -4  10  -6    1.25    1.45
   4 -10   6   -2.42    3.02
  -5  -9   6    0.15    1.55
  -4  -9   6   -1.77    1.40
  -3  -9   6   -1.48    1.09
  -3  -9   6    1.41    1.53
  -2  -9   6   -1.66    1.14
  -2  -9   6    1.19    1.42
   1   9  -6    0.87    1.14
  -1  -9   6   -0.03    1.00
  -1  -9   6    0.92    1.69
   0   9  -6    0.67    1.13
   0  -9   6   -0.11    1.68
  -1   9  -6    0.49    1.15
   1  -9   6   -1.88    1.77
  -2   9  -6    1.94    1.25
   2  -9   6   -1.01    2.36
  -3   9  -6   -0.36    1.08
   3  -9   6   -0.43    2.55
  -4   9  -6    1.17    1.29
   4  -9   6   -2.20    2.81
  -5   9  -6    0.12    1.52
   5  -9   6   -5.01    2.82
  -6  -8   6    1.75    1.70
  -5  -8   6   -0.13    1.40
  -4  -8   6    1.99    1.51
  -3  -8   6    2.61    1.41
  -3  -8   6    2.06    1.38
  -2  -8   6    3.02    1.39
  -2  -8   6    3.02    1.30
   1   8  -6   24.99    2.13
  -1  -8   6   20.99    2.91
  -1  -8   6   23.67    2.13
   0   8  -6   52.49    2.91
   0  -8   6   47.64    4.11
  -1   8  -6  182.13    6.09
   1  -8   6  185.80    7.83
  -2   8  -6   13.97    2.08
   2  -8   6   12.35    3.17
  -3   8  -6    4.67    1.50
   3  -8   6    3.06    2.94
  -4   8  -6   19.67    2.69
   4  -8   6   25.02    4.25
  -5   8  -6   12.55    2.35
   5  -8   6   11.11    3.78
  -6   8  -6    9.30    2.25
   6  -8   6    7.61    4.08
  -7  -7   6    2.27    2.66
  -6  -7   6   -1.26    1.25
  -5  -7   6    0.34    1.36
  -4  -7   6    1.00    1.29
  -4  -7   6    0.60    1.00
  -3  -7   6    0.02    1.07
  -3  -7   6    0.27    0.95
  -2  -7   6    0.70    1.04
  -2  -7   6    0.81    1.13
   1   7  -6    1.01    0.96
  -1  -7   6    0.20    1.37
  -1  -7   6    0.28    0.97
   0   7  -6   -0.53    0.94
   0  -7   6   -0.79    0.73
   0  -7   6    0.59    1.61
  -1   7  -6    0.79    1.09
   1  -7   6   -0.18    1.84
  -2   7  -6   -0.24    0.95
   2  -7   6   -0.07    1.95
  -3   7  -6    0.21    1.20
   3  -7   6   -3.11    1.96
  -4   7  -6   -0.46    1.08
   4  -7   6   -1.69    2.27
  -5   7  -6   -0.03    1.16
   5  -7   6   -2.00    2.65
  -6   7  -6    1.56    1.40
   6  -7   6   -0.49    3.08
  -7  -6   6   -0.43    1.36
  -6  -6   6    1.80    1.52
  -5  -6   6    5.23    1.67
  -5  -6   6    6.95    1.79
  -4  -6   6    7.31    1.80
  -4  -6   6   10.18    1.88
  -3  -6   6   16.72    2.32
  -3  -6   6   19.58    2.27
   2   6  -6    1.48    0.88
  -2  -6   6    1.74    1.38
  -2  -6   6    0.95    1.04
   1   6  -6   10.69    1.37
  -1  -6   6   11.71    1.61
  -1  -6   6    9.09    1.97
   0   6  -6    7.04    1.34
   0  -6   6    8.44    1.26
   0  -6   6    5.01    1.81
  -1   6  -6    5.42    1.26
   1  -6   6    8.67    2.38
  -2   6  -6   61.09    3.17
   2  -6   6   58.79    4.62
  -3   6  -6  180.61    6.11
   3  -6   6  184.67    7.70
  -4   6  -6   78.95    4.17
   4  -6   6   81.84    5.75
  -5   6  -6    6.11    1.65
   5  -6   6    4.46    2.77
  -6   6  -6   13.65    2.52
   6  -6   6    9.57    3.57
  -7   6  -6    1.76    1.54
   7  -6   6   -3.71    2.56
  -8  -5   6   -2.47    2.53
  -7  -5   6   -1.90    1.35
  -6  -5   6    0.20    0.97
  -6  -5   6    0.43    1.32
  -5  -5   6   -0.31    1.08
  -5  -5   6   -0.79    0.76
  -4  -5   6    0.31    0.95
  -4  -5   6   -0.92    0.92
  -3  -5   6   -0.10    0.95
  -3  -5   6    0.10    1.10
   2   5  -6   -0.69    0.65
  -2  -5   6   -0.23    1.03
  -2  -5   6   -0.25    0.84
   1   5  -6    0.27    0.68
  -1  -5   6   -1.16    1.03
  -1  -5   6    0.12    0.73
   0   5  -6   -1.20    0.70
   0  -5   6   -0.63    0.65
   0  -5   6   -1.28    1.20
  -1   5  -6   -0.42    0.70
   1  -5   6   -0.13    1.50
  -2   5  -6   -0.22    0.82
   2  -5   6    1.55    1.72
  -3   5  -6   -0.46    1.02
   3  -5   6    1.58    1.87
  -4   5  -6    0.19    1.05
   4  -5   6    0.79    1.88
  -5   5  -6   -0.19    1.06
   5  -5   6   -3.08    1.77
  -6   5  -6    0.09    1.20
   6  -5   6   -5.30    2.05
  -7   5  -6    0.12    1.36
   7  -5   6   -5.76    2.72
   8  -5   6   -3.14    2.93
  -8  -4   6    0.89    1.52
  -7  -4   6   10.33    2.38
  -7  -4   6    9.44    2.12
  -6  -4   6    9.11    2.16
  -6  -4   6    7.70    1.82
  -5  -4   6    4.52    1.51
  -5  -4   6    5.91    1.55
  -4  -4   6    1.21    1.10
  -4  -4   6    0.13    0.96
  -3  -4   6   27.31    2.13
  -3  -4   6   28.11    2.77
   2   4  -6   96.81    2.75
  -2  -4   6   95.22    4.32
  -2  -4   6   92.21    3.53
   1   4  -6   33.07    1.62
  -1  -4   6   32.28    1.88
  -1  -4   6   34.42    2.67
   0   4  -6    1.86    0.76
   0  -4   6    2.68    0.78
   0  -4   6    0.87    1.13
  -1   4  -6   17.51    1.54
   1  -4   6   22.28    2.83
  -2   4  -6   14.90    1.53
   2  -4   6   15.28    2.33
  -3   4  -6    0.23    0.85
   3  -4   6    0.75    1.58
  -4   4  -6   12.47    1.86
   4  -4   6   12.16    2.49
  -5   4  -6  107.05    4.87
   5  -4   6  113.18    6.20
  -6   4  -6   26.34    2.76
   6  -4   6   28.86    4.27
  -7   4  -6   26.67    3.40
   7  -4   6   35.75    5.56
  -8   4  -6    8.48    2.31
   8  -4   6    8.83    4.18
  -8  -3   6   -0.24    1.54
  -7  -3   6   -0.50    1.18
  -7  -3   6   -0.18    1.26
  -6  -3   6    0.22    1.24
  -6  -3   6   -1.19    0.97
  -5  -3   6   -0.35    0.94
  -5  -3   6   -1.58    0.81
  -4  -3   6   -0.03    0.88
  -4  -3   6    0.70    1.01
  -3  -3   6   -0.04    0.82
  -3  -3   6   -0.59    0.82
   2   3  -6    0.24    0.43
  -2  -3   6   -0.29    0.64
  -2  -3   6   -0.84    0.80
   1   3  -6    0.34    0.44
  -1  -3   6   -0.49    0.87
  -1  -3   6    0.30    0.73
   0   3  -6   -0.21    0.49
   0  -3   6    0.05    1.00
  -1   3  -6   -0.02    0.51
   1  -3   6    0.51    1.19
  -2   3  -6    0.31    0.67
   2  -3   6   -0.33    1.17
  -3   3  -6   -0.22    0.70
   3  -3   6    1.62    1.43
  -4   3  -6   -0.29    0.90
   4  -3   6   -0.74    1.46
  -5   3  -6    0.43    1.05
   5  -3   6    0.30    1.72
  -6   3  -6    1.52    1.26
   6  -3   6    0.26    2.01
  -7   3  -6    0.10    1.28
   7  -3   6   -3.24    2.34
  -8   3  -6    0.97    1.37
   8  -3   6   -6.78    2.88
  -8  -2   6    4.70    1.77
  -8  -2   6    4.14    2.01
  -7  -2   6   -0.53    1.31
  -7  -2   6   -0.31    1.15
  -6  -2   6    7.27    1.97
  -6  -2   6   10.81    1.89
  -5  -2   6    2.45    1.17
  -5  -2   6    1.65    1.23
  -4  -2   6   10.03    1.89
  -4  -2   6   10.36    1.49
   3   2  -6   32.36    1.13
  -3  -2   6   31.55    2.63
  -3  -2   6   31.47    2.02
   2   2  -6  117.50    2.51
  -2  -2   6  111.66    4.46
  -2  -2   6  109.35    3.64
   1   2  -6   14.51    0.80
  -1  -2   6   15.48    1.24
  -1  -2   6   15.25    1.76
   0   2  -6  106.28    2.86
   0  -2   6  104.31    4.00
  -1   2  -6   99.13    3.06
   1  -2   6   94.39    3.92
  -2   2  -6  219.00    4.88
  -2   2  -6  220.46    5.77
   2  -2   6  224.31    6.67
  -3   2  -6  137.02    3.31
  -3   2  -6  135.28    4.51
   3  -2   6  135.58    5.18
  -4   2  -6  122.93    4.61
   4  -2   6  123.22    5.25
  -5   2  -6    3.61    1.34
   5  -2   6    3.32    1.90
  -6   2  -6   50.69    3.40
   6  -2   6   48.29    4.70
  -7   2  -6   12.11    2.23
   7  -2   6   16.83    3.59
  -8   2  -6   35.31    3.39
   8  -2   6   41.64    5.60
   9  -2   6   -1.80    4.00
  -8  -1   6    0.43    1.77
  -8  -1   6   -0.54    1.24
  -7  -1   6   -0.19    1.06
  -7  -1   6    0.39    1.41
  -6  -1   6   -1.13    0.89
  -6  -1   6   -0.28    1.03
  -5  -1   6    0.01    0.92
  -5  -1   6    0.77    1.06
  -4  -1   6    0.24    0.99
  -4  -1   6    0.66    0.90
   3   1  -6   -0.47    0.25
  -3  -1   6   -0.10    0.80
  -3  -1   6   -0.86    0.65
  -2  -1   6    0.52    0.63
  -2  -1   6   -0.33    0.69
   1   1  -6   -0.15    0.20
  -1  -1   6    0.21    0.70
   0   1  -6   -0.55    0.31
   0  -1   6   -0.53    0.75
  -1   1  -6   -0.32    0.45
   1  -1   6   -0.20    0.89
  -2   1  -6    0.02    0.63
  -2   1  -6    0.59    0.53
   2  -1   6    0.20    1.02
  -3   1  -6    0.37    0.67
  -3   1  -6    0.02    0.43
   3  -1   6   -0.17    0.97
  -4   1  -6    0.01    0.85
  -4   1  -6    0.53    0.50
   4  -1   6   -0.38    1.16
  -5   1  -6   -0.46    0.91
   5  -1   6    0.17    1.30
  -6   1  -6    0.32    1.01
   6  -1   6   -0.99    1.36
  -7   1  -6    2.13    1.45
   7  -1   6   -1.12    1.77
  -8   1  -6    1.08    1.55
   8  -1   6   -2.87    2.26
  -9   1  -6    0.18    1.65
  -9   0   6    0.30    1.72
  -8   0   6    3.57    1.94
  -7   0   6    2.26    1.65
  -7   0   6    0.85    1.11
  -6   0   6   13.86    2.57
  -6   0   6   14.71    1.93
  -5   0   6    3.45    1.53
  -4   0   6  243.04    8.17
  -4   0   6  234.55    6.34
  -3   0   6    7.65    1.47
  -3   0   6    6.98    1.09
  -3   0   6    6.63    0.55
  -2   0   6   33.24    2.36
  -1   0   6   17.09    1.61
   0   0  -6  113.34    2.70
   0   0   6  111.00    3.73
  -1   0  -6    0.21    0.46
   1   0   6   -0.52    0.72
  -2   0  -6   23.21    1.50
  -2   0  -6   20.89    1.22
   2   0   6   22.66    1.95
  -3   0  -6    8.95    0.97
  -3   0  -6    8.29    1.21
   3   0   6    7.94    1.39
  -4   0  -6  308.10    8.12
  -4   0  -6  314.79    7.05
   4   0   6  318.62    8.44
  -5   0  -6   22.38    1.70
  -5   0  -6   21.19    2.05
   5   0   6   22.99    2.45
  -6   0  -6   58.14    3.44
   6   0   6   57.97    4.08
  -7   0  -6    8.49    1.88
   7   0   6    7.53    2.38
  -8   0  -6   33.97    3.35
  -9   0  -6    0.85    1.46
  -8   1   6   -0.43    1.35
  -7   1   6    1.02    1.47
  -6   1   6    0.71    1.28
  -5   1   6    0.57    1.15
  -4   1   6   -0.13    0.45
  -4   1   6    0.22    0.89
  -3   1   6   -0.62    0.64
  -3   1   6    0.12    0.31
  -2   1   6   -0.31    0.65
  -2   1   6    0.12    0.20
  -1   1   6   -0.42    0.57
  -1   1   6   -0.12    0.20
   0   1   6   -0.24    0.55
   0   1   6   -0.04    0.30
  -1  -1  -6    1.30    0.67
  -1  -1  -6    0.87    0.45
   1   1   6    0.23    0.63
  -2  -1  -6   -0.41    0.60
  -2  -1  -6   -0.38    0.48
   2   1   6   -0.41    0.69
  -3  -1  -6   -0.37    0.54
  -3  -1  -6    0.48    0.66
   3   1   6    0.36    0.79
  -4  -1  -6    0.28    0.79
  -4  -1  -6   -0.07    0.61
   4   1   6    0.08    0.86
  -5  -1  -6    0.46    0.64
  -5  -1  -6   -0.48    0.88
   5   1   6    0.69    1.06
  -6  -1  -6   -0.50    0.93
   6   1   6   -1.16    1.14
  -7  -1  -6    0.33    1.13
   7   1   6   -0.12    1.60
  -8  -1  -6    0.44    1.35
  -9  -1  -6    0.40    1.42
  -8   2   6    2.17    2.05
  -7   2   6    1.55    1.74
  -6   2   6   13.69    2.64
  -5   2   6   25.80    3.10
  -4   2   6   24.57    1.45
  -4   2   6   24.01    2.59
  -3   2   6   51.42    3.26
  -3   2   6   51.94    1.83
  -2   2   6   48.87    2.77
  -2   2   6   47.90    1.53
  -1   2   6   62.21    2.77
  -1   2   6   61.26    1.67
   0   2   6   73.77    2.02
   0   2   6   72.50    2.68
  -1  -2  -6   58.12    2.14
   1   2   6   60.06    2.17
   1   2   6   58.60    1.98
  -2  -2  -6   21.75    1.39
  -2  -2  -6   20.05    1.36
   2   2   6   21.27    1.38
  -3  -2  -6  202.79    5.19
  -3  -2  -6  201.99    5.53
   3   2   6  203.76    5.20
  -4  -2  -6   43.91    2.14
  -4  -2  -6   49.56    2.55
   4   2   6   42.57    2.39
  -5  -2  -6    0.73    0.83
  -5  -2  -6    0.36    0.89
   5   2   6    0.16    0.96
  -6  -2  -6   54.11    3.20
  -6  -2  -6   51.35    2.65
   6   2   6   52.12    3.27
  -7  -2  -6   16.42    2.30
  -8  -2  -6    9.45    2.02
  -9  -2  -6    9.13    2.15
  -8   3   6   -1.23    1.68
  -7   3   6   -0.44    1.57
  -6   3   6   -1.16    1.18
  -5   3   6    0.36    0.65
  -5   3   6   -0.51    1.02
  -4   3   6   -0.25    0.85
  -4   3   6    0.14    0.55
  -3   3   6    0.25    0.47
  -3   3   6   -0.05    0.84
  -2   3   6   -0.56    0.62
  -2   3   6   -0.28    0.36
  -1   3   6   -0.05    0.40
  -1   3   6    0.43    0.62
   0  -3  -6    0.44    0.76
   0   3   6   -0.02    0.50
   0   3   6    0.24    0.44
  -1  -3  -6    0.25    0.72
   1   3   6   -0.33    0.36
   1   3   6   -0.51    0.45
  -2  -3  -6   -0.41    0.65
   2   3   6   -0.52    0.46
   2   3   6    0.03    0.44
  -3  -3  -6    0.19    0.66
   3   3   6    0.09    0.58
   3   3   6   -0.29    0.55
  -4  -3  -6   -0.05    0.69
  -4  -3  -6   -0.27    0.68
   4   3   6   -0.27    0.67
  -5  -3  -6    0.12    0.73
  -5  -3  -6    0.33    0.91
   5   3   6   -0.03    0.85
  -6  -3  -6   -0.07    0.71
  -6  -3  -6   -0.43    1.05
  -7  -3  -6    0.17    1.20
  -7  -3  -6   -0.73    0.79
  -8  -3  -6    0.74    1.33
   8   3   6    4.83    1.03
  -8   4   6    7.30    2.83
  -7   4   6    4.07    2.05
  -6   4   6    4.53    1.96
  -5   4   6   19.00    2.87
  -5   4   6   22.71    1.82
  -4   4   6   47.12    3.80
  -4   4   6   47.95    2.36
  -3   4   6  267.28    6.49
  -3   4   6  270.81    8.56
  -2   4   6  148.34    5.38
  -2   4   6  138.00    3.79
   1  -4  -6   21.72    1.46
  -1   4   6   21.04    1.26
  -1   4   6   19.27    1.77
   0  -4  -6   68.36    2.46
   0   4   6   66.07    2.57
   0   4   6   67.51    2.24
  -1  -4  -6   91.08    3.05
   1   4   6   89.17    2.83
  -2  -4  -6  124.42    3.85
   2   4   6  124.37    3.71
  -3  -4  -6   41.11    2.19
   3   4   6   43.16    1.43
   3   4   6   41.42    2.14
  -4  -4  -6    3.29    1.05
   4   4   6    3.26    0.86
   4   4   6    2.36    0.96
  -5  -4  -6   30.96    2.27
   5   4   6   30.46    2.22
  -6  -4  -6   20.70    1.98
   6   4   6   22.06    2.03
  -7  -4  -6    6.73    1.48
   7   4   6    8.74    1.71
   8   4   6   12.31    2.05
   9   4   6   16.38    1.76
  -8   5   6   -0.42    2.19
  -7   5   6    3.04    2.39
  -6   5   6    0.27    1.77
  -5   5   6   -0.02    0.79
  -5   5   6    0.70    1.43
  -4   5   6    0.10    0.73
  -4   5   6   -0.40    1.06
  -3   5   6   -0.05    0.94
  -3   5   6   -0.64    0.67
   2  -5  -6   -1.09    0.76
  -2   5   6   -0.39    0.75
  -2   5   6   -0.38    0.53
   1  -5  -6   -0.03    0.77
  -1   5   6   -0.07    0.54
  -1   5   6    0.59    0.79
   0  -5  -6   -0.42    0.76
   0   5   6    0.50    0.62
   0   5   6    0.33    0.57
  -1  -5  -6   -0.72    0.76
   1   5   6   -0.04    0.58
   1   5   6    0.17    0.39
  -2  -5  -6   -0.70    0.79
   2   5   6   -0.09    0.66
  -3  -5  -6   -0.24    0.82
   3   5   6   -0.61    0.62
  -4  -5  -6    0.31    0.93
   4   5   6    0.18    0.82
  -5  -5  -6   -0.44    0.86
   5   5   6    0.21    0.96
  -6  -5  -6   -0.43    0.84
   6   5   6    0.12    1.02
  -7  -5  -6    0.68    1.06
   7   5   6    0.32    1.28
  -8  -5  -6   -1.52    0.81
   8   5   6    2.87    1.33
   9   5   6    8.04    1.64
   7  -6  -6   30.47    3.38
  -7   6   6    8.65    2.97
   6  -6  -6   61.37    4.55
  -6   6   6   47.70    4.90
  -6   6   6   50.60    3.18
  -5   6   6   21.36    2.05
  -5   6   6   14.97    2.82
  -4   6   6    3.69    1.17
  -4   6   6    4.01    1.74
   3  -6  -6   10.73    1.42
  -3   6   6    7.86    1.32
  -3   6   6    9.86    2.07
   2  -6  -6   11.50    1.32
  -2   6   6    9.16    1.73
  -2   6   6    9.45    1.28
   1  -6  -6   66.50    2.69
  -1   6   6   68.37    2.73
  -1   6   6   68.09    3.34
   0  -6  -6  309.52    7.55
   0  -6  -6  325.08    7.57
   0   6   6  320.00    7.50
   0   6   6  321.40    7.80
  -1  -6  -6  177.63    4.18
  -1  -6  -6  175.95    5.05
   1   6   6  174.07    4.86
  -2  -6  -6   55.95    2.68
   2   6   6   52.55    2.44
  -3  -6  -6   -0.13    0.93
   3   6   6    1.29    0.86
  -4  -6  -6   23.09    2.09
   4   6   6   23.68    1.97
  -5  -6  -6    4.44    1.36
   5   6   6    8.37    1.57
  -6  -6  -6    8.83    1.77
   6   6   6    8.95    1.82
  -7  -6  -6   19.30    2.55
   7   6   6   24.75    2.98
  -8  -6  -6    6.78    1.78
   8   6   6   10.81    2.29
   9   6   6    9.34    2.24
  -7   7   6    1.38    2.22
   6  -7  -6    5.48    1.94
  -6   7   6   -2.95    1.53
  -6   7   6    0.88    0.98
   5  -7  -6    2.86    1.50
  -5   7   6    1.93    1.09
  -5   7   6    1.07    1.69
   4  -7  -6    1.18    1.22
  -4   7   6   -0.10    1.56
  -4   7   6   -0.54    0.82
   3  -7  -6   -0.52    1.10
   3  -7  -6   -1.12    0.98
  -3   7   6   -0.27    1.21
  -3   7   6   -0.21    0.86
   2  -7  -6    0.61    0.90
   2  -7  -6    0.01    0.99
  -2   7   6    0.02    0.85
  -2   7   6    1.18    1.28
   1  -7  -6   -0.43    0.81
   1  -7  -6   -0.53    0.69
  -1   7   6    0.34    1.00
  -1   7   6   -0.43    0.81
   0  -7  -6    0.11    0.96
   0  -7  -6    0.03    0.58
   0   7   6   -0.79    0.72
   0   7   6   -0.33    0.82
  -1  -7  -6    0.06    0.62
  -1  -7  -6    0.21    0.92
   1   7   6    0.54    0.83
  -2  -7  -6   -0.89    0.89
   2   7   6    0.67    0.88
  -3  -7  -6   -0.19    0.99
   3   7   6    0.29    0.91
  -4  -7  -6   -0.65    0.76
   4   7   6   -0.49    0.91
  -5  -7  -6    0.78    1.02
   5   7   6   -0.34    1.14
  -6  -7  -6    1.28    1.21
   6   7   6    1.18    1.31
  -7  -7  -6    0.67    1.27
   7   7   6    1.13    1.50
  -8  -7  -6    1.90    1.32
   8   7   6    1.58    1.61
   6  -8  -6   18.98    3.59
  -6   8   6    7.16    2.78
  -6   8   6    7.61    1.84
   5  -8  -6    3.06    2.13
  -5   8   6   -1.00    1.64
  -5   8   6    0.73    1.02
   4  -8  -6   27.78    3.49
  -4   8   6   21.75    3.24
  -4   8   6   25.92    2.29
   3  -8  -6   46.50    3.75
  -3   8   6   43.08    2.75
  -3   8   6   44.51    4.03
   2  -8  -6   62.03    2.78
   2  -8  -6   64.84    3.98
  -2   8   6   69.77    4.11
  -2   8   6   64.92    3.26
   1  -8  -6   17.77    1.69
   1  -8  -6   20.29    2.22
  -1   8   6   20.86    2.16
  -1   8   6   17.70    2.27
   0  -8  -6   11.87    1.60
   0  -8  -6   12.10    1.65
   0   8   6   12.68    1.72
  -1  -8  -6   25.59    2.08
   1   8   6   29.66    2.16
  -2  -8  -6   42.04    2.69
   2   8   6   42.52    2.53
  -3  -8  -6    7.83    1.68
   3   8   6    8.05    1.54
  -4  -8  -6    9.84    1.81
   4   8   6   10.11    1.79
  -5  -8  -6    2.48    1.36
   5   8   6    2.10    1.50
  -6  -8  -6    6.67    1.81
   6   8   6    7.33    2.01
  -7  -8  -6    3.97    1.62
   7   8   6    1.26    1.85
  -8  -8  -6    2.87    1.57
   8   8   6    4.95    2.26
   6  -9  -6    3.25    2.17
  -6   9   6    1.23    1.31
  -6   9   6   -3.71    1.68
   5  -9  -6    1.47    2.32
  -5   9   6   -0.12    0.96
  -5   9   6   -2.04    1.57
   4  -9  -6    1.91    1.96
  -4   9   6    0.63    1.94
  -4   9   6   -0.31    0.95
   3  -9  -6   -0.99    1.32
  -3   9   6   -0.16    0.97
  -3   9   6   -1.85    1.27
   2  -9  -6   -1.27    1.09
  -2   9   6   -0.46    0.99
   1  -9  -6    0.42    1.17
   1  -9  -6    0.55    1.06
  -1   9   6   -0.24    1.11
   0  -9  -6   -0.67    0.92
   0   9   6   -0.38    1.10
  -1  -9  -6   -1.10    0.98
   1   9   6   -0.33    1.11
  -2  -9  -6    0.33    1.11
   2   9   6   -0.13    1.11
  -3  -9  -6    0.70    1.13
   3   9   6   -0.80    1.04
  -4  -9  -6    0.44    1.18
   4   9   6   -0.98    1.17
  -5  -9  -6   -1.33    1.04
   5   9   6   -0.06    1.40
  -6  -9  -6   -0.84    1.10
   6   9   6   -1.74    1.45
  -7  -9  -6    1.36    1.34
   7   9   6   -2.05    1.85
   8   9   6    0.24    1.93
   6 -10  -6    1.36    2.37
  -6  10   6    1.06    1.38
   5 -10  -6   15.00    3.54
  -5  10   6   10.59    2.21
   4 -10  -6   25.25    3.93
  -4  10   6   19.88    2.60
   3 -10  -6   16.80    2.87
  -3  10   6   18.48    2.41
   2 -10  -6    5.08    1.88
  -2  10   6    5.80    1.60
   1 -10  -6   37.27    2.40
  -1  10   6   40.06    2.85
   0 -10  -6   32.26    2.34
   0  10   6   32.97    2.63
  -1 -10  -6   17.10    2.24
   1  10   6   21.90    2.41
  -2 -10  -6   12.70    2.03
   2  10   6   14.30    2.08
  -3 -10  -6   75.28    3.94
   3  10   6   72.24    3.76
  -4 -10  -6   22.90    2.78
   4  10   6   21.18    2.61
  -5 -10  -6   16.95    2.64
   5  10   6   14.40    2.47
  -6 -10  -6   -0.04    1.28
   6  10   6   -1.13    1.80
  -7 -10  -6    3.41    1.75
   7  10   6    2.23    2.18
  -6  11   6    0.62    1.61
   5 -11  -6   -1.09    2.49
  -5  11   6    1.23    1.22
   4 -11  -6   -0.38    2.02
  -4  11   6    0.10    1.17
   3 -11  -6   -0.16    1.97
  -3  11   6    0.45    1.23
  -2  11   6    1.15    1.29
  -1  11   6    0.40    1.27
   0 -11  -6   -0.40    0.86
   0  11   6    0.56    1.29
  -1 -11  -6    0.65    1.08
   1  11   6    0.32    1.31
  -2 -11  -6    0.80    1.16
   2  11   6   -1.77    1.12
  -3 -11  -6    1.14    1.31
   3  11   6   -1.38    1.29
  -4 -11  -6    1.69    1.46
   4  11   6   -3.87    1.44
  -5 -11  -6    0.02    1.29
   5  11   6    0.52    1.71
  -6 -11  -6    1.25    1.43
   6  11   6   -4.46    1.75
   7  11   6   -2.56    2.05
   5 -12  -6    1.97    3.12
  -5  12   6    2.37    1.66
   4 -12  -6   11.83    3.04
  -4  12   6    5.94    2.03
  -3  12   6    6.21    1.88
  -2  12   6   14.76    2.51
  -1  12   6    7.69    2.00
   0  12   6    0.04    1.46
  -1 -12  -6    8.68    1.72
   1  12   6    5.32    1.86
  -2 -12  -6    9.64    2.08
   2  12   6    8.89    2.03
  -3 -12  -6    4.04    1.70
   3  12   6    1.73    1.65
  -4 -12  -6    3.04    1.66
   4  12   6    2.16    1.70
  -5 -12  -6   15.10    2.68
   5  12   6   17.73    3.04
   6  12   6   13.19    3.05
  -3  13   6    0.02    1.40
  -2  13   6    0.27    1.56
  -1  13   6    0.85    1.51
   0  13   6   -0.55    1.39
   1  13   6    0.48    1.51
  -2 -13  -6    2.20    1.37
   2  13   6   -1.19    1.53
  -3 -13  -6    3.36    1.71
   3  13   6   -1.96    1.71
  -4 -13  -6    0.40    1.36
   4  13   6   -2.55    1.61
  -5 -13  -6    1.58    1.69
   5  13   6   -2.70    1.60
  -1  14   6    1.63    1.89
   0  14   6    3.23    1.78
   1  14   6    9.42    2.31
  -2 -14  -6   10.46    2.33
   2  14   6    9.31    2.54
  -3 -14  -6    9.00    2.23
   3  14   6    6.21    2.40
  -4 -14  -6    4.83    1.88
   0 -12   7   17.77    3.60
   1 -12   7    3.65    3.07
  -3 -11   7   -2.47    1.29
  -1 -11   7    0.37    1.47
   0 -11   7    1.30    2.19
  -1  11  -7    1.05    1.42
   1 -11   7    0.39    2.30
  -2  11  -7    2.32    1.54
   2 -11   7    0.62    2.59
  -3  11  -7    8.33    2.14
  -4 -10   7   14.72    2.64
  -3 -10   7   23.32    2.99
  -2 -10   7    6.31    2.00
  -1 -10   7    5.43    2.11
   0 -10   7    5.31    2.43
  -1  10  -7    4.50    1.59
   1 -10   7    5.38    2.58
  -2  10  -7    5.25    1.60
   2 -10   7    1.85    2.63
  -3  10  -7   21.63    2.98
   3 -10   7   16.16    4.06
  -4  10  -7    3.83    1.71
   4 -10   7   -1.47    3.47
  -5  -9   7   -2.42    1.50
  -4  -9   7    0.30    1.51
  -3  -9   7    0.12    1.33
  -3  -9   7    3.02    1.49
  -2  -9   7    0.99    1.54
  -2  -9   7   -0.37    1.13
  -1  -9   7   -0.40    1.41
   0   9  -7   -0.24    1.06
   0  -9   7    1.51    1.85
  -1   9  -7    0.12    1.16
   1  -9   7   -0.76    2.02
  -2   9  -7    2.08    1.44
   2  -9   7   -0.40    2.44
  -3   9  -7    1.01    1.25
   3  -9   7   -0.76    2.56
  -4   9  -7    0.27    1.43
   4  -9   7   -3.37    2.79
  -5   9  -7    0.89    1.44
   5  -9   7   -4.80    3.17
  -6  -8   7    3.99    1.95
  -5  -8   7    2.08    1.53
  -4  -8   7    8.29    2.04
  -4  -8   7    9.59    2.05
  -3  -8   7   26.47    3.05
  -3  -8   7   26.73    3.00
  -2  -8   7   34.54    3.52
  -2  -8   7   30.28    2.69
  -1  -8   7  226.07    6.77
  -1  -8   7  227.36    8.53
   0   8  -7   28.84    2.39
   0  -8   7   28.75    3.62
  -1   8  -7   14.89    1.99
   1  -8   7   17.36    3.06
  -2   8  -7    2.49    1.23
   2  -8   7    2.63    2.53
  -3   8  -7   14.79    2.24
   3  -8   7   14.15    3.49
  -4   8  -7    8.60    2.04
   4  -8   7    8.13    3.22
  -5   8  -7    5.80    1.88
   5  -8   7    2.54    3.14
  -6   8  -7    3.79    2.86
  -6  -7   7   -0.60    1.42
  -5  -7   7   -0.28    1.36
  -5  -7   7    1.30    1.59
  -4  -7   7   -0.34    1.24
  -4  -7   7   -0.43    1.07
  -3  -7   7    0.93    1.26
  -3  -7   7    0.59    1.26
  -2  -7   7    0.63    1.30
  -2  -7   7   -0.23    0.94
   1   7  -7    0.89    0.99
  -1  -7   7    0.29    1.43
  -1  -7   7   -0.25    0.82
   0   7  -7    0.64    0.97
   0  -7   7    1.07    0.94
   0  -7   7   -0.16    1.73
  -1   7  -7    1.61    1.07
   1  -7   7    1.08    1.89
  -2   7  -7    0.20    0.99
   2  -7   7   -0.53    2.00
  -3   7  -7   -0.09    1.01
   3  -7   7   -1.26    2.10
  -4   7  -7   -0.13    1.13
   4  -7   7    0.37    2.48
  -5   7  -7    0.34    1.23
   5  -7   7   -2.66    2.41
  -6   7  -7    2.14    1.47
   6  -7   7   -3.63    2.71
  -7  -6   7    1.86    1.78
  -6  -6   7    0.19    1.45
  -5  -6   7    1.86    1.49
  -5  -6   7    2.09    1.46
  -4  -6   7   12.39    2.07
  -4  -6   7   11.20    2.15
  -3  -6   7    8.53    1.72
  -3  -6   7    9.72    1.99
  -2  -6   7    8.41    1.90
  -2  -6   7   11.58    1.77
   1   6  -7    8.34    1.30
  -1  -6   7    7.27    1.89
  -1  -6   7    7.89    1.40
   0   6  -7   37.28    2.29
   0  -6   7   34.77    2.09
   0  -6   7   36.36    3.50
  -1   6  -7  260.65    7.18
   1  -6   7  260.08    8.99
  -2   6  -7  277.54    7.89
   2  -6   7  283.97    9.73
  -3   6  -7   86.62    4.18
   3  -6   7   87.49    5.71
  -4   6  -7   63.87    3.74
   4  -6   7   67.45    5.52
  -5   6  -7    0.84    1.26
   5  -6   7   -0.76    2.42
  -6   6  -7   25.51    3.25
   6  -6   7   21.98    4.51
  -7   6  -7    0.96    1.53
   7  -6   7   -2.82    2.83
  -7  -5   7   -1.08    1.37
  -6  -5   7    0.34    1.13
  -6  -5   7   -1.00    1.23
  -5  -5   7    1.06    1.25
  -5  -5   7   -0.35    1.15
  -4  -5   7    0.45    1.12
  -4  -5   7    0.66    1.00
  -3  -5   7   -0.72    0.95
  -3  -5   7    1.01    1.27
  -2  -5   7    0.06    0.94
  -2  -5   7    0.66    1.13
   1   5  -7   -0.24    0.69
  -1  -5   7   -1.07    0.69
  -1  -5   7    0.57    1.27
   0   5  -7    0.42    0.80
   0  -5   7   -0.28    0.69
   0  -5   7    0.08    1.41
  -1   5  -7    0.35    0.91
   1  -5   7    0.93    1.61
  -2   5  -7   -0.29    0.94
   2  -5   7   -0.45    1.79
  -3   5  -7    0.48    0.99
   3  -5   7    0.08    1.89
  -4   5  -7    0.20    1.05
   4  -5   7   -0.69    1.89
  -5   5  -7    0.68    1.19
   5  -5   7   -1.92    1.98
  -6   5  -7    0.66    1.30
   6  -5   7   -2.58    2.28
  -7   5  -7   -1.58    1.19
   7  -5   7   -4.40    2.48
  -8  -4   7   -1.05    1.35
  -7  -4   7    3.16    1.85
  -7  -4   7    3.05    1.70
  -6  -4   7   -0.30    1.19
  -6  -4   7   -1.68    1.10
  -5  -4   7    9.73    1.88
  -5  -4   7    9.47    2.08
  -4  -4   7   12.49    2.22
  -4  -4   7   14.43    2.02
  -3  -4   7   48.73    3.45
  -3  -4   7   46.29    2.76
  -2  -4   7   40.14    2.38
  -2  -4   7   40.60    3.21
   1   4  -7   26.65    1.50
  -1  -4   7   28.19    2.67
  -1  -4   7   23.34    1.83
   0   4  -7   83.45    2.92
   0  -4   7   84.80    4.26
  -1   4  -7    6.39    1.19
   1  -4   7    6.60    1.84
  -2   4  -7   28.41    2.13
   2  -4   7   30.01    3.29
  -3   4  -7  274.36    7.78
   3  -4   7  281.49    9.20
  -4   4  -7  135.94    5.22
   4  -4   7  134.65    6.65
  -5   4  -7  114.49    5.12
   5  -4   7  117.02    6.67
  -6   4  -7   50.16    3.67
   6  -4   7   42.15    4.88
  -7   4  -7   12.47    2.58
   7  -4   7    9.22    3.62
  -8   4  -7    2.32    2.71
   8  -4   7   -2.62    2.77
  -8  -3   7    0.61    1.54
  -8  -3   7   -1.84    1.27
  -7  -3   7    0.13    1.27
  -7  -3   7   -0.11    1.30
  -6  -3   7   -0.57    1.09
  -6  -3   7    0.83    1.27
  -5  -3   7    1.06    1.05
  -5  -3   7   -0.17    1.05
  -4  -3   7    0.58    1.06
  -4  -3   7    0.09    0.98
  -3  -3   7   -0.43    0.96
  -3  -3   7   -0.02    0.91
   2   3  -7    0.44    0.43
  -2  -3   7    0.08    0.77
  -2  -3   7   -1.02    0.85
   1   3  -7    0.36    0.46
  -1  -3   7    0.09    0.67
  -1  -3   7   -0.27    0.97
   0   3  -7    0.23    0.51
   0  -3   7    0.10    1.17
  -1   3  -7    0.40    0.62
   1  -3   7   -0.06    1.18
  -2   3  -7   -0.14    0.65
   2  -3   7    0.85    1.37
  -3   3  -7   -0.27    0.86
   3  -3   7    0.74    1.52
  -4   3  -7   -1.17    0.82
   4  -3   7    2.40    1.96
  -5   3  -7   -0.20    1.07
   5  -3   7   -1.01    1.61
  -6   3  -7   -0.34    1.25
   6  -3   7   -0.13    1.98
  -7   3  -7   -0.71    1.15
   7  -3   7   -2.42    2.07
  -8   3  -7    1.74    1.67
   8  -3   7   -7.59    3.12
  -8  -2   7   10.24    2.30
  -8  -2   7    9.96    2.70
  -7  -2   7    2.56    1.46
  -7  -2   7    2.19    1.57
  -6  -2   7    5.06    1.84
  -6  -2   7    7.85    1.77
  -5  -2   7    1.07    1.16
  -5  -2   7   -0.14    1.02
  -4  -2   7   11.22    2.06
  -4  -2   7   13.53    1.82
  -3  -2   7    0.26    0.86
  -3  -2   7    0.04    0.88
   2   2  -7    6.54    0.46
  -2  -2   7    4.96    1.08
  -2  -2   7    6.23    1.38
   1   2  -7  285.87    5.87
  -1  -2   7  285.83    8.01
   0   2  -7  383.79    8.08
   0  -2   7  385.04    9.77
  -1   2  -7  182.33    4.77
   1  -2   7  184.22    5.94
  -2   2  -7   69.41    2.21
  -2   2  -7   64.82    2.73
   2  -2   7   68.31    3.65
  -3   2  -7   16.94    1.15
  -3   2  -7   17.57    1.69
   3  -2   7   15.62    2.14
  -4   2  -7   96.78    4.14
   4  -2   7   98.62    4.88
  -5   2  -7   37.63    2.90
   5  -2   7   41.82    3.75
  -6   2  -7  131.02    5.59
   6  -2   7  133.93    6.82
  -7   2  -7    7.55    1.98
   7  -2   7    6.04    2.83
  -8   2  -7   18.39    2.93
   8  -2   7   12.59    4.17
  -8  -1   7   -1.04    1.26
  -8  -1   7    0.37    1.63
  -7  -1   7   -0.58    1.27
  -7  -1   7   -1.05    1.21
  -6  -1   7   -0.57    1.00
  -6  -1   7    0.12    1.16
  -5  -1   7    0.22    1.00
  -5  -1   7    1.32    1.05
  -4  -1   7    0.46    1.06
  -4  -1   7    1.52    1.00
  -3  -1   7   -0.52    0.76
  -3  -1   7   -0.40    0.83
  -2  -1   7    0.01    0.73
   1   1  -7    0.00    0.22
  -1  -1   7   -0.09    0.69
   0   1  -7    0.08    0.38
   0  -1   7   -0.06    0.83
  -1   1  -7   -0.08    0.50
   1  -1   7    0.06    0.92
  -2   1  -7   -0.34    0.61
  -2   1  -7    0.20    0.61
   2  -1   7    0.02    1.04
  -3   1  -7    0.08    0.56
  -3   1  -7    0.01    0.69
   3  -1   7    0.09    1.08
  -4   1  -7    0.00    0.83
  -4   1  -7   -0.05    0.61
   4  -1   7    0.22    1.40
  -5   1  -7    0.55    1.01
   5  -1   7    0.91    1.38
  -6   1  -7   -1.10    0.89
   6  -1   7   -1.55    1.59
  -7   1  -7    1.44    1.29
   7  -1   7   -2.10    1.93
  -8   1  -7   -0.76    1.26
   8  -1   7   -3.47    2.51
  -8   0   7    3.39    2.27
  -7   0   7    0.21    1.36
  -6   0   7   81.67    5.34
  -6   0   7   75.83    3.72
  -5   0   7    0.47    0.99
  -5   0   7    0.47    1.18
  -4   0   7   36.74    3.14
  -4   0   7   32.24    2.14
  -3   0   7   21.41    2.30
  -2   0   7   70.59    3.56
  -1   0   7    8.82    1.36
   0   0  -7  277.97    5.88
   0   0   7  285.14    7.36
  -1   0  -7   18.19    1.19
   1   0   7   17.56    1.85
  -2   0  -7 1899.69   36.46
  -2   0  -7 1921.09   35.86
   2   0   7 1943.91   37.15
  -3   0  -7   22.27    1.69
  -3   0  -7   23.31    1.41
   3   0   7   24.90    2.30
  -4   0  -7   59.14    2.97
  -4   0  -7   55.36    2.23
   4   0   7   60.70    3.47
  -5   0  -7   12.33    1.84
   5   0   7   11.27    2.01
  -6   0  -7   47.42    3.18
   6   0   7   45.63    3.82
  -7   0  -7   11.62    2.23
   7   0   7   10.66    2.45
  -8   0  -7   61.40    4.20
  -9   0  -7    3.11    2.82
  -8   1   7   -0.99    1.31
  -7   1   7   -0.09    1.59
  -6   1   7   -0.96    1.02
  -5   1   7    0.05    1.08
  -4   1   7    0.13    0.91
  -3   1   7    0.10    0.83
  -3   1   7   -0.12    0.27
  -2   1   7   -0.67    0.66
  -2   1   7   -0.13    0.14
  -1   1   7   -0.15    0.65
  -1   1   7   -0.03    0.21
   0   1   7   -0.14    0.31
   0   1   7   -0.62    0.65
  -1  -1  -7   -0.46    0.63
  -1  -1  -7   -0.11    0.42
   1   1   7    0.10    0.75
  -2  -1  -7    0.05    0.55
  -2  -1  -7   -0.62    0.56
   2   1   7    0.43    0.76
  -3  -1  -7   -0.65    0.61
  -3  -1  -7   -0.05    0.64
   3   1   7    0.27    0.89
  -4  -1  -7   -0.32    0.62
  -4  -1  -7   -0.22    0.78
   4   1   7   -0.59    1.02
  -5  -1  -7    0.08    0.64
  -5  -1  -7   -0.10    0.91
   5   1   7   -0.45    1.13
  -6  -1  -7    0.20    1.02
   6   1   7   -1.43    1.22
  -7  -1  -7    0.72    1.15
  -8  -1  -7   -1.96    1.34
  -9  -1  -7    0.24    1.44
  -8   2   7    1.85    2.11
  -7   2   7   12.95    2.92
  -6   2   7    0.45    1.39
  -5   2   7   13.04    2.45
  -4   2   7   36.82    3.23
  -3   2   7   55.63    3.52
  -3   2   7   53.79    1.80
  -2   2   7   92.23    4.01
  -2   2   7   87.86    2.26
  -1   2   7  234.00    6.51
  -1   2   7  225.80    4.73
   0   2   7  132.62    3.19
   0   2   7  135.37    4.13
  -1  -2  -7  356.48    7.70
   1   2   7  342.75    7.85
   1   2   7  341.01    7.43
  -2  -2  -7  134.98    3.88
  -2  -2  -7  141.89    4.05
   2   2   7  141.19    3.98
  -3  -2  -7   28.00    1.73
  -3  -2  -7   23.87    1.73
   3   2   7   24.58    1.78
  -4  -2  -7  301.48    7.94
  -4  -2  -7  304.15    7.33
   4   2   7  305.64    7.69
  -5  -2  -7   42.24    2.26
  -5  -2  -7   44.99    2.76
   5   2   7   40.28    2.78
  -6  -2  -7   53.79    3.26
  -6  -2  -7   56.31    2.81
  -7  -2  -7    1.71    1.35
  -8  -2  -7    9.65    2.23
  -9  -2  -7   -1.48    1.46
  -8   3   7   -0.29    1.79
  -7   3   7   -0.95    1.41
  -6   3   7    1.35    1.46
  -5   3   7   -0.98    0.99
  -4   3   7   -0.38    0.50
  -4   3   7   -0.25    1.07
  -3   3   7    0.11    0.92
  -3   3   7   -0.02    0.43
  -2   3   7    0.57    0.79
  -2   3   7   -0.13    0.38
  -1   3   7   -0.05    0.61
  -1   3   7   -0.01    0.39
   0  -3  -7    0.11    0.78
   0   3   7   -0.33    0.42
   0   3   7   -0.09    0.57
  -1  -3  -7    0.62    0.63
   1   3   7   -0.19    0.45
   1   3   7   -0.53    0.46
  -2  -3  -7   -0.67    0.73
   2   3   7    0.27    0.52
   2   3   7   -0.68    0.46
  -3  -3  -7    0.16    0.80
   3   3   7    0.40    0.66
   3   3   7   -0.11    0.60
  -4  -3  -7   -0.03    0.81
  -4  -3  -7   -0.15    0.85
   4   3   7    0.33    0.84
  -5  -3  -7    0.20    0.77
  -5  -3  -7   -0.68    0.88
  -6  -3  -7   -1.01    0.93
  -6  -3  -7    0.95    0.79
  -7  -3  -7   -0.39    1.11
  -8  -3  -7   -0.30    1.24
   8   3   7    5.07    1.05
  -8   4   7    1.52    2.11
  -7   4   7    9.72    2.75
  -6   4   7   16.22    2.98
  -5   4   7    3.95    1.79
  -4   4   7   11.77    1.37
  -4   4   7   10.49    2.09
  -3   4   7    7.73    1.05
  -3   4   7    6.57    1.61
  -2   4   7   29.46    2.42
  -2   4   7   32.71    1.56
   1  -4  -7   59.48    2.41
  -1   4   7   61.82    2.12
  -1   4   7   62.44    3.07
   0  -4  -7  317.87    7.24
   0   4   7  306.63    7.52
   0   4   7  314.30    6.90
  -1  -4  -7  563.91   11.78
   1   4   7  556.55   11.49
   1   4   7  546.80   11.31
  -2  -4  -7   96.92    3.33
   2   4   7   92.71    3.15
  -3  -4  -7   33.48    2.07
   3   4   7   34.09    1.40
   3   4   7   35.08    2.01
  -4  -4  -7   43.00    2.47
   4   4   7   44.02    2.43
  -5  -4  -7    9.53    1.56
   5   4   7    8.65    1.55
  -6  -4  -7   36.20    2.49
   6   4   7   40.07    2.63
  -7  -4  -7   10.34    1.74
   7   4   7   14.78    2.12
   8   4   7   20.37    2.59
   9   4   7   25.50    2.25
  -7   5   7   -0.63    1.68
  -6   5   7    1.61    1.79
  -5   5   7   -0.19    1.31
  -5   5   7   -0.16    0.70
  -4   5   7   -0.07    1.33
  -4   5   7    0.08    0.69
  -3   5   7    0.10    0.68
  -3   5   7    1.07    1.16
   2  -5  -7    1.52    1.09
  -2   5   7   -0.73    0.54
  -2   5   7    0.34    0.87
   1  -5  -7    0.10    0.85
  -1   5   7   -0.52    0.69
  -1   5   7   -0.39    0.53
   0  -5  -7    1.89    0.96
   0   5   7    0.05    0.58
   0   5   7    0.59    0.62
  -1  -5  -7   -0.75    0.60
   1   5   7   -0.60    0.53
   1   5   7   -0.30    0.40
  -2  -5  -7   -0.37    0.82
   2   5   7   -0.22    0.57
  -3  -5  -7   -0.28    0.86
   3   5   7    0.25    0.69
  -4  -5  -7   -1.60    0.82
   4   5   7   -1.10    0.71
  -5  -5  -7    0.02    0.93
   5   5   7   -0.91    0.88
  -6  -5  -7    0.43    0.94
   6   5   7   -0.74    0.95
  -7  -5  -7    0.40    1.02
   7   5   7   -0.18    1.27
  -8  -5  -7   -1.33    0.98
   8   5   7    3.32    1.37
   9   5   7    6.30    1.63
  -6   6   7    1.04    2.05
  -5   6   7   32.32    3.83
  -5   6   7   27.98    2.24
   4  -6  -7   67.12    3.02
  -4   6   7   64.28    4.51
  -4   6   7   65.62    3.11
   3  -6  -7   46.67    2.35
  -3   6   7   48.71    2.46
  -3   6   7   44.67    3.51
   2  -6  -7   65.87    2.71
  -2   6   7   67.10    3.73
  -2   6   7   68.26    2.76
   1  -6  -7   34.38    2.16
  -1   6   7   36.89    1.97
  -1   6   7   36.36    2.43
   0  -6  -7   74.68    2.99
   0   6   7   74.91    2.83
   0   6   7   75.93    3.07
  -1  -6  -7   25.86    1.78
  -1  -6  -7   24.94    1.25
   1   6   7   24.01    1.77
   1   6   7   23.21    1.39
  -2  -6  -7  121.91    4.22
   2   6   7  121.43    3.96
  -3  -6  -7  274.99    7.42
   3   6   7  272.92    7.12
  -4  -6  -7    6.53    1.52
   4   6   7    8.54    1.49
  -5  -6  -7    6.66    1.55
   5   6   7    8.46    1.62
  -6  -6  -7    0.22    1.12
   6   6   7    1.33    1.23
  -7  -6  -7    9.47    1.94
   7   6   7   12.81    2.31
  -8  -6  -7    2.71    1.40
   8   6   7    4.02    1.71
  -7   7   7   -0.73    1.89
   6  -7  -7    8.32    1.97
  -6   7   7   -0.80    1.65
   5  -7  -7    5.15    1.46
  -5   7   7   -0.91    1.49
  -5   7   7    0.92    1.00
  -4   7   7    0.96    0.92
  -4   7   7    0.49    1.50
   3  -7  -7   -0.65    1.08
  -3   7   7    0.31    0.86
  -3   7   7   -0.13    1.39
   2  -7  -7   -0.10    1.13
  -2   7   7    0.97    1.15
  -2   7   7   -0.19    0.83
   1  -7  -7   -0.95    1.04
   1  -7  -7    0.07    0.60
  -1   7   7   -0.91    0.77
  -1   7   7    0.62    0.99
   0  -7  -7    0.46    0.99
   0  -7  -7    0.03    0.56
   0   7   7   -0.22    0.91
   0   7   7   -0.11    0.72
  -1  -7  -7   -0.74    0.96
   1   7   7   -0.37    0.82
  -2  -7  -7    1.48    0.92
   2   7   7    0.50    0.87
  -3  -7  -7   -0.37    1.02
   3   7   7   -0.21    0.90
  -4  -7  -7   -0.48    0.78
   4   7   7   -0.57    0.89
  -5  -7  -7   -0.59    1.01
   5   7   7    0.37    1.07
  -6  -7  -7   -0.32    1.08
   6   7   7    0.10    1.24
  -7  -7  -7   -0.83    1.03
   7   7   7    0.76    1.50
  -8  -7  -7    1.39    1.32
   8   7   7    1.62    1.71
  -6   8   7    8.20    2.81
  -6   8   7   10.25    3.03
   5  -8  -7   31.20    3.68
  -5   8   7   21.73    2.57
  -5   8   7   20.07    3.44
   4  -8  -7   18.74    2.94
  -4   8   7   12.85    1.88
  -4   8   7   11.66    2.60
   3  -8  -7   80.05    4.77
  -3   8   7   77.84    4.85
  -3   8   7   75.70    3.55
   2  -8  -7   58.45    3.77
   2  -8  -7   62.15    2.93
  -2   8   7   61.68    4.07
  -2   8   7   61.27    3.06
   1  -8  -7  208.48    5.96
   1  -8  -7  218.73    6.83
  -1   8   7  215.80    6.99
  -1   8   7  219.82    6.19
   0  -8  -7   44.13    2.55
   0  -8  -7   42.44    2.49
   0   8   7   43.67    2.55
  -1  -8  -7   30.43    2.30
   1   8   7   30.33    2.21
  -2  -8  -7    6.21    1.54
   2   8   7    3.80    1.25
  -3  -8  -7    1.24    1.27
   3   8   7    1.58    1.15
  -4  -8  -7   41.98    2.97
   4   8   7   43.63    2.82
  -5  -8  -7    5.21    1.60
   5   8   7    8.32    1.81
  -6  -8  -7   26.26    2.72
   6   8   7   24.72    2.94
  -7  -8  -7    7.33    1.94
   7   8   7    7.34    2.20
  -8  -8  -7    2.12    1.46
   8   8   7    1.38    1.77
   6  -9  -7   13.21    2.80
  -6   9   7   -0.84    2.04
  -6   9   7    1.04    1.15
   5  -9  -7    4.08    2.24
  -5   9   7    0.58    1.06
  -5   9   7   -0.88    2.03
   4  -9  -7    1.17    2.06
  -4   9   7   -1.23    1.47
  -4   9   7    0.44    0.97
   3  -9  -7    1.30    1.59
  -3   9   7    0.58    1.19
  -3   9   7   -0.72    1.26
   2  -9  -7    0.54    1.14
   2  -9  -7    0.09    1.22
  -2   9   7    0.21    1.03
  -2   9   7   -0.89    1.22
   1  -9  -7   -1.07    0.90
   1  -9  -7    0.05    1.04
  -1   9   7    0.37    1.17
   0  -9  -7   -1.55    1.11
   0   9   7    1.58    1.18
   1   9   7   -0.88    1.07
  -2  -9  -7    0.31    1.18
   2   9   7   -0.39    1.12
  -3  -9  -7   -0.12    1.16
   3   9   7   -0.74    1.06
  -4  -9  -7   -1.09    0.99
   4   9   7    0.40    1.21
  -5  -9  -7    0.97    1.27
   5   9   7   -1.15    1.31
  -6  -9  -7    0.22    1.25
   6   9   7   -0.33    1.51
  -7  -9  -7   -0.75    1.20
   7   9   7   -1.16    1.65
   8   9   7   -3.06    2.10
   6 -10  -7   10.29    3.07
  -6  10   7    2.74    1.35
  -6  10   7   -0.42    2.17
   5 -10  -7    6.87    2.70
  -5  10   7    2.31    2.28
  -5  10   7    4.08    1.51
   4 -10  -7    3.17    2.14
  -4  10   7    0.06    1.07
  -4  10   7   -1.45    1.63
   3 -10  -7   42.82    3.99
  -3  10   7   45.82    3.15
   2 -10  -7   27.67    2.99
  -2  10   7   24.82    2.38
   1 -10  -7   92.36    3.77
  -1  10   7   89.98    4.12
   0 -10  -7   77.71    3.56
   0  10   7   81.83    3.84
  -1 -10  -7  124.29    4.85
   1  10   7  132.65    4.98
  -2 -10  -7   95.44    4.32
   2  10   7   92.22    4.15
  -3 -10  -7   29.84    2.67
   3  10   7   28.33    2.58
  -4 -10  -7   11.84    2.09
   4  10   7    6.26    1.83
  -5 -10  -7    7.44    2.02
   5  10   7   10.44    2.33
  -6 -10  -7    0.72    1.33
   6  10   7    1.70    1.87
  -7 -10  -7    1.54    1.59
   7  10   7   -0.75    2.05
  -6  11   7    1.93    1.37
   5 -11  -7    3.85    2.47
  -5  11   7    3.10    1.52
   4 -11  -7    1.55    1.91
  -4  11   7    2.63    1.37
   3 -11  -7   -0.78    1.80
  -3  11   7    0.15    1.32
  -2  11   7   -0.38    1.18
  -1  11   7   -0.15    1.43
   0 -11  -7    1.47    1.10
   0  11   7    1.40    1.40
  -1 -11  -7    0.35    1.04
   1  11   7    0.32    1.34
  -2 -11  -7    1.51    1.29
   2  11   7   -0.25    1.34
  -3 -11  -7   -0.22    1.19
   3  11   7   -0.84    1.32
  -4 -11  -7    1.33    1.40
   4  11   7   -0.88    1.42
  -5 -11  -7    0.67    1.53
   5  11   7   -0.56    1.55
  -6 -11  -7   -0.14    1.46
   6  11   7   -0.99    1.91
   7  11   7   -2.60    3.24
   5 -12  -7    4.13    2.80
  -5  12   7    7.29    2.03
   4 -12  -7    3.36    2.69
  -4  12   7    3.13    1.57
  -3  12   7    1.55    1.40
  -2  12   7    8.56    2.03
  -1  12   7   14.25    2.37
   0  12   7    6.49    1.93
  -1 -12  -7   34.65    2.92
   1  12   7   32.84    3.02
  -2 -12  -7   20.70    2.70
   2  12   7   14.57    2.41
  -3 -12  -7   31.68    2.96
   3  12   7   28.17    3.12
  -4 -12  -7   33.99    3.22
   4  12   7   29.08    3.08
  -5 -12  -7   13.70    2.58
   5  12   7   12.67    2.80
   6  12   7    6.55    2.63
  -3  13   7    0.71    1.45
  -2  13   7    1.59    1.52
  -1  13   7    0.18    1.47
   0  13   7    0.39    1.73
  -1 -13  -7    2.95    1.36
   1  13   7    1.94    1.89
  -2 -13  -7    0.85    1.43
   2  13   7   -1.26    1.54
  -3 -13  -7    0.35    1.36
   3  13   7   -1.28    1.69
  -4 -13  -7    1.41    1.55
   4  13   7   -1.82    1.66
  -5 -13  -7    1.77    1.75
   5  13   7   -2.21    1.66
  -2  14   7    1.44    2.04
  -1  14   7   13.23    2.61
   0  14   7    8.92    2.31
   1  14   7   15.01    2.80
  -2 -14  -7    2.16    1.54
   2  14   7    0.51    1.77
  -3 -14  -7    4.20    1.92
   3  14   7    4.21    2.30
  -4 -14  -7    1.55    1.76
  -1 -11   8    2.41    1.93
   0 -11   8    1.27    2.05
   1 -11   8    0.78    2.27
  -2  11  -8    0.94    1.36
   2 -11   8    0.67    4.04
  -4 -10   8    4.14    1.92
  -3 -10   8   24.33    3.13
  -2 -10   8    9.35    2.37
  -1 -10   8    1.98    1.63
   0 -10   8    1.82    2.29
   1 -10   8   16.04    3.40
  -2  10  -8    0.61    1.21
   2 -10   8   -0.71    2.46
  -3  10  -8    7.34    1.88
   3 -10   8    8.49    3.50
  -4  10  -8    4.20    1.75
  -5  -9   8    0.18    2.00
  -4  -9   8   -2.37    1.28
  -3  -9   8    0.85    1.37
  -3  -9   8   -0.79    1.27
  -2  -9   8    1.32    1.40
  -2  -9   8   -1.90    1.02
  -1  -9   8    0.04    1.45
   0  -9   8    0.90    1.84
  -1   9  -8    0.53    1.06
   1  -9   8   -0.75    2.02
  -2   9  -8    1.37    1.18
   2  -9   8   -2.18    2.10
  -3   9  -8    0.15    1.28
   3  -9   8   -2.10    2.59
  -4   9  -8    0.98    1.46
   4  -9   8   -2.25    2.86
  -5  -8   8    9.05    2.31
  -4  -8   8    9.93    2.26
  -4  -8   8   13.43    2.47
  -3  -8   8   91.47    5.41
  -3  -8   8   89.40    4.50
  -2  -8   8   10.64    1.92
  -2  -8   8   10.24    2.32
  -1  -8   8    9.70    2.28
  -1  -8   8   10.57    1.78
   0  -8   8    2.54    1.95
  -1   8  -8   18.68    2.28
   1  -8   8   16.18    3.08
  -2   8  -8    3.83    1.40
   2  -8   8    4.13    2.58
  -3   8  -8    1.56    1.42
   3  -8   8    1.06    2.69
  -4   8  -8    1.96    1.38
   4  -8   8   -0.86    3.07
  -5   8  -8    9.99    2.26
   5  -8   8    8.68    3.60
  -6  -7   8    0.21    1.56
  -5  -7   8    0.69    1.33
  -5  -7   8    2.05    1.60
  -4  -7   8    0.08    1.20
  -4  -7   8   -1.28    1.46
  -3  -7   8    0.14    1.40
  -3  -7   8    1.74    1.43
  -2  -7   8   -0.75    0.99
  -2  -7   8    0.46    1.28
  -1  -7   8   -0.49    1.03
  -1  -7   8    0.58    1.40
   0   7  -8    1.12    0.97
   0  -7   8   -0.14    1.61
  -1   7  -8   -0.13    0.86
   1  -7   8    0.41    1.83
  -2   7  -8    0.01    0.98
   2  -7   8   -0.44    2.01
  -3   7  -8   -0.37    1.17
   3  -7   8   -1.24    2.26
  -4   7  -8    0.56    1.26
   4  -7   8   -0.83    2.52
  -5   7  -8    3.24    1.57
   5  -7   8   -1.69    2.61
  -6   7  -8    0.67    1.57
   6  -7   8   -4.04    2.73
  -6  -6   8    5.06    2.63
  -6  -6   8    3.65    1.85
  -5  -6   8    8.51    2.07
  -5  -6   8    7.32    2.09
  -4  -6   8    3.36    1.55
  -4  -6   8    3.47    1.55
  -3  -6   8    0.49    1.10
  -3  -6   8    0.95    1.22
  -2  -6   8   24.82    2.22
  -2  -6   8   24.27    3.04
  -1  -6   8   83.49    4.79
  -1  -6   8   83.75    3.60
   0   6  -8  153.52    4.88
   0  -6   8  151.87    6.65
  -1   6  -8   53.44    2.93
   1  -6   8   51.25    4.37
  -2   6  -8   60.92    3.30
   2  -6   8   57.17    4.83
  -3   6  -8   26.59    2.43
   3  -6   8   20.91    3.43
  -4   6  -8   89.64    4.48
   4  -6   8   88.19    6.32
  -5   6  -8    6.19    1.82
   5  -6   8   -0.68    2.45
  -6   6  -8   19.52    2.91
   6  -6   8   15.75    3.90
   7  -6   8   -1.89    3.30
  -7  -5   8    1.48    1.67
  -6  -5   8   -0.13    1.38
  -6  -5   8    1.07    1.39
  -5  -5   8   -0.65    1.20
  -5  -5   8    1.50    1.42
  -4  -5   8   -0.30    1.09
  -4  -5   8    0.53    1.06
  -3  -5   8   -0.68    0.96
  -3  -5   8    1.68    1.21
  -2  -5   8   -0.21    0.94
  -2  -5   8   -0.20    1.28
  -1  -5   8   -0.41    0.94
  -1  -5   8    0.91    1.36
   0   5  -8   -0.25    0.73
   0  -5   8    0.62    1.50
  -1   5  -8    0.05    0.86
   1  -5   8    0.20    1.66
  -2   5  -8   -0.89    0.82
   2  -5   8   -0.17    1.85
  -3   5  -8   -1.50    0.95
   3  -5   8   -0.99    1.85
  -4   5  -8    1.12    1.24
   4  -5   8   -3.23    1.73
  -5   5  -8    1.01    1.28
   5  -5   8   -1.41    2.16
  -6   5  -8   -1.22    1.15
   6  -5   8   -3.31    2.31
  -7   5  -8   -1.22    1.51
   7  -5   8   -5.11    2.66
  -7  -4   8    0.31    1.45
  -7  -4   8    0.84    1.55
  -6  -4   8   -0.31    1.33
  -6  -4   8    0.72    1.43
  -5  -4   8    6.52    1.74
  -5  -4   8    7.16    2.03
  -4  -4   8   34.58    2.69
  -4  -4   8   35.38    3.39
  -3  -4   8   26.15    2.85
  -3  -4   8   30.43    2.41
  -2  -4   8   10.84    1.62
  -2  -4   8    9.43    1.87
   1   4  -8   19.94    1.36
  -1  -4   8   19.80    2.59
  -1  -4   8   19.99    1.73
   0   4  -8   26.09    1.68
   0  -4   8   26.31    2.90
  -1   4  -8  111.72    3.80
   1  -4   8  107.98    5.21
  -2   4  -8   51.88    2.72
   2  -4   8   46.78    3.97
  -3   4  -8   99.07    4.18
   3  -4   8  107.24    5.67
  -4   4  -8   86.15    4.15
   4  -4   8   85.75    5.35
  -5   4  -8   65.87    3.88
   5  -4   8   60.44    5.12
  -6   4  -8   13.59    2.45
   6  -4   8    8.75    3.17
  -7   4  -8    6.09    1.97
   7  -4   8    1.88    2.62
   8  -4   8   -1.89    3.17
  -8  -3   8    0.03    1.51
  -8  -3   8   -1.54    1.36
  -7  -3   8    1.35    1.49
  -7  -3   8    0.10    1.36
  -6  -3   8   -1.07    1.14
  -6  -3   8   -0.41    1.22
  -5  -3   8    0.70    1.29
  -5  -3   8   -0.49    1.07
  -4  -3   8    0.37    1.05
  -4  -3   8   -0.58    1.00
  -3  -3   8   -1.09    0.92
  -3  -3   8    0.86    1.02
  -2  -3   8   -0.21    0.86
  -2  -3   8   -0.88    0.92
   1   3  -8    0.53    0.48
  -1  -3   8   -0.30    1.06
   0   3  -8    0.19    0.58
   0  -3   8    0.05    1.19
  -1   3  -8   -0.26    0.63
   1  -3   8    0.31    1.34
  -2   3  -8    0.49    0.80
   2  -3   8   -0.86    1.50
  -3   3  -8    0.54    0.92
   3  -3   8    0.49    1.68
  -4   3  -8    0.45    1.08
   4  -3   8    0.04    1.92
  -5   3  -8   -0.46    1.06
   5  -3   8   -0.26    1.75
  -6   3  -8   -0.87    1.16
   6  -3   8   -0.07    1.93
  -7   3  -8   -0.14    1.25
   7  -3   8   -1.05    2.18
  -8   3  -8   -1.88    1.18
   8  -3   8   -2.03    2.73
  -8  -2   8    2.58    1.73
  -8  -2   8    5.68    2.32
  -7  -2   8    0.21    1.32
  -7  -2   8   -0.16    1.47
  -6  -2   8   -1.87    1.04
  -6  -2   8    0.63    1.30
  -5  -2   8    7.41    1.61
  -5  -2   8    5.34    1.72
  -4  -2   8   12.14    1.79
  -4  -2   8   12.05    2.17
  -3  -2   8   20.17    2.54
  -3  -2   8   21.60    1.94
  -2  -2   8  179.97    6.43
   1   2  -8  160.09    3.64
  -1  -2   8  160.01    5.74
   0   2  -8    5.53    0.78
   0  -2   8    4.08    1.30
  -1   2  -8  138.37    4.05
   1  -2   8  142.83    5.29
  -2   2  -8    9.69    1.32
   2  -2   8   13.27    2.04
  -3   2  -8   24.19    1.47
  -3   2  -8   28.41    2.10
   3  -2   8   27.57    3.00
  -4   2  -8   55.90    3.19
   4  -2   8   54.12    3.93
  -5   2  -8   27.10    2.53
   5  -2   8   24.26    3.14
  -6   2  -8   47.51    3.40
   6  -2   8   46.58    4.77
  -7   2  -8   32.47    3.10
   7  -2   8   33.88    4.20
  -8   2  -8    3.98    1.78
   8  -2   8    0.42    2.99
  -8  -1   8    0.77    1.68
  -7  -1   8   -0.35    1.27
  -7  -1   8    0.20    1.33
  -6  -1   8   -0.26    1.06
  -6  -1   8   -0.44    1.10
  -5  -1   8    0.52    1.16
  -5  -1   8   -1.48    0.91
  -4  -1   8    0.71    1.03
  -4  -1   8    0.26    1.06
  -3  -1   8    0.29    0.94
  -2  -1   8    0.22    0.81
   1   1  -8   -0.02    0.24
  -1  -1   8    0.16    0.87
   0   1  -8    0.13    0.43
   0  -1   8   -0.09    0.90
  -1   1  -8   -0.08    0.54
   1  -1   8    0.53    1.02
  -2   1  -8   -0.41    0.70
  -2   1  -8   -0.57    0.54
   2  -1   8   -0.16    1.06
  -3   1  -8    0.95    0.94
  -3   1  -8   -0.61    0.63
   3  -1   8   -0.04    1.25
  -4   1  -8    0.75    0.94
   4  -1   8   -0.28    1.53
  -5   1  -8   -1.25    0.83
   5  -1   8    0.57    1.53
  -6   1  -8   -0.95    0.97
   6  -1   8   -0.99    1.47
  -7   1  -8    2.05    1.43
   7  -1   8   -0.85    2.04
  -8   1  -8   -0.71    1.32
  -8   0   8   20.93    3.79
  -7   0   8    0.14    1.38
  -6   0   8   12.90    2.61
  -5   0   8    5.04    1.82
  -4   0   8   25.97    2.86
  -3   0   8    6.57    1.59
  -2   0   8   14.89    2.00
  -1   0   8   44.48    1.03
  -1   0   8   49.69    2.87
   0   0  -8 1441.56   26.88
   0   0   8 1441.50   28.82
  -1   0  -8    4.46    0.77
   1   0   8    4.10    1.17
  -2   0  -8  137.43    3.83
  -2   0  -8  137.31    4.16
   2   0   8  140.01    4.89
  -3   0  -8    0.50    0.72
  -3   0  -8    0.66    0.73
   3   0   8    0.40    1.08
  -4   0  -8   64.25    3.20
  -4   0  -8   65.41    2.50
   4   0   8   65.54    3.78
  -5   0  -8   26.98    2.39
   5   0   8   26.30    2.82
  -6   0  -8   22.91    2.40
   6   0   8   16.20    2.58
  -7   0  -8   16.73    2.48
   7   0   8   14.26    2.74
  -8   0  -8   25.56    3.30
  -8   1   8   -0.33    1.64
  -7   1   8   -0.98    1.30
  -6   1   8    0.08    1.33
  -5   1   8   -0.24    1.11
  -4   1   8    0.22    1.08
  -3   1   8    0.29    0.94
  -2   1   8   -0.23    0.78
  -1   1   8   -0.79    0.67
  -1   1   8   -0.33    0.23
   0   1   8    0.00    0.31
   0   1   8   -0.15    0.68
  -1  -1  -8    0.15    0.78
  -1  -1  -8   -0.08    0.51
   1   1   8    0.33    0.78
  -2  -1  -8    0.25    0.58
  -2  -1  -8    0.18    0.75
   2   1   8   -0.08    0.82
  -3  -1  -8    0.03    0.67
  -3  -1  -8    0.69    0.75
   3   1   8    0.25    0.89
  -4  -1  -8   -1.02    0.56
  -4  -1  -8   -0.72    0.77
   4   1   8   -0.04    1.16
  -5  -1  -8   -0.04    0.67
  -5  -1  -8   -0.14    1.06
   5   1   8   -0.04    1.25
  -6  -1  -8    0.36    1.08
   6   1   8   -1.60    1.22
  -7  -1  -8   -0.93    1.09
  -8  -1  -8   -1.11    1.17
  -8   2   8    4.67    2.34
  -7   2   8    2.28    1.84
  -6   2   8   29.60    3.92
  -5   2   8    2.18    1.41
  -4   2   8   30.81    3.14
  -3   2   8   96.02    4.71
  -2   2   8   32.99    1.14
  -2   2   8   33.68    2.58
  -1   2   8   16.15    1.86
  -1   2   8   13.21    0.77
   0   2   8   59.43    2.72
   0   2   8   56.80    1.82
  -1  -2  -8   92.76    3.05
   1   2   8   93.10    3.30
   1   2   8   88.33    2.75
  -2  -2  -8  450.05    9.84
  -2  -2  -8  441.89    9.68
   2   2   8  438.16    9.88
  -3  -2  -8  102.10    3.44
  -3  -2  -8  105.28    3.73
   3   2   8  101.02    3.70
  -4  -2  -8  113.89    4.25
  -4  -2  -8  112.60    3.79
   4   2   8  112.17    4.14
  -5  -2  -8    8.70    1.60
  -5  -2  -8   11.04    1.49
   5   2   8   10.78    1.76
  -6  -2  -8   27.97    2.51
  -6  -2  -8   29.36    2.42
  -7  -2  -8   17.45    2.48
  -8  -2  -8   19.91    2.81
  -8   3   8    0.35    1.85
  -7   3   8   -0.18    1.58
  -6   3   8   -0.96    1.28
  -5   3   8    0.70    1.38
  -4   3   8   -1.03    1.01
  -3   3   8   -0.06    0.41
  -3   3   8   -0.16    0.93
  -2   3   8    0.32    0.40
  -2   3   8   -0.13    0.74
  -1   3   8    0.07    0.41
  -1   3   8    0.57    0.81
   0  -3  -8    1.02    0.89
   0   3   8    0.36    0.45
   0   3   8   -0.23    0.62
  -1  -3  -8   -0.80    0.74
   1   3   8   -0.39    0.50
   1   3   8   -0.25    0.43
  -2  -3  -8    0.40    0.79
   2   3   8   -0.17    0.56
   2   3   8   -0.11    0.58
  -3  -3  -8    0.21    0.77
   3   3   8   -0.41    0.71
   3   3   8    0.26    0.62
  -4  -3  -8   -0.53    0.83
  -4  -3  -8    0.13    0.78
   4   3   8   -1.12    0.87
  -5  -3  -8   -0.77    0.90
  -5  -3  -8   -0.56    0.80
  -6  -3  -8    0.68    0.78
  -6  -3  -8    0.05    1.05
  -7  -3  -8   -0.68    1.18
  -8  -3  -8   -2.47    1.10
   8   3   8    5.42    1.14
   9   3   8    8.33    1.49
  -8   4   8    5.45    2.51
  -7   4   8   14.29    3.19
  -6   4   8    6.59    2.29
  -5   4   8   57.62    4.60
  -4   4   8   23.50    3.07
  -3   4   8   10.45    1.92
  -3   4   8   10.78    1.15
  -2   4   8   95.28    2.84
  -2   4   8   92.68    4.41
   1  -4  -8  251.22    6.31
  -1   4   8  261.56    7.44
  -1   4   8  261.45    5.84
   0  -4  -8  177.33    4.85
   0   4   8  178.56    5.20
   0   4   8  180.62    4.46
  -1  -4  -8   31.19    1.95
   1   4   8   29.25    1.57
   1   4   8   29.96    1.65
  -2  -4  -8   11.63    1.39
   2   4   8   11.15    0.98
   2   4   8   12.10    1.22
  -3  -4  -8    8.51    1.36
   3   4   8    8.96    1.05
   3   4   8    8.80    1.30
  -4  -4  -8   37.99    2.33
   4   4   8   35.74    2.26
  -5  -4  -8    0.86    0.93
   5   4   8    0.25    0.89
  -6  -4  -8   44.43    2.70
   6   4   8   39.80    2.67
  -7  -4  -8   10.90    1.88
   7   4   8   14.71    2.08
   8   4   8    5.59    1.28
   9   4   8   17.12    3.40
  -7   5   8    0.22    1.81
  -6   5   8    0.10    1.59
  -5   5   8   -1.11    1.25
  -4   5   8    0.16    1.28
  -4   5   8    0.08    0.64
  -3   5   8    0.25    0.65
  -3   5   8   -0.59    1.14
   2  -5  -8    0.42    1.04
  -2   5   8    0.00    0.59
  -2   5   8    0.17    0.91
   1  -5  -8    0.02    0.92
  -1   5   8    0.54    0.76
  -1   5   8    0.41    0.67
   0  -5  -8    0.07    0.88
   0   5   8   -0.17    0.62
   0   5   8    0.62    0.69
  -1  -5  -8   -0.29    0.89
   1   5   8   -0.14    0.45
   1   5   8    0.19    0.61
  -2  -5  -8    0.97    0.96
   2   5   8    0.32    0.65
   2   5   8   -0.14    0.29
  -3  -5  -8   -1.42    0.83
   3   5   8    0.33    0.74
  -4  -5  -8   -1.07    0.93
   4   5   8   -0.10    0.83
  -5  -5  -8    0.08    0.95
   5   5   8   -1.51    0.74
  -6  -5  -8   -0.02    0.87
   6   5   8   -0.20    0.90
  -7  -5  -8    0.55    1.19
   7   5   8    1.31    1.20
   8   5   8    2.64    1.23
  -7   6   8    6.62    2.75
  -6   6   8   46.52    4.88
  -5   6   8   37.11    3.96
  -4   6   8  106.06    5.80
  -4   6   8  110.07    4.03
   3  -6  -8   28.19    2.09
  -3   6   8   29.01    3.01
  -3   6   8   24.35    1.88
   2  -6  -8   83.20    3.36
  -2   6   8   86.55    3.20
  -2   6   8   90.68    4.50
   1  -6  -8   51.24    2.52
  -1   6   8   51.02    3.09
  -1   6   8   52.31    2.40
   0  -6  -8  104.45    3.69
   0   6   8  101.17    3.85
   0   6   8  107.00    3.48
  -1  -6  -8  156.56    4.84
   1   6   8  163.35    4.67
   1   6   8  151.64    4.21
  -2  -6  -8   11.48    1.64
   2   6   8   12.46    1.47
  -3  -6  -8   11.14    1.74
   3   6   8   11.18    1.49
  -4  -6  -8    1.31    1.19
   4   6   8    0.89    0.97
  -5  -6  -8    4.81    1.45
   5   6   8    7.94    1.62
  -6  -6  -8    9.40    1.79
   6   6   8    8.89    1.88
  -7  -6  -8    3.77    1.47
   7   6   8    3.15    1.65
  -8  -6  -8    7.85    1.94
   8   6   8    8.12    2.07
  -7   7   8   -0.51    2.00
  -6   7   8   -0.90    1.79
  -5   7   8    0.13    1.49
  -5   7   8    0.71    1.71
  -4   7   8   -1.25    1.42
  -4   7   8    1.79    0.94
   3  -7  -8    0.07    1.28
  -3   7   8    0.62    0.93
  -3   7   8   -0.39    1.28
   2  -7  -8   -1.45    1.19
  -2   7   8   -0.05    0.95
  -2   7   8    1.12    1.21
   1  -7  -8   -0.32    1.06
  -1   7   8    0.26    0.95
  -1   7   8    0.31    0.97
   0  -7  -8   -0.89    1.02
   0   7   8    0.50    0.99
   0   7   8   -0.76    0.68
  -1  -7  -8    0.18    0.84
   1   7   8    0.79    0.91
  -2  -7  -8   -0.97    1.04
   2   7   8    0.61    0.88
  -3  -7  -8   -0.54    1.02
   3   7   8    0.79    0.91
  -4  -7  -8    0.16    1.06
   4   7   8    0.69    0.99
  -5  -7  -8   -0.07    0.99
   5   7   8   -0.09    0.99
  -6  -7  -8    1.20    1.12
   6   7   8   -0.65    1.29
  -7  -7  -8    0.12    1.17
   7   7   8   -0.33    1.34
  -8  -7  -8    1.77    1.35
   8   7   8    1.43    1.50
   7  -8  -8   31.31    4.31
  -5   8   8   20.71    2.17
  -5   8   8   17.38    3.44
   4  -8  -8   59.05    4.19
  -4   8   8   56.59    4.69
  -4   8   8   54.25    3.20
   3  -8  -8  144.90    6.25
  -3   8   8  147.89    6.75
  -3   8   8  139.30    5.01
   2  -8  -8  117.21    4.19
   2  -8  -8  114.81    5.13
  -2   8   8  115.78    5.53
  -2   8   8  114.05    4.23
   1  -8  -8   40.94    2.77
   1  -8  -8   38.15    2.48
  -1   8   8   43.16    3.10
  -1   8   8   40.10    2.61
   0  -8  -8   23.82    2.10
   0   8   8   21.82    2.01
   0   8   8   21.51    2.09
  -1  -8  -8    1.49    1.39
   1   8   8    1.13    1.04
  -2  -8  -8   16.89    2.10
   2   8   8   14.99    1.84
  -3  -8  -8   10.98    1.92
   3   8   8    7.85    1.53
  -4  -8  -8   35.83    2.78
   4   8   8   31.77    2.50
  -5  -8  -8   15.96    2.34
   5   8   8   17.59    2.35
  -6  -8  -8    1.67    1.36
   6   8   8    5.53    1.82
  -7  -8  -8    1.99    1.39
   7   8   8    6.22    2.04
  -8  -8  -8    5.31    1.82
   8   8   8    6.25    2.06
  -6   9   8   -1.80    2.23
   5  -9  -8    9.01    2.29
  -5   9   8    1.81    1.10
  -5   9   8    0.18    1.91
   4  -9  -8    3.07    1.73
  -4   9   8    0.57    1.01
  -4   9   8   -1.25    1.52
   3  -9  -8    1.47    1.39
  -3   9   8   -1.65    1.41
  -3   9   8   -0.02    1.05
   2  -9  -8    0.21    0.99
   2  -9  -8    1.02    1.24
  -2   9   8    0.42    1.15
  -2   9   8   -0.03    1.38
   1  -9  -8    0.45    1.08
   1  -9  -8    0.42    1.02
  -1   9   8   -0.67    1.09
  -1   9   8    0.31    1.11
   0  -9  -8    0.24    1.16
   0   9   8   -0.91    1.04
  -1  -9  -8   -0.17    1.18
   1   9   8    0.60    1.17
  -2  -9  -8    0.78    1.17
   2   9   8   -0.35    1.09
  -3  -9  -8   -1.02    1.08
   3   9   8   -0.31    1.07
  -4  -9  -8    0.76    1.19
   4   9   8   -0.68    1.28
  -5  -9  -8   -0.66    1.13
   5   9   8   -0.33    1.27
  -6  -9  -8    0.82    1.32
   6   9   8   -0.27    1.46
  -7  -9  -8    0.31    1.25
   7   9   8   -0.11    1.86
   6 -10  -8   14.60    2.96
  -6  10   8    2.50    2.58
  -5  10   8   17.13    2.50
  -5  10   8   11.85    3.02
   4 -10  -8    9.64    2.75
  -4  10   8    4.04    2.21
  -4  10   8    6.65    1.67
   3 -10  -8   73.21    4.99
  -3  10   8   65.75    3.67
  -3  10   8   64.98    4.79
   2 -10  -8   27.07    3.10
  -2  10   8   23.70    2.36
  -2  10   8   25.66    3.00
   1 -10  -8  114.71    4.41
  -1  10   8  114.14    4.65
   0 -10  -8  177.43    5.76
   0  10   8  162.16    5.70
  -1 -10  -8   25.19    2.63
   1  10   8   24.35    2.43
  -2 -10  -8   19.39    2.43
   2  10   8   19.33    2.35
  -3 -10  -8    8.33    1.85
   3  10   8    8.00    1.78
  -4 -10  -8    1.05    1.32
   4  10   8   -0.47    1.22
  -5 -10  -8   10.10    2.15
   5  10   8   10.37    2.30
  -6 -10  -8    5.89    1.96
   6  10   8    4.11    1.96
  -7 -10  -8    1.84    1.72
   7  10   8   -0.04    1.90
   5 -11  -8    4.49    2.52
  -5  11   8    2.25    1.44
   4 -11  -8    1.85    1.84
  -4  11   8    2.38    1.31
   3 -11  -8    2.53    1.60
  -3  11   8    0.58    1.34
  -2  11   8    1.07    1.27
  -1  11   8    1.26    1.34
   0 -11  -8    1.71    1.27
   0  11   8    0.58    1.29
  -1 -11  -8    1.58    1.33
   1  11   8   -0.44    1.29
  -2 -11  -8    0.76    1.18
   2  11   8   -1.56    1.18
  -3 -11  -8    0.52    1.29
   3  11   8   -0.57    1.36
  -4 -11  -8    0.27    1.35
   4  11   8   -1.54    1.60
  -5 -11  -8    1.34    1.49
   5  11   8    0.12    1.74
  -6 -11  -8    0.56    1.42
   6  11   8   -2.05    1.69
   5 -12  -8    7.57    2.93
  -5  12   8    2.40    1.47
   4 -12  -8   20.30    4.14
  -4  12   8   18.03    2.78
  -3  12   8   11.54    2.31
  -2  12   8   14.60    2.49
  -1  12   8    4.79    1.77
   0 -12  -8    8.20    1.79
   0  12   8    7.35    1.95
  -1 -12  -8   30.80    2.88
   1  12   8   32.09    3.31
  -2 -12  -8   31.91    2.89
   2  12   8   28.32    2.98
  -3 -12  -8   35.93    3.12
   3  12   8   32.49    3.09
  -4 -12  -8   15.72    2.60
   4  12   8   10.29    2.50
  -5 -12  -8    9.68    2.41
   5  12   8    7.98    2.35
   6  12   8   -0.75    2.35
  -4  13   8    3.57    2.76
  -3  13   8    0.75    1.33
  -2  13   8    0.73    1.60
  -1  13   8   -0.80    1.56
   0  13   8   -0.48    1.53
  -1 -13  -8    0.67    1.15
   1  13   8   -0.25    1.52
  -2 -13  -8    1.03    1.28
   2  13   8   -1.57    1.44
  -3 -13  -8    1.77    1.46
   3  13   8    0.38    1.75
  -4 -13  -8    0.85    1.46
   4  13   8   -0.35    1.78
   5  13   8   -2.08    3.07
  -2  14   8   15.85    3.35
  -1  14   8   29.60    3.55
   0  14   8    4.51    1.95
   1  14   8    1.87    1.82
  -2 -14  -8   10.11    2.09
   2  14   8    8.28    2.33
  -3 -14  -8    8.61    2.28
   3  14   8    4.34    2.15
  -4 -14  -8   12.90    3.18
  -1 -11   9    3.10    2.05
   0 -11   9    4.14    2.31
  -3 -10   9    2.69    1.75
  -2 -10   9    3.63    1.78
  -1 -10   9    9.83    2.66
   0 -10   9    3.75    2.46
   1 -10   9   29.62    4.25
   2 -10   9    2.25    2.63
  -3  10  -9   10.32    2.16
  -4  -9   9   -0.77    1.54
  -3  -9   9    4.40    1.67
  -3  -9   9    0.96    1.68
  -2  -9   9   -1.57    1.15
  -2  -9   9    2.15    1.49
  -1  -9   9    2.07    1.86
   0  -9   9   -0.27    1.79
   1  -9   9    1.61    2.43
  -2   9  -9    0.80    1.11
   2  -9   9   -1.13    2.24
  -3   9  -9    0.73    1.26
   3  -9   9   -3.35    2.46
  -4   9  -9    1.03    1.50
   4  -9   9   -4.42    3.12
  -5  -8   9    6.67    2.27
  -4  -8   9    8.78    2.22
  -4  -8   9   10.52    2.41
  -3  -8   9    4.12    1.67
  -3  -8   9    4.64    1.74
  -2  -8   9   25.58    3.34
  -2  -8   9   25.34    2.81
  -1  -8   9   12.38    2.48
  -1  -8   9   13.77    2.66
   0  -8   9    7.85    2.42
  -1   8  -9    2.50    1.94
   1  -8   9    0.64    1.97
  -2   8  -9    1.32    1.29
   2  -8   9    3.39    2.80
  -3   8  -9   38.09    3.11
   3  -8   9   33.40    4.72
  -4   8  -9   12.80    2.35
   4  -8   9   13.96    4.04
  -5   8  -9    1.15    1.60
   5  -8   9   -1.81    2.89
  -5  -7   9    2.05    1.45
  -5  -7   9    0.12    1.54
  -4  -7   9   -1.22    1.35
  -4  -7   9    1.64    1.42
  -3  -7   9    1.48    1.33
  -3  -7   9   -1.01    1.14
  -2  -7   9    0.45    1.32
  -2  -7   9   -0.10    1.19
  -1  -7   9   -0.49    0.99
  -1  -7   9    1.78    1.74
   0  -7   9    0.21    1.67
  -1   7  -9    0.91    1.06
   1  -7   9   -0.58    1.74
  -2   7  -9    0.41    0.97
   2  -7   9   -0.90    2.06
  -3   7  -9    1.67    1.20
   3  -7   9    6.20    2.72
  -4   7  -9    0.54    1.21
   4  -7   9   -1.23    2.45
  -5   7  -9   -0.82    1.20
   5  -7   9   -3.11    2.68
  -6   7  -9   -1.30    1.32
   6  -7   9   -8.04    4.22
  -6  -6   9    1.90    1.58
  -6  -6   9    2.19    1.83
  -5  -6   9    4.24    1.85
  -5  -6   9    3.82    1.69
  -4  -6   9    2.44    1.45
  -4  -6   9    3.27    1.63
  -3  -6   9   29.74    3.28
  -3  -6   9   28.60    2.63
  -2  -6   9   23.86    2.27
  -2  -6   9   28.88    3.14
  -1  -6   9    5.45    1.85
  -1  -6   9    3.04    1.22
   0  -6   9  105.95    5.72
  -1   6  -9    2.09    1.14
   1  -6   9    3.84    2.07
  -2   6  -9  143.59    5.34
   2  -6   9  145.27    7.16
  -3   6  -9   53.07    3.38
   3  -6   9   49.31    5.02
  -4   6  -9   31.74    2.80
   4  -6   9   27.22    4.06
  -5   6  -9   16.81    2.65
   5  -6   9   17.04    3.78
  -6   6  -9    1.96    1.58
   6  -6   9   -1.05    3.06
  -6  -5   9    0.69    1.33
  -6  -5   9   -1.88    1.32
  -5  -5   9   -0.34    1.25
  -5  -5   9    1.00    1.41
  -4  -5   9    1.03    1.33
  -4  -5   9   -0.13    1.10
  -3  -5   9    1.38    1.31
  -3  -5   9    0.97    1.15
  -2  -5   9   -0.09    1.19
  -2  -5   9    0.49    1.20
  -1  -5   9   -0.69    1.20
   0   5  -9    0.44    0.77
   0  -5   9    1.11    1.62
  -1   5  -9    1.06    0.95
   1  -5   9    1.07    1.78
  -2   5  -9    0.58    1.04
   2  -5   9    0.57    1.94
  -3   5  -9    0.09    0.96
   3  -5   9   -0.89    1.93
  -4   5  -9    1.68    1.33
   4  -5   9   -0.94    2.04
  -5   5  -9   -0.10    1.20
   5  -5   9   -0.10    2.33
  -6   5  -9   -0.23    1.26
   6  -5   9   -3.27    2.12
  -7   5  -9    0.39    1.65
   7  -5   9   -3.28    2.55
  -7  -4   9   -1.00    1.51
  -7  -4   9    0.18    1.50
  -6  -4   9    3.67    1.73
  -6  -4   9    4.07    1.77
  -5  -4   9    2.70    1.65
  -5  -4   9    0.54    1.33
  -4  -4   9   11.40    1.99
  -4  -4   9    9.96    2.22
  -3  -4   9    0.32    1.13
  -3  -4   9   -0.13    1.05
  -2  -4   9   10.55    2.16
  -2  -4   9   14.02    1.85
  -1  -4   9   43.85    3.73
   0   4  -9   64.33    2.61
   0  -4   9   65.23    4.23
  -1   4  -9   76.48    3.18
   1  -4   9   75.43    4.61
  -2   4  -9    3.86    1.15
   2  -4   9   -0.33    1.78
  -3   4  -9   41.21    2.85
   3  -4   9   47.69    4.32
  -4   4  -9   78.08    4.12
   4  -4   9   81.42    5.39
  -5   4  -9   42.71    3.28
   5  -4   9   42.78    4.71
  -6   4  -9   12.03    2.46
   6  -4   9   10.37    3.28
  -7   4  -9    2.22    1.85
   7  -4   9   -0.41    2.56
   8  -4   9   -2.20    3.12
  -7  -3   9    0.67    1.46
  -7  -3   9   -0.08    1.50
  -6  -3   9   -0.09    1.33
  -6  -3   9    0.27    1.21
  -5  -3   9   -0.43    1.08
  -5  -3   9    1.32    1.30
  -4  -3   9    0.34    1.14
  -4  -3   9    0.12    1.12
  -3  -3   9   -0.40    1.04
  -3  -3   9   -0.28    1.12
  -2  -3   9    0.10    1.15
  -1  -3   9   -1.36    1.03
   0   3  -9    0.57    0.63
   0  -3   9   -0.22    1.27
  -1   3  -9   -0.28    0.70
   1  -3   9    0.18    1.35
  -2   3  -9    0.14    0.86
   2  -3   9    0.22    1.68
  -3   3  -9   -0.60    0.82
   3  -3   9    0.03    1.92
  -4   3  -9    1.37    1.26
   4  -3   9    1.44    1.89
  -5   3  -9   -0.26    1.10
   5  -3   9   -0.99    1.95
  -6   3  -9    0.10    1.27
   6  -3   9   -1.12    2.23
  -7   3  -9   -0.49    1.22
   7  -3   9   -3.05    1.99
   8  -3   9   -4.46    2.11
  -8  -2   9    0.50    1.60
  -7  -2   9    0.02    1.49
  -7  -2   9    0.97    1.52
  -6  -2   9    2.20    1.60
  -6  -2   9    1.77    1.38
  -5  -2   9   -0.34    1.09
  -5  -2   9   -0.39    1.05
  -4  -2   9   10.41    1.80
  -4  -2   9   10.63    2.16
  -3  -2   9   -0.18    1.06
  -2  -2   9   47.91    3.57
  -1  -2   9   48.04    3.28
   0   2  -9    2.97    0.68
   0  -2   9    3.94    1.36
  -1   2  -9   28.19    1.73
   1  -2   9   27.46    2.95
  -2   2  -9   16.40    1.61
   2  -2   9   14.90    2.31
  -3   2  -9  173.67    5.67
   3  -2   9  180.36    6.89
  -4   2  -9   29.47    2.66
   4  -2   9   32.64    3.45
  -5   2  -9   49.03    3.27
   5  -2   9   49.46    4.11
  -6   2  -9   20.13    2.66
   6  -2   9   13.74    2.81
  -7   2  -9    7.10    2.05
   7  -2   9    2.46    2.52
  -8   2  -9    6.03    2.07
   8  -2   9   -0.88    2.80
  -8  -1   9    0.35    1.62
  -7  -1   9   -0.33    1.38
  -6  -1   9    0.07    1.33
  -5  -1   9    0.34    1.18
  -4  -1   9   -0.99    0.91
  -3  -1   9   -0.58    1.04
  -2  -1   9   -0.12    0.99
   1   1  -9   -0.31    0.27
  -1  -1   9    0.23    0.91
   0   1  -9   -0.27    0.40
   0  -1   9    0.22    0.98
  -1   1  -9    0.29    0.53
   1  -1   9    0.02    1.09
  -2   1  -9   -0.84    0.80
  -2   1  -9    0.40    0.74
   2  -1   9    0.26    1.27
  -3   1  -9   -0.42    0.78
  -3   1  -9    0.30    0.77
   3  -1   9   -0.63    1.30
  -4   1  -9    0.91    1.09
   4  -1   9    0.06    1.48
  -5   1  -9   -0.27    0.95
   5  -1   9   -0.55    1.71
  -6   1  -9    0.07    1.15
   6  -1   9   -0.56    1.58
  -7   1  -9    0.22    1.24
   7  -1   9   -1.38    2.04
  -8   1  -9   -0.21    1.37
  -8   0   9    5.41    2.49
  -7   0   9    0.52    1.61
  -6   0   9    0.63    1.41
  -5   0   9    4.62    1.79
  -4   0   9    6.54    1.86
  -3   0   9    8.69    1.86
  -2   0   9   42.08    3.10
  -1   0   9   49.48    3.05
  -1   0   9   48.77    1.19
   0   0  -9   23.16    1.15
   0   0   9   22.59    2.12
  -1   0  -9    1.36    0.62
   1   0   9    1.01    1.04
  -2   0  -9   45.46    2.10
  -2   0  -9   46.50    2.26
   2   0   9   48.05    3.08
  -3   0  -9   11.79    1.38
  -3   0  -9   13.07    1.68
   3   0   9   11.10    1.83
  -4   0  -9   39.45    2.60
  -4   0  -9   37.08    1.97
   4   0   9   37.98    3.29
  -5   0  -9   30.25    2.56
   5   0   9   34.28    3.40
  -6   0  -9    2.62    1.41
   6   0   9    0.81    1.70
  -7   0  -9   25.37    3.07
  -8   0  -9    3.55    1.75
  -8   1   9   -0.09    1.66
  -7   1   9   -0.43    1.44
  -6   1   9    0.02    1.36
  -5   1   9    0.01    1.16
  -4   1   9   -0.52    0.97
  -3   1   9   -0.27    0.91
  -2   1   9   -0.29    0.87
  -1   1   9   -0.22    0.78
  -1   1   9   -0.11    0.25
   0   1   9   -0.46    0.81
   0   1   9    0.33    0.36
  -1  -1  -9   -0.41    0.48
  -1  -1  -9    0.50    0.96
   1   1   9    0.28    0.81
  -2  -1  -9   -1.15    0.67
  -2  -1  -9    0.17    0.59
   2   1   9   -0.48    0.82
  -3  -1  -9    0.42    0.78
  -3  -1  -9   -0.29    0.82
   3   1   9   -0.65    1.11
  -4  -1  -9   -1.29    0.80
  -4  -1  -9    0.21    0.77
   4   1   9    0.92    1.34
  -5  -1  -9   -0.17    0.70
  -5  -1  -9   -0.02    1.13
   5   1   9   -0.02    1.38
  -6  -1  -9   -0.84    0.98
   6   1   9   -0.87    1.37
  -7  -1  -9    0.10    1.36
  -8  -1  -9   -1.08    1.13
  -8   2   9    7.00    2.55
  -7   2   9    0.00    1.54
  -6   2   9   34.82    4.14
  -5   2   9    1.35    1.37
  -4   2   9    3.16    1.55
  -3   2   9   10.18    1.93
  -2   2   9   39.97    2.93
  -1   2   9  225.87    6.89
  -1   2   9  218.10    4.63
   0   2   9  139.84    4.71
   0   2   9  135.83    3.39
  -1  -2  -9  201.71    5.34
   1   2   9  206.02    5.01
   1   2   9  206.24    5.81
  -2  -2  -9   47.61    2.24
  -2  -2  -9   49.27    2.30
   2   2   9   47.24    2.51
  -3  -2  -9   33.63    2.13
  -3  -2  -9   36.71    2.19
   3   2   9   35.01    2.39
  -4  -2  -9   35.50    2.42
  -4  -2  -9   35.01    2.17
   4   2   9   36.84    2.67
  -5  -2  -9   39.46    2.73
  -5  -2  -9   35.21    2.17
   5   2   9   37.83    2.92
  -6  -2  -9   20.76    2.48
  -7  -2  -9   13.82    2.31
  -8  -2  -9   11.49    2.37
  -8   3   9    0.35    1.80
  -7   3   9   -0.35    1.56
  -6   3   9    0.61    1.48
  -5   3   9    2.22    1.74
  -4   3   9    0.24    1.11
  -3   3   9   -0.25    0.93
  -2   3   9   -0.17    0.75
  -2   3   9    0.31    0.41
  -1   3   9   -1.03    0.70
  -1   3   9    0.11    0.44
   0  -3  -9   -0.04    0.94
   0   3   9   -0.12    0.71
   0   3   9   -0.35    0.43
  -1  -3  -9   -0.15    0.90
   1   3   9    0.01    0.60
   1   3   9    0.03    0.53
  -2  -3  -9    0.53    0.89
   2   3   9   -0.62    0.56
   2   3   9    0.03    0.64
  -3  -3  -9   -0.73    0.79
   3   3   9   -0.34    0.60
   3   3   9    0.77    0.86
  -4  -3  -9    1.29    1.02
  -4  -3  -9   -0.67    0.95
   4   3   9    0.46    1.04
  -5  -3  -9   -0.80    1.05
  -5  -3  -9    1.19    1.00
  -6  -3  -9   -0.39    0.73
  -6  -3  -9    0.03    1.03
  -7  -3  -9   -0.45    1.16
  -8  -3  -9   -0.78    1.31
  -7   4   9   17.15    3.49
  -6   4   9    5.20    2.24
  -5   4   9   17.05    2.88
  -4   4   9   15.64    2.60
  -3   4   9   70.73    2.89
  -3   4   9   72.98    4.32
  -2   4   9   44.46    3.17
  -2   4   9   42.81    1.79
   1  -4  -9   80.17    3.10
  -1   4   9   81.26    3.75
  -1   4   9   80.47    2.52
   0  -4  -9   24.29    1.85
   0   4   9   21.45    1.35
   0   4   9   24.36    1.90
  -1  -4  -9   16.36    1.69
   1   4   9   18.33    1.51
   1   4   9   19.70    1.33
  -2  -4  -9   45.34    2.45
   2   4   9   44.13    1.97
   2   4   9   43.66    2.16
  -3  -4  -9   23.45    1.91
   3   4   9   22.74    1.51
   3   4   9   22.14    1.82
  -4  -4  -9   43.73    2.55
   4   4   9   42.64    2.50
  -5  -4  -9   39.37    2.54
   5   4   9   40.10    2.57
  -6  -4  -9    8.81    1.59
   6   4   9    8.67    1.60
  -7  -4  -9   30.12    2.58
   7   4   9   31.38    2.54
   8   4   9    7.96    1.63
  -7   5   9   -0.39    1.65
  -6   5   9    0.75    1.67
  -5   5   9   -1.06    1.19
  -4   5   9    0.56    1.27
  -3   5   9    0.61    1.13
  -3   5   9    0.64    0.67
   2  -5  -9    1.67    1.35
  -2   5   9    0.08    0.64
  -2   5   9   -1.03    0.91
   1  -5  -9    0.43    1.10
  -1   5   9   -1.00    0.72
  -1   5   9    0.03    0.65
   0  -5  -9    0.01    1.00
   0   5   9    0.44    0.69
   0   5   9    0.17    0.66
  -1  -5  -9   -1.34    0.92
   1   5   9    0.55    0.67
   1   5   9   -0.24    0.50
  -2  -5  -9   -0.16    0.97
   2   5   9   -0.45    0.64
   2   5   9    0.15    0.41
  -3  -5  -9    0.95    1.02
   3   5   9   -0.49    0.76
  -4  -5  -9   -1.67    0.92
   4   5   9    0.53    0.87
  -5  -5  -9   -0.61    0.90
   5   5   9   -0.55    0.91
  -6  -5  -9    0.84    0.97
   6   5   9    0.63    1.02
  -7  -5  -9    0.90    1.04
   7   5   9    0.98    1.24
   8   5   9    2.63    1.22
  -7   6   9    2.81    2.35
  -6   6   9   36.89    4.48
  -5   6   9   10.10    2.46
  -4   6   9   45.12    4.06
   3  -6  -9    1.04    1.28
  -3   6   9    1.35    1.32
  -3   6   9    2.51    0.96
   2  -6  -9   41.48    2.49
  -2   6   9   39.68    3.25
  -2   6   9   42.73    2.15
   1  -6  -9   18.16    1.88
  -1   6   9   21.52    2.24
  -1   6   9   19.89    1.56
   0  -6  -9   16.57    1.86
   0   6   9   17.71    1.80
   0   6   9   17.49    1.53
  -1  -6  -9   91.41    3.68
   1   6   9  101.44    3.35
   1   6   9   96.09    3.42
  -2  -6  -9    6.58    1.32
   2   6   9    7.08    1.22
  -3  -6  -9    9.60    1.72
   3   6   9   12.87    1.63
  -4  -6  -9    3.46    1.36
   4   6   9    4.08    1.29
  -5  -6  -9    9.89    1.75
   5   6   9   11.80    1.85
  -6  -6  -9    9.21    1.81
   6   6   9    7.68    1.73
  -7  -6  -9   10.61    2.09
   7   6   9   11.41    2.19
  -8  -6  -9    8.39    1.89
   8   6   9   10.62    2.17
  -7   7   9    1.03    2.12
  -6   7   9    0.44    1.94
  -5   7   9   -0.99    1.49
  -4   7   9    1.23    0.89
  -4   7   9    1.37    1.36
   3  -7  -9    0.01    1.21
  -3   7   9    0.63    0.79
  -3   7   9    0.02    1.19
   2  -7  -9    0.38    1.22
  -2   7   9   -0.78    0.91
  -2   7   9    0.34    0.84
   1  -7  -9   -0.65    1.17
  -1   7   9    0.42    0.98
  -1   7   9    0.36    0.87
   0  -7  -9    0.79    1.22
   0   7   9    0.49    0.83
   0   7   9    0.76    1.04
  -1  -7  -9   -0.19    1.16
   1   7   9    0.36    0.87
  -2  -7  -9    0.17    0.94
   2   7   9    0.24    0.89
  -3  -7  -9   -0.24    1.14
   3   7   9   -0.12    0.91
  -4  -7  -9    1.40    1.25
   4   7   9    0.28    1.01
  -5  -7  -9    1.52    1.19
   5   7   9   -0.62    0.91
  -6  -7  -9   -0.47    1.01
   6   7   9   -0.02    1.09
  -7  -7  -9    2.28    1.47
   7   7   9    2.33    1.49
  -8  -7  -9    1.64    1.28
   8   7   9    3.35    1.70
  -5   8   9   10.33    2.81
  -4   8   9   32.97    3.92
  -4   8   9   30.83    2.37
   3  -8  -9   29.08    2.42
  -3   8   9   27.65    3.51
  -3   8   9   26.70    2.14
   2  -8  -9   16.82    2.02
  -2   8   9   19.12    2.05
  -2   8   9   20.34    2.82
   1  -8  -9    7.09    1.60
  -1   8   9    5.70    1.38
  -1   8   9    5.85    1.53
   0  -8  -9    6.10    1.57
   0   8   9    9.43    1.65
  -1  -8  -9    3.36    1.45
   1   8   9    3.46    1.33
  -2  -8  -9    7.42    1.67
   2   8   9    7.43    1.49
  -3  -8  -9   26.16    2.44
   3   8   9   25.78    2.24
   4   8   9    0.41    1.07
  -5  -8  -9    4.50    1.55
   5   8   9    3.22    1.49
  -6  -8  -9   14.90    2.43
   6   8   9   16.40    2.49
  -7  -8  -9    9.26    2.08
   7   8   9   14.89    2.54
  -8  -8  -9    4.49    1.84
   8   8   9    4.53    2.09
   4  -9  -9    8.68    1.95
  -4   9   9   -0.86    1.55
  -4   9   9    0.09    1.02
   3  -9  -9    4.37    1.36
  -3   9   9    0.02    1.07
  -3   9   9    0.70    1.46
   2  -9  -9   -0.18    1.24
   2  -9  -9    1.63    1.16
  -2   9   9    0.20    1.20
  -2   9   9    0.74    1.02
   1  -9  -9   -1.00    1.10
  -1   9   9    0.09    1.13
  -1   9   9   -0.44    1.03
   0  -9  -9   -0.64    1.16
   0   9   9   -0.03    1.13
  -1  -9  -9    0.67    1.25
   1   9   9    0.06    1.11
  -2  -9  -9    0.45    1.22
   2   9   9    0.57    1.16
  -3  -9  -9   -0.46    1.17
   3   9   9    0.25    1.10
  -4  -9  -9   -0.04    1.09
   4   9   9   -0.30    1.09
  -5  -9  -9    0.66    1.34
   5   9   9   -0.40    1.27
  -6  -9  -9    1.00    1.32
   6   9   9    0.47    1.63
  -7  -9  -9    1.61    1.49
   7   9   9   -0.69    1.52
   6 -10  -9   29.11    3.98
  -5  10   9   14.57    3.33
  -5  10   9   21.56    3.05
  -4  10   9   -0.11    1.73
  -4  10   9    2.54    1.36
  -3  10   9   24.54    2.39
  -3  10   9   17.66    2.95
  -2  10   9   19.46    2.75
  -2  10   9   24.91    2.38
   1 -10  -9   32.17    2.58
  -1  10   9   30.36    2.56
   0 -10  -9   27.48    2.55
   0  10   9   26.18    2.45
   1  10   9   12.28    2.09
  -2 -10  -9   18.26    2.37
   2  10   9   22.04    2.33
  -3 -10  -9   32.74    2.83
   3  10   9   31.75    2.70
  -4 -10  -9    5.17    1.75
   4  10   9    5.40    1.71
  -5 -10  -9    8.62    2.05
   5  10   9   10.36    2.22
  -6 -10  -9    4.59    1.87
   6  10   9    6.19    2.11
  -7 -10  -9   16.60    2.89
   7  10   9   20.77    3.27
  -5  11   9    1.45    1.22
  -5  11   9   -3.39    1.87
   4 -11  -9    6.22    2.28
  -4  11   9    1.05    1.33
  -4  11   9   -2.11    1.66
  -3  11   9    0.15    1.32
  -3  11   9   -2.44    1.69
  -2  11   9   -0.84    1.31
   1 -11  -9    0.80    1.21
  -1  11   9    0.40    1.42
   0 -11  -9    0.13    1.23
   0  11   9    0.99    1.42
  -1 -11  -9    1.33    1.26
   1  11   9   -1.97    1.15
  -2 -11  -9    0.42    1.31
   2  11   9   -0.18    1.27
  -3 -11  -9    1.42    1.36
   3  11   9    0.92    1.51
  -4 -11  -9    0.84    1.40
   4  11   9   -1.97    1.30
  -5 -11  -9    0.17    1.32
   5  11   9   -0.65    1.48
  -6 -11  -9    2.56    1.72
   6  11   9   -1.65    1.66
   5 -12  -9   16.50    3.33
  -5  12   9    6.10    1.87
  -4  12   9    9.55    2.07
  -3  12   9    4.33    1.77
  -2  12   9    0.02    1.28
  -1  12   9    0.81    1.43
   0 -12  -9    9.89    1.93
   0  12   9    7.02    1.99
  -1 -12  -9   28.73    2.67
   1  12   9   24.64    2.91
  -2 -12  -9    9.70    2.08
   2  12   9    8.37    2.10
  -3 -12  -9   13.98    2.47
   3  12   9   13.67    2.44
  -4 -12  -9    4.20    1.77
   4  12   9    1.53    1.82
  -5 -12  -9    1.61    1.64
   5  12   9    0.95    1.85
  -3  13   9    1.09    1.43
  -2  13   9    0.52    1.55
  -1  13   9    4.36    1.84
   0  13   9   -0.53    1.40
  -1 -13  -9    1.03    1.25
   1  13   9   -0.73    1.55
  -2 -13  -9    1.52    1.38
   2  13   9    0.07    1.62
  -3 -13  -9    0.27    1.34
   3  13   9   -1.42    1.64
  -4 -13  -9    2.11    1.63
   4  13   9   -2.50    1.77
  -2  14   9    7.16    3.37
  -1  14   9    1.71    1.71
   0  14   9   13.81    2.67
   1  14   9    3.53    1.99
  -2 -14  -9   12.64    2.33
   2  14   9    8.94    2.40
  -3 -14  -9    7.21    2.10
   3  14   9    2.96    2.55
  -2 -10  10    5.47    1.98
  -1 -10  10   11.51    2.70
   0 -10  10    2.42    2.11
   1 -10  10    2.81    2.35
  -4  -9  10    0.35    1.63
  -3  -9  10   -1.71    1.37
  -3  -9  10    1.77    1.40
  -2  -9  10    1.26    1.43
  -1  -9  10    1.95    1.73
   0  -9  10    1.64    1.98
   1  -9  10    0.05    2.11
   2  -9  10    0.29    2.39
  -3   9 -10    2.54    1.58
   3  -9  10    3.07    2.89
  -4   9 -10    0.26    1.42
  -4  -8  10    8.62    2.31
  -4  -8  10   14.64    2.80
  -3  -8  10    9.32    2.34
  -3  -8  10    5.85    1.92
  -2  -8  10   37.22    3.88
  -2  -8  10   29.49    2.94
  -1  -8  10    2.43    1.78
   0  -8  10    5.38    2.25
   1  -8  10   38.37    4.65
  -2   8 -10    3.22    1.54
   2  -8  10    4.88    2.74
  -3   8 -10    3.19    1.53
   3  -8  10    1.77    2.86
  -4   8 -10    0.94    1.29
   4  -8  10   -1.66    3.00
  -5   8 -10   10.64    2.35
  -5  -7  10    2.08    1.51
  -5  -7  10    0.21    1.65
  -4  -7  10    0.48    1.10
  -4  -7  10   -0.85    1.44
  -3  -7  10   -0.77    1.27
  -3  -7  10    0.47    1.28
  -2  -7  10    1.13    1.39
  -2  -7  10    1.06    1.53
  -1  -7  10    2.00    1.63
   0  -7  10    1.19    1.85
   1  -7  10    1.01    2.02
  -2   7 -10    0.75    1.15
   2  -7  10    0.32    2.18
  -3   7 -10    1.06    1.26
   3  -7  10    0.02    2.53
  -4   7 -10    0.95    1.25
   4  -7  10   -0.55    2.92
  -5   7 -10    0.76    1.41
   5  -7  10   -2.81    2.65
  -6  -6  10    6.80    2.22
  -6  -6  10    2.82    3.27
  -5  -6  10    5.18    1.94
  -5  -6  10    6.56    2.10
  -4  -6  10    5.09    1.88
  -4  -6  10    3.66    1.72
  -3  -6  10    6.08    1.75
  -3  -6  10    3.72    1.71
  -2  -6  10   92.75    5.48
  -2  -6  10   86.54    4.10
  -1  -6  10    7.37    2.21
   0  -6  10  171.47    7.48
  -1   6 -10   16.76    2.51
   1  -6  10   20.40    3.13
  -2   6 -10   16.96    2.07
   2  -6  10   15.31    3.09
  -3   6 -10   26.05    2.45
   3  -6  10   24.47    3.83
  -4   6 -10   12.31    2.13
   4  -6  10    6.86    3.03
  -5   6 -10   15.67    2.65
   5  -6  10   11.91    3.54
  -6   6 -10   16.04    2.93
   6  -6  10    9.75    3.68
  -6  -5  10   -0.42    1.44
  -6  -5  10   -0.16    1.61
  -5  -5  10   -1.44    1.25
  -5  -5  10    1.37    1.38
  -4  -5  10    0.07    1.18
  -4  -5  10   -0.34    1.32
  -3  -5  10    0.24    1.23
  -3  -5  10    0.32    1.24
  -2  -5  10    1.47    1.34
  -1  -5  10    0.13    1.42
   0  -5  10   -0.43    1.50
  -1   5 -10   -0.24    0.82
   1  -5  10   -0.10    1.62
  -2   5 -10   -0.29    0.91
   2  -5  10    0.52    1.86
  -3   5 -10   -0.17    1.02
   3  -5  10   -0.92    1.96
  -4   5 -10   -0.69    1.18
   4  -5  10   -0.15    2.17
  -5   5 -10   -0.81    1.26
   5  -5  10   -2.74    2.53
  -6   5 -10    0.77    1.43
   6  -5  10   -3.37    2.39
   7  -5  10   -4.71    2.76
  -7  -4  10    1.46    1.76
  -6  -4  10    5.77    2.07
  -6  -4  10    6.84    2.03
  -5  -4  10    5.71    1.80
  -5  -4  10    9.54    2.33
  -4  -4  10    5.68    1.88
  -4  -4  10    4.02    1.62
  -3  -4  10    7.01    1.63
  -3  -4  10    5.16    1.72
  -2  -4  10   26.47    3.07
  -1  -4  10   21.32    2.91
   0  -4  10   45.40    3.82
  -1   4 -10   18.06    1.73
   1  -4  10   17.12    2.73
  -2   4 -10  368.07    9.52
   2  -4  10  388.25   11.62
  -3   4 -10  265.46    7.84
   3  -4  10  260.91    9.44
  -4   4 -10   32.07    2.84
   4  -4  10   30.03    3.85
  -5   4 -10   18.29    2.64
   5  -4  10   13.66    3.15
  -6   4 -10    1.09    1.61
   6  -4  10   -3.30    1.99
  -7   4 -10   10.61    2.37
   7  -4  10    9.28    3.33
  -7  -3  10   -0.60    1.32
  -6  -3  10    0.54    1.34
  -6  -3  10    0.24    1.46
  -5  -3  10   -1.27    1.22
  -5  -3  10    0.72    1.31
  -4  -3  10   -0.46    1.16
  -4  -3  10   -0.25    1.14
  -3  -3  10    1.02    1.28
  -2  -3  10   -0.99    1.14
  -1  -3  10   -0.30    1.18
   0   3 -10    0.52    0.96
   0  -3  10   -0.58    1.30
  -1   3 -10    0.48    0.74
   1  -3  10   -0.41    1.49
  -2   3 -10   -0.05    0.80
   2  -3  10   -0.15    1.71
  -3   3 -10   -1.56    0.92
   3  -3  10   -0.62    1.77
  -4   3 -10    0.51    1.21
   4  -3  10    0.01    1.77
  -5   3 -10    1.10    1.25
   5  -3  10   -1.59    1.85
  -6   3 -10   -1.27    1.22
   6  -3  10   -3.85    1.83
  -7   3 -10    0.94    1.49
   7  -3  10   -3.25    2.12
   8  -3  10   -4.41    2.37
  -7  -2  10   -0.62    1.59
  -6  -2  10   -0.59    1.40
  -5  -2  10    5.96    2.00
  -4  -2  10   40.87    3.75
  -3  -2  10   19.13    2.77
  -2  -2  10   47.01    3.59
  -1  -2  10   42.44    3.27
   0   2 -10    9.57    1.07
   0  -2  10    6.45    1.76
  -1   2 -10  134.29    4.23
   1  -2  10  146.30    5.93
  -2   2 -10   16.04    1.73
   2  -2  10   15.62    2.44
  -3   2 -10  118.24    4.59
   3  -2  10  115.35    5.62
  -4   2 -10   79.63    3.96
   4  -2  10   85.70    5.06
  -5   2 -10   28.12    2.74
   5  -2  10   28.96    3.62
  -6   2 -10   23.17    2.87
   6  -2  10   23.41    3.52
  -7   2 -10    0.30    1.37
   7  -2  10   -1.45    2.07
   8  -2  10   -2.43    4.15
  -7  -1  10   -0.05    1.52
  -6  -1  10    0.53    1.41
  -5  -1  10    0.02    1.24
  -4  -1  10    0.94    1.24
  -3  -1  10   -0.40    1.18
  -2  -1  10   -0.06    1.11
  -1  -1  10   -0.68    1.01
   0   1 -10    0.32    0.49
   0  -1  10    0.20    1.09
  -1   1 -10    0.16    0.60
   1  -1  10    0.55    1.25
  -2   1 -10    1.07    1.04
  -2   1 -10    0.27    0.77
   2  -1  10   -0.62    1.33
  -3   1 -10    0.35    0.87
  -3   1 -10   -0.76    0.82
   3  -1  10    0.86    1.56
  -4   1 -10   -0.04    0.91
   4  -1  10   -0.29    1.55
  -5   1 -10   -0.51    0.93
   5  -1  10   -1.50    1.64
  -6   1 -10    0.95    1.26
   6  -1  10   -1.43    1.66
  -7   1 -10    0.85    1.35
   7  -1  10   -2.26    1.83
  -8   1 -10   -0.65    1.27
  -7   0  10    2.12    1.87
  -6   0  10    4.40    2.07
  -5   0  10    0.26    1.22
  -4   0  10    1.67    1.36
  -3   0  10   43.90    3.60
  -2   0  10  217.11    7.58
  -1   0  10    9.20    1.69
   0   0 -10  111.27    3.01
   0   0  10  114.58    4.69
  -1   0 -10    0.05    0.52
   1   0  10    0.44    1.17
  -2   0 -10  155.68    4.57
  -2   0 -10  159.46    4.77
   2   0  10  160.36    5.76
  -3   0 -10    6.14    1.25
  -3   0 -10    6.72    1.33
   3   0  10    5.17    1.66
  -4   0 -10   59.17    2.55
  -4   0 -10   55.17    3.14
   4   0  10   57.32    4.00
  -5   0 -10   22.19    2.31
   5   0  10   18.65    2.63
  -6   0 -10    6.80    1.77
   6   0  10    7.83    2.23
  -7   0 -10   18.69    2.79
  -8   0 -10    6.06    1.99
  -7   1  10    0.75    1.71
  -6   1  10   -0.05    1.37
  -5   1  10    0.20    1.27
  -4   1  10   -0.66    1.05
  -3   1  10   -0.23    1.00
  -2   1  10   -0.33    0.94
  -1   1  10   -0.52    0.78
   0   1  10   -0.31    0.77
   0   1  10   -0.10    0.37
  -1  -1 -10   -0.07    0.53
  -1  -1 -10    0.25    0.93
   1   1  10   -0.60    0.87
  -2  -1 -10   -0.49    0.87
  -2  -1 -10   -0.36    0.58
   2   1  10   -1.09    0.98
  -3  -1 -10   -0.34    0.85
  -3  -1 -10    0.71    0.99
   3   1  10    1.70    1.34
  -4  -1 -10    0.64    0.89
  -4  -1 -10    0.76    0.98
   4   1  10    1.57    1.51
  -5  -1 -10   -0.33    1.00
   5   1  10   -1.17    1.35
  -6  -1 -10    0.19    1.17
  -7  -1 -10    0.39    1.22
  -8  -1 -10   -1.37    1.16
  -7   2  10   -0.55    1.45
  -6   2  10    3.25    1.87
  -5   2  10   12.61    2.59
  -4   2  10   14.37    2.55
  -3   2  10    8.86    2.01
  -2   2  10   70.00    3.98
  -1   2  10  174.31    6.03
  -1   2  10  161.67    3.66
   0   2  10   64.34    3.27
   0   2  10   61.11    2.01
  -1  -2 -10  129.57    4.08
   1   2  10  122.67    4.42
   1   2  10  131.35    3.65
  -2  -2 -10    5.44    1.19
  -2  -2 -10    6.99    1.12
   2   2  10    5.98    1.27
  -3  -2 -10   33.34    2.24
  -3  -2 -10   29.52    2.18
   3   2  10   33.61    2.51
  -4  -2 -10   19.09    1.84
  -4  -2 -10   23.65    2.13
   4   2  10   20.94    2.57
  -5  -2 -10   14.31    2.04
  -5  -2 -10   18.08    1.64
   5   2  10   14.04    2.41
  -6  -2 -10   11.23    2.04
  -7  -2 -10    9.56    2.09
  -8  -2 -10    2.10    1.63
  -7   3  10   -1.32    1.56
  -6   3  10    0.43    1.79
  -5   3  10   -0.03    1.24
  -4   3  10    0.50    1.10
  -3   3  10   -0.80    0.91
  -2   3  10   -0.77    0.76
  -1   3  10   -0.40    0.44
  -1   3  10   -0.15    0.78
   0  -3 -10    0.16    1.08
   0   3  10   -0.35    0.67
   0   3  10   -0.34    0.45
  -1  -3 -10   -2.14    0.83
   1   3  10   -0.85    0.62
   1   3  10   -0.28    0.55
  -2  -3 -10    0.00    0.95
   2   3  10    0.40    0.61
   2   3  10   -0.18    0.69
  -3  -3 -10    0.37    1.10
   3   3  10    0.01    0.90
   3   3  10    0.38    0.81
  -4  -3 -10   -0.23    0.89
  -4  -3 -10   -0.44    0.96
   4   3  10   -0.35    0.68
   4   3  10   -0.67    1.22
  -5  -3 -10    0.78    0.85
  -5  -3 -10    0.62    1.10
  -6  -3 -10    0.77    0.85
  -6  -3 -10   -0.68    1.05
  -7  -3 -10   -0.39    1.14
  -8  -3 -10    0.09    1.49
  -7   4  10   -1.70    1.55
  -6   4  10   -0.63    1.52
  -5   4  10   18.66    3.11
  -4   4  10    2.87    1.65
  -3   4  10   17.10    2.53
  -2   4  10   26.29    1.43
  -2   4  10   25.80    2.66
   1  -4 -10   19.31    1.90
  -1   4  10   17.60    1.26
  -1   4  10   20.15    2.06
   0  -4 -10    2.56    1.21
   0   4  10    4.91    0.87
   0   4  10    3.99    1.08
  -1  -4 -10    6.68    1.37
   1   4  10    7.98    1.19
   1   4  10    8.34    1.06
  -2  -4 -10    8.46    1.50
   2   4  10    8.00    1.20
   2   4  10    6.83    1.04
  -3  -4 -10   23.08    1.99
   3   4  10   26.14    1.98
   3   4  10   22.26    1.96
  -4  -4 -10   79.80    3.61
   4   4  10   76.39    3.49
  -5  -4 -10   83.96    3.70
   5   4  10   82.29    3.73
  -6  -4 -10   26.78    2.24
   6   4  10   25.49    2.24
   7   4  10    9.84    1.74
   8   4  10   10.50    1.69
  -7   5  10   -0.34    2.02
  -6   5  10   -0.74    1.41
  -5   5  10    0.61    1.45
  -4   5  10   -0.88    1.19
  -3   5  10   -0.31    1.07
   2  -5 -10    0.81    1.46
  -2   5  10    0.76    0.70
  -2   5  10   -1.36    0.81
   1  -5 -10    1.27    1.26
  -1   5  10   -0.76    0.88
  -1   5  10    0.69    0.70
   0  -5 -10   -0.21    1.06
   0   5  10    0.03    0.73
   0   5  10    0.28    0.62
  -1  -5 -10   -1.14    0.97
   1   5  10    0.35    0.68
   1   5  10   -0.15    0.58
  -2  -5 -10    0.43    1.16
   2   5  10   -0.23    0.51
   2   5  10   -0.71    0.64
  -3  -5 -10    0.99    1.10
   3   5  10   -0.59    0.77
  -4  -5 -10   -0.20    1.04
   4   5  10   -0.16    0.89
  -5  -5 -10   -0.41    0.94
   5   5  10   -0.09    0.92
  -6  -5 -10   -0.05    0.90
   6   5  10    0.21    1.00
  -7  -5 -10    0.28    0.97
   7   5  10    1.85    1.23
   8   5  10    2.12    1.10
  -7   6  10    8.25    3.01
  -6   6  10    0.92    1.79
  -5   6  10    3.67    2.07
  -4   6  10    1.82    1.54
   3  -6 -10   22.59    2.22
  -3   6  10   22.70    1.84
  -3   6  10   24.15    2.96
   2  -6 -10    4.58    1.52
  -2   6  10    0.91    1.31
  -2   6  10    2.70    0.93
   1  -6 -10   43.04    2.62
  -1   6  10   42.39    2.21
  -1   6  10   40.93    3.01
   0  -6 -10    6.27    1.50
   0   6  10    5.99    1.22
   0   6  10    7.13    1.27
  -1  -6 -10   19.57    2.12
   1   6  10   18.88    1.74
   1   6  10   18.09    1.58
  -2  -6 -10    3.53    1.21
   2   6  10    5.78    1.17
  -3  -6 -10   14.93    2.03
   3   6  10   11.86    1.65
  -4  -6 -10   10.36    1.80
   4   6  10   10.72    1.76
  -5  -6 -10   53.19    3.22
   5   6  10   51.20    3.10
  -6  -6 -10   27.43    2.68
   6   6  10   29.52    2.64
  -7  -6 -10    3.16    1.41
   7   6  10    5.21    1.70
  -8  -6 -10    3.91    1.62
   8   6  10    7.04    1.87
  -7   7  10   -0.18    2.89
  -6   7  10    0.81    1.95
  -5   7  10   -0.21    1.55
   4  -7 -10   -2.04    1.44
  -4   7  10   -0.23    1.39
   3  -7 -10    0.10    1.48
  -3   7  10    0.61    0.84
  -3   7  10   -0.57    1.22
   2  -7 -10   -1.72    1.23
  -2   7  10   -0.29    1.02
  -2   7  10   -0.46    0.86
   1  -7 -10   -0.81    1.28
  -1   7  10   -0.73    0.90
  -1   7  10    0.10    0.95
   0  -7 -10   -0.10    1.25
   0   7  10   -0.01    0.82
   0   7  10    0.54    0.91
  -1  -7 -10   -0.84    1.19
   1   7  10    1.22    0.97
  -2  -7 -10   -0.85    1.12
   2   7  10   -0.16    0.89
  -3  -7 -10   -1.45    1.13
   3   7  10   -0.37    0.91
  -4  -7 -10   -1.17    1.01
   4   7  10    1.99    1.10
  -5  -7 -10   -0.28    0.98
   5   7  10   -0.32    1.02
  -6  -7 -10    1.16    1.23
   6   7  10    0.13    1.24
  -7  -7 -10    0.46    1.19
   7   7  10    0.21    1.25
  -8  -7 -10    0.25    1.29
   8   7  10    1.53    1.39
  -6   8  10    3.08    2.56
  -5   8  10   24.76    3.95
  -4   8  10   21.63    3.33
   3  -8 -10    7.83    1.79
  -3   8  10    8.69    1.50
  -3   8  10    5.85    1.80
   2  -8 -10   14.75    2.13
  -2   8  10   13.76    2.21
  -2   8  10   13.51    1.76
   1  -8 -10    7.12    1.83
  -1   8  10    6.38    1.57
  -1   8  10    7.80    1.57
   0  -8 -10    2.31    1.44
   0   8  10    3.87    1.28
  -1  -8 -10    5.54    1.57
   1   8  10    5.45    1.41
  -2  -8 -10   31.04    2.61
   2   8  10   26.35    2.21
  -3  -8 -10    5.57    1.60
   3   8  10    4.73    1.49
  -4  -8 -10    2.04    1.38
   4   8  10    1.88    1.24
  -5  -8 -10   26.22    2.62
   5   8  10   21.93    2.34
  -6  -8 -10   27.67    2.77
   6   8  10   30.83    2.83
  -7  -8 -10   18.61    2.80
   7   8  10   21.51    2.96
  -8  -8 -10    3.88    1.78
  -6   9  10   -0.29    2.00
  -5   9  10   -0.27    1.81
  -4   9  10    0.03    0.86
  -4   9  10   -0.18    1.78
   3  -9 -10    4.92    1.25
  -3   9  10    0.42    0.93
  -3   9  10   -0.98    1.47
   2  -9 -10    0.95    1.27
   2  -9 -10    3.72    1.13
  -2   9  10    0.28    0.97
  -2   9  10    0.60    1.23
   1  -9 -10   -1.43    1.16
  -1   9  10    0.40    1.23
   0  -9 -10    1.23    1.29
   0   9  10    0.50    1.26
  -1  -9 -10    0.82    1.31
   1   9  10    0.93    1.19
  -2  -9 -10   -0.24    1.17
   2   9  10   -0.72    1.05
  -3  -9 -10    0.43    1.25
   3   9  10   -0.45    1.19
  -4  -9 -10    1.03    1.31
   4   9  10    1.42    1.29
  -5  -9 -10    0.19    1.23
   5   9  10   -0.31    1.23
  -6  -9 -10    0.81    1.29
   6   9  10   -0.54    1.65
  -7  -9 -10    2.25    1.50
   7   9  10    0.39    1.53
  -6  10  10   -1.70    3.19
   5 -10 -10   40.90    3.94
  -4  10  10    4.92    2.44
   3 -10 -10   29.34    3.09
  -3  10  10   20.97    2.26
  -3  10  10   16.15    3.02
   2 -10 -10   65.30    4.07
  -2  10  10   67.97    3.69
  -2  10  10   76.77    5.87
   1 -10 -10    6.94    1.56
  -1  10  10    6.25    1.67
   0 -10 -10   31.24    2.55
   0  10  10   29.57    2.55
  -1 -10 -10    9.99    1.87
   1  10  10   10.28    1.92
  -2 -10 -10   23.81    2.45
   2  10  10   22.53    2.53
  -3 -10 -10   14.36    2.31
   3  10  10   13.65    2.17
  -4 -10 -10    3.55    1.64
   4  10  10    5.15    1.93
  -5 -10 -10   28.07    2.83
   5  10  10   29.98    3.13
  -6 -10 -10    6.51    1.99
   6  10  10    7.25    2.15
  -7 -10 -10    5.07    2.02
   7  10  10    5.68    2.82
  -4  11  10    1.53    1.15
  -4  11  10   -3.08    1.86
  -3  11  10    0.79    1.30
  -2  11  10    0.45    1.37
   1 -11 -10    1.51    1.28
  -1  11  10   -0.37    1.28
   0 -11 -10    2.05    1.33
   0  11  10   -1.20    1.17
  -1 -11 -10    0.97    1.26
   1  11  10   -0.05    1.40
  -2 -11 -10    1.51    1.42
   2  11  10   -1.52    1.24
  -3 -11 -10    0.67    1.41
   3  11  10   -0.79    1.31
  -4 -11 -10    0.31    1.34
   4  11  10   -0.53    1.39
  -5 -11 -10    0.48    1.33
   5  11  10   -0.87    1.46
  -6 -11 -10    1.91    1.62
   6  11  10   -2.85    1.50
  -4  12  10    0.65    1.21
  -3  12  10    2.86    1.54
  -2  12  10    0.83    1.45
  -1  12  10    3.22    1.62
   0 -12 -10   12.14    1.99
   0  12  10    9.26    2.23
  -1 -12 -10   10.82    2.11
   1  12  10   10.62    2.34
  -2 -12 -10   14.21    2.37
   2  12  10   16.22    2.59
  -3 -12 -10    0.10    1.35
   3  12  10   -0.20    1.51
  -4 -12 -10    3.79    1.83
   4  12  10    1.92    1.96
  -5 -12 -10    5.01    1.91
   5  12  10    6.05    2.16
  -4  13  10    2.79    2.49
  -3  13  10    0.94    1.41
  -2  13  10    1.23    1.62
  -1  13  10   -0.46    1.47
   0  13  10    6.03    2.00
  -1 -13 -10    3.68    1.67
   1  13  10   -1.85    1.48
  -2 -13 -10    1.10    1.47
   2  13  10   -0.94    1.57
  -3 -13 -10    2.21    1.50
   3  13  10   -1.41    1.59
  -4 -13 -10    0.57    1.43
   4  13  10   -1.76    1.65
  -2  14  10   -0.37    2.92
  -1  14  10    2.25    1.85
   0  14  10   -0.50    1.61
   1  14  10    0.00    1.76
  -2 -14 -10    6.13    1.92
   2  14  10    3.80    2.08
  -3 -14 -10    1.83    1.57
  -3  -9  11    3.55    1.76
  -3  -9  11   -1.35    1.56
  -2  -9  11    3.57    1.82
  -1  -9  11    0.96    1.94
   0  -9  11    1.98    1.94
   1  -9  11    1.32    2.28
   2  -9  11    1.33    2.56
  -4  -8  11    9.76    2.44
  -4  -8  11   14.06    2.87
  -3  -8  11    7.12    2.20
  -3  -8  11    5.36    2.09
  -2  -8  11    4.70    1.86
  -1  -8  11   15.95    2.98
   0  -8  11    4.78    2.27
   1  -8  11    3.43    2.39
   2  -8  11    2.99    2.61
  -3   8 -11    5.16    1.78
   3  -8  11    2.28    3.15
  -4   8 -11   16.65    2.58
  -5  -7  11    0.76    1.24
  -4  -7  11    2.48    1.61
  -4  -7  11   -1.98    1.61
  -3  -7  11    1.13    1.50
  -3  -7  11   -2.45    1.30
  -2  -7  11    0.38    1.38
  -1  -7  11   -0.38    1.47
   0  -7  11    0.50    1.78
   1  -7  11    1.00    2.07
   2  -7  11    0.23    2.46
  -3   7 -11    0.87    1.27
   3  -7  11   -1.23    2.31
  -4   7 -11   -0.12    1.17
   4  -7  11   -0.49    3.04
  -5   7 -11    0.97    1.39
   5  -7  11   -2.41    4.85
  -6  -6  11    6.84    2.32
  -5  -6  11    2.13    1.63
  -5  -6  11    0.20    1.63
  -4  -6  11   46.90    4.40
  -4  -6  11   44.39    3.53
  -3  -6  11   10.04    2.36
  -2  -6  11   47.64    4.20
  -1  -6  11   19.01    3.00
   0  -6  11    5.33    2.11
   1  -6  11   25.27    3.57
  -2   6 -11   23.92    2.37
   2  -6  11   21.12    3.46
  -3   6 -11    3.81    1.39
   3  -6  11    3.81    2.64
  -4   6 -11   15.68    2.49
   4  -6  11   12.99    3.52
  -5   6 -11    8.18    2.08
   5  -6  11    4.59    3.47
  -6   6 -11   12.06    2.71
  -6  -5  11    0.81    1.55
  -6  -5  11   -0.57    1.66
  -5  -5  11    1.66    1.57
  -5  -5  11   -2.00    1.33
  -4  -5  11    0.28    1.48
  -4  -5  11    0.17    1.21
  -3  -5  11    0.43    1.44
  -2  -5  11    0.21    1.24
  -1  -5  11    0.65    1.43
   0  -5  11    0.28    1.67
   1  -5  11    1.20    1.78
  -2   5 -11    0.98    1.01
   2  -5  11   -0.47    1.80
  -3   5 -11   -0.46    1.02
   3  -5  11   -2.24    1.94
  -4   5 -11    0.45    1.21
   4  -5  11   -1.56    2.21
  -5   5 -11    1.07    1.36
   5  -5  11   -2.07    2.36
  -6   5 -11   -1.15    1.51
   6  -5  11   -5.90    2.64
  -6  -4  11   13.36    2.90
  -5  -4  11    1.08    1.39
  -4  -4  11   17.25    2.95
  -3  -4  11   13.57    2.49
  -2  -4  11    9.75    2.15
  -1  -4  11   87.02    5.07
   0  -4  11  251.20    8.84
   1  -4  11  430.75   12.61
  -2   4 -11   70.12    3.39
   2  -4  11   72.34    4.95
  -3   4 -11    1.38    1.15
   3  -4  11   -1.36    1.78
  -4   4 -11    3.92    1.61
   4  -4  11    0.35    2.16
  -5   4 -11    8.72    2.17
   5  -4  11    3.52    2.58
  -6   4 -11    5.52    1.92
   6  -4  11    2.71    2.77
  -7   4 -11    1.70    1.83
   7  -4  11   -3.89    2.73
  -7  -3  11    0.00    1.55
  -6  -3  11    1.51    1.55
  -5  -3  11    1.40    1.45
  -4  -3  11    0.23    1.32
  -3  -3  11    0.44    1.25
  -2  -3  11   -0.82    1.13
  -1  -3  11    0.06    1.24
   0  -3  11   -1.33    1.39
  -1   3 -11    0.08    0.77
   1  -3  11    1.50    1.75
  -2   3 -11   -0.51    0.90
   2  -3  11    0.14    1.72
  -3   3 -11    0.22    1.01
   3  -3  11   -0.28    1.70
  -4   3 -11   -0.61    1.00
   4  -3  11    0.32    1.79
  -5   3 -11   -0.63    1.08
   5  -3  11   -0.78    2.06
  -6   3 -11   -0.17    1.35
   6  -3  11   -2.41    2.02
  -7   3 -11   -0.69    1.47
   7  -3  11   -2.28    2.25
  -7  -2  11    1.27    1.72
  -6  -2  11    8.21    2.45
  -5  -2  11    1.07    1.53
  -4  -2  11   33.89    3.69
  -3  -2  11   24.87    3.14
  -2  -2  11   35.47    3.36
  -1  -2  11    8.04    1.90
   0  -2  11   17.69    2.50
  -1   2 -11  159.20    4.76
   1  -2  11  152.69    6.32
  -2   2 -11   45.07    2.65
   2  -2  11   48.02    3.82
  -3   2 -11   52.17    3.09
   3  -2  11   48.55    4.08
  -4   2 -11   22.49    2.25
   4  -2  11   19.54    2.89
  -5   2 -11   22.70    2.67
   5  -2  11   16.38    2.94
  -6   2 -11    0.25    1.23
   6  -2  11   -2.16    1.85
  -7   2 -11    7.92    2.26
   7  -2  11    0.65    2.36
  -7  -1  11    0.53    1.74
  -6  -1  11    0.38    1.46
  -5  -1  11    0.20    1.31
  -4  -1  11    1.13    1.39
  -3  -1  11   -0.73    1.26
  -2  -1  11   -0.69    1.14
  -1  -1  11   -1.44    1.04
   0  -1  11   -1.21    1.07
  -1   1 -11    0.30    0.67
   1  -1  11   -1.20    1.23
  -2   1 -11    0.43    1.10
  -2   1 -11    0.04    0.77
   2  -1  11   -0.12    1.40
  -3   1 -11   -0.34    0.84
  -3   1 -11   -1.17    0.89
   3  -1  11    0.19    1.57
  -4   1 -11   -1.61    0.74
   4  -1  11   -1.10    1.51
  -5   1 -11    1.07    1.13
   5  -1  11    0.32    1.88
  -6   1 -11   -0.17    1.19
   6  -1  11   -1.59    1.96
  -7   1 -11    0.92    1.43
   7  -1  11    2.81    2.76
  -7   0  11    1.47    1.77
  -6   0  11    0.96    1.66
  -5   0  11    0.39    1.27
  -4   0  11   28.78    3.42
  -3   0  11   13.48    2.38
  -2   0  11   74.73    4.44
  -1   0  11    2.09    1.29
   0   0 -11   61.28    2.08
   0   0  11   61.10    3.62
  -1   0 -11    9.94    1.19
   1   0  11    8.81    1.75
  -2   0 -11  143.83    4.51
  -2   0 -11  144.92    4.57
   2   0  11  142.27    5.58
  -3   0 -11   14.05    1.61
  -3   0 -11   14.51    1.80
   3   0  11   12.04    2.21
  -4   0 -11   27.56    2.34
   4   0  11   29.04    3.38
  -5   0 -11   10.82    1.99
   5   0  11    8.93    2.14
  -6   0 -11   18.47    2.59
   6   0  11   12.60    2.67
  -7   0 -11   11.54    2.37
  -8   0 -11    8.74    2.29
  -7   1  11   -0.18    1.70
  -6   1  11    1.16    1.54
  -5   1  11   -0.47    1.30
  -4   1  11   -0.21    1.33
  -3   1  11   -0.69    1.09
  -2   1  11    0.11    1.13
  -1   1  11   -0.10    0.92
   0   1  11   -0.14    1.07
   0   1  11    0.12    0.42
  -1  -1 -11    0.43    1.06
  -1  -1 -11    0.66    0.64
   1   1  11    0.74    1.14
  -2  -1 -11   -0.07    1.00
  -2  -1 -11    0.08    0.65
   2   1  11    0.16    1.12
  -3  -1 -11   -0.22    1.03
  -3  -1 -11   -0.01    0.80
   3   1  11   -0.07    1.36
  -4  -1 -11   -0.40    0.92
  -4  -1 -11    0.11    0.98
   4   1  11    1.11    1.54
  -5  -1 -11    0.55    1.06
   5   1  11    0.40    1.53
  -6  -1 -11    0.15    1.16
  -7  -1 -11   -0.65    1.18
  -8  -1 -11    0.80    1.51
  -7   2  11    2.25    2.05
  -6   2  11    0.99    1.65
  -5   2  11    0.25    1.56
  -4   2  11    0.10    1.14
  -3   2  11   -0.06    1.31
  -2   2  11   38.60    3.22
  -1   2  11   54.06    3.43
   0   2  11    9.38    0.93
   0   2  11    7.66    1.53
  -1  -2 -11   31.01    2.20
   1   2  11   32.86    2.51
   1   2  11   32.23    1.69
  -2  -2 -11    9.01    1.48
   2   2  11    8.91    1.48
   2   2  11    8.95    1.19
  -3  -2 -11  136.55    4.48
  -3  -2 -11  137.58    4.70
   3   2  11  135.92    5.00
  -4  -2 -11    6.31    1.49
  -4  -2 -11    4.94    1.20
   4   2  11    4.08    1.59
  -5  -2 -11    9.79    1.46
  -5  -2 -11    9.45    1.79
  -6  -2 -11    1.36    1.30
  -7  -2 -11    2.08    1.50
  -8  -2 -11    4.60    1.93
  -7   3  11    1.03    1.86
  -6   3  11    0.29    1.57
  -5   3  11    0.10    1.31
  -4   3  11   -0.31    1.28
  -3   3  11   -0.73    1.04
  -2   3  11    0.57    1.11
  -1   3  11   -0.01    0.99
   0  -3 -11   -0.03    1.17
   0   3  11   -0.27    0.83
   0   3  11    0.14    0.54
  -1  -3 -11    0.91    1.15
   1   3  11   -0.01    0.58
   1   3  11   -0.41    0.70
  -2  -3 -11    1.13    1.14
   2   3  11   -0.34    0.65
   2   3  11    0.19    0.82
  -3  -3 -11    0.29    1.06
   3   3  11    0.61    0.75
   3   3  11    0.15    0.95
  -4  -3 -11    0.01    0.96
   4   3  11    0.63    0.83
  -5  -3 -11    0.63    0.85
  -5  -3 -11    0.06    1.03
  -6  -3 -11   -1.10    1.01
  -6  -3 -11   -0.07    0.85
  -7  -3 -11    0.46    1.36
  -8  -3 -11   -0.57    1.38
  -7   4  11    3.04    2.16
  -6   4  11    1.73    1.77
  -5   4  11    0.57    1.55
  -4   4  11    3.14    1.59
  -3   4  11    5.42    1.78
  -2   4  11    5.40    1.57
   1  -4 -11    4.94    1.53
  -1   4  11    3.78    0.80
  -1   4  11    2.41    1.14
   0  -4 -11   60.45    3.00
   0   4  11   64.15    3.35
   0   4  11   64.42    2.40
  -1  -4 -11    7.10    1.50
   1   4  11    6.69    1.25
   1   4  11    7.44    1.09
  -2  -4 -11   30.93    2.34
   2   4  11   33.36    2.08
   2   4  11   31.80    1.96
  -3  -4 -11  146.99    4.94
   3   4  11  146.78    4.79
  -4  -4 -11   58.91    3.06
   4   4  11   53.98    2.93
  -5  -4 -11   87.83    3.82
   5   4  11   87.11    3.89
  -6  -4 -11   33.62    2.52
   6   4  11   37.24    2.66
   7   4  11   50.08    3.19
   8   4  11    8.87    1.63
  -7   5  11   -0.85    1.64
  -6   5  11    0.48    1.77
  -5   5  11    1.97    1.65
  -4   5  11    0.10    1.27
  -3   5  11    0.32    1.19
   2  -5 -11   -0.28    1.37
  -2   5  11    0.74    1.24
   1  -5 -11    1.07    1.38
  -1   5  11   -0.23    0.96
  -1   5  11    0.28    0.69
   0  -5 -11   -0.35    1.18
   0   5  11    0.12    0.72
   0   5  11    0.98    0.87
  -1  -5 -11   -0.84    1.15
   1   5  11    0.07    0.69
   1   5  11    0.20    0.76
  -2  -5 -11    0.09    1.22
   2   5  11    0.14    0.83
  -3  -5 -11    0.88    1.16
   3   5  11   -0.17    0.80
  -4  -5 -11    0.56    1.14
   4   5  11   -0.29    0.82
  -5  -5 -11    0.98    1.14
   5   5  11   -0.38    0.89
  -6  -5 -11    1.58    1.11
   6   5  11   -0.35    1.00
  -7  -5 -11    0.65    0.96
   7   5  11    0.86    1.11
   8   5  11    4.86    1.33
  -7   6  11    4.74    2.68
  -6   6  11    7.83    2.57
  -5   6  11    8.87    2.48
  -4   6  11    1.48    1.53
   3  -6 -11   -0.40    1.41
  -3   6  11    0.79    1.27
   2  -6 -11   15.70    2.12
  -2   6  11   15.55    1.59
  -2   6  11   13.57    2.32
   1  -6 -11    0.40    1.32
  -1   6  11    2.08    0.98
  -1   6  11    1.36    1.13
   0  -6 -11    9.78    1.76
   0   6  11    9.83    1.56
   0   6  11   12.62    1.53
  -1  -6 -11   15.02    2.01
   1   6  11   14.94    1.69
   1   6  11   12.16    1.53
  -2  -6 -11    1.70    1.39
   2   6  11    2.48    1.00
  -3  -6 -11   38.84    2.60
   3   6  11   34.07    2.32
  -4  -6 -11   26.01    2.39
   4   6  11   25.09    2.18
  -5  -6 -11   21.91    2.53
   5   6  11   22.64    2.24
  -6  -6 -11   41.47    3.03
   6   6  11   40.95    3.02
  -7  -6 -11    6.79    1.69
   7   6  11    8.53    1.92
   8   6  11   25.82    3.14
  -6   7  11    1.32    1.88
  -5   7  11   -0.22    1.53
   4  -7 -11   -1.70    1.52
  -4   7  11    0.33    1.40
   3  -7 -11   -0.35    1.37
  -3   7  11   -0.92    1.25
   2  -7 -11    0.54    1.41
  -2   7  11   -0.99    1.05
  -2   7  11   -0.15    0.87
   1  -7 -11   -1.29    1.27
  -1   7  11    0.45    1.00
  -1   7  11    0.34    1.02
   0  -7 -11   -0.18    1.31
   0   7  11    0.04    0.86
   0   7  11    1.31    0.99
  -1  -7 -11   -1.28    1.23
   1   7  11   -0.45    0.88
  -2  -7 -11    0.07    1.27
   2   7  11   -0.69    0.87
  -3  -7 -11   -1.55    1.17
   3   7  11   -0.27    0.90
  -4  -7 -11    1.64    1.21
   4   7  11   -0.32    0.92
  -5  -7 -11    1.09    1.19
   5   7  11   -0.58    0.99
  -6  -7 -11    0.88    1.24
   6   7  11   -1.37    1.20
  -7  -7 -11    1.67    1.19
   7   7  11    1.67    1.36
  -8  -7 -11    2.16    1.35
  -6   8  11    4.63    2.64
  -5   8  11   11.42    3.03
  -4   8  11    3.43    2.02
   3  -8 -11    2.37    1.48
  -3   8  11    1.19    1.12
  -3   8  11    0.35    1.26
   2  -8 -11    1.84    1.43
  -2   8  11    3.04    1.17
  -2   8  11    1.08    1.31
   1  -8 -11    9.07    1.99
  -1   8  11    7.94    1.57
  -1   8  11    5.41    1.51
   0  -8 -11   19.34    2.34
   0   8  11   18.86    1.96
  -1  -8 -11   47.30    3.04
   1   8  11   45.21    2.70
  -2  -8 -11    6.40    1.69
   2   8  11    6.80    1.51
  -3  -8 -11   25.05    2.48
   3   8  11   21.62    2.16
  -4  -8 -11   20.25    2.49
   4   8  11   21.14    2.24
  -5  -8 -11   57.96    3.70
   5   8  11   57.92    3.44
  -6  -8 -11    2.64    1.50
   6   8  11    1.92    1.51
  -7  -8 -11    5.03    1.85
   7   8  11    4.01    1.70
  -8  -8 -11   11.18    2.45
  -5   9  11   -0.42    1.82
  -4   9  11    0.50    1.72
  -3   9  11   -0.99    1.45
  -3   9  11    0.21    1.00
   2  -9 -11   -0.34    1.45
  -2   9  11   -0.76    1.22
  -2   9  11   -0.14    1.04
   1  -9 -11    1.71    1.57
  -1   9  11    0.74    1.21
   0  -9 -11   -0.61    1.21
   0   9  11   -0.43    1.24
  -1  -9 -11   -1.21    1.14
   1   9  11   -1.17    1.01
  -2  -9 -11    0.38    1.26
   2   9  11   -0.61    1.04
  -3  -9 -11    0.69    1.25
   3   9  11   -1.41    1.17
  -4  -9 -11    1.89    1.40
   4   9  11   -0.42    1.16
  -5  -9 -11    1.13    1.32
   5   9  11   -0.24    1.20
  -6  -9 -11    0.12    1.26
   6   9  11   -0.70    1.27
  -7  -9 -11    1.37    1.47
   7   9  11   -0.67    1.54
  -3  10  11    2.32    1.34
   2 -10 -11    1.62    1.40
  -2  10  11    2.70    1.28
   1 -10 -11    0.74    1.40
  -1  10  11    1.62    1.35
   0 -10 -11    7.36    1.70
   0  10  11    6.69    1.68
  -1 -10 -11    8.66    1.84
   1  10  11   10.18    1.89
  -2 -10 -11   12.71    2.14
   2  10  11   14.15    2.14
  -3 -10 -11   12.45    2.22
   3  10  11   10.65    2.02
  -4 -10 -11    4.33    1.67
   4  10  11    3.32    1.58
  -5 -10 -11    6.78    1.95
   5  10  11    8.84    2.18
  -6 -10 -11    4.83    1.79
   6  10  11    3.13    1.85
  -4  11  11   -0.07    2.13
  -3  11  11    0.68    1.19
  -2  11  11   -1.10    1.21
   1 -11 -11    1.00    1.28
  -1  11  11    3.14    1.60
   0 -11 -11    0.58    1.32
   0  11  11   -0.13    1.46
  -1 -11 -11    0.30    1.28
   1  11  11   -1.00    1.33
  -2 -11 -11    1.89    1.48
   2  11  11   -0.05    1.40
  -3 -11 -11    1.40    1.47
   3  11  11   -2.07    1.18
  -4 -11 -11    1.49    1.48
   4  11  11   -1.20    1.54
  -5 -11 -11    0.38    1.43
   5  11  11   -1.81    1.37
  -6 -11 -11    0.58    1.44
   6  11  11   -0.49    1.62
  -4  12  11    3.32    2.20
  -3  12  11    2.21    1.51
  -2  12  11    2.08    1.53
  -1  12  11   10.84    2.16
   0 -12 -11    7.60    1.76
   0  12  11    6.59    1.93
  -1 -12 -11   11.43    2.12
   1  12  11    9.54    2.18
  -2 -12 -11    6.03    1.85
   2  12  11    6.91    2.01
  -3 -12 -11    4.77    1.73
   3  12  11    4.39    1.93
  -4 -12 -11    9.80    2.29
   4  12  11    2.78    1.82
  -5 -12 -11    1.55    1.57
   5  12  11    0.73    1.87
  -3  13  11    2.87    1.67
  -2  13  11    2.55    1.70
  -1  13  11    2.13    1.66
   0  13  11    0.48    1.61
  -1 -13 -11    3.65    1.72
   1  13  11   -0.31    1.60
  -2 -13 -11    0.77    1.46
   2  13  11    0.66    1.68
  -3 -13 -11    3.49    1.78
   3  13  11   -3.03    1.65
  -4 -13 -11    2.05    1.69
   4  13  11   -2.09    1.59
  -1  14  11    1.92    1.68
   0  14  11   11.79    2.70
  -1 -14 -11    5.31    1.93
   1  14  11    1.26    1.83
  -2 -14 -11    1.26    1.47
   2  14  11    1.01    2.01
  -3 -14 -11    5.46    2.11
  -1  -9  12    0.98    1.88
   0  -9  12    3.14    2.46
  -3  -8  12   11.56    2.69
  -2  -8  12    3.20    1.88
  -1  -8  12    1.97    2.00
   0  -8  12    4.10    2.20
   1  -8  12    1.86    2.30
   2  -8  12   12.78    3.46
   3  -8  12    4.93    4.67
  -4   8 -12   26.38    3.75
  -4  -7  12    2.69    1.77
  -3  -7  12    1.33    1.45
  -2  -7  12    3.20    1.75
  -1  -7  12    2.80    2.03
   0  -7  12    2.78    2.10
   1  -7  12    0.38    1.96
   2  -7  12   -0.55    2.14
   3  -7  12   -0.11    2.34
  -4   7 -12    0.07    1.41
   4  -7  12   -1.67    2.87
  -5   7 -12   -0.29    1.41
  -5  -6  12    3.88    1.83
  -4  -6  12    8.83    2.41
  -3  -6  12   19.98    3.21
  -2  -6  12   21.78    3.28
  -1  -6  12   35.52    3.98
   0  -6  12   23.26    3.40
   1  -6  12   15.64    3.15
   2  -6  12   10.59    2.93
  -3   6 -12    1.41    1.36
   3  -6  12    4.35    2.64
  -4   6 -12    5.54    1.72
   4  -6  12    5.10    2.95
  -5   6 -12    5.66    1.96
   5  -6  12    7.60    3.58
  -6  -5  12    0.68    1.52
  -5  -5  12    0.77    1.53
  -4  -5  12    0.63    1.49
  -3  -5  12    1.28    1.44
  -2  -5  12    0.30    1.38
  -1  -5  12    0.57    1.53
   0  -5  12    0.17    1.51
   1  -5  12   -0.34    1.68
   2  -5  12    0.17    1.98
  -3   5 -12    0.30    1.02
   3  -5  12   -0.66    2.13
  -4   5 -12    0.16    1.16
   4  -5  12    0.05    2.39
  -5   5 -12   -1.06    1.22
   5  -5  12   -3.15    2.17
  -6   5 -12    1.03    1.60
   6  -5  12   -0.61    2.80
  -6  -4  12    7.68    2.59
  -5  -4  12    6.01    2.18
  -4  -4  12    6.54    2.16
  -3  -4  12   37.82    3.89
  -2  -4  12   57.64    4.42
  -1  -4  12  190.31    7.82
   0  -4  12   30.78    3.53
   1  -4  12    6.68    2.19
  -2   4 -12    4.69    1.31
   2  -4  12    5.77    2.19
  -3   4 -12    6.65    1.66
   3  -4  12    8.27    2.55
  -4   4 -12   16.09    2.48
   4  -4  12   16.49    3.27
  -5   4 -12    1.48    1.40
   5  -4  12    0.50    2.36
  -6   4 -12    3.06    1.68
   6  -4  12    1.59    2.98
   7  -4  12   -2.64    3.01
  -6  -3  12   -0.65    1.34
  -5  -3  12    1.28    1.60
  -4  -3  12    0.14    1.40
  -3  -3  12    1.27    1.50
  -2  -3  12    0.70    1.31
  -1  -3  12   -0.03    1.28
   0  -3  12    0.98    1.72
   1  -3  12    3.11    1.75
  -2   3 -12   -1.17    0.83
   2  -3  12   -0.78    1.59
  -3   3 -12   -0.97    0.98
   3  -3  12   -0.84    1.70
  -4   3 -12    0.13    1.09
   4  -3  12    0.22    2.04
  -5   3 -12    0.00    1.10
   5  -3  12   -1.89    2.26
  -6   3 -12   -1.30    1.16
   6  -3  12   -3.08    2.33
  -7   3 -12   -1.64    1.50
   7  -3  12   -2.70    2.55
  -6  -2  12    2.67    1.76
  -5  -2  12    9.12    2.53
  -4  -2  12   16.18    2.89
  -3  -2  12   22.79    3.13
  -2  -2  12   40.97    3.85
  -1  -2  12   39.14    3.49
   0  -2  12   45.51    3.76
   1  -2  12   93.05    5.28
  -2   2 -12   40.74    2.52
  -2   2 -12   46.78    2.45
   2  -2  12   49.14    4.25
  -3   2 -12    0.84    1.06
   3  -2  12   -0.24    1.64
  -4   2 -12   14.47    2.14
   4  -2  12   15.33    2.82
  -5   2 -12   25.82    2.64
   5  -2  12   26.14    3.69
  -6   2 -12    3.33    1.61
   6  -2  12    1.87    2.37
  -7   2 -12   -0.10    1.36
   7  -2  12   -3.63    2.09
  -7  -1  12    1.00    1.68
  -6  -1  12    0.42    1.54
  -5  -1  12    0.27    1.49
  -4  -1  12    0.54    1.33
  -3  -1  12    0.02    1.19
  -2  -1  12   -0.35    1.32
  -1  -1  12   -0.09    1.17
   0  -1  12    0.22    1.31
  -1   1 -12    0.25    0.75
   1  -1  12   -0.84    1.52
  -2   1 -12   -1.06    1.15
  -2   1 -12   -1.26    0.74
   2  -1  12    0.03    1.50
  -3   1 -12   -0.66    0.80
  -3   1 -12   -1.10    1.10
   3  -1  12    1.01    1.64
  -4   1 -12   -1.26    0.96
   4  -1  12    0.16    1.62
  -5   1 -12   -1.28    0.96
   5  -1  12   -2.33    1.81
  -6   1 -12    1.24    1.38
   6  -1  12   -2.23    1.80
  -7   1 -12    0.37    1.57
  -7   0  12    0.01    1.79
  -6   0  12    1.11    1.90
  -5   0  12    7.09    2.26
  -4   0  12    2.71    1.60
  -3   0  12    2.15    1.44
  -2   0  12   12.38    2.26
  -1   0  12    3.89    1.52
   0   0  12   90.75    4.58
  -1   0 -12   10.10    1.25
   1   0  12   10.68    1.96
  -2   0 -12    7.71    1.37
  -2   0 -12    9.70    1.63
   2   0  12    8.97    1.96
  -3   0 -12    2.26    1.19
  -3   0 -12    1.28    0.98
   3   0  12    2.15    1.68
  -4   0 -12    6.45    1.61
   4   0  12    5.25    1.96
  -5   0 -12   13.19    2.12
   5   0  12   10.08    2.43
  -6   0 -12   12.33    2.28
   6   0  12    8.72    2.75
  -7   0 -12   11.40    2.32
  -7   1  12    0.72    2.04
  -6   1  12    0.75    1.68
  -5   1  12    1.12    1.60
  -4   1  12    0.59    1.35
  -3   1  12    0.18    1.20
  -2   1  12   -1.09    1.07
  -1   1  12   -0.30    1.19
   0   1  12    0.06    1.17
  -1  -1 -12    0.59    1.20
   1   1  12    0.32    1.13
  -2  -1 -12    0.00    0.79
  -2  -1 -12    1.08    1.14
   2   1  12    0.08    1.16
  -3  -1 -12   -0.23    0.96
  -3  -1 -12    0.74    1.20
   3   1  12    1.05    1.49
  -4  -1 -12   -0.48    0.93
  -4  -1 -12    0.15    0.98
   4   1  12   -1.73    1.41
  -5  -1 -12   -0.59    0.94
   5   1  12   -1.28    1.50
  -6  -1 -12   -0.19    1.18
  -7  -1 -12    0.17    1.23
  -8  -1 -12    1.19    2.53
  -7   2  12   -0.84    1.89
  -6   2  12    2.40    1.89
  -5   2  12    1.45    1.62
  -4   2  12    2.80    1.61
  -3   2  12   24.35    3.06
  -2   2  12   25.14    2.84
  -1   2  12   29.17    2.85
   0   2  12    1.76    1.18
  -1  -2 -12  114.72    4.16
   1   2  12  113.31    3.48
   1   2  12  111.37    4.68
  -2  -2 -12    0.57    1.15
   2   2  12    2.23    0.77
   2   2  12    2.88    1.32
  -3  -2 -12   96.48    3.78
  -3  -2 -12   96.45    3.96
   3   2  12   95.75    4.39
  -4  -2 -12   17.48    2.18
  -4  -2 -12   13.16    1.80
   4   2  12   13.06    2.07
  -5  -2 -12   22.41    2.00
  -5  -2 -12   22.00    2.58
  -6  -2 -12    2.29    1.43
  -7  -2 -12    1.61    1.53
  -8  -2 -12    2.00    1.67
  -7   3  12    5.37    2.64
  -6   3  12   -1.16    1.49
  -5   3  12   -1.07    1.26
  -4   3  12    0.04    1.34
  -3   3  12    0.44    1.27
  -2   3  12    0.87    1.23
  -1   3  12    0.87    1.08
   0  -3 -12   -0.51    1.32
   0   3  12    0.21    0.94
   0   3  12   -0.55    0.54
  -1  -3 -12   -0.29    1.23
   1   3  12   -0.76    0.86
   1   3  12    0.53    0.65
  -2  -3 -12    0.25    1.20
   2   3  12    1.01    0.81
   2   3  12    0.25    0.94
  -3  -3 -12   -0.71    1.08
   3   3  12    0.75    1.05
   3   3  12   -0.08    0.71
  -4  -3 -12    0.08    0.94
   4   3  12    0.15    0.75
  -5  -3 -12    0.05    1.21
  -5  -3 -12    0.48    0.95
  -6  -3 -12   -2.18    1.06
  -7  -3 -12   -1.01    1.43
   8   3  12    6.61    1.13
  -7   4  12    1.89    2.15
  -6   4  12    1.27    1.83
  -5   4  12    6.46    2.27
  -4   4  12    0.96    1.36
  -3   4  12   25.88    3.18
  -2   4  12   42.02    3.54
   1  -4 -12    4.25    1.61
  -1   4  12    1.81    1.27
   0  -4 -12   62.16    3.22
   0   4  12   67.57    3.66
   0   4  12   64.59    2.46
  -1  -4 -12  127.35    4.53
   1   4  12  125.95    3.88
   1   4  12  130.67    4.75
  -2  -4 -12   22.57    2.26
   2   4  12   25.06    1.90
   2   4  12   24.07    2.10
  -3  -4 -12  184.29    5.84
   3   4  12  185.64    5.65
  -4  -4 -12   51.51    2.96
   4   4  12   53.60    3.00
  -5  -4 -12  100.76    4.29
   5   4  12  109.90    4.47
  -6  -4 -12   11.84    1.93
   6   4  12   13.25    1.98
   7   4  12   22.27    2.16
   8   4  12   16.66    2.30
  -6   5  12   -1.71    1.70
  -5   5  12   -0.44    1.57
  -4   5  12   -0.86    1.21
  -3   5  12   -0.21    1.13
   2  -5 -12   -1.53    1.37
  -2   5  12    0.69    1.31
   1  -5 -12    0.15    1.43
  -1   5  12   -0.49    0.74
  -1   5  12   -0.36    0.91
   0  -5 -12    1.97    1.43
   0   5  12   -0.44    0.74
   0   5  12    0.24    0.76
  -1  -5 -12   -0.35    1.25
   1   5  12   -0.36    0.73
   1   5  12   -0.83    0.62
  -2  -5 -12   -0.17    1.01
   2   5  12   -0.74    0.79
  -3  -5 -12    0.36    1.22
   3   5  12   -1.33    0.76
  -4  -5 -12    0.66    1.18
   4   5  12   -0.03    0.86
  -5  -5 -12    0.21    0.96
   5   5  12    1.23    1.09
  -6  -5 -12    0.49    0.99
   6   5  12    1.01    1.05
  -7  -5 -12    1.20    1.53
   7   5  12    1.82    1.28
   8   5  12    3.56    1.43
  -6   6  12    1.10    1.93
  -5   6  12    0.78    1.70
  -4   6  12    5.90    2.06
   3  -6 -12    5.34    1.76
  -3   6  12    6.80    2.00
   2  -6 -12    0.96    1.73
  -2   6  12    0.72    1.16
   1  -6 -12    6.38    1.74
  -1   6  12    5.77    1.58
  -1   6  12    5.66    1.18
   0  -6 -12    3.34    1.55
   0   6  12    2.60    1.16
   0   6  12    2.93    1.09
  -1  -6 -12    9.29    1.81
   1   6  12   10.00    1.42
  -2  -6 -12   42.48    2.92
   2   6  12   42.11    2.44
  -3  -6 -12  151.81    5.43
   3   6  12  159.99    5.23
  -4  -6 -12  181.12    6.20
   4   6  12  187.42    6.06
  -5  -6 -12   23.88    2.39
   5   6  12   23.25    2.31
  -6  -6 -12   41.93    3.04
   6   6  12   32.40    2.80
  -7  -6 -12   46.83    3.33
   7   6  12   45.36    3.31
  -6   7  12    0.11    2.07
  -5   7  12    0.01    1.61
   4  -7 -12   -2.05    1.72
  -4   7  12   -0.83    1.37
   3  -7 -12   -1.04    1.37
  -3   7  12   -0.23    1.13
   2  -7 -12   -0.43    1.59
  -2   7  12   -0.34    1.16
   1  -7 -12   -1.15    1.34
  -1   7  12    0.46    1.06
  -1   7  12    0.54    0.87
   0  -7 -12   -0.74    1.39
   0   7  12    0.66    1.02
   0   7  12   -0.28    1.04
  -1  -7 -12   -0.04    1.36
   1   7  12    0.64    0.96
  -2  -7 -12   -1.46    1.24
   2   7  12   -0.81    0.96
  -3  -7 -12   -2.06    1.16
   3   7  12   -0.57    0.89
  -4  -7 -12    1.26    1.27
   4   7  12   -1.16    1.02
  -5  -7 -12    0.65    1.20
   5   7  12   -0.62    1.03
  -6  -7 -12    2.52    1.35
   6   7  12   -0.59    1.05
  -7  -7 -12    0.96    1.21
   7   7  12   -0.31    1.15
  -8  -7 -12    2.16    1.41
  -5   8  12    0.85    1.80
  -4   8  12   -0.38    1.66
   3  -8 -12    5.39    1.74
  -3   8  12    4.05    1.87
   2  -8 -12    3.57    1.70
  -2   8  12    2.49    1.48
  -2   8  12    5.42    1.35
   1  -8 -12   28.00    2.58
  -1   8  12   26.69    2.08
  -1   8  12   28.88    2.86
   0  -8 -12    3.64    1.62
   0   8  12    2.55    1.22
  -1  -8 -12    7.88    1.88
   1   8  12    8.88    1.58
  -2  -8 -12    3.25    1.52
   2   8  12    3.98    1.44
  -3  -8 -12   89.61    4.30
   3   8  12   91.39    4.03
  -4  -8 -12   62.52    3.68
   4   8  12   62.34    3.47
  -5  -8 -12   22.98    2.85
   5   8  12   22.22    2.40
  -6  -8 -12   20.35    2.78
   6   8  12   21.96    2.79
  -7  -8 -12    0.57    1.23
   7   8  12    0.63    1.36
  -6   9  12   -2.05    3.11
  -5   9  12   -1.80    1.70
  -4   9  12   -1.30    1.65
   3  -9 -12   -1.65    1.34
  -3   9  12    0.15    1.38
   2  -9 -12   -0.12    1.35
  -2   9  12   -0.73    1.09
  -2   9  12    0.45    0.94
   1  -9 -12    2.46    1.64
  -1   9  12   -1.34    0.89
   0  -9 -12    0.09    1.34
   0   9  12   -0.52    1.13
  -1  -9 -12    0.23    1.25
   1   9  12    0.22    1.13
  -2  -9 -12    1.26    1.39
   2   9  12   -1.11    1.03
  -3  -9 -12    0.92    1.34
   3   9  12    0.97    1.21
  -4  -9 -12    0.57    1.33
   4   9  12   -0.82    1.09
  -5  -9 -12    1.81    1.46
   5   9  12   -0.08    1.38
  -6  -9 -12    0.39    1.27
   6   9  12   -0.88    1.21
  -7  -9 -12    0.29    1.47
   7   9  12   -0.32    1.61
  -5  10  12    0.51    2.28
  -3  10  12    1.18    1.71
   2 -10 -12   16.68    2.33
  -2  10  12   18.86    2.37
   1 -10 -12    8.34    1.89
  -1  10  12   11.38    2.02
   0 -10 -12   10.70    1.99
   0  10  12   10.88    1.94
  -1 -10 -12   32.86    2.82
   1  10  12   31.48    2.67
  -2 -10 -12    3.34    1.60
   2  10  12    2.85    1.46
  -3 -10 -12   23.83    2.89
   3  10  12   23.47    2.54
  -4 -10 -12    5.16    1.84
   4  10  12   -0.09    1.39
   5  10  12    9.93    2.16
  -6 -10 -12    3.95    1.68
   6  10  12    1.48    1.54
  -4  11  12   -1.00    1.73
  -3  11  12    0.10    1.08
  -2  11  12    1.31    1.29
   1 -11 -12    2.10    1.47
  -1  11  12   -1.35    1.33
   0 -11 -12    2.41    1.47
   0  11  12    0.35    1.32
  -1 -11 -12   -0.21    1.34
   1  11  12    0.17    1.42
  -2 -11 -12    1.27    1.41
   2  11  12   -0.53    1.34
  -3 -11 -12   -0.95    1.20
   3  11  12   -1.04    1.33
  -4 -11 -12    0.83    1.50
   4  11  12    0.07    1.45
  -5 -11 -12    2.02    1.51
   5  11  12   -1.23    1.42
  -3  12  12    2.56    1.54
  -2  12  12    3.70    1.54
  -1  12  12   12.19    2.42
   0 -12 -12   10.85    2.10
   0  12  12   16.22    2.61
  -1 -12 -12   24.30    2.86
   1  12  12   23.61    2.89
  -2 -12 -12    7.27    2.10
   2  12  12    3.55    1.88
  -3 -12 -12    2.34    1.60
   3  12  12    0.31    1.59
  -4 -12 -12    6.28    1.98
   4  12  12    2.14    1.76
  -5 -12 -12    2.40    1.68
   5  12  12    0.40    1.79
  -3  13  12    0.45    1.32
  -2  13  12    0.63    1.39
  -1  13  12   -0.19    1.41
   0 -13 -12    3.06    1.44
   0  13  12    0.05    1.59
  -1 -13 -12    4.37    1.67
   1  13  12   -2.03    1.49
  -2 -13 -12    1.21    1.43
   2  13  12    0.09    1.66
  -3 -13 -12    1.47    1.52
   3  13  12   -1.88    1.52
  -4 -13 -12    3.18    1.79
   4  13  12   -2.25    2.70
  -1  14  12    2.25    1.77
   0  14  12    3.53    1.97
  -1 -14 -12   12.19    2.29
   1  14  12   12.36    2.67
  -2 -14 -12    8.84    2.13
   2  14  12    3.22    3.40
  -3 -14 -12    8.86    2.38
  -2  -8  13    4.33    2.75
  -1  -8  13    4.19    2.08
   0  -8  13    2.52    2.25
   1  -8  13    8.05    2.93
  -3  -7  13    2.60    1.73
  -2  -7  13    1.78    1.67
  -1  -7  13    3.24    1.91
   0  -7  13    0.98    1.82
   1  -7  13   22.98    4.28
   2  -7  13    1.07    2.55
   3  -7  13    0.01    2.35
  -4  -6  13   12.71    2.96
  -3  -6  13   21.27    3.37
  -2  -6  13    6.62    2.33
  -1  -6  13   14.76    2.90
   0  -6  13   13.73    3.00
   1  -6  13    3.27    2.18
   2  -6  13    3.32    2.41
   3  -6  13    2.81    2.78
  -4   6 -13   11.17    2.15
   4  -6  13    8.76    3.22
  -5   6 -13    3.55    1.80
  -5  -5  13    0.40    1.38
  -4  -5  13    2.12    1.61
  -3  -5  13    2.77    1.86
  -2  -5  13    1.46    1.55
  -1  -5  13    1.11    1.55
   0  -5  13    0.02    1.69
   1  -5  13    2.43    2.18
   2  -5  13   -1.40    1.86
   3  -5  13    1.07    2.25
  -4   5 -13    0.91    1.33
   4  -5  13   -1.80    2.17
  -5   5 -13    0.57    1.58
   5  -5  13   -1.45    2.79
  -5  -4  13    6.39    2.18
  -4  -4  13   16.76    3.17
  -3  -4  13    9.28    2.40
  -2  -4  13   10.29    2.42
  -1  -4  13   71.28    4.93
   0  -4  13    9.10    2.31
   1  -4  13   20.59    3.15
   2  -4  13   43.67    4.45
  -3   4 -13    6.04    1.69
   3  -4  13    6.93    2.51
  -4   4 -13    3.41    1.55
   4  -4  13    0.63    2.25
  -5   4 -13    2.68    1.54
   5  -4  13    1.05    2.44
  -6   4 -13    1.03    1.67
   6  -4  13   -1.50    2.56
  -6  -3  13    0.90    1.76
  -5  -3  13   -0.75    1.44
  -4  -3  13    0.43    1.45
  -3  -3  13    0.16    1.41
  -2  -3  13    0.37    1.33
  -1  -3  13    0.76    1.34
   0  -3  13   -0.71    1.37
   1  -3  13   -0.55    1.42
   2  -3  13    0.34    1.74
  -3   3 -13    0.48    1.09
   3  -3  13    2.08    2.01
  -4   3 -13   -1.81    1.11
   4  -3  13   -2.86    2.12
  -5   3 -13   -1.57    1.02
   5  -3  13   -1.09    2.05
  -6   3 -13    0.49    1.33
   6  -3  13   -2.86    2.18
   7  -3  13   -3.51    2.73
  -6  -2  13    6.15    2.45
  -5  -2  13    4.54    2.02
  -4  -2  13   15.47    2.96
  -3  -2  13    0.43    1.56
  -2  -2  13   69.34    4.73
  -1  -2  13   71.44    4.69
   0  -2  13   48.67    3.93
   1  -2  13    9.15    2.14
  -2   2 -13   11.68    1.69
  -2   2 -13    9.14    1.56
   2  -2  13   10.39    2.33
  -3   2 -13    1.78    1.08
   3  -2  13    2.53    1.86
  -4   2 -13    7.02    1.80
   4  -2  13    5.23    2.27
  -5   2 -13    4.10    1.70
   5  -2  13    2.51    2.19
  -6   2 -13    4.94    1.77
   6  -2  13    3.13    2.48
  -7   2 -13    2.80    1.77
   7  -2  13    0.10    2.73
  -6  -1  13   -0.58    1.50
  -5  -1  13    1.06    1.57
  -4  -1  13    0.27    1.44
  -3  -1  13    0.34    1.28
  -2  -1  13   -0.45    1.14
  -1  -1  13    0.16    1.30
   0  -1  13   -0.75    1.26
   1  -1  13   -0.27    1.56
  -2   1 -13    0.38    1.15
  -2   1 -13    0.17    0.85
   2  -1  13    0.41    1.49
  -3   1 -13    0.63    0.94
   3  -1  13   -0.19    1.53
  -4   1 -13   -0.71    0.92
   4  -1  13    0.75    1.72
  -5   1 -13    0.06    1.25
   5  -1  13   -0.40    1.97
  -6   1 -13   -0.43    1.20
   6  -1  13   -1.05    1.97
  -7   1 -13    0.01    1.39
  -6   0  13    2.63    2.07
  -5   0  13    1.90    1.69
  -4   0  13   22.25    3.46
  -3   0  13    1.94    1.56
  -2   0  13   90.99    5.26
  -1   0  13   53.65    3.91
   0   0  13   23.11    3.02
   1   0  13   10.83    2.22
  -2   0 -13   14.11    1.92
  -2   0 -13   15.57    1.76
   2   0  13   11.59    2.18
  -3   0 -13    2.40    1.15
  -3   0 -13    0.80    1.09
   3   0  13    0.92    1.42
  -4   0 -13   11.17    1.91
   4   0  13   12.81    2.33
  -5   0 -13    6.91    1.77
   5   0  13    6.58    2.14
  -6   0 -13   14.70    2.45
  -7   0 -13    0.04    1.38
  -6   1  13    0.94    1.67
  -5   1  13   -0.34    1.62
  -4   1  13    0.44    1.39
  -3   1  13    0.74    1.31
  -2   1  13   -0.52    1.12
  -1   1  13    0.27    1.22
   0   1  13   -1.01    1.08
  -1  -1 -13    0.81    1.37
   1   1  13   -0.57    1.26
  -2  -1 -13    0.55    1.23
  -2  -1 -13    0.03    0.87
   2   1  13   -0.48    1.34
  -3  -1 -13   -1.65    0.80
  -3  -1 -13   -0.43    1.01
   3   1  13   -0.01    1.28
  -4  -1 -13    0.40    0.91
  -4  -1 -13   -0.59    0.88
   4   1  13   -0.13    1.38
  -5  -1 -13   -0.15    1.01
   5   1  13   -0.48    1.56
  -6  -1 -13   -0.48    1.23
  -7  -1 -13    0.03    1.35
  -6   2  13    1.31    1.81
  -5   2  13   -0.55    1.43
  -4   2  13   12.10    2.62
  -3   2  13   30.36    3.42
  -2   2  13    6.21    1.81
  -1   2  13    6.12    1.82
   0   2  13    6.45    1.62
  -1  -2 -13  203.24    6.08
   1   2  13  203.84    6.84
   1   2  13  197.88    5.25
  -2  -2 -13   56.76    3.06
   2   2  13   59.61    2.66
   2   2  13   61.27    3.69
  -3  -2 -13   38.11    2.57
  -3  -2 -13   36.84    2.47
   3   2  13   36.87    3.08
  -4  -2 -13    8.97    1.55
  -4  -2 -13    7.14    1.58
   4   2  13    5.58    1.68
  -5  -2 -13    5.09    1.60
  -6  -2 -13    6.08    1.81
  -7  -2 -13    3.84    1.75
  -6   3  13    0.09    1.97
  -5   3  13   -0.76    1.53
  -4   3  13   -0.17    1.33
  -3   3  13   -0.90    1.05
  -2   3  13    0.50    1.20
  -1   3  13   -0.74    0.96
   0  -3 -13   -0.36    1.46
   0   3  13   -1.02    0.90
  -1  -3 -13    0.00    1.31
   1   3  13   -0.07    1.03
   1   3  13   -0.42    0.59
  -2  -3 -13    0.69    1.28
   2   3  13    0.31    1.08
   2   3  13    1.19    0.83
  -3  -3 -13   -0.56    1.15
   3   3  13    1.47    0.97
   3   3  13    1.12    1.13
  -4  -3 -13    0.90    1.05
   4   3  13    0.61    0.82
  -5  -3 -13    0.73    1.02
   5   3  13    2.12    0.93
  -6  -3 -13   -0.88    1.21
  -7  -3 -13   -0.45    1.33
  -6   4  13   -1.33    1.45
  -5   4  13    1.41    1.75
  -4   4  13    8.66    2.32
  -3   4  13   40.22    3.84
  -2   4  13   42.37    3.71
   1  -4 -13   86.70    3.91
  -1   4  13   84.73    4.57
   0  -4 -13   61.21    3.35
   0   4  13   64.73    3.81
  -1  -4 -13   18.59    2.24
   1   4  13   19.80    2.19
   1   4  13   21.73    1.63
  -2  -4 -13    0.34    1.33
   2   4  13    0.50    0.76
   2   4  13    0.33    0.95
  -3  -4 -13   27.95    2.42
   3   4  13   23.47    1.96
  -4  -4 -13   51.19    2.98
   4   4  13   54.93    2.97
  -5  -4 -13  104.81    4.44
   5   4  13  101.16    4.44
  -6  -4 -13   40.94    2.94
   6   4  13   41.07    2.88
   7   4  13   26.32    2.37
  -6   5  13   -0.09    1.89
  -5   5  13    0.77    1.75
  -4   5  13   -0.38    1.36
  -3   5  13    0.09    1.36
   2  -5 -13    1.16    1.60
  -2   5  13   -0.79    1.06
   1  -5 -13   -2.23    1.41
  -1   5  13   -1.38    0.94
   0  -5 -13   -0.91    1.40
   0   5  13    1.01    0.83
   0   5  13   -0.32    0.95
  -1  -5 -13    0.16    1.41
   1   5  13   -0.03    0.82
   1   5  13    0.35    0.84
  -2  -5 -13    0.18    1.30
   2   5  13    0.14    0.78
  -3  -5 -13    0.58    1.28
   3   5  13   -0.57    0.94
  -4  -5 -13    0.79    1.17
   4   5  13    0.49    0.92
  -5  -5 -13    1.29    1.15
   5   5  13   -0.13    0.93
  -6  -5 -13    1.16    1.12
   6   5  13    0.39    1.15
   7   5  13    2.87    1.18
  -6   6  13   -0.31    1.76
  -5   6  13    1.53    1.82
  -4   6  13    5.58    2.25
   3  -6 -13   -0.39    1.75
  -3   6  13    2.02    1.43
   2  -6 -13    3.51    1.76
  -2   6  13    2.02    1.38
   1  -6 -13    6.10    1.86
  -1   6  13    9.93    1.89
   0  -6 -13   27.54    2.34
   0   6  13   28.87    2.57
   0   6  13   26.34    1.98
  -1  -6 -13  250.40    7.43
   1   6  13  261.81    6.80
  -2  -6 -13  383.90   10.02
   2   6  13  388.08    9.45
  -3  -6 -13   56.30    3.30
   3   6  13   54.52    2.95
  -4  -6 -13   43.54    3.01
   4   6  13   43.96    2.82
  -5  -6 -13   22.18    2.58
   5   6  13   22.09    2.54
  -6  -6 -13   28.71    2.67
   6   6  13   28.29    2.66
  -7  -6 -13   22.03    2.79
   7   6  13   18.16    2.59
  -6   7  13   -0.76    1.71
  -5   7  13   -0.68    1.55
   4  -7 -13   -1.84    1.62
  -4   7  13    0.38    1.66
   3  -7 -13    0.91    1.61
  -3   7  13    0.25    1.35
   2  -7 -13   -0.96    1.39
  -2   7  13   -0.38    1.05
   1  -7 -13   -0.43    1.44
  -1   7  13   -0.24    0.95
  -1   7  13   -0.84    0.86
   0  -7 -13   -0.07    1.46
   0   7  13   -0.48    0.96
  -1  -7 -13   -1.10    1.34
   1   7  13   -0.69    1.01
  -2  -7 -13    1.21    1.48
   2   7  13   -0.33    1.00
  -3  -7 -13    0.10    1.26
   3   7  13   -1.27    0.82
  -4  -7 -13   -0.33    1.10
   4   7  13   -0.94    1.06
  -5  -7 -13    0.51    1.14
   5   7  13   -0.48    1.05
  -6  -7 -13    1.97    1.41
   6   7  13    0.74    1.18
  -7  -7 -13    1.10    1.24
   7   7  13    1.64    1.32
  -6   8  13    2.63    2.39
  -5   8  13    3.96    2.26
   4  -8 -13    0.23    2.24
  -4   8  13    2.12    1.92
   3  -8 -13    6.03    1.92
  -3   8  13    5.59    2.12
   2  -8 -13   12.87    2.17
  -2   8  13   12.71    2.44
   1  -8 -13   16.72    2.35
  -1   8  13   20.46    2.11
   0  -8 -13   12.86    2.15
   0   8  13   16.88    2.04
  -1  -8 -13   47.34    3.18
   1   8  13   45.05    2.71
  -2  -8 -13   60.02    3.56
   2   8  13   62.11    3.24
  -3  -8 -13   63.81    3.71
   3   8  13   63.20    3.38
  -4  -8 -13   37.92    3.03
   4   8  13   39.87    2.88
  -5  -8 -13   15.29    2.41
   5   8  13   18.34    2.46
  -6  -8 -13    2.76    1.54
   6   8  13    3.24    1.51
  -7  -8 -13    4.08    1.72
   7   8  13    4.90    1.82
  -5   9  13    0.60    2.15
  -4   9  13    1.14    1.69
   3  -9 -13   -0.12    1.53
  -3   9  13    0.39    1.56
   2  -9 -13    1.40    1.75
  -2   9  13   -0.45    1.28
   1  -9 -13    1.92    1.57
  -1   9  13    0.11    1.16
   0  -9 -13    0.30    1.56
   0   9  13   -0.29    1.07
  -1  -9 -13    0.24    1.41
   1   9  13    0.69    1.11
  -2  -9 -13   -0.85    1.26
   2   9  13   -0.65    1.06
  -3  -9 -13   -0.33    1.26
   3   9  13   -0.77    1.14
  -4  -9 -13    1.81    1.44
   4   9  13   -0.42    1.21
  -5  -9 -13    1.46    1.44
   5   9  13    0.16    1.34
  -6  -9 -13    0.78    1.32
   6   9  13   -0.37    1.29
  -7  -9 -13    0.61    1.30
  -5  10  13    0.40    2.08
  -4  10  13    0.65    1.86
  -3  10  13    3.82    2.66
   2 -10 -13   24.71    2.85
  -2  10  13   21.64    2.30
   1 -10 -13   15.02    2.43
  -1  10  13   16.45    2.17
   0 -10 -13   15.55    2.32
   0  10  13   14.09    2.14
  -1 -10 -13   16.15    2.35
   1  10  13   19.11    2.48
  -2 -10 -13    6.43    1.87
   2  10  13    4.86    1.67
  -3 -10 -13    6.06    1.84
   3  10  13    5.67    1.73
  -4 -10 -13    0.83    1.44
   4  10  13    0.00    1.40
  -5 -10 -13   30.62    3.09
   5  10  13   28.65    3.19
  -6 -10 -13   13.82    2.58
   6  10  13   15.73    2.64
  -2  11  13    1.65    1.43
   1 -11 -13    2.64    1.68
  -1  11  13   -0.54    1.20
   0 -11 -13    2.26    1.50
   0  11  13   -0.87    1.28
  -1 -11 -13    0.52    1.40
   1  11  13   -1.93    1.29
  -2 -11 -13   -0.32    1.29
   2  11  13   -1.91    1.46
  -3 -11 -13    0.38    1.37
   3  11  13    0.73    1.51
  -4 -11 -13    1.76    1.61
   4  11  13   -2.07    1.31
  -5 -11 -13    0.67    1.44
   5  11  13   -2.00    1.43
  -2  12  13    1.98    1.57
   1 -12 -13    8.07    2.06
  -1  12  13   10.17    2.07
   0 -12 -13    6.00    1.80
   0  12  13    2.33    1.63
  -1 -12 -13    5.83    1.84
   1  12  13    3.84    1.93
  -2 -12 -13    3.20    1.64
   2  12  13    1.34    1.86
  -3 -12 -13    4.01    1.79
   3  12  13   -1.59    1.68
  -4 -12 -13   19.40    3.02
   4  12  13   13.76    2.75
  -2  13  13    0.96    1.57
  -1  13  13    0.40    1.62
   0 -13 -13    1.87    1.60
   0  13  13    0.84    1.81
  -1 -13 -13    1.18    1.38
   1  13  13    0.78    1.68
  -2 -13 -13    2.69    1.60
   2  13  13   -3.24    1.40
  -3 -13 -13    1.41    1.55
   3  13  13   -1.74    1.80
  -1  14  13    2.76    2.35
   0  14  13    2.23    1.91
  -1 -14 -13    7.73    2.10
   1  14  13    2.38    2.46
  -2 -14 -13    3.23    1.67
  -2  -7  14    2.49    1.92
  -1  -7  14    1.60    1.79
   0  -7  14    3.95    2.11
   1  -7  14    1.97    2.37
   2  -7  14   -1.34    3.36
  -3  -6  14   18.60    3.30
  -2  -6  14   15.41    3.04
  -1  -6  14   13.62    2.93
   0  -6  14    3.58    2.06
   1  -6  14    2.86    2.13
   2  -6  14    4.33    2.48
   3  -6  14    7.81    2.98
  -4  -5  14    1.57    1.54
  -3  -5  14    2.25    1.79
  -2  -5  14    2.93    1.91
  -1  -5  14    2.01    1.82
   0  -5  14    0.33    1.72
   1  -5  14    2.25    1.91
   2  -5  14    0.52    2.08
   3  -5  14   -0.82    2.10
   4  -5  14    0.07    2.33
  -5   5 -14    1.42    1.65
   5  -5  14    0.66    3.14
  -5  -4  14    9.94    2.70
  -4  -4  14    3.08    1.85
  -3  -4  14   87.49    6.06
  -2  -4  14    0.42    1.49
  -1  -4  14   34.09    3.87
   0  -4  14   27.46    3.71
   1  -4  14    5.61    2.22
   2  -4  14    4.02    2.39
   3  -4  14   11.30    2.97
  -4   4 -14   14.49    2.37
   4  -4  14   17.39    3.51
  -5   4 -14   11.27    2.26
   5  -4  14    7.23    3.04
  -6   4 -14    8.71    2.26
   6  -4  14    8.61    3.69
  -5  -3  14    0.09    1.66
  -4  -3  14    1.98    1.85
  -3  -3  14    1.85    1.60
  -2  -3  14   -0.28    1.36
  -1  -3  14    0.23    1.39
   0  -3  14    1.11    1.58
   1  -3  14    0.24    1.52
   2  -3  14   -0.20    1.96
   3  -3  14   -0.83    1.84
  -4   3 -14    0.61    1.28
   4  -3  14    0.93    2.12
  -5   3 -14   -0.94    1.23
   5  -3  14   -1.18    2.34
  -6   3 -14    2.04    1.73
   6  -3  14   -4.30    2.41
  -5  -2  14    8.87    2.62
  -4  -2  14   21.17    3.50
  -3  -2  14    4.71    2.00
  -2  -2  14   32.97    3.66
  -1  -2  14    9.30    2.21
   0  -2  14   49.96    4.11
   1  -2  14    4.51    1.88
   2  -2  14   48.55    4.18
  -3   2 -14   36.06    2.74
   3  -2  14   40.62    4.09
  -4   2 -14    3.49    1.50
   4  -2  14    2.59    2.34
  -5   2 -14    1.76    1.40
   5  -2  14   -0.93    1.99
  -6   2 -14    5.29    1.86
   6  -2  14    1.93    2.74
  -6  -1  14    0.54    1.64
  -5  -1  14   -0.30    1.45
  -4  -1  14    0.98    1.57
  -3  -1  14    0.05    1.36
  -2  -1  14    0.25    1.31
  -1  -1  14    0.80    1.32
   0  -1  14    1.20    1.36
   1  -1  14    0.06    1.53
  -2   1 -14    0.36    1.37
   2  -1  14   -0.49    1.34
  -3   1 -14    1.30    1.06
   3  -1  14    0.05    1.54
  -4   1 -14    0.22    1.08
   4  -1  14    1.87    2.01
  -5   1 -14   -0.44    1.15
   5  -1  14   -0.96    2.05
  -6   1 -14    0.23    1.33
   6  -1  14   -2.47    1.83
  -7   1 -14   -0.10    1.42
  -6   0  14    1.02    2.04
  -5   0  14    2.08    1.92
  -4   0  14   68.67    5.44
  -3   0  14    7.66    2.21
  -2   0  14   64.71    4.62
  -1   0  14   60.63    4.42
   0   0  14    8.68    1.94
   1   0  14   -0.25    1.21
  -2   0 -14    5.46    1.67
  -2   0 -14    4.39    1.39
   2   0  14    6.37    1.95
  -3   0 -14   -0.70    0.89
  -3   0 -14    1.15    1.12
   3   0  14    1.49    1.69
  -4   0 -14   91.19    4.32
   4   0  14   90.11    5.31
  -5   0 -14    3.94    1.71
   5   0  14    2.65    1.91
  -6   0 -14    5.94    2.00
  -7   0 -14   -0.55    1.30
  -6   1  14    0.92    1.78
  -5   1  14    0.61    1.64
  -4   1  14    0.43    1.46
  -3   1  14   -0.81    1.14
  -2   1  14    0.24    1.22
  -1   1  14    0.29    1.32
   0   1  14    0.98    1.22
  -1  -1 -14    0.27    1.40
   1   1  14    0.50    1.23
  -2  -1 -14   -0.25    0.77
  -2  -1 -14   -0.17    1.38
   2   1  14    0.18    1.36
  -3  -1 -14    1.28    1.28
  -3  -1 -14    0.30    0.89
   3   1  14    0.54    1.31
  -4  -1 -14    0.70    1.05
   4   1  14   -0.21    1.43
  -5  -1 -14   -0.33    1.13
  -6  -1 -14   -0.48    1.19
  -7  -1 -14   -0.07    1.43
  -6   2  14    5.82    2.49
  -5   2  14   19.95    3.63
  -4   2  14    6.11    2.17
  -3   2  14   25.95    3.36
  -2   2  14    8.22    2.06
  -1   2  14   57.45    4.21
   0   2  14  159.34    6.49
  -1  -2 -14  144.66    5.13
   1   2  14  143.44    5.84
  -2  -2 -14   62.60    3.30
   2   2  14   56.29    2.64
   2   2  14   61.26    3.83
  -3  -2 -14   -0.83    0.80
  -3  -2 -14    1.82    1.41
   3   2  14    0.87    1.21
   3   2  14    1.70    0.71
  -4  -2 -14    8.91    1.71
  -4  -2 -14   12.64    1.82
  -5  -2 -14   33.51    3.01
  -6  -2 -14   12.22    2.27
  -7  -2 -14    5.64    2.01
  -6   3  14   -0.10    1.71
  -5   3  14    0.80    1.70
  -4   3  14    0.26    1.52
  -3   3  14    0.90    1.31
  -2   3  14    0.14    1.16
  -1   3  14    0.19    1.15
   0  -3 -14    0.18    1.27
   0   3  14    0.49    1.14
  -1  -3 -14   -0.05    1.46
   1   3  14    0.25    1.14
  -2  -3 -14    0.18    1.31
   2   3  14    0.09    1.06
   2   3  14    0.85    0.84
  -3  -3 -14    0.72    1.36
   3   3  14    0.70    1.27
   3   3  14    0.50    0.74
  -4  -3 -14    2.84    1.21
   4   3  14    1.48    0.77
  -5  -3 -14    0.99    1.07
   5   3  14    1.80    0.86
   6   3  14    4.69    1.08
  -6   4  14   -1.25    1.64
  -5   4  14    0.91    1.66
  -4   4  14    6.30    2.33
  -3   4  14   30.15    3.74
  -2   4  14   24.91    3.00
   1  -4 -14   24.00    2.66
  -1   4  14   22.58    2.85
   0  -4 -14   13.64    2.20
   0   4  14   10.14    1.92
  -1  -4 -14  133.67    4.98
   1   4  14  127.79    4.06
   1   4  14  135.47    5.34
  -2  -4 -14  234.25    6.99
   2   4  14  231.02    7.28
   2   4  14  227.68    6.36
  -3  -4 -14  330.75    8.99
   3   4  14  336.27    8.71
  -4  -4 -14   47.11    2.96
   4   4  14   48.68    2.87
  -5  -4 -14    7.69    1.67
   5   4  14    9.59    1.71
   6   4  14    3.68    1.15
   7   4  14    6.39    1.38
  -6   5  14   -0.17    1.82
  -5   5  14   -0.86    1.55
  -4   5  14   -0.75    1.39
  -3   5  14    1.41    1.58
   2  -5 -14   -0.17    1.56
  -2   5  14   -0.94    1.03
   1  -5 -14    0.24    1.55
  -1   5  14    0.09    1.11
   0  -5 -14   -1.02    1.47
   0   5  14   -0.95    0.92
  -1  -5 -14    0.35    1.48
   1   5  14    0.21    0.82
   1   5  14   -0.20    0.95
  -2  -5 -14    0.56    1.38
   2   5  14   -0.82    0.80
  -3  -5 -14    0.57    1.33
   3   5  14   -0.42    0.84
  -4  -5 -14    0.23    1.09
   4   5  14    0.89    1.08
  -5  -5 -14    0.64    1.20
   5   5  14    0.15    0.98
  -6  -5 -14    0.27    1.12
   6   5  14    2.29    1.21
   7   5  14    3.25    1.27
  -6   6  14    3.93    2.49
  -5   6  14    2.19    1.94
  -4   6  14    6.45    2.41
   3  -6 -14    2.87    1.84
  -3   6  14    0.26    1.35
   2  -6 -14   17.99    2.50
  -2   6  14   12.01    2.37
   1  -6 -14  125.13    4.98
  -1   6  14  125.71    5.88
   0  -6 -14  218.86    6.82
   0   6  14  217.96    7.39
  -1  -6 -14   35.72    2.91
   1   6  14   33.50    2.17
  -2  -6 -14   76.58    3.92
   2   6  14   74.93    3.39
  -3  -6 -14   13.68    2.11
   3   6  14   15.69    1.93
  -4  -6 -14  113.00    4.87
   4   6  14  115.97    4.67
  -5  -6 -14   88.48    4.31
   5   6  14   82.09    4.16
  -6  -6 -14   21.39    2.67
   6   6  14   24.55    2.88
  -7  -6 -14    7.93    1.83
   7   6  14    7.51    1.83
  -6   7  14    1.26    2.85
  -5   7  14   -1.48    1.50
   4  -7 -14   -3.42    1.60
  -4   7  14   -0.14    1.47
   3  -7 -14   -1.48    1.58
  -3   7  14    0.15    1.51
   2  -7 -14    0.35    1.54
  -2   7  14   -1.20    0.96
   1  -7 -14   -0.32    1.48
  -1   7  14   -0.31    1.05
   0  -7 -14   -0.50    1.45
   0   7  14   -1.15    0.90
  -1  -7 -14   -0.14    1.13
   1   7  14   -0.71    0.95
  -2  -7 -14   -0.20    1.39
   2   7  14   -0.31    1.03
  -3  -7 -14    1.45    1.36
   3   7  14   -0.21    0.96
  -4  -7 -14    0.26    1.25
   4   7  14    0.26    1.02
  -5  -7 -14    0.60    1.23
   5   7  14   -0.57    1.04
  -6  -7 -14    1.04    1.31
   6   7  14    0.66    1.33
  -7  -7 -14    1.21    1.22
   7   7  14   -0.16    1.09
  -5   8  14    3.31    2.15
   4  -8 -14    3.88    2.21
  -4   8  14    5.15    2.19
   3  -8 -14   18.75    2.66
  -3   8  14   16.07    3.03
   2  -8 -14    9.33    2.09
  -2   8  14    6.88    2.06
   1  -8 -14    4.87    1.82
   0  -8 -14   20.51    2.62
   0   8  14   19.57    2.11
  -1  -8 -14  121.87    5.10
   1   8  14  125.41    4.63
  -2  -8 -14   42.57    3.13
   2   8  14   38.82    2.69
  -3  -8 -14   28.84    2.78
   3   8  14   26.48    2.55
  -4  -8 -14    5.72    1.75
   4   8  14    7.83    1.72
  -5  -8 -14   21.28    2.74
   5   8  14   21.25    2.61
  -6  -8 -14   12.50    2.25
   6   8  14    7.53    1.89
  -7  -8 -14   16.84    2.76
  -5   9  14   -1.03    1.60
  -4   9  14   -1.55    1.48
   3  -9 -14    0.36    1.87
  -3   9  14    1.16    1.61
   2  -9 -14    0.19    1.63
   1  -9 -14    0.63    1.53
   0  -9 -14    1.03    1.56
   0   9  14   -0.63    1.17
  -1  -9 -14    0.16    1.45
   1   9  14   -0.86    1.03
  -2  -9 -14   -0.19    1.37
   2   9  14   -0.79    1.13
  -3  -9 -14    1.21    1.50
   3   9  14   -1.08    1.13
  -4  -9 -14    0.64    1.32
   4   9  14   -1.47    1.04
  -5  -9 -14    0.46    1.32
   5   9  14   -1.18    1.19
  -6  -9 -14    1.40    1.40
   6   9  14   -0.17    1.26
  -5  10  14    1.25    2.43
  -4  10  14    2.87    2.11
   2 -10 -14    1.00    1.64
   1 -10 -14   10.79    2.24
  -1  10  14   14.29    2.11
   0 -10 -14    9.92    2.08
   0  10  14   10.94    1.96
  -1 -10 -14    7.10    1.92
   1  10  14    4.67    1.64
  -2 -10 -14    2.19    1.62
   2  10  14    2.57    1.62
  -3 -10 -14   33.10    3.05
   3  10  14   32.94    2.90
  -4 -10 -14   13.83    2.35
  -5 -10 -14   16.81    2.65
   5  10  14   15.13    2.52
  -6 -10 -14    1.51    1.53
   6  10  14   -0.49    2.47
   2 -11 -14    1.31    1.88
   1 -11 -14    1.89    1.56
  -1  11  14    0.44    1.41
   0 -11 -14    2.71    1.60
   0  11  14   -0.65    1.41
  -1 -11 -14    2.87    1.62
   1  11  14   -1.23    1.52
  -2 -11 -14    1.15    1.48
   2  11  14   -0.88    1.35
  -3 -11 -14    0.36    1.45
   3  11  14   -0.40    1.60
  -4 -11 -14    1.05    1.52
   4  11  14   -2.02    1.50
  -5 -11 -14    1.67    1.59
   5  11  14   -0.19    1.56
   1 -12 -14   10.40    2.06
  -1  12  14    7.75    2.08
   0 -12 -14    4.09    1.69
   0  12  14   -0.85    1.54
  -1 -12 -14    5.52    1.84
   1  12  14    0.24    1.58
  -2 -12 -14    5.23    1.78
   2  12  14    3.35    1.79
  -3 -12 -14   10.30    2.29
   3  12  14    7.53    2.20
  -4 -12 -14    1.94    1.62
   4  12  14    1.37    1.74
  -1  13  14    2.80    1.83
   0 -13 -14    4.85    1.83
   0  13  14    0.90    1.66
  -1 -13 -14    1.93    1.49
   1  13  14    0.63    1.70
  -2 -13 -14    3.91    1.74
   2  13  14   -2.20    1.80
  -3 -13 -14    1.77    1.65
   3  13  14   -2.15    1.68
  -1 -14 -14    7.46    2.08
  -2 -14 -14    8.33    2.56
  -2  -6  15    4.78    2.14
  -1  -6  15    7.05    2.33
   0  -6  15    3.57    2.15
   1  -6  15    4.85    2.32
   2  -6  15   23.30    4.10
  -3  -5  15    2.20    1.63
  -2  -5  15    6.82    2.31
  -1  -5  15    2.95    1.81
   0  -5  15    0.34    1.64
   1  -5  15    0.15    1.78
   2  -5  15    2.05    2.34
   3  -5  15    0.34    2.18
   4  -5  15    1.20    2.52
  -4  -4  15    5.82    2.33
  -3  -4  15   11.19    2.69
  -2  -4  15   21.59    3.46
  -1  -4  15    4.30    1.97
   0  -4  15    7.56    2.49
   1  -4  15   19.32    3.23
   2  -4  15    2.41    2.15
   3  -4  15    5.08    2.47
   4  -4  15    9.08    2.94
  -5   4 -15   17.81    2.74
   5  -4  15   16.55    3.64
  -4  -3  15    0.30    1.45
  -3  -3  15    2.03    1.68
  -2  -3  15    1.01    1.61
  -1  -3  15    0.40    1.50
   0  -3  15   -1.54    1.37
   1  -3  15    0.22    1.67
   2  -3  15    1.72    1.93
   3  -3  15    1.05    1.99
   4  -3  15    0.36    2.06
  -5   3 -15    0.97    1.49
   5  -3  15    1.38    2.38
  -6   3 -15    0.84    1.49
   6  -3  15    0.12    2.51
  -5  -2  15   16.15    3.52
  -4  -2  15    1.97    1.74
  -3  -2  15   23.42    3.61
  -2  -2  15   20.72    3.28
  -1  -2  15    1.75    1.75
   0  -2  15   54.35    4.57
   1  -2  15   14.71    2.71
   2  -2  15    0.02    1.78
   3  -2  15   10.96    2.64
  -4   2 -15    0.30    1.26
   4  -2  15   -2.32    1.96
  -5   2 -15    5.92    1.90
   5  -2  15    7.33    2.63
  -6   2 -15    6.42    2.11
   6  -2  15   11.82    3.16
  -5  -1  15   -0.38    1.71
  -4  -1  15   -0.20    1.47
  -3  -1  15    0.62    1.50
  -2  -1  15    1.79    1.55
  -1  -1  15    0.37    1.35
   0  -1  15    0.26    1.30
   1  -1  15    0.45    1.41
  -2   1 -15   -2.99    1.30
   2  -1  15   -0.33    1.45
   3  -1  15   -0.17    1.58
  -4   1 -15    1.58    1.25
   4  -1  15    1.76    1.90
  -5   1 -15   -1.50    1.20
   5  -1  15    0.11    1.88
  -6   1 -15    0.00    1.37
  -5   0  15    1.52    1.76
  -4   0  15   69.24    5.61
  -3   0  15   55.56    4.85
  -2   0  15   20.25    3.08
  -1   0  15   22.97    3.07
   0   0  15   31.93    3.34
   1   0  15    1.32    1.43
  -2   0 -15   64.15    3.39
   2   0  15   62.82    4.29
  -3   0 -15    0.16    1.06
  -3   0 -15    2.95    1.76
   3   0  15    3.66    1.91
  -4   0 -15    6.87    1.71
   4   0  15    6.10    2.08
  -5   0 -15    1.70    1.49
   5   0  15    0.56    1.88
  -6   0 -15   -0.61    1.51
  -7   0 -15    2.13    2.09
  -5   1  15    1.44    1.80
  -4   1  15    0.25    1.61
  -3   1  15    0.92    1.66
  -2   1  15    0.69    1.30
  -1   1  15   -0.46    1.06
   0   1  15   -0.22    1.14
  -1  -1 -15   -2.69    1.27
   1   1  15    0.28    1.16
  -2  -1 -15    0.23    1.26
   2   1  15    0.51    1.20
  -3  -1 -15    0.89    1.03
  -3  -1 -15    0.42    1.18
   3   1  15   -0.29    1.23
  -4  -1 -15    0.40    1.09
   4   1  15    0.99    1.44
  -5  -1 -15   -0.74    1.04
  -6  -1 -15   -0.82    1.37
  -7  -1 -15   -2.02    1.42
  -6   2  15    0.46    2.82
  -5   2  15   11.26    3.03
  -4   2  15   19.87    3.41
  -3   2  15   15.40    2.98
  -2   2  15   99.20    5.76
  -1   2  15  195.43    7.86
   0   2  15  134.80    6.13
  -1  -2 -15    1.44    1.53
   1   2  15    2.06    1.33
  -2  -2 -15    4.32    1.58
   2   2  15    4.23    1.48
  -3  -2 -15    2.70    1.54
   3   2  15    3.63    1.50
   3   2  15    4.32    0.99
  -4  -2 -15   18.10    2.31
  -4  -2 -15   19.73    2.30
  -5  -2 -15    0.27    1.21
  -6  -2 -15   -0.39    1.35
  -7  -2 -15    1.38    1.81
  -6   3  15    0.68    2.62
  -5   3  15    0.49    1.74
  -4   3  15    0.95    1.63
  -3   3  15    0.69    1.44
  -2   3  15   -0.12    1.21
  -1   3  15    0.18    1.30
   0  -3 -15    0.95    1.63
   0   3  15    0.95    1.28
  -1  -3 -15   -2.59    1.33
   1   3  15    0.42    1.12
  -2  -3 -15    0.55    1.35
   2   3  15    0.23    0.72
   2   3  15    0.23    1.04
  -3  -3 -15   -0.27    1.22
   3   3  15    1.43    0.87
  -4  -3 -15   -0.42    1.11
  -5  -3 -15    1.55    1.45
   5   3  15    4.14    1.04
  -6   4  15    0.07    2.88
  -5   4  15    8.51    2.73
  -4   4  15    2.10    1.83
  -3   4  15   33.09    3.76
  -2   4  15   14.89    2.59
   1  -4 -15   73.59    3.95
  -1   4  15   77.82    4.67
   0  -4 -15  181.25    6.14
   0   4  15  175.49    6.96
  -1  -4 -15  287.68    8.25
   1   4  15  293.45    8.91
  -2  -4 -15   90.92    4.19
   2   4  15   91.43    3.59
  -3  -4 -15    6.78    1.77
   3   4  15    8.62    1.52
  -4  -4 -15   10.45    1.89
   4   4  15   13.62    1.92
  -5  -4 -15    6.69    1.60
   5   4  15    8.71    1.78
   6   4  15    5.26    1.22
   7   4  15    9.19    1.57
  -5   5  15    1.37    1.83
  -4   5  15    0.22    1.52
  -3   5  15    1.90    1.64
   2  -5 -15    0.88    1.75
  -2   5  15   -0.95    1.02
   1  -5 -15    0.24    1.61
  -1   5  15    0.07    1.00
   0  -5 -15   -1.31    1.51
   0   5  15    0.62    1.08
  -1  -5 -15   -0.69    1.46
   1   5  15   -0.29    1.44
  -2  -5 -15   -1.70    1.29
   2   5  15   -0.64    0.82
  -3  -5 -15    0.00    1.29
   3   5  15    0.22    0.84
  -4  -5 -15    0.45    1.20
   4   5  15   -0.66    0.97
  -5  -5 -15   -0.31    1.06
   5   5  15    0.63    1.08
  -6  -5 -15    1.03    1.14
   6   5  15    2.47    1.21
   7   5  15    3.56    1.16
  -5   6  15    1.32    1.98
  -4   6  15   22.07    3.77
   3  -6 -15   30.88    3.27
  -3   6  15   31.09    3.70
   2  -6 -15   57.58    3.69
  -2   6  15   58.96    4.48
   1  -6 -15   28.03    3.00
  -1   6  15   27.70    3.11
   0  -6 -15   53.31    3.43
   0   6  15   53.40    3.58
  -1  -6 -15   22.91    2.59
   1   6  15   18.19    1.84
  -2  -6 -15  129.37    5.18
   2   6  15  121.42    4.43
  -3  -6 -15  122.29    5.07
   3   6  15  120.99    4.66
  -4  -6 -15   23.17    2.69
   4   6  15   23.48    2.40
  -5  -6 -15    8.23    1.85
   5   6  15   10.61    1.92
  -6  -6 -15    8.94    1.89
   6   6  15    6.33    1.70
   7   6  15    6.18    1.79
  -5   7  15   -0.85    1.68
   4  -7 -15   -2.69    1.77
  -4   7  15    0.36    1.66
   3  -7 -15   -1.10    1.99
  -3   7  15   -0.75    1.58
   2  -7 -15   -0.42    1.72
  -2   7  15    0.58    1.33
   1  -7 -15   -1.03    1.58
  -1   7  15    0.02    1.09
   0  -7 -15    0.79    1.57
  -1  -7 -15    1.24    1.58
   1   7  15   -0.43    0.87
  -2  -7 -15    0.37    1.48
   2   7  15   -1.14    0.96
  -3  -7 -15    0.37    1.37
   3   7  15    1.22    1.09
  -4  -7 -15    2.25    1.36
   4   7  15    0.47    1.09
  -5  -7 -15    2.06    1.38
   5   7  15   -0.32    1.05
  -6  -7 -15   -0.53    1.06
   6   7  15    0.50    1.16
  -7  -7 -15    4.36    1.69
  -5   8  15    0.41    1.87
   4  -8 -15   -2.95    1.68
  -4   8  15    0.41    1.67
   3  -8 -15    0.87    1.79
  -3   8  15    2.84    1.78
   2  -8 -15   18.92    2.69
  -2   8  15   14.55    2.74
   1  -8 -15  107.19    4.84
   0  -8 -15   27.78    2.84
  -1  -8 -15   19.17    2.60
   1   8  15   18.73    2.20
  -2  -8 -15   14.69    2.36
   2   8  15   13.30    1.95
  -3  -8 -15    9.91    2.12
   3   8  15    8.00    1.72
  -4  -8 -15   14.04    2.36
   4   8  15   14.22    2.23
  -5  -8 -15   11.33    2.18
   5   8  15    8.39    1.92
  -6  -8 -15   11.54    2.28
   6   8  15   12.73    2.28
  -7  -8 -15    3.21    1.63
  -5   9  15   -0.07    1.89
  -4   9  15   -1.01    1.52
   3  -9 -15   -1.05    1.84
  -3   9  15    0.37    1.64
   2  -9 -15    1.32    1.76
   1  -9 -15   -1.61    1.59
   0  -9 -15   -0.52    1.57
   0   9  15   -1.12    1.19
  -1  -9 -15   -0.81    1.46
   1   9  15   -0.61    1.13
  -2  -9 -15    2.22    1.63
   2   9  15    0.84    1.28
  -3  -9 -15    2.68    1.64
   3   9  15    0.36    1.26
  -4  -9 -15    0.94    1.43
   4   9  15    0.11    1.25
  -5  -9 -15    1.70    1.46
   5   9  15   -0.45    1.25
  -6  -9 -15    1.78    1.43
   6   9  15   -1.78    1.12
  -4  10  15    6.21    2.66
   2 -10 -15    4.67    2.14
   1 -10 -15   19.45    2.71
   0 -10 -15   12.05    2.30
   0  10  15   11.53    2.10
  -1 -10 -15   23.06    2.84
   1  10  15   19.67    2.47
  -2 -10 -15   33.26    3.12
   2  10  15   28.63    3.04
  -3 -10 -15    3.70    1.70
   3  10  15    1.64    1.47
  -4 -10 -15    4.12    1.77
   4  10  15    1.94    1.71
  -5 -10 -15    8.16    2.16
   5  10  15    5.16    1.88
   2 -11 -15    1.62    1.92
   1 -11 -15   -0.17    1.50
   0 -11 -15    0.59    1.50
   0  11  15   -0.84    1.51
  -1 -11 -15    1.83    1.59
   1  11  15   -0.65    1.54
  -2 -11 -15    1.10    1.63
   2  11  15   -0.81    1.52
  -3 -11 -15    0.97    1.48
   3  11  15    0.26    1.49
  -4 -11 -15    0.02    1.44
   4  11  15   -1.31    1.36
   5  11  15   -1.23    2.00
   1 -12 -15    9.81    2.24
   0 -12 -15    1.75    1.50
   0  12  15    0.31    1.42
  -1 -12 -15   11.46    2.30
   1  12  15   12.10    2.34
  -2 -12 -15   10.65    2.30
   2  12  15    9.41    2.42
  -3 -12 -15    7.81    2.10
   3  12  15    4.01    2.14
  -4 -12 -15    2.81    2.69
   4  12  15    2.37    2.11
  -1  13  15    1.02    1.58
   0 -13 -15    5.10    1.85
   0  13  15    0.49    1.85
  -1 -13 -15    1.31    1.50
   1  13  15   -0.68    1.57
  -2 -13 -15    3.97    1.72
   2  13  15   -1.24    1.67
  -1 -14 -15    5.13    1.95
  -2  -5  16    1.53    2.35
  -1  -5  16    2.53    1.87
   0  -5  16    3.43    2.11
   1  -5  16    1.91    2.29
   2  -5  16    4.55    2.37
   3  -5  16   -1.11    3.48
  -3  -4  16    3.69    1.91
  -2  -4  16    9.64    2.68
  -1  -4  16    3.56    2.00
   0  -4  16    2.83    1.97
   1  -4  16    3.92    2.14
   2  -4  16   16.62    3.24
   3  -4  16   14.69    3.31
   4  -4  16    5.46    2.90
  -4  -3  16    0.72    2.51
  -3  -3  16    1.22    1.63
  -2  -3  16    0.79    1.55
  -1  -3  16    0.22    1.45
   0  -3  16    1.19    1.64
   1  -3  16    2.37    1.91
   2  -3  16    2.07    1.95
   3  -3  16    3.57    2.41
   4  -3  16    1.23    2.20
   5  -3  16    0.04    2.24
  -4  -2  16    4.48    2.06
  -3  -2  16    1.92    1.89
  -2  -2  16   19.98    3.23
  -1  -2  16    4.62    1.89
   0  -2  16    7.33    2.20
   1  -2  16    6.55    2.34
   2  -2  16    5.20    2.11
   3  -2  16    3.05    2.07
   4  -2  16    2.93    2.33
  -5   2 -16   11.64    2.42
   5  -2  16   14.46    3.37
  -6   2 -16    4.89    1.96
   6  -2  16    6.26    3.08
  -4  -1  16    1.10    1.64
  -3  -1  16    0.95    1.55
  -2  -1  16    0.78    1.46
  -1  -1  16    0.53    1.44
   0  -1  16    3.08    1.81
   1  -1  16    2.13    1.63
  -2   1 -16   -1.15    1.74
   2  -1  16    1.54    1.67
   3  -1  16   -0.33    1.87
   4  -1  16   -0.06    1.70
  -5   1 -16    0.20    1.27
   5  -1  16    1.12    2.15
  -6   1 -16   -0.27    1.36
  -5   0  16   13.01    3.22
  -4   0  16    7.11    2.48
  -3   0  16   41.98    4.44
  -2   0  16   52.70    4.62
  -1   0  16    8.05    2.17
   0   0  16   82.28    5.14
  -1   0 -16    1.36    1.53
   1   0  16    1.40    1.41
  -2   0 -16   20.21    2.61
   2   0  16   15.00    2.58
   3   0  16    1.97    1.68
  -4   0 -16    0.37    1.24
   4   0  16    1.45    1.74
  -5   0 -16   -0.96    1.12
  -6   0 -16    4.37    1.98
  -5   1  16    1.64    2.03
  -4   1  16    0.46    1.65
  -3   1  16    1.73    1.77
  -2   1  16    0.58    1.48
  -1   1  16    1.74    1.41
   0   1  16    0.04    1.37
  -1  -1 -16   -0.06    1.52
   1   1  16   -0.07    1.35
  -2  -1 -16    1.28    1.49
   2   1  16    0.40    1.24
  -3  -1 -16   -0.38    1.39
   3   1  16    0.59    1.54
  -4  -1 -16   -1.01    1.12
   4   1  16    0.06    1.46
  -5  -1 -16   -0.68    1.31
  -6  -1 -16   -1.00    1.44
  -5   2  16    2.68    2.24
  -4   2  16   54.38    5.15
  -3   2  16   14.57    2.92
  -2   2  16   32.42    3.71
  -1   2  16    9.83    2.26
   0   2  16    1.87    1.48
  -1  -2 -16    1.45    1.63
   1   2  16    3.75    1.53
  -2  -2 -16   58.68    3.45
   2   2  16   60.58    4.02
  -3  -2 -16   38.94    2.93
   3   2  16   41.64    3.51
  -4  -2 -16    1.95    1.25
   4   2  16    5.72    1.02
  -5  -2 -16    3.56    1.59
  -6  -2 -16    1.89    1.78
  -7  -2 -16   12.03    4.23
  -5   3  16    0.94    1.91
  -4   3  16    1.01    1.61
  -3   3  16    0.50    1.64
  -2   3  16    1.09    1.41
  -1   3  16    0.67    1.41
   0  -3 -16   -2.18    1.45
   0   3  16    1.07    1.18
  -1  -3 -16    0.84    1.58
   1   3  16    0.14    1.03
  -2  -3 -16   -0.21    1.36
   2   3  16    1.41    1.11
  -3  -3 -16   -0.58    1.48
   3   3  16    1.16    0.81
  -4  -3 -16   -1.27    1.07
   4   3  16    3.75    1.05
   5   3  16    4.98    1.00
   7   3  16    9.04    2.02
  -5   4  16   25.75    4.23
  -4   4  16   13.91    3.11
  -3   4  16   15.48    3.02
  -2   4  16   58.45    4.57
   1  -4 -16   65.56    3.90
  -1   4  16   66.47    4.64
   0  -4 -16   49.43    3.41
   0   4  16   46.03    3.74
  -1  -4 -16   18.38    2.56
   1   4  16   18.76    2.44
  -2  -4 -16    0.67    1.51
  -3  -4 -16   11.01    2.12
   3   4  16   12.03    1.72
  -4  -4 -16    9.24    1.88
   4   4  16    7.86    1.52
  -5  -4 -16    5.49    1.59
   5   4  16    9.12    1.62
   6   4  16    5.55    1.22
  -5   5  16   -0.10    1.82
  -4   5  16    1.14    1.74
  -3   5  16    0.66    1.47
   2  -5 -16    1.12    1.85
  -2   5  16    0.79    1.25
   1  -5 -16   -3.04    1.67
  -1   5  16    0.11    1.10
   0  -5 -16   -1.47    1.53
   0   5  16    0.16    1.02
  -1  -5 -16   -1.06    1.44
  -2  -5 -16    1.12    1.53
   2   5  16    0.01    0.99
  -3  -5 -16   -0.02    1.39
   3   5  16   -0.45    0.90
  -4  -5 -16    2.27    1.38
   4   5  16   -0.25    1.03
  -5  -5 -16   -0.65    1.20
   5   5  16    1.18    0.99
  -6  -5 -16    1.23    1.32
   6   5  16    3.66    1.13
  -5   6  16    1.45    2.16
  -4   6  16   23.96    3.79
   3  -6 -16   29.64    3.47
  -3   6  16   23.51    3.62
   2  -6 -16   47.55    3.60
  -2   6  16   54.35    4.62
   1  -6 -16   17.79    2.64
  -1   6  16   14.54    2.43
   0  -6 -16   69.58    3.97
  -1  -6 -16   13.02    2.32
  -2  -6 -16    7.11    1.96
   2   6  16    6.16    1.42
  -3  -6 -16    9.49    2.06
   3   6  16    6.52    1.44
  -4  -6 -16   26.36    2.91
   4   6  16   26.72    2.38
  -5  -6 -16    4.67    1.59
   5   6  16    2.45    1.33
  -6  -6 -16    4.87    1.60
   6   6  16    5.02    1.63
   5  -7 -16   -4.78    1.95
  -5   7  16    1.22    1.96
   4  -7 -16   -2.07    1.95
  -4   7  16    1.48    1.71
   3  -7 -16   -1.23    1.80
  -3   7  16   -0.30    1.56
   2  -7 -16   -1.28    1.80
  -2   7  16   -0.20    1.34
   1  -7 -16   -0.49    1.72
   0  -7 -16    0.13    1.64
  -1  -7 -16   -0.89    1.53
  -2  -7 -16   -0.22    1.47
   2   7  16   -0.21    1.07
  -3  -7 -16    0.73    1.44
   3   7  16   -0.70    0.92
  -4  -7 -16    0.62    1.41
   4   7  16    0.21    1.16
  -5  -7 -16    1.28    1.29
   5   7  16    0.48    1.14
  -6  -7 -16    1.29    1.28
   6   7  16    0.88    1.39
  -7  -7 -16    2.48    1.43
  -5   8  16    0.55    1.91
   4  -8 -16   -1.26    1.87
  -4   8  16    2.89    2.08
   3  -8 -16   10.48    2.54
  -3   8  16   11.10    2.67
   2  -8 -16    9.93    2.31
   1  -8 -16    1.82    1.85
   0  -8 -16   19.99    2.79
  -1  -8 -16   25.86    3.02
   1   8  16   25.69    2.35
  -2  -8 -16   12.24    2.17
   2   8  16    8.01    1.76
  -3  -8 -16    1.71    1.49
   3   8  16    1.11    1.18
  -4  -8 -16    7.93    1.95
   4   8  16    3.88    1.49
  -5  -8 -16    6.22    1.76
   5   8  16    7.03    1.80
  -6  -8 -16   26.00    3.25
   6   8  16   18.26    2.63
  -4   9  16   -0.60    1.69
   3  -9 -16    0.07    1.99
   2  -9 -16   -2.65    1.58
   1  -9 -16   -0.90    1.93
   0  -9 -16   -0.35    1.65
  -1  -9 -16    1.56    1.69
   1   9  16   -1.00    1.10
  -2  -9 -16    0.61    1.57
   2   9  16    0.00    1.19
  -3  -9 -16    0.99    1.52
   3   9  16   -0.48    1.18
  -4  -9 -16    0.51    1.41
   4   9  16   -1.48    1.15
  -5  -9 -16    0.65    1.38
   5   9  16   -0.84    1.20
  -6  -9 -16    1.30    1.69
   3 -10 -16   14.81    2.94
   2 -10 -16    1.92    1.92
   1 -10 -16    5.88    2.10
   0 -10 -16   18.97    2.84
  -1 -10 -16    4.88    1.90
   1  10  16    1.26    1.42
  -2 -10 -16    5.70    1.98
   2  10  16    3.38    1.71
  -3 -10 -16    7.08    2.01
   3  10  16    3.11    1.65
  -4 -10 -16    3.07    1.72
   4  10  16    2.40    1.74
  -5 -10 -16   14.58    2.61
   5  10  16   14.04    2.51
   2 -11 -16   -0.53    1.67
   1 -11 -16    2.82    1.81
   0 -11 -16    1.54    1.70
  -1 -11 -16    1.02    1.53
   1  11  16   -0.07    1.64
  -2 -11 -16    1.38    1.59
   2  11  16   -0.94    1.57
  -3 -11 -16    1.63    1.58
   3  11  16    0.38    1.55
  -4 -11 -16    2.16    1.67
   4  11  16   -2.04    1.35
   1 -12 -16    3.85    1.98
   0 -12 -16    6.19    1.98
   0  12  16    2.93    1.73
  -1 -12 -16    4.00    1.80
   1  12  16   -1.32    1.64
  -2 -12 -16    3.20    1.83
   2  12  16    1.25    1.87
  -3 -12 -16   10.73    2.33
   3  12  16    4.36    1.95
   0 -13 -16    5.46    1.83
   0  13  16   -0.34    1.75
  -1 -13 -16    3.88    1.80
   1  13  16   -2.45    1.77
   2  13  16   -1.42    1.65
  -1  -4  17    8.42    2.49
   0  -4  17    9.54    2.71
   1  -4  17    5.27    2.31
   2  -4  17    8.82    2.87
   3  -4  17    6.01    3.03
  -3  -3  17    1.67    2.44
  -2  -3  17    3.05    1.85
  -1  -3  17    1.55    1.74
   0  -3  17    2.85    1.87
   1  -3  17    2.02    1.96
   2  -3  17    0.77    1.98
   3  -3  17    0.54    1.97
   4  -3  17    2.61    2.45
  -3  -2  17    9.16    2.66
  -2  -2  17    2.60    1.77
  -1  -2  17    3.97    1.89
   0  -2  17    5.70    2.12
   1  -2  17    9.31    2.46
   2  -2  17    2.37    1.87
   3  -2  17   17.66    3.20
   4  -2  17   12.29    3.12
   5  -2  17    4.07    2.70
  -4  -1  17    0.43    1.76
  -3  -1  17    1.22    1.78
  -2  -1  17    1.24    1.56
  -1  -1  17    1.78    1.64
   0  -1  17    1.05    1.57
   1  -1  17   -0.28    1.44
   2  -1  17    1.57    1.72
   3  -1  17    1.66    1.77
   4  -1  17    0.45    1.77
   5  -1  17    1.88    2.29
  -4   0  17   10.87    2.93
  -3   0  17    7.40    2.34
  -2   0  17   45.58    4.49
  -1   0  17    2.34    1.60
   0   0  17    4.92    1.91
  -1   0 -17    6.05    2.12
   1   0  17    5.87    1.90
  -2   0 -17   11.22    2.32
   2   0  17   13.35    2.57
   3   0  17    1.89    1.87
   4   0  17   13.07    2.67
  -5   0 -17    3.73    1.77
  -6   0 -17   19.89    2.94
  -4   1  17   -0.04    1.61
  -3   1  17    1.71    1.70
  -2   1  17    0.70    1.46
  -1   1  17    1.43    1.46
   0   1  17    1.17    1.46
  -1  -1 -17    0.52    1.64
   1   1  17    0.78    1.32
  -2  -1 -17   -1.39    1.62
   2   1  17    0.89    1.52
  -3  -1 -17    0.81    1.61
   3   1  17    1.44    1.47
  -5  -1 -17   -1.05    1.19
  -6  -1 -17   -1.06    1.55
  -4   2  17    6.36    2.37
  -3   2  17   25.84    3.87
  -2   2  17   19.55    3.28
  -1   2  17    0.92    1.37
   0  -2 -17   38.09    3.18
   0   2  17   39.14    3.66
  -1  -2 -17   12.88    2.35
   1   2  17   14.00    2.46
  -2  -2 -17    5.96    1.99
   2   2  17    7.08    1.88
  -3  -2 -17    8.36    2.14
   4   2  17    4.30    0.86
   6   2  17   25.67    1.99
  -5   3  17    2.49    3.02
  -4   3  17    1.81    1.99
  -3   3  17    0.13    1.44
  -2   3  17    0.09    1.38
  -1   3  17    0.92    1.39
   0  -3 -17    0.81    1.74
   0   3  17    0.13    1.16
  -1  -3 -17   -0.17    1.55
   1   3  17    1.14    1.31
  -2  -3 -17   -1.87    1.38
   2   3  17    1.28    1.27
  -3  -3 -17    1.50    1.51
  -4  -3 -17   -0.75    1.20
   4   3  17    2.57    0.87
  -5   4  17    1.49    2.13
  -4   4  17   11.57    3.15
  -3   4  17   44.37    4.49
  -2   4  17    4.92    1.86
   1  -4 -17   70.50    4.22
  -1   4  17   78.98    5.20
   0  -4 -17    5.10    2.03
   0   4  17    3.17    1.53
  -1  -4 -17   12.46    2.42
   1   4  17    9.00    1.92
  -2  -4 -17   24.59    2.87
  -3  -4 -17    7.27    1.94
  -4  -4 -17    4.99    1.81
   4   4  17    3.44    1.21
  -5  -4 -17    9.10    1.97
   5   4  17   10.29    1.66
   6   4  17    8.73    1.49
  -5   5  17    1.23    2.10
  -4   5  17    1.87    1.91
  -3   5  17    0.31    1.53
   2  -5 -17   -1.75    1.82
  -2   5  17   -0.59    1.16
   1  -5 -17   -0.59    1.40
  -1   5  17    0.42    1.40
   0  -5 -17    0.97    1.88
   0   5  17    0.59    1.19
  -1  -5 -17   -0.45    1.65
  -2  -5 -17   -0.48    1.56
  -3  -5 -17   -0.25    1.48
   3   5  17    1.24    1.06
  -4  -5 -17    0.78    1.34
   4   5  17    1.30    1.06
  -5  -5 -17    2.57    1.36
   5   5  17    1.07    1.02
   6   5  17    3.40    1.20
  -5   6  17    3.60    3.55
   4  -6 -17    2.75    2.30
  -4   6  17    7.98    2.60
   3  -6 -17   -0.98    2.01
  -3   6  17    0.57    1.49
   2  -6 -17   18.60    2.88
  -2   6  17   16.93    3.10
   1  -6 -17    8.73    2.35
  -1   6  17    5.26    1.85
   0  -6 -17   38.00    3.35
  -1  -6 -17   23.71    2.97
  -2  -6 -17   23.29    2.92
  -3  -6 -17    0.24    1.42
   3   6  17    0.10    1.04
  -4  -6 -17   16.51    2.41
   4   6  17   12.21    1.95
  -5  -6 -17   11.32    2.23
   5   6  17    6.83    1.69
  -6  -6 -17    7.09    1.76
   6   6  17    6.74    1.70
   5  -7 -17   -3.54    2.38
   4  -7 -17   -1.44    2.07
  -4   7  17   -1.09    1.49
   3  -7 -17   -1.28    1.91
  -3   7  17   -0.18    1.41
   2  -7 -17   -2.53    1.82
  -2   7  17    1.72    1.46
   1  -7 -17   -0.38    1.87
   0  -7 -17    0.50    1.75
  -1  -7 -17    0.13    1.74
  -2  -7 -17    1.58    1.66
  -3  -7 -17   -0.90    1.37
   3   7  17   -0.47    1.09
  -4  -7 -17    2.26    1.47
   4   7  17    0.44    1.18
  -5  -7 -17    2.07    1.42
   5   7  17    0.66    1.23
  -6  -7 -17    1.93    1.30
   6   7  17    2.14    1.27
   4  -8 -17   -3.32    1.93
  -4   8  17    0.19    1.65
   3  -8 -17    9.87    2.61
  -3   8  17   10.91    2.70
   2  -8 -17    7.13    2.36
   1  -8 -17   14.23    2.63
   0  -8 -17    1.26    1.79
  -1  -8 -17    0.95    1.82
  -2  -8 -17    3.18    1.79
   2   8  17    1.65    1.24
  -3  -8 -17   25.06    2.98
   3   8  17   25.24    2.59
  -4  -8 -17   17.38    2.61
   4   8  17   19.11    2.57
  -5  -8 -17    3.05    1.56
   5   8  17    2.72    1.48
  -6  -8 -17    7.49    1.99
  -4   9  17   -0.27    1.77
   3  -9 -17   -1.06    1.85
   2  -9 -17    2.57    2.08
   1  -9 -17   -0.13    1.84
   0  -9 -17    1.63    1.87
  -1  -9 -17    1.65    1.80
  -2  -9 -17   -0.56    1.50
   2   9  17   -2.43    1.20
  -3  -9 -17    3.99    1.76
   3   9  17   -0.87    1.37
  -4  -9 -17    0.27    1.50
   4   9  17   -0.26    1.25
  -5  -9 -17    3.17    1.63
   5   9  17    0.69    1.54
   3 -10 -17    3.34    2.38
   2 -10 -17    4.49    2.18
   1 -10 -17    2.35    2.15
   0 -10 -17    7.33    2.20
  -1 -10 -17    0.42    1.62
  -2 -10 -17    4.57    1.89
   2  10  17    3.53    1.75
  -3 -10 -17   14.94    2.62
   3  10  17   11.53    2.25
  -4 -10 -17    4.69    1.82
   4  10  17    1.16    1.52
   5  10  17    6.34    2.42
   2 -11 -17    0.35    2.07
   1 -11 -17    3.76    2.09
   0 -11 -17    1.58    1.70
  -1 -11 -17    2.68    1.91
   1  11  17   -1.18    1.66
  -2 -11 -17    2.06    1.66
   2  11  17   -1.34    1.53
  -3 -11 -17    2.77    1.70
   3  11  17   -2.15    1.33
   4  11  17   -0.65    1.45
   1 -12 -17    9.08    2.22
   0 -12 -17    1.32    1.62
  -1 -12 -17    2.79    1.73
   1  12  17    0.38    1.77
  -2 -12 -17    5.79    2.04
   2  12  17    2.72    1.99
   3  12  17    2.11    1.81
   0 -13 -17    3.45    2.07
   1  13  17   -1.89    1.72
  -1  -3  18    1.06    1.68
   0  -3  18    2.33    1.78
   1  -3  18    2.11    1.91
   2  -3  18    1.87    2.15
   3  -3  18    3.82    2.44
  -2  -2  18    4.34    1.98
  -1  -2  18    2.26    1.77
   0  -2  18    2.70    1.80
   1  -2  18    4.16    1.97
   2  -2  18   14.83    3.02
   3  -2  18    8.86    2.58
   4  -2  18   14.82    3.14
  -3  -1  18    2.33    1.82
  -2  -1  18    1.65    1.61
  -1  -1  18    1.03    1.67
   0  -1  18    2.87    1.80
  -1   1 -18   -0.72    1.76
   1  -1  18    1.88    1.65
   2  -1  18    1.35    1.68
   3  -1  18    0.66    1.86
   4  -1  18    3.26    2.19
  -3   0  18    5.38    2.32
  -2   0  18    4.62    2.01
  -1   0  18    4.67    1.92
   0   0  18    2.47    1.66
  -1   0 -18    0.13    1.78
   1   0  18    3.82    1.77
  -2   0 -18    2.14    1.92
   2   0  18    4.58    1.87
   3   0  18    1.57    1.58
   4   0  18   19.10    3.11
  -4   1  18   -0.02    1.65
  -3   1  18    0.50    1.61
  -2   1  18    1.41    1.76
  -1   1  18    1.04    1.61
   0   1  18   -0.01    1.32
  -1  -1 -18    1.29    1.84
   1   1  18    0.74    1.44
  -2  -1 -18   -1.41    1.54
   2   1  18    1.26    1.60
  -6  -1 -18   -2.53    1.45
  -4   2  18    7.62    2.56
  -3   2  18    7.65    2.53
  -2   2  18   10.91    2.62
  -1   2  18    9.84    2.41
   0  -2 -18    5.22    2.14
   0   2  18    4.03    1.72
  -1  -2 -18   18.75    2.93
   1   2  18   15.22    2.65
  -2  -2 -18    1.90    1.97
   2   2  18    4.63    1.76
  -3  -2 -18    0.91    1.72
   5   2  18   18.70    1.77
   6   2  18   24.00    1.72
  -4   3  18    1.11    1.73
  -3   3  18    1.29    1.67
  -2   3  18   -0.08    1.34
  -1   3  18    1.91    1.60
   0  -3 -18   -0.45    1.76
   0   3  18    1.86    1.52
  -1  -3 -18    0.45    1.80
   1   3  18    1.22    1.26
  -2  -3 -18   -1.43    1.54
  -3  -3 -18    2.92    1.86
  -4  -3 -18    1.87    1.46
  -4   4  18    2.21    1.92
  -3   4  18    8.73    2.57
  -2   4  18    0.75    1.63
   1  -4 -18    6.33    2.25
  -1   4  18    6.77    2.13
   0  -4 -18    7.00    2.29
   0   4  18    8.46    2.04
  -1  -4 -18    0.14    1.80
  -2  -4 -18    2.72    1.82
  -3  -4 -18   21.23    2.78
  -4  -4 -18   10.60    2.08
   5   4  18   21.81    2.13
   6   4  18   17.55    1.86
  -4   5  18    2.13    1.95
  -3   5  18    0.31    1.56
   2  -5 -18   -1.36    1.96
  -2   5  18    1.63    1.66
   1  -5 -18   -1.26    1.88
  -1   5  18    0.68    1.25
   0  -5 -18   -1.78    1.79
   0   5  18    0.81    1.54
  -1  -5 -18   -0.31    1.73
  -2  -5 -18    1.71    1.80
  -3  -5 -18    1.48    1.66
  -4  -5 -18    1.62    1.37
   4   5  18    1.38    1.14
  -5  -5 -18    1.30    1.44
   5   5  18    3.27    1.28
   4  -6 -18   -1.67    2.28
  -4   6  18    3.90    2.15
   3  -6 -18   10.12    2.80
  -3   6  18    8.85    2.47
   2  -6 -18    3.41    2.31
  -2   6  18    5.86    2.22
   1  -6 -18    6.67    2.34
  -1   6  18    9.03    2.30
   0  -6 -18   22.01    3.08
  -1  -6 -18   11.32    2.43
  -2  -6 -18    3.45    1.88
  -3  -6 -18    4.20    1.83
  -4  -6 -18    1.66    1.43
   4   6  18    0.65    1.22
  -5  -6 -18   10.66    2.15
   5   6  18    9.20    1.90
  -6  -6 -18    8.12    2.04
   6   6  18    3.62    1.56
   4  -7 -18   -1.30    2.22
  -4   7  18   -0.68    1.89
   3  -7 -18   -3.80    1.88
  -3   7  18    1.51    1.80
   2  -7 -18   -2.59    1.86
  -2   7  18    2.08    1.78
   1  -7 -18   -2.88    1.83
   0  -7 -18    3.07    2.09
  -1  -7 -18   -2.06    1.23
  -2  -7 -18   -0.68    1.59
  -3  -7 -18   -0.22    1.44
   3   7  18    0.29    1.93
  -4  -7 -18    1.51    1.49
   4   7  18    1.59    1.33
  -5  -7 -18    0.75    1.33
   5   7  18    0.81    1.21
  -6  -7 -18    1.77    1.27
   4  -8 -18    0.08    2.27
  -4   8  18    0.03    1.70
   3  -8 -18    5.64    2.56
  -3   8  18    5.23    2.64
   2  -8 -18   -1.01    2.03
   1  -8 -18   -0.30    2.17
   0  -8 -18    2.01    2.05
  -1  -8 -18   24.62    3.16
  -2  -8 -18   11.31    2.50
  -3  -8 -18    4.48    1.84
   3   8  18    4.09    1.68
  -4  -8 -18    2.78    1.65
   4   8  18    2.36    1.37
  -5  -8 -18    4.99    1.78
   5   8  18    2.22    1.52
   3  -9 -18   -0.21    1.96
   2  -9 -18    0.61    2.26
   1  -9 -18   -0.20    1.89
   0  -9 -18    0.47    1.91
  -1  -9 -18    1.74    1.94
  -2  -9 -18    2.01    1.72
  -3  -9 -18    2.57    1.64
   3   9  18    0.83    1.40
  -4  -9 -18    2.82    1.73
   4   9  18   -2.33    1.07
   5   9  18   -1.54    1.11
   3 -10 -18    3.09    2.27
   2 -10 -18   12.18    2.86
   1 -10 -18    6.46    2.26
   0 -10 -18   13.69    2.86
  -1 -10 -18   33.97    3.40
  -2 -10 -18    2.60    1.81
  -3 -10 -18   12.14    2.53
   3  10  18    8.00    2.19
   4  10  18    1.29    1.80
   2 -11 -18   -0.17    2.04
   1 -11 -18    2.07    1.96
   0 -11 -18    0.88    1.84
  -1 -11 -18    1.76    1.85
  -2 -11 -18    1.99    1.75
   2  11  18   -0.29    1.50
   3  11  18   -2.86    1.54
   1 -12 -18    3.74    2.05
   0 -12 -18    3.88    2.43
   2  12  18    3.53    2.16
  -1  -2  19    7.96    3.64
   0  -2  19    6.30    2.34
   1  -2  19    7.65    2.46
   2  -2  19   15.43    3.13
   3  -2  19   32.15    4.34
  -2  -1  19    2.42    1.90
  -1  -1  19    2.17    1.75
   0  -1  19    3.90    1.89
  -1   1 -19   -1.80    1.69
   1  -1  19    1.70    1.63
   2  -1  19    1.85    1.69
   3  -1  19    4.41    2.04
   4  -1  19    2.88    2.14
  -2   0  19    2.03    1.76
  -1   0  19    7.45    2.33
   0   0  19   10.31    2.53
  -1   0 -19   -1.08    1.75
   1   0  19    2.87    1.81
   2   0  19   32.20    3.97
   3   0  19    2.42    1.76
  -3   1  19    1.11    1.68
  -2   1  19    2.23    1.83
  -1   1  19    0.29    1.40
   0  -1 -19   -3.94    1.65
   0   1  19    2.83    1.73
  -1  -1 -19   -1.19    1.99
   1   1  19    2.04    1.51
  -2  -1 -19   -1.47    1.66
   2   1  19    1.54    1.45
   3   1  19    3.27    2.74
  -3   2  19    5.65    2.31
  -2   2  19   15.67    3.16
  -1   2  19    4.39    1.86
   0  -2 -19   -2.42    1.79
   0   2  19    2.48    1.56
  -1  -2 -19   13.85    2.80
   1   2  19   14.52    2.68
  -2  -2 -19    0.79    1.79
   2   2  19    6.31    1.95
  -3  -2 -19   12.33    2.54
  -3   3  19    0.22    1.61
  -2   3  19    0.21    1.44
   1  -3 -19   -1.73    1.95
  -1   3  19    2.90    1.70
   0  -3 -19   -0.86    1.87
   0   3  19    1.33    1.40
  -1  -3 -19    1.47    2.05
   1   3  19    1.21    1.38
  -2  -3 -19   -0.67    1.65
  -3  -3 -19    0.19    1.72
  -3   4  19    6.85    2.39
   2  -4 -19    0.37    2.21
  -2   4  19    4.76    2.17
   1  -4 -19   -3.53    1.84
  -1   4  19    2.82    1.73
   0  -4 -19    0.37    1.96
   0   4  19    1.87    1.51
  -1  -4 -19   14.42    2.74
  -2  -4 -19    0.26    1.73
  -3  -4 -19    8.63    2.31
  -4  -4 -19    2.28    1.58
  -4   5  19    2.25    3.20
   3  -5 -19   -1.33    2.11
  -3   5  19    3.18    2.01
   2  -5 -19   -1.64    2.12
  -2   5  19   -0.10    1.54
   1  -5 -19   -2.17    1.92
  -1   5  19    0.89    1.34
   0  -5 -19   -0.80    1.91
  -1  -5 -19    0.17    1.81
  -2  -5 -19   -0.50    1.72
  -3  -5 -19   -0.91    1.51
  -4  -5 -19    2.94    1.58
  -5  -5 -19    3.12    1.66
   5   5  19    2.28    1.16
  -4   6  19    5.65    3.69
   3  -6 -19   -0.86    2.33
  -3   6  19    5.15    2.40
   2  -6 -19   36.35    3.79
  -2   6  19   44.39    4.51
   1  -6 -19    4.29    2.36
   0  -6 -19    1.99    2.10
  -1  -6 -19    8.79    2.47
  -2  -6 -19    7.78    2.24
  -3  -6 -19    3.18    1.83
  -4  -6 -19    4.31    1.68
  -5  -6 -19    7.01    1.87
   5   6  19    8.13    1.75
   3  -7 -19   -1.78    2.15
  -3   7  19    0.17    1.74
   2  -7 -19   -0.80    2.11
   1  -7 -19   -0.91    2.03
   0  -7 -19   -0.43    1.94
  -1  -7 -19   -0.87    1.84
  -2  -7 -19   -0.22    1.76
  -3  -7 -19   -1.08    1.47
  -4  -7 -19    3.66    1.69
   4   7  19   -0.38    1.34
  -5  -7 -19    1.81    1.63
   5   7  19    0.01    1.12
   3  -8 -19    2.84    2.40
   2  -8 -19    2.18    2.28
   1  -8 -19    0.09    2.04
   0  -8 -19    9.39    2.65
  -1  -8 -19    8.24    2.39
  -2  -8 -19    9.73    2.45
  -3  -8 -19    9.99    2.32
  -4  -8 -19   19.95    2.91
   4   8  19   18.94    2.63
   5   8  19    5.50    1.83
   3  -9 -19    4.26    2.82
   2  -9 -19   -1.38    2.00
   1  -9 -19    0.99    2.05
   0  -9 -19   -0.71    1.83
  -1  -9 -19    0.00    1.89
  -2  -9 -19    1.87    1.78
  -3  -9 -19    1.30    1.62
   4   9  19   -0.40    1.46
   2 -10 -19    9.95    2.84
   1 -10 -19   15.79    2.96
   0 -10 -19   11.05    2.58
  -1 -10 -19    8.88    2.45
  -2 -10 -19    5.15    2.06
   3  10  19    2.49    2.41
   4  10  19   -0.40    1.59
   3  11  19   -0.45    1.60
   0  -1  20    4.89    2.20
   1  -1  20    0.76    1.61
   2  -1  20    2.46    1.78
   3  -1  20    1.95    1.87
  -1   0  20    4.04    1.93
   0   0  20   16.10    3.06
  -1   0 -20    2.67    2.24
   1   0  20   10.34    2.52
   2   0  20   36.64    4.32
   3   0  20    3.55    2.05
  -2   1  20    2.95    1.94
  -1   1  20    1.67    1.58
   0  -1 -20   -2.39    1.93
   0   1  20    1.53    1.56
  -1  -1 -20   -2.29    1.76
   1   1  20    4.12    1.95
  -2  -1 -20   -1.08    1.76
   2   1  20    3.61    1.91
  -2   2  20    4.55    2.13
  -1   2  20    2.55    1.71
   0  -2 -20    0.37    2.08
   0   2  20    3.85    1.79
  -1  -2 -20    3.32    2.17
   1   2  20    7.00    2.20
  -2  -2 -20    1.18    2.01
  -3   3  20   -0.40    2.86
  -2   3  20    2.32    1.74
   1  -3 -20    0.06    2.20
  -1   3  20    2.63    1.73
   0  -3 -20   -1.66    2.02
   0   3  20    2.40    1.53
  -1  -3 -20    1.66    2.12
   1   3  20    1.94    2.38
  -2  -3 -20   -1.45    1.71
  -3  -3 -20   -0.76    1.83
  -3   4  20    2.56    1.86
   2  -4 -20   -1.35    2.22
  -2   4  20    5.49    2.21
   1  -4 -20   10.47    2.86
  -1   4  20   12.98    2.76
   0  -4 -20    3.67    2.35
   0   4  20    7.93    2.28
  -1  -4 -20    0.77    2.06
  -2  -4 -20    3.94    2.15
  -3  -4 -20   14.71    2.78
  -4  -4 -20    2.06    1.57
  -3   5  20    0.81    1.93
   2  -5 -20   -3.40    2.08
  -2   5  20    0.33    1.63
   1  -5 -20    0.33    2.22
  -1   5  20    2.90    1.76
   0  -5 -20   -0.89    1.94
  -1  -5 -20    2.03    2.12
  -2  -5 -20    2.07    1.95
  -3  -5 -20    2.89    2.08
  -4  -5 -20    1.27    1.57
  -3   6  20    1.90    1.81
   2  -6 -20    2.99    2.46
  -2   6  20    5.85    2.36
   1  -6 -20   -2.97    1.99
   0  -6 -20    7.72    2.64
  -1  -6 -20    3.64    2.30
  -2  -6 -20   25.76    3.40
  -3  -6 -20    5.36    2.10
  -4  -6 -20   33.90    3.28
  -5  -6 -20   14.75    2.57
  -3   7  20    0.16    1.60
   2  -7 -20    1.35    2.38
   1  -7 -20   -1.70    2.05
   0  -7 -20   -1.76    1.94
  -1  -7 -20   -0.51    1.97
  -2  -7 -20   -1.49    1.75
  -3  -7 -20   -0.15    1.68
  -4  -7 -20    0.94    1.57
   1  -8 -20    2.41    2.56
   0  -8 -20    0.80    2.05
  -1  -8 -20    1.74    2.07
  -2  -8 -20    2.53    2.06
  -3  -8 -20    7.53    2.25
   1  -9 -20   -1.72    2.31
   0  -9 -20    2.60    2.14
  -1  -9 -20    3.31    2.18
  -2  -9 -20    1.89    3.03
   0   0 -21   22.39    3.55
  -1   0 -21    6.22    2.55
   1   0  21    9.31    2.76
  -1   1  21    1.48    2.69
   0  -1 -21   -2.52    2.35
   0   1  21    4.17    1.83
  -1  -1 -21   -2.24    2.17
   1   1  21    3.49    1.95
   2   1  21    2.84    1.79
  -1   2  21    9.48    2.69
   0  -2 -21   -0.99    2.15
   0   2  21    4.27    1.81
  -1  -2 -21    8.24    2.65
   1   2  21   12.42    2.64
  -2  -2 -21   23.14    3.30
  -2   3  21    2.48    1.95
  -1   3  21    2.19    1.62
   0  -3 -21   -3.43    2.02
   0   3  21    2.16    1.60
  -1  -3 -21   -2.05    2.01
  -2  -3 -21    1.27    2.21
  -3  -3 -21    0.59    1.77
  -2   4  21    6.79    2.35
   1  -4 -21    0.48    2.84
  -1   4  21    3.42    1.79
   0  -4 -21    0.08    2.18
  -1  -4 -21    6.80    2.57
  -2  -4 -21    0.24    2.22
  -3  -4 -21   20.48    3.22
  -2   5  21    1.48    1.89
   1  -5 -21   -3.38    2.48
   0  -5 -21   -1.94    2.14
  -1  -5 -21   -2.37    1.88
  -2  -5 -21    0.59    1.92
  -3  -5 -21    2.66    2.10
  -4  -5 -21    2.29    1.73
   0  -6 -21    5.39    2.52
  -1  -6 -21    7.38    2.57
  -2  -6 -21   31.36    3.73
  -3  -6 -21   11.38    2.78
   0  -7 -21   -1.17    2.48
  -1  -7 -21    1.24    2.28
  -2  -7 -21   -1.97    1.98
   0   3  22    2.93    1.79
   0   0   0    0.00    0.00
_computing_structure_solution     'SHELXT 2014/5 (Sheldrick, 2014)'
;
_shelx_hkl_checksum              73060
_shelx_res_file
;
TITL wzd7 P 1 R = 0.07
    wzd7.res
    created by SHELXL-2018/3 at 10:41:58 on 14-Aug-2018
CELL 0.71073 5.859 7.479 16.329 93.818 91.29 94.252
ZERR 2 0.005 0.006 0.014 0.012 0.03 0.01
LATT -1
SFAC  C 2.310 20.844 1.02 10.208 1.589 0.569 0.865 51.651 0.216 0.003 0.002 =
 11.5 0.68 12.01
SFAC H
SFAC  N 12.213 0.006 3.132 9.893 2.013 28.998 1.166 0.583 -11.529 0.006 =
 0.003 19.6 0.68 14.01
SFAC  O 3.049 13.277 2.287 5.701 1.546 0.324 0.867 32.909 0.251 0.011 0.006 =
 32.5 0.68 16
UNIT 30 28 8 6
L.S. 5
PLAN  -20
SIZE 0.12 0.14 0.2
TEMP 23
CONF
bond $h
fmap 2
acta
TWIN -1 0 0 0 -1 0 0 0 -1 2
OMIT 0 0 1
OMIT 0 -9 0
OMIT 1 -6 17
REM <olex2.extras>
REM <HklSrc "%.\\WZD7.hkl">
REM </olex2.extras>
WGHT    0.038200    0.017700
BASF  -1.81868
FVAR       0.67209
O1    4    0.303911    0.631162    0.845909    11.00000    0.04102    0.06819 =
         0.02892    0.01716   -0.00416    0.00277
O2    4   -0.069645    0.580659    0.869961    11.00000    0.04618    0.10661 =
         0.03289    0.03114    0.00996    0.01075
O3    4   -0.255641    0.909344    0.480524    11.00000    0.04210    0.04964 =
         0.02613    0.00714   -0.00209    0.01616
N1    3    0.071482    0.788588    0.438893    11.00000    0.04166    0.05029 =
         0.02043    0.01249    0.00685    0.01616
AFIX  43
H1    2    0.184869    0.728662    0.452142    11.00000   -1.20000
AFIX   0
N2    3    0.048028    0.843916    0.359848    11.00000    0.04218    0.04318 =
         0.02033    0.00978    0.00274    0.00563
N3    3    0.375340    0.884912    0.184753    11.00000    0.03546    0.06490 =
         0.02850    0.01307    0.00415    0.00083
N4    3   -0.049511    0.950979    0.115362    11.00000    0.04329    0.07147 =
         0.02934    0.01232    0.00318    0.00987
C1    1    0.080921    0.628789    0.825546    11.00000    0.04315    0.04501 =
         0.02905    0.00732    0.00321    0.01024
C2    1    0.044310    0.685548    0.740932    11.00000    0.03465    0.03436 =
         0.01924    0.00465    0.00408    0.00880
C3    1   -0.172644    0.652310    0.704077    11.00000    0.03232    0.04506 =
         0.02877    0.01203    0.00903    0.00877
AFIX  43
H3    2   -0.291685    0.600059    0.733219    11.00000   -1.20000
AFIX   0
C4    1   -0.212044    0.696581    0.624369    11.00000    0.02817    0.03987 =
         0.02792    0.00551    0.00273    0.00388
AFIX  43
H4    2   -0.357790    0.674991    0.600369    11.00000   -1.20000
AFIX   0
C5    1   -0.034733    0.773291    0.579856    11.00000    0.03463    0.02709 =
         0.02403    0.00517    0.00204    0.01049
C6    1   -0.087129    0.830427    0.494986    11.00000    0.03657    0.03099 =
         0.02018    0.00739    0.00161    0.00418
C7    1    0.207379    0.800698    0.310502    11.00000    0.03325    0.03489 =
         0.02410    0.00421   -0.00057   -0.00142
C8    1    0.180881    0.862682    0.226174    11.00000    0.03719    0.03210 =
         0.02239    0.00724    0.00419   -0.00067
C9    1    0.352726    0.942294    0.109710    11.00000    0.03881    0.08594 =
         0.02843    0.02025    0.00651   -0.00093
AFIX  43
H9    2    0.483598    0.960426    0.079224    11.00000   -1.20000
AFIX   0
C10   1    0.146865    0.975840    0.075291    11.00000    0.05334    0.07336 =
         0.02550    0.01935    0.00473    0.00894
AFIX  43
H10   2    0.142571    1.016919    0.022801    11.00000   -1.20000
AFIX   0
C11   1   -0.028157    0.895248    0.190585    11.00000    0.03628    0.05709 =
         0.02732    0.01348    0.00786    0.00911
AFIX  43
H11   2   -0.159514    0.877206    0.220823    11.00000   -1.20000
AFIX   0
C12   1    0.410780    0.701975    0.330258    11.00000    0.03643    0.04863 =
         0.03091    0.01135    0.00140    0.00297
AFIX 137
H12A  2    0.507850    0.773304    0.370007    11.00000   -1.50000
H12B  2    0.494175    0.678822    0.281220    11.00000   -1.50000
H12C  2    0.361537    0.590111    0.352291    11.00000   -1.50000
AFIX   0
C13   1    0.182364    0.808107    0.616461    11.00000    0.03523    0.03892 =
         0.02479    0.00775    0.00608    0.00384
AFIX  43
H13   2    0.301552    0.859409    0.587081    11.00000   -1.20000
AFIX   0
C14   1    0.220302    0.766200    0.696624    11.00000    0.03144    0.03718 =
         0.02849    0.00343   -0.00034    0.00427
AFIX  43
H14   2    0.364645    0.792025    0.721296    11.00000   -1.20000
AFIX   0
C15   1    0.357055    0.563800    0.926002    11.00000    0.05997    0.08592 =
         0.02982    0.02476   -0.00996    0.00286
AFIX 137
H15A  2    0.295206    0.441498    0.927091    11.00000   -1.50000
H15B  2    0.290641    0.636338    0.968545    11.00000   -1.50000
H15C  2    0.520079    0.569500    0.934761    11.00000   -1.50000
AFIX   0
O4    4    1.098528    0.108329    0.878285    11.00000    0.04450    0.10248 =
         0.03114    0.02690   -0.00295    0.00385
O5    4    0.728570    0.084022    0.839076    11.00000    0.04302    0.08176 =
         0.02612    0.01854    0.00665   -0.00210
O6    4    1.301982    0.459681    0.492930    11.00000    0.03618    0.04779 =
         0.02701    0.01005   -0.00050   -0.00747
N5    3    0.989641    0.285459    0.441598    11.00000    0.03282    0.04209 =
         0.02053    0.00855    0.00130   -0.00540
AFIX  43
H5    2    0.880665    0.207106    0.451585    11.00000   -1.20000
AFIX   0
N6    3    1.011577    0.342867    0.362538    11.00000    0.03787    0.04077 =
         0.01932    0.01018   -0.00044   -0.00294
N7    3    0.659110    0.378514    0.189177    11.00000    0.03328    0.06806 =
         0.03298    0.01477    0.00056    0.00827
N8    3    1.081702    0.442010    0.115646    11.00000    0.04140    0.07073 =
         0.02802    0.00902    0.00227   -0.00254
C16   1    0.951423    0.120957    0.827263    11.00000    0.03882    0.04097 =
         0.02352    0.00926    0.00651    0.00605
C17   1    0.668792    0.027235    0.919407    11.00000    0.05636    0.09900 =
         0.03510    0.02783    0.01113    0.00091
AFIX 137
H17A  2    0.505206    0.015827    0.923408    11.00000   -1.50000
H17B  2    0.732812    0.114865    0.960868    11.00000   -1.50000
H17C  2    0.728723   -0.086637    0.927206    11.00000   -1.50000
AFIX   0
C18   1    0.993371    0.177549    0.742171    11.00000    0.03414    0.03417 =
         0.02181    0.00556    0.00393    0.00710
C19   1    1.213004    0.244294    0.723664    11.00000    0.02978    0.04522 =
         0.02254    0.00886   -0.00373    0.00683
AFIX  43
H19   2    1.330460    0.250763    0.763264    11.00000   -1.20000
AFIX   0
C20   1    1.255932    0.300985    0.646128    11.00000    0.02700    0.03510 =
         0.02608    0.00661    0.00248    0.00038
AFIX  43
H20   2    1.401801    0.348178    0.634193    11.00000   -1.20000
AFIX   0
C21   1    1.082252    0.287894    0.585801    11.00000    0.03046    0.02817 =
         0.02110    0.00571    0.00239    0.00564
C22   1    1.137693    0.351519    0.502769    11.00000    0.02913    0.02978 =
         0.02691    0.00252   -0.00180    0.00554
C23   1    0.834881    0.301791    0.314858    11.00000    0.03057    0.02953 =
         0.02650    0.00446    0.00071    0.00307
C24   1    0.855723    0.358369    0.229607    11.00000    0.03183    0.03271 =
         0.02458    0.00298   -0.00082    0.00121
C25   1    0.677336    0.432559    0.113078    11.00000    0.04110    0.08699 =
         0.03030    0.02139   -0.00745    0.00702
AFIX  43
H25   2    0.544231    0.449099    0.083317    11.00000   -1.20000
AFIX   0
C26   1    0.883780    0.464578    0.077121    11.00000    0.04749    0.07361 =
         0.02681    0.01549   -0.00221   -0.00118
AFIX  43
H26   2    0.886154    0.503283    0.024169    11.00000   -1.20000
AFIX   0
C27   1    1.063799    0.389819    0.191959    11.00000    0.03297    0.05129 =
         0.02657    0.00731   -0.00411    0.00213
AFIX  43
H27   2    1.197488    0.373669    0.221456    11.00000   -1.20000
AFIX   0
C28   1    0.615829    0.206075    0.338704    11.00000    0.04035    0.05826 =
         0.03702    0.02286   -0.00170   -0.00360
AFIX 137
H28A  2    0.645604    0.089600    0.355952    11.00000   -1.50000
H28B  2    0.510368    0.192739    0.292468    11.00000   -1.50000
H28C  2    0.550842    0.274419    0.383007    11.00000   -1.50000
AFIX   0
C29   1    0.862584    0.222711    0.605760    11.00000    0.02848    0.03971 =
         0.02259    0.00368   -0.00375    0.00533
AFIX  43
H29   2    0.744564    0.215790    0.566363    11.00000   -1.20000
AFIX   0
C30   1    0.818787    0.168541    0.683184    11.00000    0.02938    0.04204 =
         0.02421    0.00834    0.00366    0.00253
AFIX  43
H30   2    0.671581    0.125808    0.695868    11.00000   -1.20000
AFIX   0
HKLF 4 1 0 0.5 0 -1 0 0 0 -0.5 1
REM  wzd7 P 1 R = 0.07
REM wR2 = 0.1060, GooF = S = 1.118, Restrained GooF = 1.118 for all data
REM R1 = 0.0501 for 3720 Fo > 4sig(Fo) and 0.0705 for all 4773 data
REM 402 parameters refined using 3 restraints
END
WGHT      0.0382      0.0177
REM Highest difference peak  0.187,  deepest hole -0.288,  1-sigma level  0.049
Q1    1   0.2078  0.7997  0.2585  11.00000  0.05    0.19
Q2    1  -0.2436  0.9281  0.5401  11.00000  0.05    0.18
Q3    1  -0.6887  1.1209  0.4358  11.00000  0.05    0.17
Q4    1  -0.2566  0.9199  0.5997  11.00000  0.05    0.16
Q5    1  -0.5716  0.9447  0.4808  11.00000  0.05    0.16
Q6    1  -0.2360  1.1595  0.5016  11.00000  0.05    0.16
Q7    1  -0.5481  1.0435  0.4430  11.00000  0.05    0.16
Q8    1  -0.5087  1.2669  0.3228  11.00000  0.05    0.16
Q9    1  -0.5602  1.0790  0.5148  11.00000  0.05    0.15
Q10   1  -0.4135  0.9126  0.5807  11.00000  0.05    0.15
Q11   1  -0.3901  0.9771  0.4619  11.00000  0.05    0.15
Q12   1   0.4841  0.3059  0.8619  11.00000  0.05    0.15
Q13   1  -0.3918  1.1501  0.3971  11.00000  0.05    0.15
Q14   1   0.4775  0.2746  0.9245  11.00000  0.05    0.15
Q15   1  -0.5960  1.1816  0.4864  11.00000  0.05    0.15
Q16   1  -0.2364  1.0317  0.4633  11.00000  0.05    0.15
Q17   1   0.6685  0.3839  0.8217  11.00000  0.05    0.15
Q18   1  -0.6676  1.0551  0.4856  11.00000  0.05    0.15
Q19   1   0.3969  0.7011  0.3959  11.00000  0.05    0.15
Q20   1  -0.7229  1.0573  0.5643  11.00000  0.05    0.15
;
_shelx_res_checksum              94682
loop_
_space_group_symop_operation_xyz
'x, y, z'
loop_
_atom_site_type_symbol
_atom_site_label
_atom_site_fract_x
_atom_site_fract_y
_atom_site_fract_z
_atom_site_U_iso_or_equiv
_atom_site_adp_type
_atom_site_calc_flag
_atom_site_occupancy
O O1 0.3039(5) 0.6312(5) 0.84591(19) 0.0456(9) Uani d 1
O O2 -0.0696(6) 0.5807(5) 0.8700(2) 0.0603(11) Uani d 1
O O3 -0.2556(5) 0.9093(4) 0.48052(17) 0.0385(8) Uani d 1
N N1 0.0715(6) 0.7886(5) 0.4389(2) 0.0363(9) Uani d 1
H H1 0.184869 0.728662 0.452142 0.044 Uiso calc 1
N N2 0.0480(6) 0.8439(5) 0.3598(2) 0.0347(9) Uani d 1
N N3 0.3753(6) 0.8849(5) 0.1848(2) 0.0426(10) Uani d 1
N N4 -0.0495(6) 0.9510(6) 0.1154(2) 0.0473(11) Uani d 1
C C1 0.0809(8) 0.6288(6) 0.8255(3) 0.0385(12) Uani d 1
C C2 0.0443(7) 0.6855(6) 0.7409(3) 0.0289(10) Uani d 1
C C3 -0.1726(7) 0.6523(6) 0.7041(3) 0.0345(11) Uani d 1
H H3 -0.291685 0.600059 0.733219 0.041 Uiso calc 1
C C4 -0.2120(7) 0.6966(6) 0.6244(3) 0.0317(10) Uani d 1
H H4 -0.357790 0.674991 0.600369 0.038 Uiso calc 1
C C5 -0.0347(7) 0.7733(5) 0.5799(3) 0.0280(10) Uani d 1
C C6 -0.0871(7) 0.8304(6) 0.4950(3) 0.0289(10) Uani d 1
C C7 0.2074(7) 0.8007(6) 0.3105(3) 0.0309(10) Uani d 1
C C8 0.1809(7) 0.8627(5) 0.2262(2) 0.0304(10) Uani d 1
C C9 0.3527(8) 0.9423(7) 0.1097(3) 0.0505(14) Uani d 1
H H9 0.483598 0.960426 0.079224 0.061 Uiso calc 1
C C10 0.1469(8) 0.9758(7) 0.0753(3) 0.0498(14) Uani d 1
H H10 0.142571 1.016919 0.022801 0.060 Uiso calc 1
C C11 -0.0282(7) 0.8952(6) 0.1906(3) 0.0394(12) Uani d 1
H H11 -0.159514 0.877206 0.220823 0.047 Uiso calc 1
C C12 0.4108(7) 0.7020(6) 0.3303(3) 0.0383(11) Uani d 1
H H12A 0.507850 0.773304 0.370007 0.057 Uiso calc 1
H H12B 0.494175 0.678822 0.281220 0.057 Uiso calc 1
H H12C 0.361537 0.590111 0.352291 0.057 Uiso calc 1
C C13 0.1824(7) 0.8081(6) 0.6165(3) 0.0326(10) Uani d 1
H H13 0.301552 0.859409 0.587081 0.039 Uiso calc 1
C C14 0.2203(7) 0.7662(6) 0.6966(3) 0.0322(10) Uani d 1
H H14 0.364645 0.792025 0.721296 0.039 Uiso calc 1
C C15 0.3571(8) 0.5638(7) 0.9260(3) 0.0579(15) Uani d 1
H H15A 0.295206 0.441498 0.927091 0.087 Uiso calc 1
H H15B 0.290641 0.636338 0.968545 0.087 Uiso calc 1
H H15C 0.520079 0.569500 0.934761 0.087 Uiso calc 1
O O4 1.0985(5) 0.1083(5) 0.8783(2) 0.0585(11) Uani d 1
O O5 0.7286(5) 0.0840(5) 0.83908(19) 0.0499(9) Uani d 1
O O6 1.3020(4) 0.4597(4) 0.49293(17) 0.0372(7) Uani d 1
N N5 0.9896(6) 0.2855(5) 0.4416(2) 0.0319(9) Uani d 1
H H5 0.880665 0.207106 0.451585 0.038 Uiso calc 1
N N6 1.0116(6) 0.3429(5) 0.3625(2) 0.0326(9) Uani d 1
N N7 0.6591(6) 0.3785(6) 0.1892(2) 0.0441(10) Uani d 1
N N8 1.0817(6) 0.4420(6) 0.1156(2) 0.0468(11) Uani d 1
C C16 0.9514(7) 0.1210(6) 0.8273(3) 0.0339(11) Uani d 1
C C17 0.6688(9) 0.0272(8) 0.9194(3) 0.0625(16) Uani d 1
H H17A 0.505206 0.015827 0.923408 0.094 Uiso calc 1
H H17B 0.732812 0.114865 0.960868 0.094 Uiso calc 1
H H17C 0.728723 -0.086637 0.927206 0.094 Uiso calc 1
C C18 0.9934(7) 0.1775(5) 0.7422(3) 0.0296(10) Uani d 1
C C19 1.2130(7) 0.2443(6) 0.7237(3) 0.0321(11) Uani d 1
H H19 1.330460 0.250763 0.763264 0.039 Uiso calc 1
C C20 1.2559(6) 0.3010(5) 0.6461(3) 0.0293(10) Uani d 1
H H20 1.401801 0.348178 0.634193 0.035 Uiso calc 1
C C21 1.0823(7) 0.2879(5) 0.5858(3) 0.0262(9) Uani d 1
C C22 1.1377(7) 0.3515(5) 0.5028(3) 0.0285(10) Uani d 1
C C23 0.8349(7) 0.3018(5) 0.3149(3) 0.0287(10) Uani d 1
C C24 0.8557(7) 0.3584(5) 0.2296(3) 0.0297(10) Uani d 1
C C25 0.6773(8) 0.4326(7) 0.1131(3) 0.0520(15) Uani d 1
H H25 0.544231 0.449099 0.083317 0.062 Uiso calc 1
C C26 0.8838(8) 0.4646(7) 0.0771(3) 0.0491(14) Uani d 1
H H26 0.886154 0.503283 0.024169 0.059 Uiso calc 1
C C27 1.0638(7) 0.3898(6) 0.1920(3) 0.0369(11) Uani d 1
H H27 1.197488 0.373669 0.221456 0.044 Uiso calc 1
C C28 0.6158(7) 0.2061(7) 0.3387(3) 0.0447(12) Uani d 1
H H28A 0.645604 0.089600 0.355952 0.067 Uiso calc 1
H H28B 0.510368 0.192739 0.292468 0.067 Uiso calc 1
H H28C 0.550842 0.274419 0.383007 0.067 Uiso calc 1
C C29 0.8626(7) 0.2227(5) 0.6058(3) 0.0301(10) Uani d 1
H H29 0.744564 0.215790 0.566363 0.036 Uiso calc 1
C C30 0.8188(7) 0.1685(6) 0.6832(3) 0.0316(10) Uani d 1
H H30 0.671581 0.125808 0.695868 0.038 Uiso calc 1
loop_
_atom_site_aniso_label
_atom_site_aniso_U_11
_atom_site_aniso_U_22
_atom_site_aniso_U_33
_atom_site_aniso_U_12
_atom_site_aniso_U_13
_atom_site_aniso_U_23
O1 0.0410(19) 0.068(2) 0.029(2) 0.0028(16) -0.0042(14) 0.0172(17)
O2 0.046(2) 0.107(3) 0.033(2) 0.0108(19) 0.0100(16) 0.031(2)
O3 0.0421(17) 0.0496(19) 0.0261(18) 0.0162(14) -0.0021(13) 0.0071(15)
N1 0.042(2) 0.050(2) 0.020(2) 0.0162(18) 0.0068(16) 0.0125(18)
N2 0.042(2) 0.043(2) 0.020(2) 0.0056(17) 0.0027(17) 0.0098(18)
N3 0.035(2) 0.065(3) 0.029(2) 0.0008(18) 0.0042(16) 0.013(2)
N4 0.043(2) 0.071(3) 0.029(2) 0.010(2) 0.0032(18) 0.012(2)
C1 0.043(3) 0.045(3) 0.029(3) 0.010(2) 0.003(2) 0.007(2)
C2 0.035(2) 0.034(2) 0.019(2) 0.0088(19) 0.0041(18) 0.0047(19)
C3 0.032(2) 0.045(3) 0.029(3) 0.009(2) 0.009(2) 0.012(2)
C4 0.028(2) 0.040(3) 0.028(3) 0.0039(19) 0.0027(19) 0.006(2)
C5 0.035(2) 0.027(2) 0.024(3) 0.0105(18) 0.0020(19) 0.0052(19)
C6 0.037(2) 0.031(2) 0.020(3) 0.0042(19) 0.0016(18) 0.0074(19)
C7 0.033(2) 0.035(3) 0.024(2) -0.0014(18) -0.0006(18) 0.0042(19)
C8 0.037(2) 0.032(2) 0.022(3) -0.0007(19) 0.0042(19) 0.007(2)
C9 0.039(3) 0.086(4) 0.028(3) -0.001(3) 0.007(2) 0.020(3)
C10 0.053(3) 0.073(4) 0.025(3) 0.009(3) 0.005(2) 0.019(3)
C11 0.036(2) 0.057(3) 0.027(3) 0.009(2) 0.008(2) 0.013(2)
C12 0.036(2) 0.049(3) 0.031(3) 0.003(2) 0.0014(19) 0.011(2)
C13 0.035(2) 0.039(3) 0.025(3) 0.0038(19) 0.0061(18) 0.008(2)
C14 0.031(2) 0.037(3) 0.028(3) 0.0043(18) -0.0003(19) 0.003(2)
C15 0.060(3) 0.086(4) 0.030(3) 0.003(3) -0.010(2) 0.025(3)
O4 0.0445(19) 0.102(3) 0.031(2) 0.0038(19) -0.0030(16) 0.027(2)
O5 0.0430(19) 0.082(3) 0.026(2) -0.0021(17) 0.0066(15) 0.0185(18)
O6 0.0362(16) 0.0478(19) 0.0270(19) -0.0075(14) -0.0005(13) 0.0101(15)
N5 0.0328(19) 0.042(2) 0.021(2) -0.0054(16) 0.0013(16) 0.0086(17)
N6 0.038(2) 0.041(2) 0.019(2) -0.0029(16) -0.0004(16) 0.0102(18)
N7 0.033(2) 0.068(3) 0.033(2) 0.0083(19) 0.0006(17) 0.015(2)
N8 0.041(2) 0.071(3) 0.028(2) -0.003(2) 0.0023(18) 0.009(2)
C16 0.039(3) 0.041(3) 0.024(3) 0.006(2) 0.007(2) 0.009(2)
C17 0.056(3) 0.099(5) 0.035(3) 0.001(3) 0.011(2) 0.028(3)
C18 0.034(2) 0.034(3) 0.022(3) 0.0071(19) 0.0039(18) 0.006(2)
C19 0.030(2) 0.045(3) 0.023(3) 0.007(2) -0.0037(18) 0.009(2)
C20 0.027(2) 0.035(2) 0.026(3) 0.0004(18) 0.0025(18) 0.007(2)
C21 0.030(2) 0.028(2) 0.021(2) 0.0056(17) 0.0024(17) 0.0057(18)
C22 0.029(2) 0.030(2) 0.027(3) 0.0055(19) -0.0018(18) 0.0025(19)
C23 0.031(2) 0.030(2) 0.026(3) 0.0031(18) 0.0007(18) 0.004(2)
C24 0.032(2) 0.033(3) 0.025(2) 0.0012(18) -0.0008(18) 0.003(2)
C25 0.041(3) 0.087(4) 0.030(3) 0.007(3) -0.007(2) 0.021(3)
C26 0.047(3) 0.074(4) 0.027(3) -0.001(3) -0.002(2) 0.015(3)
C27 0.033(2) 0.051(3) 0.027(3) 0.002(2) -0.0041(19) 0.007(2)
C28 0.040(3) 0.058(3) 0.037(3) -0.004(2) -0.002(2) 0.023(2)
C29 0.028(2) 0.040(3) 0.023(3) 0.0053(18) -0.0037(18) 0.004(2)
C30 0.029(2) 0.042(3) 0.024(3) 0.0025(19) 0.0037(18) 0.008(2)
loop_
_atom_type_symbol
_atom_type_description
_atom_type_scat_dispersion_real
_atom_type_scat_dispersion_imag
_atom_type_scat_source
C C 0.0030 0.0020 'International Tables Vol C Tables 4.2.6.8 and 6.1.1.4'
H H 0.0000 0.0000 'International Tables Vol C Tables 4.2.6.8 and 6.1.1.4'
N N 0.0060 0.0030 'International Tables Vol C Tables 4.2.6.8 and 6.1.1.4'
O O 0.0110 0.0060 'International Tables Vol C Tables 4.2.6.8 and 6.1.1.4'
loop_
_geom_angle_atom_site_label_1
_geom_angle_atom_site_label_2
_geom_angle_atom_site_label_3
_geom_angle
C1 O1 C15 115.6(4)
N2 N1 H1 120.5
C6 N1 H1 120.5
C6 N1 N2 119.1(3)
C7 N2 N1 115.2(3)
C9 N3 C8 115.7(4)
C11 N4 C10 115.4(4)
O1 C1 C2 111.8(4)
O2 C1 O1 123.5(4)
O2 C1 C2 124.7(4)
C3 C2 C1 118.4(4)
C3 C2 C14 119.0(4)
C14 C2 C1 122.5(4)
C2 C3 H3 119.8
C4 C3 C2 120.3(4)
C4 C3 H3 119.8
C3 C4 H4 119.8
C3 C4 C5 120.4(4)
C5 C4 H4 119.8
C4 C5 C6 118.9(4)
C4 C5 C13 119.6(4)
C13 C5 C6 121.3(4)
O3 C6 N1 124.5(4)
O3 C6 C5 121.5(4)
N1 C6 C5 114.0(3)
N2 C7 C8 114.6(3)
N2 C7 C12 126.9(4)
C12 C7 C8 118.6(4)
N3 C8 C7 115.5(3)
N3 C8 C11 120.7(4)
C11 C8 C7 123.7(4)
N3 C9 H9 118.4
N3 C9 C10 123.3(4)
C10 C9 H9 118.4
N4 C10 C9 121.7(4)
N4 C10 H10 119.2
C9 C10 H10 119.2
N4 C11 C8 123.1(4)
N4 C11 H11 118.4
C8 C11 H11 118.4
C7 C12 H12A 109.5
C7 C12 H12B 109.5
C7 C12 H12C 109.5
H12A C12 H12B 109.5
H12A C12 H12C 109.5
H12B C12 H12C 109.5
C5 C13 H13 120.1
C14 C13 C5 119.8(4)
C14 C13 H13 120.1
C2 C14 H14 119.6
C13 C14 C2 120.7(4)
C13 C14 H14 119.6
O1 C15 H15A 109.5
O1 C15 H15B 109.5
O1 C15 H15C 109.5
H15A C15 H15B 109.5
H15A C15 H15C 109.5
H15B C15 H15C 109.5
C16 O5 C17 116.0(3)
N6 N5 H5 119.6
C22 N5 H5 119.6
C22 N5 N6 120.7(4)
C23 N6 N5 114.5(3)
C25 N7 C24 116.3(4)
C26 N8 C27 115.3(4)
O4 C16 O5 123.9(4)
O4 C16 C18 124.6(4)
O5 C16 C18 111.5(4)
O5 C17 H17A 109.5
O5 C17 H17B 109.5
O5 C17 H17C 109.5
H17A C17 H17B 109.5
H17A C17 H17C 109.5
H17B C17 H17C 109.5
C19 C18 C16 118.4(4)
C30 C18 C16 121.6(4)
C30 C18 C19 120.0(4)
C18 C19 H19 120.1
C20 C19 C18 119.8(4)
C20 C19 H19 120.1
C19 C20 H20 119.7
C19 C20 C21 120.5(4)
C21 C20 H20 119.7
C20 C21 C22 118.4(4)
C20 C21 C29 118.9(4)
C29 C21 C22 122.7(4)
O6 C22 N5 123.6(4)
O6 C22 C21 121.7(4)
N5 C22 C21 114.7(4)
N6 C23 C24 115.6(4)
N6 C23 C28 125.5(4)
C24 C23 C28 118.9(4)
N7 C24 C23 116.1(3)
N7 C24 C27 120.3(4)
C27 C24 C23 123.6(4)
N7 C25 H25 118.6
N7 C25 C26 122.7(4)
C26 C25 H25 118.6
N8 C26 C25 122.1(4)
N8 C26 H26 119.0
C25 C26 H26 119.0
N8 C27 C24 123.4(4)
N8 C27 H27 118.3
C24 C27 H27 118.3
C23 C28 H28A 109.5
C23 C28 H28B 109.5
C23 C28 H28C 109.5
H28A C28 H28B 109.5
H28A C28 H28C 109.5
H28B C28 H28C 109.5
C21 C29 H29 119.7
C30 C29 C21 120.7(4)
C30 C29 H29 119.7
C18 C30 H30 119.9
C29 C30 C18 120.1(4)
C29 C30 H30 119.9
loop_
_geom_bond_atom_site_label_1
_geom_bond_atom_site_label_2
_geom_bond_distance
O1 C1 1.339(5)
O1 C15 1.468(5)
O2 C1 1.204(5)
O3 C6 1.214(4)
N1 H1 0.8600
N1 N2 1.388(4)
N1 C6 1.358(5)
N2 C7 1.292(5)
N3 C8 1.343(5)
N3 C9 1.332(5)
N4 C10 1.343(6)
N4 C11 1.329(5)
C1 C2 1.488(6)
C2 C3 1.392(6)
C2 C14 1.396(6)
C3 H3 0.9300
C3 C4 1.383(6)
C4 H4 0.9300
C4 C5 1.392(5)
C5 C6 1.509(6)
C5 C13 1.392(6)
C7 C8 1.490(5)
C7 C12 1.488(5)
C8 C11 1.389(6)
C9 H9 0.9300
C9 C10 1.366(6)
C10 H10 0.9300
C11 H11 0.9300
C12 H12A 0.9600
C12 H12B 0.9600
C12 H12C 0.9600
C13 H13 0.9300
C13 C14 1.383(6)
C14 H14 0.9300
C15 H15A 0.9600
C15 H15B 0.9600
C15 H15C 0.9600
O4 C16 1.198(5)
O5 C16 1.335(5)
O5 C17 1.448(5)
O6 C22 1.231(5)
N5 H5 0.8600
N5 N6 1.393(5)
N5 C22 1.351(5)
N6 C23 1.287(5)
N7 C24 1.338(5)
N7 C25 1.336(5)
N8 C26 1.334(6)
N8 C27 1.334(5)
C16 C18 1.499(6)
C17 H17A 0.9600
C17 H17B 0.9600
C17 H17C 0.9600
C18 C19 1.392(6)
C18 C30 1.384(6)
C19 H19 0.9300
C19 C20 1.384(5)
C20 H20 0.9300
C20 C21 1.394(5)
C21 C22 1.501(6)
C21 C29 1.395(6)
C23 C24 1.487(6)
C23 C28 1.495(6)
C24 C27 1.389(6)
C25 H25 0.9300
C25 C26 1.369(6)
C26 H26 0.9300
C27 H27 0.9300
C28 H28A 0.9600
C28 H28B 0.9600
C28 H28C 0.9600
C29 H29 0.9300
C29 C30 1.377(6)
C30 H30 0.9300
loop_
_geom_hbond_atom_site_label_D
_geom_hbond_atom_site_label_H
_geom_hbond_atom_site_label_A
_geom_hbond_site_symmetry_A
_geom_hbond_distance_DH
_geom_hbond_distance_HA
_geom_hbond_distance_DA
_geom_hbond_angle_DHA
N1 H1 O6 1_455 0.86 2.31 3.063(5) 147
N5 H5 O3 1_645 0.86 2.39 3.172(5) 151
C10 H10 O4 1_464 0.93 2.51 3.440(7) 175
C12 H12A O3 1_655 0.96 2.38 3.327(6) 171
C12 H12C O6 1_455 0.96 2.58 3.360(6) 139
C28 H28A O3 1_645 0.96 2.59 3.422(6) 145
loop_
_geom_torsion_atom_site_label_1
_geom_torsion_atom_site_label_2
_geom_torsion_atom_site_label_3
_geom_torsion_atom_site_label_4
_geom_torsion
O1 C1 C2 C3 165.9(4)
O1 C1 C2 C14 -12.4(6)
O2 C1 C2 C3 -11.9(7)
O2 C1 C2 C14 169.9(5)
N1 N2 C7 C8 -179.4(4)
N1 N2 C7 C12 -1.0(6)
N2 N1 C6 O3 2.5(7)
N2 N1 C6 C5 -176.3(4)
N2 C7 C8 N3 154.8(4)
N2 C7 C8 C11 -25.7(6)
N3 C8 C11 N4 -0.7(7)
N3 C9 C10 N4 -0.7(9)
C1 C2 C3 C4 -177.5(4)
C1 C2 C14 C13 176.4(4)
C2 C3 C4 C5 0.6(6)
C3 C2 C14 C13 -1.8(6)
C3 C4 C5 C6 -176.2(4)
C3 C4 C5 C13 -1.0(6)
C4 C5 C6 O3 43.3(6)
C4 C5 C6 N1 -137.9(4)
C4 C5 C13 C14 0.0(6)
C5 C13 C14 C2 1.4(7)
C6 N1 N2 C7 179.2(4)
C6 C5 C13 C14 175.1(4)
C7 C8 C11 N4 179.8(4)
C8 N3 C9 C10 -0.6(7)
C9 N3 C8 C7 -179.3(4)
C9 N3 C8 C11 1.2(6)
C10 N4 C11 C8 -0.5(7)
C11 N4 C10 C9 1.2(8)
C12 C7 C8 N3 -23.8(6)
C12 C7 C8 C11 155.8(4)
C13 C5 C6 O3 -131.8(4)
C13 C5 C6 N1 47.0(6)
C14 C2 C3 C4 0.8(6)
C15 O1 C1 O2 2.3(7)
C15 O1 C1 C2 -175.5(4)
O4 C16 C18 C19 -9.4(7)
O4 C16 C18 C30 172.1(5)
O5 C16 C18 C19 171.3(4)
O5 C16 C18 C30 -7.2(6)
N5 N6 C23 C24 -178.8(3)
N5 N6 C23 C28 1.9(6)
N6 N5 C22 O6 -2.3(6)
N6 N5 C22 C21 175.6(3)
N6 C23 C24 N7 -156.3(4)
N6 C23 C24 C27 23.7(6)
N7 C24 C27 N8 0.6(7)
N7 C25 C26 N8 0.7(9)
C16 C18 C19 C20 -178.7(4)
C16 C18 C30 C29 179.5(4)
C17 O5 C16 O4 0.5(7)
C17 O5 C16 C18 179.8(4)
C18 C19 C20 C21 -1.5(6)
C19 C18 C30 C29 1.1(6)
C19 C20 C21 C22 179.9(4)
C19 C20 C21 C29 2.3(6)
C20 C21 C22 O6 -21.9(6)
C20 C21 C22 N5 160.2(4)
C20 C21 C29 C30 -1.4(6)
C21 C29 C30 C18 -0.3(6)
C22 N5 N6 C23 -165.4(4)
C22 C21 C29 C30 -178.9(4)
C23 C24 C27 N8 -179.4(4)
C24 N7 C25 C26 0.6(8)
C25 N7 C24 C23 178.8(4)
C25 N7 C24 C27 -1.2(7)
C26 N8 C27 C24 0.7(7)
C27 N8 C26 C25 -1.3(8)
C28 C23 C24 N7 23.0(6)
C28 C23 C24 C27 -157.0(4)
C29 C21 C22 O6 155.6(4)
C29 C21 C22 N5 -22.3(6)
C30 C18 C19 C20 -0.2(6)

_cod_database_fobs_code 1549899
