#------------------------------------------------------------------------------
#$Date: 2018-04-30 20:06:26 +0300 (Mon, 30 Apr 2018) $
#$Revision: 207582 $
#$URL: file:///home/coder/svn-repositories/cod/cif/1/54/93/1549351.cif $
#------------------------------------------------------------------------------
#
# This file is available in the Crystallography Open Database (COD),
# http://www.crystallography.net/. The original data for this entry
# were provided by IUCr Journals, http://journals.iucr.org/.
#
# The file may be used within the scientific community so long as
# proper attribution is given to the journal article from which the
# data were obtained.
#
data_1549351
loop_
_publ_author_name
'Abad, Nadeem'
'Sebhaoui, Jihad'
'El Bakri, Youness'
'Ramli, Youssef'
'Essassi, El Mokhtar'
'Mague, Joel T.'
_publ_section_title
;
 Ethyl 2-(3-oxo-1,2,3,4-tetrahydroquinoxalin-2-yl)acetate
;
_journal_coeditor_code           ZQ4028
_journal_issue                   4
_journal_name_full               IUCrData
_journal_page_first              x180596
_journal_paper_doi               10.1107/S2414314618005965
_journal_volume                  3
_journal_year                    2018
_chemical_formula_iupac          'C12 H14 N2 O3'
_chemical_formula_moiety         'C12 H14 N2 O3'
_chemical_formula_sum            'C12 H14 N2 O3'
_chemical_formula_weight         234.25
_chemical_name_systematic
;
Ethyl 2-(3-oxo-1,2,3,4-tetrahydroquinoxalin-2-yl)acetate
;
_space_group_crystal_system      triclinic
_space_group_IT_number           2
_space_group_name_Hall           '-P 1'
_space_group_name_H-M_alt        'P -1'
_symmetry_space_group_name_Hall  '-P 1'
_symmetry_space_group_name_H-M   'P -1'
_atom_sites_solution_hydrogens   mixed
_atom_sites_solution_primary     direct
_atom_sites_solution_secondary   difmap
_audit_creation_method           SHELXL-2018/1
_cell_angle_alpha                84.072(7)
_cell_angle_beta                 81.473(5)
_cell_angle_gamma                85.140(5)
_cell_formula_units_Z            2
_cell_length_a                   4.8082(18)
_cell_length_b                   8.260(3)
_cell_length_c                   14.413(6)
_cell_measurement_reflns_used    2025
_cell_measurement_temperature    100.(2)
_cell_measurement_theta_max      28.2381
_cell_measurement_theta_min      2.7532
_cell_volume                     561.7(4)
_computing_cell_refinement
;
<i>SAINT</i> (Bruker, 2016)
;
_computing_data_collection
;
<i>APEX3</i> (Bruker, 2016)
;
_computing_data_reduction
;
<i>SAINT</i> (Bruker, 2016)
;
_computing_molecular_graphics
;
<i>DIAMOND</i> (Brandenburg & Putz, 2012)
;
_computing_publication_material
;
<i>SHELXTL</i> (Sheldrick, 2008)
;
_computing_structure_refinement
;
<i>SHELXL2018</i> (Sheldrick, 2015<i>b</i>)
;
_computing_structure_solution
;
<i>SHELXT</i> (Sheldrick, 2015<i>a</i>)
;
_diffrn_ambient_temperature      100(2)
_diffrn_detector_area_resol_mean 8.3333
_diffrn_measured_fraction_theta_full 0.988
_diffrn_measured_fraction_theta_max 0.965
_diffrn_measurement_device_type  'Bruker SMART APEX CCD'
_diffrn_measurement_method       '\w scans'
_diffrn_radiation_monochromator  graphite
_diffrn_radiation_type           MoK\a
_diffrn_radiation_wavelength     0.71073
_diffrn_reflns_av_R_equivalents  0.0281
_diffrn_reflns_limit_h_max       6
_diffrn_reflns_limit_h_min       -6
_diffrn_reflns_limit_k_max       10
_diffrn_reflns_limit_k_min       -10
_diffrn_reflns_limit_l_max       19
_diffrn_reflns_limit_l_min       -19
_diffrn_reflns_number            9489
_diffrn_reflns_theta_full        25.500
_diffrn_reflns_theta_max         28.275
_diffrn_reflns_theta_min         1.435
_exptl_absorpt_coefficient_mu    0.101
_exptl_absorpt_correction_T_max  0.99
_exptl_absorpt_correction_T_min  0.98
_exptl_absorpt_correction_type   multi-scan
_exptl_absorpt_process_details
;
(<i>TWINABS</i>; Sheldrick, 2009)
;
_exptl_crystal_colour            yellow
_exptl_crystal_density_diffrn    1.385
_exptl_crystal_density_method    'not measured'
_exptl_crystal_description       block
_exptl_crystal_F_000             248
_exptl_crystal_size_max          0.185
_exptl_crystal_size_mid          0.144
_exptl_crystal_size_min          0.127
_refine_diff_density_max         1.161
_refine_diff_density_min         -0.823
_refine_ls_extinction_method     none
_refine_ls_goodness_of_fit_ref   1.034
_refine_ls_hydrogen_treatment    mixed
_refine_ls_matrix_type           full
_refine_ls_number_parameters     205
_refine_ls_number_reflns         9489
_refine_ls_number_restraints     4
_refine_ls_restrained_S_all      1.034
_refine_ls_R_factor_all          0.1185
_refine_ls_R_factor_gt           0.0613
_refine_ls_shift/su_max          0.000
_refine_ls_shift/su_mean         0.000
_refine_ls_structure_factor_coef Fsqd
_refine_ls_weighting_details
'w=1/[\s^2^(Fo^2^)+(0.1018P)^2^] where P=(Fo^2^+2Fc^2^)/3'
_refine_ls_weighting_scheme      calc
_refine_ls_wR_factor_gt          0.1842
_refine_ls_wR_factor_ref         0.2126
_reflns_number_gt                4504
_reflns_number_total             9489
_reflns_threshold_expression     'I > 2\s(I)'
_cod_data_source_file            zq4028sup1.cif
_cod_data_source_block           I
_cod_database_code               1549351
_shelx_space_group_comment
;
The symmetry employed for this shelxl refinement is uniquely defined
by the following loop, which should always be used as a source of
symmetry information in preference to the above space-group names.
They are only intended as comments.
;
_shelx_estimated_absorpt_t_min   0.982
_shelx_estimated_absorpt_t_max   0.987
_shelx_hkl_file
;
  -1   0   0 5.63320 0.36733   2
  -1   0   0 8.53370 0.35502   2
  -1   0   0 169.685 6.98766   1
  -1   0   0 169.363 6.44827   1
   1   0   0 189.154 8.43836  -2
   1   0   0 189.154 8.43836   1
  -2   0   0 2.34201 0.24606   2
  -2   0   0 1.53913 0.29517   2
  -2   0   0 53.8145 2.08791   1
  -2   0   0 51.9941 2.25867   1
   2   0   0 52.4982 2.46855   1
   2   0   0 3.85501 0.42709   2
  -3   0   0 0.91444 0.28745   2
  -3   0   0 0.46605 0.33428   2
  -3   0   1 24.5719 1.33704  -2
  -3   0   0 24.5719 1.33704   1
  -3   0   0 24.2301 1.07687   1
   3   0   0 24.2426 1.33232   1
   3   0   0 0.96186 0.41696   2
  -4   0   1 4.21252 0.79682  -2
  -4   0   0 4.21252 0.79682   1
   4   0  -1 4.39590 1.04018  -2
   4   0   0 4.39590 1.04018   1
   5   0   0 10.3462 1.03148   1
   6   0   0 19.8835 1.61204   1
   6   0   0 1.02289 0.81343   2
   6  -1   0 0.25634 0.86415   2
   6  -1   0 2.08593 0.85770   1
   5  -1   0 30.8667 1.88773   1
   5  -1   0 2.38347 0.75361   2
  -5   1   0 31.2677 1.52265   1
   4  -1  -1 30.9949 1.92118  -2
   4  -1   0 30.9949 1.92118   1
  -4   1   1 30.8571 1.61083  -2
  -4   1   0 30.8571 1.61083   1
   3  -1   0 52.1247 2.53430   1
  -3   1   1 59.1294 2.61861  -2
  -3   1   0 59.1294 2.61861   1
  -3   1   1 61.4378 2.46953  -2
  -3   1   0 61.4378 2.46953   1
   2  -1   0 139.327 6.43982   1
   2  -1   0 6.78630 0.47152   2
  -2   1   0 5.05250 0.40353   2
  -2   1   0 2.88995 0.31087   2
  -2   1   0 140.286 5.48480   1
  -2   1   0 147.239 5.90019   1
   1  -1   0 261.321 11.5293   1
  -1   1   0 256.377 9.84134   1
  -1   1   0 7.96814 0.41874   2
   0  -1   0 1.21145 0.12804   2
   0  -1   0 39.4398 1.78751  -2
   0  -1   0 39.4398 1.78751   1
   0  -1   0 33.5073 1.39921   1
   0   1   0 33.6075 1.29492   1
   0   1   0 1.08221 0.11001   2
  -1  -1   0 184.831 7.51035  -2
  -1  -1   0 184.831 7.51035   1
   1   1   0 163.263 6.20064   1
   1   1   0 178.383 8.09789  -2
   1   1   0 178.383 8.09789   1
  -2  -1   0 15.3641 0.81876   1
  -2  -1   0 0.88273 0.26242   2
   2   1   0 16.4564 0.88203   1
   2   1   0 15.8674 0.70084   1
   2   1   0 1.33611 0.32663   2
  -3  -1   0 -0.0515 0.24726   1
  -3  -1   0 0.20076 0.34954   1
  -3  -1   0 -0.1534 0.36847   2
  -3  -1   0 0.08055 0.21416   2
   3   1   0 -0.0260 0.36128   1
   3   1   0 0.23117 0.38736   2
  -4  -1   0 0.20138 0.29651   1
  -4  -1   0 0.58739 0.52877   1
  -4  -1   0 0.83468 0.53227   2
   4   1   0 0.25935 0.52764   2
   4   1   0 -0.0461 0.52336   1
   5   1  -1 2.29586 1.30781  -2
   5   1   0 2.29586 1.30781   1
   6   1   0 0.29242 0.73247   2
   6   1   0 2.17523 0.81794   1
   6  -2   0 0.28922 0.81403   1
   5  -2   0 0.20463 0.63768   2
   5  -2   0 25.2283 1.72776   1
  -5   2   0 0.25441 0.53623   2
  -5   2   0 28.8760 1.43817   1
   4  -2   0 14.5221 1.08609   1
  -4   2   0 14.0928 0.93053   1
   3  -2  -1 1.62561 0.74395  -2
   3  -2   0 1.62561 0.74395   1
  -3   2   1 2.01410 0.65055  -2
  -3   2   0 2.01410 0.65055   1
   2  -2   0 42.5818 2.06264   1
  -2   2   1 58.8639 2.40824  -2
  -2   2   0 58.8639 2.40824   1
   1  -2   0 0.21055 0.23713   2
   1  -2   0 2.31052 0.31718   1
  -1   2   0 1.10230 0.24725   1
  -1   2   0 -0.2879 0.17995   2
   0  -2   0 81.9356 3.68907   1
   0  -2   0 83.6168 3.39894   1
   0  -2   0 3.15672 0.26127   2
   0  -2   0 4.81737 0.31494   2
   0   2   0 79.8145 3.14194   1
   0   2   0 2.43008 0.24755   2
  -1  -2   0 19.9237 0.96219  -2
  -1  -2   0 19.9237 0.96219   1
   1   2   0 21.1663 1.02677  -2
   1   2   0 21.1663 1.02677   1
   1   2   0 19.1015 0.80939  -2
   1   2   0 19.1015 0.80939   1
  -2  -2   0 113.680 4.74119  -2
  -2  -2   0 113.680 4.74119   1
   2   2   0 96.8628 3.72366   1
   2   2   0 109.894 5.08140  -2
   2   2   0 109.894 5.08140   1
  -3  -2   0 3.72354 0.36435   2
  -3  -2   0 2.46003 0.48658   2
  -3  -2   0 40.0961 1.91314   1
   3   2   0 6.02971 0.66504   2
   3   2   0 42.3563 2.05395   1
  -4  -2   0 -0.1572 0.58493   1
  -4  -2   0 -0.2530 0.55095   2
   4   2   0 -0.1810 0.52717   2
   4   2   0 0.57267 0.55821   1
  -5  -2   0 -0.4864 0.74404   2
  -5  -2   0 3.08332 0.83013   1
   5   2   0 2.53173 0.77200   1
   6   2   0 1.05811 0.89590   1
   5  -3   0 0.12061 0.74884   2
   5  -3   0 -0.2865 0.74740   1
  -5   3   0 0.27716 0.60769   1
   4  -3   0 -0.1028 0.60743   2
   4  -3   0 1.46960 0.66648   1
  -4   3   0 -0.4066 0.45629   2
  -4   3   0 1.38943 0.49897   1
   3  -3  -1 61.7056 3.02656  -2
   3  -3   0 61.7056 3.02656   1
  -3   3   1 58.7212 2.55241  -2
  -3   3   0 58.7212 2.55241   1
   2  -3  -1 2.54567 0.61344  -2
   2  -3   0 2.54567 0.61344   1
  -2   3   1 2.07923 0.51158  -2
  -2   3   0 2.07923 0.51158   1
   1  -3   0 5.71360 0.50482   2
   1  -3   0 123.074 5.58634   1
  -1   3   0 123.270 4.77175   1
  -1   3   0 5.10061 0.41694   2
   0  -3   0 -0.1203 0.20811   2
   0  -3   0 -0.1425 0.16705   2
   0  -3   0 2.01864 0.31866   1
   0  -3   0 2.06080 0.23706   1
   0   3   0 1.65043 0.23637   1
   0   3   0 0.24462 0.19065   2
  -1  -3   0 8.91386 0.51810   2
  -1  -3   0 167.552 7.14864   1
   1   3   0 6.75053 0.39587   2
   1   3   0 174.169 6.54998   1
   1   3   0 173.669 7.70240   1
  -2  -3   0 50.4417 2.52281  -2
  -2  -3   0 50.4417 2.52281   1
   2   3   0 58.9575 2.24599  -2
   2   3   0 58.9575 2.24599   1
   2   3   0 62.6279 2.73106  -2
   2   3   0 62.6279 2.73106   1
  -3  -3   0 12.4183 1.08297  -2
  -3  -3   0 12.4183 1.08297   1
   3   3   0 11.0011 1.03653  -2
   3   3   0 11.0011 1.03653   1
  -4  -3   0 12.3039 1.06672   2
  -4  -3   0 102.593 4.36755   1
   4   3   0 11.7235 1.06027   2
   4   3   0 95.0255 4.66054   1
  -5  -3   0 30.2015 1.82908   1
  -5  -3   0 1.56642 0.81136   2
   5   3   0 27.8014 1.79741   1
   5   3   0 1.41992 0.70007   2
   6   3  -1 7.95011 1.71917  -2
   6   3   0 7.95011 1.71917   1
   5  -4  -2 17.0234 1.85614  -2
   5  -4   0 17.0234 1.85614   1
  -5   4   0 18.1494 1.27235   1
   4  -4   0 -0.3359 0.61508   2
   4  -4   0 7.98905 1.02813   1
  -4   4   0 10.2775 0.86554   1
   3  -4   0 0.85781 0.53715   2
   3  -4   0 48.6175 2.48127   1
  -3   4   0 47.8343 2.11458   1
  -3   4   0 1.51654 0.47818   2
   2  -4  -1 45.5741 2.32218  -2
   2  -4   0 45.5741 2.32218   1
  -2   4   1 44.7802 1.96842  -2
  -2   4   0 44.7802 1.96842   1
   1  -4  -1 7.75078 0.78774  -2
   1  -4   0 7.75078 0.78774   1
   1  -4  -1 8.91836 0.44995  -2
   1  -4   0 8.91836 0.44995   1
  -1   4   1 8.15417 0.55771  -2
  -1   4   0 8.15417 0.55771   1
   0  -4   0 11.8550 0.67873   2
   0  -4   0 14.7427 0.80898   2
   0  -4   0 356.351 16.0188   1
   0  -4   0 363.416 14.7904   1
   0   4   0 356.483 13.6612   1
  -1  -4   0 141.313 5.83425   1
  -1  -4   0 6.04027 0.51954   2
   1   4   0 4.23522 0.37689   2
   1   4   0 133.864 5.34601   1
   1   4   0 141.807 6.27713   1
  -2  -4   0 89.2860 3.86699  -2
  -2  -4   0 89.2860 3.86699   1
   2   4   0 87.6560 4.10697  -2
   2   4   0 87.6560 4.10697   1
   2   4   0 4.28516 0.33603   2
   2   4   0 80.5148 3.11432   1
  -3  -4   0 0.22573 0.45766   2
  -3  -4   0 5.45067 0.65077   1
   3   4   0 6.15300 0.93038  -2
   3   4   0 6.15300 0.93038   1
  -4  -4   0 0.38211 0.69333   1
  -4  -4   0 -0.8105 0.66772   2
   4   4   0 -0.2539 0.56353   2
   4   4   0 1.41909 0.62280   1
  -5  -4   0 9.24519 1.13068   1
  -5  -4   0 0.93347 0.82737   2
   5   4   0 9.22472 1.11978   1
   5   4   0 0.50824 0.70306   2
  -6  -4   0 0.77294 1.13698   1
  -6  -4   0 -0.3858 1.20963   2
   6   4   0 1.02847 0.79435   1
   5  -5  -2 10.5946 1.83964  -2
   5  -5   0 10.5946 1.83964   1
  -5   5   2 9.33744 1.59378  -2
  -5   5   0 9.33744 1.59378   1
   4  -5  -2 3.66442 1.47813  -2
   4  -5   0 3.66442 1.47813   1
  -4   5   0 1.32917 0.61136   1
   3  -5   0 25.9834 1.61369   1
   3  -5   0 0.36126 0.62245   2
  -3   5   0 0.17499 0.49544   2
  -3   5   0 25.8447 1.37406   1
   2  -5  -1 9.34458 0.92318  -2
   2  -5   0 9.34458 0.92318   1
  -2   5   0 0.55012 0.41784   2
  -2   5   0 15.9258 0.92628   1
   1  -5  -1 108.977 5.13918  -2
   1  -5   0 108.977 5.13918   1
  -1   5   1 112.610 4.39069  -2
  -1   5   0 112.610 4.39069   1
   0  -5  -1 3.93283 0.48967  -2
   0  -5   0 3.93283 0.48967   1
   0  -5  -1 3.91800 0.71779  -2
   0  -5   0 3.91800 0.71779   1
   0   5   1 3.33382 0.50533  -2
   0   5   0 3.33382 0.50533   1
  -1  -5   0 2.78160 0.47764   1
  -1  -5   0 2.25776 0.38697   1
  -1  -5   0 0.21296 0.29781   2
   1   5   0 0.77721 0.26875   2
   1   5   0 2.23438 0.33920   1
  -2  -5   0 1.20198 0.43138   2
  -2  -5   0 25.1357 1.31395   1
   2   5   0 24.6676 1.35083   1
   2   5   0 0.19118 0.24963   2
   2   5   0 1.02814 0.41912   2
  -3  -5   0 0.84564 0.56488   2
  -3  -5   0 12.6091 1.01985   1
   3   5   0 12.8616 1.23338  -2
   3   5   0 12.8616 1.23338   1
  -4  -5   0 3.48758 0.82226   2
  -4  -5   0 40.6303 2.15336   1
   4   5   0 2.48559 0.72393   2
   4   5   0 38.8574 2.15286   1
  -5  -5   0 2.35772 0.94110   1
  -5  -5   0 0.96359 0.87803   2
   5   5   0 -0.6666 0.74217   2
   5   5   0 1.15532 0.83472   1
   4  -6  -2 2.45788 1.52174  -2
   4  -6   0 2.45788 1.52174   1
  -4   6   2 1.06080 1.27787  -2
  -4   6   0 1.06080 1.27787   1
   3  -6  -2 1.68738 1.51807  -2
   3  -6   0 1.68738 1.51807   1
  -3   6   2 1.07311 1.08905  -2
  -3   6   0 1.07311 1.08905   1
   2  -6   0 0.38361 0.63570   2
   2  -6   0 15.6881 1.23859   1
  -2   6   0 16.4011 1.05798   1
   1  -6  -1 14.9774 1.42558  -2
   1  -6   0 14.9774 1.42558   1
  -1   6   0 0.13129 0.43260   2
  -1   6   1 22.6250 1.24983  -2
  -1   6   0 22.6250 1.24983   1
   0  -6  -1 3.90152 0.57893  -2
   0  -6   0 3.90152 0.57893   1
   0  -6  -1 4.13041 0.82256  -2
   0  -6   0 4.13041 0.82256   1
   0   6   1 3.10359 0.69063  -2
   0   6   0 3.10359 0.69063   1
  -1  -6  -1 5.16959 0.77354  -2
  -1  -6   0 5.16959 0.77354   1
  -1  -6   0 0.02020 0.38809   2
  -1  -6   0 4.70140 0.65790   1
   1   6   1 4.01925 0.63237  -2
   1   6   0 4.01925 0.63237   1
  -2  -6   0 22.7547 1.30833   1
  -2  -6   0 1.00973 0.46940   2
   2   6   0 1.80461 0.48504   2
   2   6   0 22.8487 1.34633   1
  -3  -6   0 3.40443 0.72225   2
  -3  -6   0 51.0697 2.52601   1
   3   6   0 3.61164 0.66631   2
   3   6   0 52.1388 2.61441   1
  -4  -6   0 0.76834 0.76936   1
  -4  -6   0 0.11975 0.72272   2
   4   6   0 0.39226 0.70371   2
   4   6   0 -0.1568 0.64886   1
  -5  -6   0 1.37300 1.12965   1
  -5  -6   0 0.27280 0.99770   2
   5   6   0 -0.2485 0.86916   2
   5   6   0 0.60934 0.90029   1
   4  -7  -2 1.88606 1.94075  -2
   4  -7   0 1.88606 1.94075   1
  -4   7   2 1.73434 1.41359  -2
  -4   7   0 1.73434 1.41359   1
   3  -7  -2 0.82440 1.47977  -2
   3  -7   0 0.82440 1.47977   1
  -3   7   2 -0.4437 1.05527  -2
  -3   7   0 -0.4437 1.05527   1
   2  -7   0 8.55579 1.06585   1
   2  -7   0 0.82517 0.74897   2
  -2   7   2 8.44999 1.22565  -2
  -2   7   0 8.44999 1.22565   1
   1  -7   0 8.37258 0.94743   1
   1  -7   0 0.27546 0.58765   2
  -1   7   0 -0.6061 0.48046   2
  -1   7   0 7.83135 0.80304   1
   0  -7  -1 10.0120 1.26549  -2
   0  -7   0 10.0120 1.26549   1
   0   7   0 0.60691 0.50109   2
   0   7   0 9.91439 0.81298   1
  -1  -7  -1 -0.1237 0.82912  -2
  -1  -7   0 -0.1237 0.82912   1
  -1  -7   0 0.32584 0.43828   2
  -2  -7   0 0.38372 0.50426   2
  -2  -7   0 26.6161 1.49988   1
   2   7   0 24.3941 1.51206   1
   2   7   0 1.34172 0.57478   2
  -3  -7   0 2.56939 0.72434   1
  -3  -7   0 -0.2825 0.62601   2
   3   7   0 0.01181 0.62599   2
   3   7   0 1.70855 0.72208   1
  -4  -7   0 0.08204 0.79861   2
  -4  -7   0 1.41868 0.82076   1
   4   7   0 -0.0484 0.69059   2
   4   7   0 1.30846 0.72156   1
  -5  -7   0 0.93477 1.31282   2
  -5  -7   0 4.54020 1.74517   1
   5   7   0 3.34773 0.91513   1
   5   7   0 0.06588 0.78014   2
   3  -8  -2 0.92033 1.62224  -2
   3  -8   0 0.92033 1.62224   1
  -3   8   2 2.00811 1.32748  -2
  -3   8   0 2.00811 1.32748   1
   2  -8  -2 7.94201 1.64517  -2
   2  -8   0 7.94201 1.64517   1
  -2   8   2 7.38384 1.19286  -2
  -2   8   0 7.38384 1.19286   1
   1  -8   0 14.9813 1.31573   1
   1  -8   0 0.20061 0.66904   2
  -1   8   2 18.7799 1.46159  -2
  -1   8   0 18.7799 1.46159   1
   0  -8   0 0.46307 0.66152   2
   0  -8   0 25.9402 1.67879   1
   0   8   0 0.94024 0.58293   2
   0   8   0 26.0520 1.39496   1
  -1  -8  -1 13.5616 1.25438  -2
  -1  -8   0 13.5616 1.25438   1
  -2  -8  -1 1.04125 1.32084  -2
  -2  -8   0 1.04125 1.32084   1
  -2  -8   0 0.06925 0.62591   2
   2   8   0 0.51885 0.63076   2
   2   8   1 2.39057 1.21068  -2
   2   8   0 2.39057 1.21068   1
  -3  -8   0 2.28629 0.78495   1
  -3  -8   0 -0.4476 0.75873   2
   3   8   0 3.52453 0.82720   1
   3   8   0 1.05324 0.73584   2
  -4  -8   0 0.37095 0.90052   2
  -4  -8   0 -0.8072 0.82846   1
   4   8   0 -0.6614 0.68006   1
   4   8   0 0.17989 0.72563   2
  -3   9   0 -0.4193 1.03031   2
   2  -9  -2 10.2672 1.65029  -2
   2  -9   0 10.2672 1.65029   1
  -2   9   2 9.35836 1.53678  -2
  -2   9   0 9.35836 1.53678   1
   1  -9   0 0.15718 0.86969   2
   1  -9  -2 50.0050 3.16409  -2
   1  -9   0 50.0050 3.16409   1
  -1   9   2 56.0943 2.52249  -2
  -1   9   0 56.0943 2.52249   1
   0  -9   0 -0.3929 0.69777   2
   0  -9   0 1.94045 0.79631   1
   0   9   0 0.05507 0.68631   2
   1   9   0 0.33227 0.67170   2
  -2  -9  -1 1.10326 0.96494  -2
  -2  -9   0 1.10326 0.96494   1
  -2  -9   0 -0.1284 0.74536   2
   2   9   1 1.18496 1.39653  -2
   2   9   0 1.18496 1.39653   1
   2   9   0 -0.3200 0.64860   2
  -3  -9   0 0.81226 0.84085   2
  -3  -9   0 3.83193 0.94937   1
   3   9   0 0.86819 0.78664   2
   3   9   0 1.01769 0.78115   1
   2 -10   0 -0.4784 1.09055   2
  -2  10   0 -1.0584 0.95156   2
  -2  10   2 0.40945 1.93486  -2
  -2  10   0 0.40945 1.93486   1
   1 -10   0 0.16927 1.04246   2
  -1  10   2 4.36524 1.52404  -2
  -1  10   0 4.36524 1.52404   1
   0 -10   0 0.14395 0.93276   2
   0 -10   0 1.77094 0.99260   1
   1  10   0 0.20555 0.81236   2
   1  10   0 1.75459 0.88580   1
  -2 -10   0 17.2770 1.35157   1
  -2 -10   0 0.38487 0.79832   2
   2  10   0 0.86596 0.74984   2
   2  10   1 16.3644 2.07875  -2
   2  10   0 16.3644 2.07875   1
   2  10  -1 0.00094 0.73602   1
  -2 -10   1 -0.1403 0.65708   1
  -2 -10   1 -0.3445 0.80386   2
   1  10  -1 -0.1429 0.61955   2
   1  10  -1 1.44687 0.81641   1
   0 -10   1 0.22317 0.93501   1
   0 -10   1 0.65607 0.95288   2
  -1  10  -1 -0.1775 0.89851   2
  -1  10   1 2.26003 1.67444  -2
  -1  10  -1 2.26003 1.67444   1
   1 -10  -1 3.64998 2.05050  -2
   1 -10   1 3.64998 2.05050   1
   1 -10   1 -0.4616 0.97247   2
  -2  10  -1 1.01492 1.00676   1
  -2  10  -1 -0.8894 0.92686   2
   2 -10   1 0.41219 1.17695   2
   3   9  -1 31.9774 1.91731   1
  -3  -9   1 29.7111 1.98743   1
  -3  -9   1 0.74268 0.90702   2
   2   9  -1 0.09729 0.56980   2
   2   9  -1 2.76929 0.78561   1
  -2  -9   1 -0.1244 0.72903   2
  -2  -9   1 1.49919 0.79751   1
   1   9  -1 1.71949 0.76970   1
   1   9  -1 0.36736 0.65597   2
  -1  -9   1 0.26512 0.55264   2
   0   9  -1 -0.1361 0.71232   2
   0  -9   1 0.69249 0.75611   2
   0  -9   1 0.57284 0.74261   1
  -1   9  -1 -0.1382 0.69969   2
  -1   9   1 6.72306 1.30771  -2
  -1   9  -1 6.72306 1.30771   1
   1  -9  -1 10.4576 1.90310  -2
   1  -9   1 10.4576 1.90310   1
   1  -9   1 -0.4867 0.86178   2
  -2   9  -1 0.20959 0.82757   2
  -2   9   1 14.1195 1.75260  -2
  -2   9  -1 14.1195 1.75260   1
   2  -9  -1 13.1886 1.84988  -2
   2  -9   1 13.1886 1.84988   1
  -3   9  -1 -0.9419 1.37896   2
  -3   9  -1 22.4766 1.77811   1
   4   8  -1 56.3431 2.89973   1
  -4  -8   1 51.6655 2.87455   1
  -4  -8   1 2.64148 1.02195   2
   3   8  -1 1.40926 0.74594   1
   3   8  -1 0.15281 0.64836   2
  -3  -8   1 -0.0966 0.75692   2
  -3  -8   1 1.64278 0.80320   1
   2   8  -1 3.29634 0.73260   1
   2   8  -1 -0.1081 0.56395   2
  -2  -8   1 -0.0536 0.56280   2
  -2  -8   1 3.69892 0.77883   1
   1   8  -1 3.59282 0.71446   2
  -1  -8   1 1.64740 0.59294   2
  -1  -8   0 68.8867 3.26430  -2
  -1  -8   1 68.8867 3.26430   1
   0   8  -1 -0.0283 0.57254   2
   0   8  -1 6.06219 0.73454   1
   0  -8   1 0.27182 0.64943   2
   0  -8   1 6.92180 0.93367   1
  -1   8  -1 0.28920 0.64941   2
  -1   8   1 43.9026 2.23248  -2
  -1   8  -1 43.9026 2.23248   1
   1  -8   1 0.58586 0.74184   2
   1  -8   1 36.6251 2.14684   1
  -2   8   1 0.50209 1.05960  -2
  -2   8  -1 0.50209 1.05960   1
   2  -8  -1 0.32839 1.59207  -2
   2  -8   1 0.32839 1.59207   1
   2  -8   1 0.29943 0.85565   2
  -3   8  -1 0.56600 0.81267   2
  -3   8   1 4.62959 1.57929  -2
  -3   8  -1 4.62959 1.57929   1
   3  -8  -1 5.67800 1.66510  -2
   3  -8   1 5.67800 1.66510   1
   4   7  -1 1.22403 0.68703   1
   4   7  -1 -0.0741 0.71363   2
  -4  -7   1 0.85194 0.89748   2
  -4  -7   1 1.08508 0.84991   1
   3   7  -1 15.0286 1.21625   1
   3   7  -1 0.81162 0.62249   2
  -3  -7   1 0.65217 0.61679   2
  -3  -7   1 14.1732 1.28108   1
   2   7  -1 2.75016 0.64867   1
   2   7  -1 0.35601 0.50477   2
  -2  -7   1 3.34849 0.64775   1
  -2  -7   1 -0.6527 0.51904   2
   1   7  -1 0.42846 0.43589   2
   1   7  -1 1.10707 0.51807   2
   1   7   0 26.1011 1.45492  -2
   1   7  -1 26.1011 1.45492   1
  -1  -7   1 25.7468 1.39779   1
  -1  -7   1 0.73917 0.48074   2
   0   7  -1 15.5045 0.98088   1
   0   7  -1 -0.3134 0.45952   2
   0  -7   0 14.2369 1.43925  -2
   0  -7   1 14.2369 1.43925   1
   0  -7   1 0.53896 0.53950   2
  -1   7  -1 -0.3431 0.49711   2
  -1   7  -1 0.87431 0.53803   1
   1  -7   1 1.82580 0.66222   1
   1  -7   1 0.11206 0.57054   2
  -2   7   1 1.14521 1.05841  -2
  -2   7  -1 1.14521 1.05841   1
   2  -7   1 0.12479 0.73127   1
   2  -7   1 -0.1866 0.73753   2
  -3   7   1 18.1983 1.32171  -2
  -3   7  -1 18.1983 1.32171   1
   3  -7  -1 16.2236 1.77381  -2
   3  -7   1 16.2236 1.77381   1
  -4   7   1 1.07234 1.36396  -2
  -4   7  -1 1.07234 1.36396   1
  -4   7  -1 -0.2522 0.75405   2
   4  -7  -1 2.37345 1.72486  -2
   4  -7   1 2.37345 1.72486   1
   5   6  -1 -0.7893 0.81594   1
   5   6  -1 -0.8005 0.79615   2
  -5  -6   1 -0.2664 0.97043   1
  -5  -6   1 -0.3931 0.96486   2
   4   6  -1 0.83172 0.71632   1
   4   6  -1 0.50645 0.66201   2
  -4  -6   1 1.30717 0.97466   1
  -4  -6   1 -0.2722 0.74704   2
   3   6  -1 -0.0148 0.55414   2
   3   6  -1 10.2730 0.98907   1
  -3  -6   1 12.0697 1.06134   1
  -3  -6   1 0.70714 0.58241   2
   2   6  -1 -0.0385 0.44527   2
   2   6  -1 2.92669 0.54336   1
  -2  -6   1 3.61964 0.61867   1
  -2  -6   1 -0.0530 0.47320   2
   1   6  -1 0.05623 0.34644   2
   1   6  -1 -0.2623 0.37373   2
   1   6   0 0.71346 0.67139  -2
   1   6  -1 0.71346 0.67139   1
  -1  -6   1 0.14884 0.39284   2
  -1  -6   1 -0.2342 0.44877   1
  -1  -6   1 0.37385 0.38690   1
   0   6   0 22.7943 1.23838  -2
   0   6  -1 22.7943 1.23838   1
   0   6  -1 0.22240 0.37430   2
   0  -6   0 20.4508 1.11355  -2
   0  -6   1 20.4508 1.11355   1
   0  -6   0 23.6305 1.46643  -2
   0  -6   1 23.6305 1.46643   1
   0  -6   1 0.46587 0.31104   2
   0  -6   1 0.68247 0.46705   2
  -1   6  -1 99.5618 4.00989   1
  -1   6  -1 2.87561 0.50905   2
   1  -6   0 97.0289 4.65023  -2
   1  -6   1 97.0289 4.65023   1
  -2   6  -1 0.02658 0.48815   1
  -2   6  -1 0.52970 0.50609   2
   2  -6   1 0.00552 0.61742   1
   2  -6   1 -0.2850 0.61918   2
  -3   6   1 1.77216 1.09614  -2
  -3   6  -1 1.77216 1.09614   1
   3  -6   1 -0.5131 0.65720   2
   3  -6  -1 1.38152 1.41638  -2
   3  -6   1 1.38152 1.41638   1
  -4   6   1 1.42229 1.12003  -2
  -4   6  -1 1.42229 1.12003   1
   4  -6  -1 1.65205 1.38148  -2
   4  -6   1 1.65205 1.38148   1
   5   5  -1 14.3618 1.39835   1
   5   5  -1 0.25956 0.83327   2
  -5  -5   1 13.9578 1.51531   1
  -5  -5   1 0.92327 0.97697   2
   4   5  -1 16.7828 1.30174   1
   4   5  -1 0.64522 0.63303   2
  -4  -5   1 0.32371 0.72670   2
  -4  -5   1 16.8538 1.32750   1
   3   5  -1 1.68124 0.49430   2
   3   5  -1 25.0111 1.47099   1
  -3  -5   1 1.45314 0.54482   2
  -3  -5   1 26.2424 1.48494   1
   2   5  -1 24.5412 1.09509   1
   2   5  -1 1.37607 0.41731   2
   2   5  -1 0.45362 0.27420   2
  -2  -5   1 25.4735 1.34490   1
  -2  -5   1 0.80689 0.44277   2
   1   5  -1 30.2697 1.35035   1
   1   5  -1 2.39791 0.40074   2
   1   5  -1 0.68441 0.28847   2
  -1  -5   1 1.61806 0.37408   2
  -1  -5   1 33.3147 1.51650   1
   0   5   0 4.25528 0.58248  -2
   0   5  -1 4.25528 0.58248   1
   0  -5   1 0.24337 0.26947   2
   0  -5   1 -0.0618 0.36925   2
   0  -5   0 5.56823 0.84491  -2
   0  -5   1 5.56823 0.84491   1
   0  -5   0 4.42477 0.60973  -2
   0  -5   1 4.42477 0.60973   1
  -1   5  -1 1.91057 0.39052   2
  -1   5   0 78.0876 3.17041  -2
  -1   5  -1 78.0876 3.17041   1
   1  -5   0 75.7075 3.69023  -2
   1  -5   1 75.7075 3.69023   1
   1  -5   0 77.8497 3.25076  -2
   1  -5   1 77.8497 3.25076   1
  -2   5  -1 11.2016 0.80150   1
  -2   5  -1 0.43335 0.45866   2
   2  -5   0 11.0974 1.19927  -2
   2  -5   1 11.0974 1.19927   1
   2  -5   1 -0.0027 0.48514   2
  -3   5  -1 0.38279 0.51598   2
  -3   5  -1 8.94091 0.89354   1
   3  -5   1 0.63853 0.62333   2
   3  -5   1 10.8376 1.04340   1
  -4   5   1 6.21407 1.20386  -2
  -4   5  -1 6.21407 1.20386   1
   4  -5  -1 8.01301 1.51089  -2
   4  -5   1 8.01301 1.51089   1
  -5   5   1 0.11112 1.32290  -2
  -5   5  -1 0.11112 1.32290   1
   5  -5  -1 0.03996 1.50172  -2
   5  -5   1 0.03996 1.50172   1
   5   4  -1 0.01118 0.73945   2
   5   4  -1 8.48247 1.13763   1
  -5  -4   1 -0.1049 0.84437   2
  -5  -4   1 9.38888 1.13485   1
   4   4  -1 421.627 19.4554   1
  -4  -4   1 446.767 18.0853   1
  -4  -4   1 40.5508 2.13537   2
   3   4  -1 -0.0418 0.44258   2
   3   4  -1 3.54390 0.58111   1
  -3  -4   1 4.54507 0.65494   1
  -3  -4   1 -0.0830 0.46740   2
   2   4  -1 1.08703 0.24201   2
   2   4  -1 1.44289 0.38897   2
   2   4  -1 23.7569 1.18121   1
   2   4  -1 20.8337 0.94718   1
  -2  -4   1 21.3005 1.15999   1
  -2  -4   1 0.86091 0.38118   2
   1   4  -1 18.1792 0.87850   2
   1   4  -1 299.802 13.0440   1
   1   4  -1 287.850 11.1258   1
  -1  -4   1 12.3158 0.82643   2
  -1  -4   1 288.579 12.0992   1
   0   4   0 50.4345 2.07186  -2
   0   4  -1 50.4345 2.07186   1
   0  -4   1 39.2846 1.67165   1
   0  -4   1 36.4606 1.84624   1
   0  -4   1 1.44554 0.33881   2
  -1   4   0 2.74275 0.48291  -2
  -1   4  -1 2.74275 0.48291   1
   1  -4   0 2.84031 0.69210  -2
   1  -4   1 2.84031 0.69210   1
   1  -4   0 3.17741 0.30753  -2
   1  -4   1 3.17741 0.30753   1
  -2   4   0 25.3209 1.29913  -2
  -2   4  -1 25.3209 1.29913   1
   2  -4   0 26.0475 1.52642  -2
   2  -4   1 26.0475 1.52642   1
  -3   4  -1 0.44555 0.43911   2
  -3   4  -1 2.46979 0.50497   1
   3  -4   1 0.15374 0.50422   2
   3  -4   1 3.10232 0.64677   1
  -4   4  -1 70.6821 2.95801   1
   4  -4   1 0.64772 0.63192   2
   4  -4   1 67.9643 3.47130   1
  -5   4   1 11.1032 1.38833  -2
  -5   4  -1 11.1032 1.38833   1
   5  -4  -1 9.96391 1.63221  -2
   5  -4   1 9.96391 1.63221   1
   6   3  -1 -0.0217 0.84247   1
   5   3  -1 0.56460 0.68019   1
   5   3  -1 -0.0679 0.63169   2
  -5  -3   1 -0.2600 0.75464   2
  -5  -3   1 0.21768 0.79043   1
   4   3  -1 12.4767 1.10711   1
   4   3  -1 1.24421 0.59280   2
  -4  -3   1 1.23734 0.66936   2
  -4  -3   1 15.9423 1.14775   1
   3   3  -1 0.17556 0.40859   2
   3   3  -1 0.49710 0.27891   2
   3   3  -1 9.51428 0.57356   1
   3   3  -1 9.33943 0.78056   1
  -3  -3   1 0.71338 0.45745   2
  -3  -3   1 10.4494 0.80509   1
   2   3  -1 2.15413 0.37329   1
   2   3  -1 1.93915 0.25447   1
   2   3  -1 -0.0850 0.20575   2
   2   3  -1 0.17141 0.30040   2
  -2  -3   1 1.57448 0.64103  -2
  -2  -3   1 1.57448 0.64103   1
   1   3  -1 2.00825 0.23642   1
   1   3  -1 2.46609 0.30762   1
   1   3  -1 0.10555 0.17144   2
   1   3  -1 0.26780 0.20597   2
  -1  -3   1 0.04395 0.24859   2
  -1  -3   1 1.88609 0.31670   1
   0   3  -1 0.18214 0.19871   2
   0   3  -1 3.04637 0.28498   1
   0  -3   1 2.91011 0.34447   1
   0  -3   1 2.40456 0.28243   1
   0  -3   1 -0.2247 0.16144   2
   0  -3   1 0.07622 0.20112   2
  -1   3  -1 33.6144 1.42594   1
   1  -3   1 34.7518 1.67969   1
   1  -3   1 1.46022 0.31611   2
   1  -3   1 0.46316 0.15428   2
  -2   3   0 53.3448 2.21288  -2
  -2   3  -1 53.3448 2.21288   1
   2  -3   0 54.7684 2.62081  -2
   2  -3   1 54.7684 2.62081   1
  -3   3   0 62.2155 2.63637  -2
  -3   3  -1 62.2155 2.63637   1
   3  -3   0 62.5397 3.10832  -2
   3  -3   1 62.5397 3.10832   1
  -4   3  -1 8.46999 0.79031   1
  -4   3  -1 0.36261 0.48006   2
   4  -3   1 8.20675 0.98633   1
   4  -3   1 0.87084 0.59896   2
  -5   3  -1 6.46001 0.81982   1
   5  -3   1 0.01038 0.80010   2
   5  -3   1 8.70721 1.11423   1
   6   2  -1 10.1413 1.30685   1
   6   2  -1 0.40694 0.84990   2
   5   2  -1 0.11449 0.71175   2
   5   2  -1 0.59363 0.70321   1
  -5  -2   1 0.29375 0.80005   1
  -5  -2   1 -0.5881 0.73178   2
   4   2  -1 0.34590 0.53503   2
   4   2  -1 10.5188 0.97200   1
  -4  -2   1 0.21929 0.58079   2
  -4  -2   1 11.7415 0.98983   1
   3   2  -1 37.1427 1.56535   1
   3   2  -1 38.4065 1.90103   1
   3   2  -1 1.53558 0.31134   2
   3   2  -1 4.84324 0.60374   2
  -3  -2   1 37.3213 1.78664   1
  -3  -2   1 1.93481 0.44191   2
   2   2  -1 25.6384 1.05162   1
   2   2  -1 24.9960 1.27363   1
   2   2  -1 1.00573 0.21154   2
   2   2  -1 1.85632 0.34634   2
  -2  -2   1 24.9503 1.21961   1
  -2  -2   1 1.01474 0.30681   2
   1   2  -1 0.62059 0.15998   2
   1   2  -1 0.97231 0.21397   2
   1   2  -1 14.9618 0.75302   1
   1   2  -1 14.3523 0.63086   1
  -1  -2   1 15.1010 0.80838  -2
  -1  -2   1 15.1010 0.80838   1
   0   2  -1 0.27506 0.16676   2
   0   2  -1 8.36413 0.40753   1
   0  -2   1 0.44324 0.16554   2
   0  -2   1 0.64864 0.16000   2
   0  -2   1 7.95990 0.42739   1
   0  -2   1 7.79776 0.46670   1
  -1   2  -1 105.385 4.11438   1
  -1   2  -1 4.01412 0.32783   2
   1  -2   1 107.826 4.82463   1
   1  -2   1 4.03872 0.38559   2
  -2   2   0 7.52985 0.57615  -2
  -2   2  -1 7.52985 0.57615   1
   2  -2   0 5.81613 0.70320  -2
   2  -2   1 5.81613 0.70320   1
  -3   2   0 49.0119 2.06867  -2
  -3   2  -1 49.0119 2.06867   1
   3  -2   0 49.0995 2.46501  -2
   3  -2   1 49.0995 2.46501   1
  -4   2   0 0.35094 0.75434  -2
  -4   2  -1 0.35094 0.75434   1
   4  -2   0 0.31969 1.12817  -2
   4  -2   1 0.31969 1.12817   1
  -5   2  -1 0.16868 0.52671   1
  -5   2  -1 -0.7488 0.51811   2
   5  -2   1 0.09719 0.57300   2
   5  -2   1 1.17549 0.67403   1
   6  -2   1 0.46136 0.81276   2
   6   1  -1 0.00718 0.75507   2
   6   1  -1 3.56091 0.88781   1
   5   1  -1 -0.0781 0.65379   1
   4   1  -1 7.29146 0.82102   1
   4   1  -1 0.68824 0.56513   2
  -4  -1   1 0.14363 0.54399   2
  -4  -1   1 0.08765 0.30750   2
  -4  -1   1 5.90664 0.61022   1
  -4  -1   1 7.21894 0.87453   1
   3   1  -1 36.3695 1.85048   1
   3   1  -1 37.2440 1.55697   1
   3   1  -1 1.73906 0.41503   2
  -3  -1   1 0.62160 0.36662   2
  -3  -1   1 1.60884 0.31792   2
  -3  -1   1 36.6299 1.72036   1
   2   1  -1 2.55569 0.29751   2
   2   1  -1 6.28958 0.48221   2
   2   1  -1 73.8389 2.87751   1
   2   1  -1 75.4866 3.39011   1
  -2  -1   1 3.82735 0.42113   2
  -2  -1   1 71.9000 3.13931   1
   1   1  -1 2.82023 0.28052   2
   1   1  -1 1.70080 0.18372   2
   1   1  -1 42.9192 1.89922   1
   1   1  -1 42.2015 1.62010   1
  -1  -1   1 39.1182 1.77442   1
   0   1  -1 703.923 26.3156   1
   0   1  -1 29.0509 1.23101   2
   0  -1   1 685.034 30.8136   1
   0  -1   1 697.397 28.5281   1
   0  -1   1 33.9487 1.33508   2
  -1   1  -1 499.636 19.0353   1
  -1   1  -1 19.4838 0.79371   2
  -1   1  -1 18.1015 0.81855   2
   1  -1   1 504.579 22.2910   1
  -2   1  -1 0.88407 0.21152   2
  -2   1  -1 0.47797 0.20018   2
  -2   1  -1 30.6601 1.23509   1
  -2   1  -1 27.7044 1.27626   1
   2  -1   1 29.5101 1.45246   1
   2  -1   1 1.27785 0.29164   2
  -3   1   0 3.83890 0.54830  -2
  -3   1  -1 3.83890 0.54830   1
  -3   1   0 4.82750 0.58818  -2
  -3   1  -1 4.82750 0.58818   1
   3  -1   0 5.87080 0.73367  -2
   3  -1   1 5.87080 0.73367   1
  -4   1   0 2.37575 0.68708  -2
  -4   1  -1 2.37575 0.68708   1
   4  -1   0 3.01584 0.97838  -2
   4  -1   1 3.01584 0.97838   1
   5  -1   1 15.8327 1.30342   1
   5  -1   1 -0.1737 0.63979   2
   6  -1   1 0.31493 0.88658   2
   6  -1   1 0.75539 0.89590   1
   6   0  -1 0.60479 0.85644   2
   6   0  -1 4.06248 1.02405   1
   5   0  -1 2.56416 0.69049   1
   5   0  -1 0.68795 0.59335   2
   4   0  -1 8.60383 0.82996   1
  -4   0   1 8.98723 0.88330   1
  -4   0   1 7.61369 0.65838   1
   3   0  -1 58.7674 2.80354   1
   3   0  -1 2.91787 0.48613   2
  -3   0   1 57.2351 2.56084   1
  -3   0   1 59.6146 2.36573   1
  -3   0   1 2.16307 0.32620   2
   2   0  -1 95.1878 3.66687   1
   2   0  -1 93.8627 4.29778   1
   2   0  -1 5.33551 0.46912   2
  -2   0   1 4.52564 0.33806   2
  -2   0   1 2.56633 0.30903   2
  -2   0   1 93.7758 3.95501   1
   1   0  -1 21.9704 0.83744   2
   1   0  -1 532.015 20.1666   1
   1   0  -1 532.758 23.6034   1
  -1   0   1 18.5479 0.88421   2
  -1   0   1 531.868 21.8515   1
   0   0  -1 77.9957 2.96430   1
   0   0  -1 2.64234 0.13094   2
   0   0   1 76.5710 3.16585  -2
   0   0   1 76.5710 3.16585   1
  -1   0  -1 28.0606 1.42213   2
  -1   0  -1 38.9282 1.31220   2
  -1   0  -1 757.594 28.9088   1
  -1   0  -1 776.748 31.3476   1
   1   0   1 757.602 33.8607   1
  -2   0  -1 3.21024 0.29943   1
  -2   0  -1 2.96972 0.35967   1
  -2   0  -1 0.09624 0.16868   2
  -2   0  -1 0.09766 0.22597   2
   2   0   1 0.23189 0.26765   2
   2   0   1 3.42507 0.39358   1
  -3   0  -1 -0.1300 0.21468   2
  -3   0  -1 0.03316 0.28088   2
  -3   0  -1 0.65189 0.34702   1
  -3   0  -1 0.31007 0.25987   1
   3   0   1 0.22993 0.37035   2
   3   0   1 0.21983 0.37753   1
  -4   0   0 57.6244 2.67305  -2
  -4   0  -1 57.6244 2.67305   1
  -4   0   0 56.1144 2.39740  -2
  -4   0  -1 56.1144 2.39740   1
   4   0   0 58.4765 2.92364  -2
   4   0   1 58.4765 2.92364   1
   5   0   0 26.8821 1.87671  -2
   5   0   1 26.8821 1.87671   1
   6   0   1 1.06680 0.84985   2
   6   0   1 18.5917 1.61065   1
   6  -1  -1 16.3707 1.46740   1
   6  -1  -1 0.08401 0.76217   2
   5  -1  -1 4.55637 0.85525   1
   5  -1  -1 1.06249 0.73886   2
  -5   1   1 4.68768 0.70116   1
  -5   1   1 0.14914 0.43727   2
   4  -1  -1 0.07100 0.51325   1
  -4   1   1 0.11434 0.41549   1
   3  -1  -1 0.36898 0.36794   2
   3  -1  -1 0.08833 0.36016   1
  -3   1   1 0.19188 0.29920   1
  -3   1   1 0.44619 0.29640   1
   2  -1  -1 4.54025 0.45450   2
   2  -1  -1 107.577 4.88422   1
  -2   1   1 106.022 4.46059   1
  -2   1   1 108.163 4.16790   1
  -2   1   1 2.32078 0.27507   2
  -2   1   1 3.25478 0.35659   2
   1  -1  -1 28.0241 1.34820   1
   1  -1  -1 1.28156 0.22823   2
  -1   1   1 1.02513 0.20109   2
  -1   1   1 28.8368 1.15586   1
   0  -1  -1 677.355 27.7020   1
   0  -1  -1 689.971 29.9220   1
   0   1   1 23.8043 0.93393   2
   0   1   1 659.112 25.5519   1
  -1  -1  -1 411.443 16.2976  -2
  -1  -1  -1 411.443 16.2976   1
  -1  -1  -1 374.056 15.0393  -2
  -1  -1  -1 374.056 15.0393   1
   1   1   1 402.430 17.5890  -2
   1   1   1 402.430 17.5890   1
  -2  -1  -1 11.4166 0.70069   2
  -2  -1  -1 14.3167 0.58322   2
  -2  -1  -1 239.059 9.11315   1
  -2  -1  -1 240.362 9.92760   1
   2   1   1 265.891 11.8859  -2
   2   1   1 265.891 11.8859   1
  -3  -1  -1 81.7288 3.50451   1
  -3  -1  -1 83.1058 3.17693   1
  -3  -1  -1 2.94687 0.46391   2
  -3  -1  -1 3.64755 0.38824   2
   3   1   1 5.55050 0.59243   2
   3   1   1 78.7291 3.79783   1
  -4  -1  -1 13.5533 0.97054   1
   4   1   1 12.2956 1.00330   1
   4   1   1 1.35132 0.53086   2
   5   1   0 7.97399 1.36510  -2
   5   1   1 7.97399 1.36510   1
   6   1   1 -0.0725 0.70116   2
   6   1   1 1.16583 0.75883   1
   6  -2  -1 3.22610 0.94988   1
   5  -2  -1 0.64453 0.68908   2
   5  -2  -1 2.28138 0.73689   1
  -5   2   1 0.73732 0.54779   2
  -5   2   1 3.47434 0.64706   1
   4  -2  -1 3.32107 0.66654   1
   4  -2  -1 0.47876 0.51453   2
  -4   2   1 0.35591 0.41750   2
  -4   2   1 3.10923 0.55222   1
   3  -2  -1 0.25821 0.39443   1
  -3   2   1 0.19305 0.33633   1
   2  -2  -1 256.572 11.5085   1
   2  -2  -1 9.41883 0.67104   2
  -2   2   2 290.495 11.1149  -2
  -2   2   1 290.495 11.1149   1
   1  -2  -1 45.8089 2.03243   2
   1  -2  -1 1078.86 48.0333   1
  -1   2   1 1087.94 41.0287   1
  -1   2   1 40.2201 1.73486   2
   0  -2  -1 32.7089 1.40333   1
   0  -2  -1 33.3212 1.54199   1
   0  -2  -1 0.96339 0.17319   2
   0  -2  -1 1.24214 0.23274   2
   0   2   1 32.5400 1.29973   1
   0   2   1 1.12419 0.16072   2
  -1  -2  -1 45.5089 1.97686  -2
  -1  -2  -1 45.5089 1.97686   1
   1   2   1 45.3911 2.10163  -2
   1   2   1 45.3911 2.10163   1
  -2  -2  -1 83.5577 3.63025  -2
  -2  -2  -1 83.5577 3.63025   1
   2   2   1 85.7978 3.88918  -2
   2   2   1 85.7978 3.88918   1
  -3  -2  -1 29.3354 1.41548   1
  -3  -2  -1 27.2859 1.14465   1
   3   2   1 26.7111 1.46581   1
   3   2   1 3.28140 0.49583   2
  -4  -2  -1 0.31129 0.52046   2
  -4  -2  -1 8.23640 0.88218   1
   4   2   1 -0.0650 0.51575   2
   4   2   1 8.21029 0.89374   1
  -5  -2  -1 0.36420 0.78123   1
   5   2   0 0.96727 1.26709  -2
   5   2   1 0.96727 1.26709   1
   6   2   0 11.8793 1.88637  -2
   6   2   1 11.8793 1.88637   1
   5  -3  -1 -0.2689 0.69868   2
   5  -3  -1 0.63601 0.75672   1
  -5   3   1 0.17065 0.51213   1
  -5   3   1 0.11927 0.62753   2
   4  -3  -1 3.34362 0.74071   1
   4  -3  -1 -0.1221 0.59782   2
  -4   3   1 -0.1208 0.45085   2
  -4   3   1 3.82251 0.64977   1
   3  -3  -1 3.46027 0.60659   1
  -3   3   1 3.28732 0.50741   1
   2  -3  -2 96.1486 4.58521  -2
   2  -3  -1 96.1486 4.58521   1
  -2   3   2 101.226 3.92989  -2
  -2   3   1 101.226 3.92989   1
   1  -3  -2 13.7375 0.94001  -2
   1  -3  -1 13.7375 0.94001   1
  -1   3   1 11.9370 0.62707   1
   0  -3  -1 0.08196 0.21265   2
   0  -3  -1 0.26570 0.17328   2
   0  -3  -1 3.31153 0.31439   1
   0  -3  -1 2.87822 0.35561   1
   0   3   1 0.04423 0.17255   2
   0   3   1 3.05414 0.27662   1
  -1  -3  -1 -0.3057 0.24003   1
  -1  -3  -1 -0.6001 0.20480   2
   1   3   1 -0.1469 0.48091  -2
   1   3   1 -0.1469 0.48091   1
   1   3   1 0.07540 0.14348   2
   1   3   1 0.18160 0.13804   1
  -2  -3  -1 12.1465 0.80101  -2
  -2  -3  -1 12.1465 0.80101   1
   2   3   1 14.7010 0.87540  -2
   2   3   1 14.7010 0.87540   1
  -3  -3  -1 40.5859 2.04217  -2
  -3  -3  -1 40.5859 2.04217   1
   3   3   1 41.3709 2.12812  -2
   3   3   1 41.3709 2.12812   1
  -4  -3  -1 -0.0395 1.24192  -2
  -4  -3  -1 -0.0395 1.24192   1
   4   3   1 0.52654 0.62229   1
   4   3   1 -0.0158 0.53606   2
  -5  -3  -1 21.3217 1.54263   1
   5   3   1 0.54275 0.69225   2
   5   3   1 18.8999 1.44881   1
   6   3   0 2.16779 1.61135  -2
   6   3   1 2.16779 1.61135   1
   5  -4  -1 4.29529 0.98405   1
  -5   4   1 5.17350 0.83560   1
   4  -4  -1 10.5484 1.08525   1
   4  -4  -1 0.05559 0.62614   2
  -4   4   1 0.52389 0.49567   2
  -4   4   1 8.72085 0.85318   1
   3  -4  -1 17.1570 1.16502   1
   3  -4  -1 0.73917 0.55302   2
  -3   4   1 14.4573 0.93430   1
  -3   4   1 0.13177 0.42855   2
   2  -4  -2 11.2447 1.01901  -2
   2  -4  -1 11.2447 1.01901   1
  -2   4   2 10.0207 0.84455  -2
  -2   4   1 10.0207 0.84455   1
   1  -4  -2 -0.0355 0.63181  -2
   1  -4  -1 -0.0355 0.63181   1
  -1   4   2 0.02069 0.44786  -2
  -1   4   1 0.02069 0.44786   1
   0  -4  -1 0.44897 0.22410   1
   0  -4  -1 1.58215 0.36464   1
   0   4   1 0.56600 0.24198   1
  -1  -4  -1 20.4079 1.06056   1
  -1  -4  -1 -0.0008 0.27822   2
   1   4   1 0.40849 0.21615   2
   1   4   1 1.79761 0.33963   2
   1   4   1 21.1544 0.88498   1
  -2  -4  -1 12.4963 0.98422  -2
  -2  -4  -1 12.4963 0.98422   1
   2   4   1 13.1706 0.62138  -2
   2   4   1 13.1706 0.62138   1
   2   4   1 14.5795 0.98945  -2
   2   4   1 14.5795 0.98945   1
  -3  -4  -1 10.3100 1.07155  -2
  -3  -4  -1 10.3100 1.07155   1
   3   4   1 10.6770 0.92688  -2
   3   4   1 10.6770 0.92688   1
  -4  -4  -1 4.62181 1.35244  -2
  -4  -4  -1 4.62181 1.35244   1
   4   4   1 6.59284 0.84089   1
   4   4   1 0.97393 0.61674   2
  -5  -4  -1 0.16631 0.81834   2
  -5  -4  -1 8.71912 1.07533   1
   5   4   1 0.44118 0.68022   2
   5   4   1 5.53818 0.97403   1
  -6  -4  -1 0.51665 0.95842   2
  -6  -4  -1 0.81580 1.20027   1
   6   4   0 1.64843 1.55774  -2
   6   4   1 1.64843 1.55774   1
   5  -5  -1 18.6679 1.59791   1
  -5   5   1 16.4868 1.31940   1
   4  -5  -1 3.80233 0.87479   1
  -4   5   1 1.71544 0.60238   1
   3  -5  -1 -0.1209 0.60433   2
   3  -5  -1 20.6721 1.42574   1
  -3   5   1 21.2897 1.20690   1
  -3   5   1 0.75102 0.52929   2
   2  -5  -2 20.0677 1.49734  -2
   2  -5  -1 20.0677 1.49734   1
  -2   5   1 20.6402 1.08216   1
  -2   5   1 0.69243 0.43072   2
   1  -5  -2 18.5819 1.23906  -2
   1  -5  -1 18.5819 1.23906   1
  -1   5   2 18.7002 1.03848  -2
  -1   5   1 18.7002 1.03848   1
   0  -5  -2 95.1549 4.56330  -2
   0  -5  -1 95.1549 4.56330   1
   0  -5  -2 102.778 4.14437  -2
   0  -5  -1 102.778 4.14437   1
   0   5   2 95.4300 3.85037  -2
   0   5   1 95.4300 3.85037   1
  -1  -5  -1 40.4235 1.75797   1
  -1  -5  -1 35.4083 1.90516   1
  -1  -5  -1 1.00740 0.32535   2
   1   5   1 1.03684 0.28221   2
   1   5   2 43.2583 1.78269  -2
   1   5   1 43.2583 1.78269   1
  -2  -5  -1 5.75139 0.94242  -2
  -2  -5  -1 5.75139 0.94242   1
   2   5   1 4.95896 0.60004   1
   2   5   1 0.03587 0.36181   2
  -3  -5  -1 826.206 34.7479  -2
  -3  -5  -1 826.206 34.7479   1
   3   5   1 857.554 37.4862  -2
   3   5   1 857.554 37.4862   1
  -4  -5  -1 31.7009 1.99716  -2
  -4  -5  -1 31.7009 1.99716   1
   4   5   1 28.0380 1.94081  -2
   4   5   1 28.0380 1.94081   1
  -5  -5  -1 0.88179 1.83789  -2
  -5  -5  -1 0.88179 1.83789   1
   5   5   1 0.65902 0.89632   1
   5   5   1 -0.2394 0.80054   2
   4  -6  -3 8.44513 1.69218  -2
   4  -6  -1 8.44513 1.69218   1
  -4   6   3 4.85410 1.42332  -2
  -4   6   1 4.85410 1.42332   1
   3  -6  -3 8.07284 1.58450  -2
   3  -6  -1 8.07284 1.58450   1
  -3   6   1 7.73965 0.88177   1
   2  -6  -1 47.8951 2.57667   1
   2  -6  -1 0.83939 0.67260   2
  -2   6   1 1.31060 0.52504   2
  -2   6   1 51.3955 2.19715   1
   1  -6  -2 16.7538 1.39031  -2
   1  -6  -1 16.7538 1.39031   1
  -1   6   1 18.6991 1.04451   1
   0  -6  -2 60.9182 2.86915  -2
   0  -6  -1 60.9182 2.86915   1
   0  -6  -2 58.3393 2.53779  -2
   0  -6  -1 58.3393 2.53779   1
   0   6   2 54.4148 2.42112  -2
   0   6   1 54.4148 2.42112   1
  -1  -6  -1 0.83626 0.47222   2
  -1  -6  -2 10.0216 0.85499  -2
  -1  -6  -1 10.0216 0.85499   1
   1   6   2 7.04175 0.55962  -2
   1   6   1 7.04175 0.55962   1
  -2  -6  -1 47.7807 2.25850   1
  -2  -6  -1 3.25396 0.58117   2
   2   6   1 2.79827 0.53753   2
   2   6   1 47.4472 2.38741   1
  -3  -6  -1 36.0707 2.12914  -2
  -3  -6  -1 36.0707 2.12914   1
   3   6   1 35.4832 2.15543  -2
   3   6   1 35.4832 2.15543   1
  -4  -6  -1 24.3761 1.74013  -2
  -4  -6  -1 24.3761 1.74013   1
   4   6   1 33.3457 1.97665  -2
   4   6   1 33.3457 1.97665   1
  -5  -6  -1 0.41096 0.99271   2
  -5  -6  -1 0.81395 0.92562   1
   5   6   1 -0.3932 0.83730   1
   5   6   1 -0.2675 0.81995   2
   4  -7  -3 0.91766 2.00911  -2
   4  -7  -1 0.91766 2.00911   1
  -4   7   3 -1.0325 1.50386  -2
  -4   7   1 -1.0325 1.50386   1
   3  -7  -3 -0.1415 1.56277  -2
   3  -7  -1 -0.1415 1.56277   1
  -3   7   3 0.79609 1.26067  -2
  -3   7   1 0.79609 1.26067   1
   2  -7  -1 38.0021 2.17585   1
   2  -7  -1 0.59684 0.71408   2
  -2   7   3 43.1459 2.20060  -2
  -2   7   1 43.1459 2.20060   1
   1  -7  -1 0.40057 0.60210   2
   1  -7  -1 11.4565 1.10667   1
  -1   7   1 0.08947 0.50258   2
  -1   7   1 12.9031 0.96323   1
   0  -7  -2 1.44292 0.96797  -2
   0  -7  -1 1.44292 0.96797   1
   0   7   1 -0.1066 0.45537   2
   0   7   1 0.98872 0.47349   1
  -1  -7  -2 3.08028 0.81356  -2
  -1  -7  -1 3.08028 0.81356   1
  -2  -7  -1 1.41782 0.56337   2
  -2  -7  -2 5.05544 1.15243  -2
  -2  -7  -1 5.05544 1.15243   1
   2   7   1 0.23663 0.51547   2
   2   7   2 5.77129 1.08971  -2
   2   7   1 5.77129 1.08971   1
  -3  -7  -1 4.32399 0.79691   1
  -3  -7  -1 -0.1069 0.62009   2
   3   7   1 3.56165 0.80163   1
   3   7   1 -0.0813 0.61939   2
  -4  -7  -1 -0.4307 0.75073   1
  -4  -7  -1 0.77274 0.81778   2
   4   7   1 -0.2745 0.61662   1
   4   7   1 -0.2785 0.62629   2
  -5  -7  -1 0.33237 1.01936   2
  -5  -7  -1 0.45619 1.01548   1
   5   7   1 -1.3642 1.77981  -2
   5   7   1 -1.3642 1.77981   1
   3  -8  -3 0.49495 1.73672  -2
   3  -8  -1 0.49495 1.73672   1
  -3   8   3 -0.7621 1.44678  -2
  -3   8   1 -0.7621 1.44678   1
   2  -8  -3 0.08321 1.64257  -2
   2  -8  -1 0.08321 1.64257   1
  -2   8   3 -0.2899 1.20044  -2
  -2   8   1 -0.2899 1.20044   1
   1  -8  -1 3.07132 0.80828   1
   1  -8  -1 1.63365 0.75333   2
  -1   8   3 2.31502 1.31464  -2
  -1   8   1 2.31502 1.31464   1
   0  -8  -1 0.38780 0.65781   2
   0  -8  -1 6.96315 0.94528   1
   0   8   1 7.47682 0.76175   1
   0   8   1 0.20452 0.55632   2
  -1  -8  -2 -0.4476 0.85342  -2
  -1  -8  -1 -0.4476 0.85342   1
  -2  -8  -2 7.49570 1.21215  -2
  -2  -8  -1 7.49570 1.21215   1
   2   8   2 5.72957 1.16614  -2
   2   8   1 5.72957 1.16614   1
  -3  -8  -1 0.12213 0.71912   2
  -3  -8  -1 0.18958 0.70445   1
   3   8   1 0.38540 0.68635   1
   3   8   1 0.23959 0.70603   2
  -4  -8  -1 0.26544 0.83377   2
  -4  -8  -1 2.34306 0.95184   1
   4   8   1 3.32792 0.98551   1
   4   8   1 -0.4125 0.70209   2
  -3   9   1 -0.1975 0.89498   2
   2  -9  -3 25.6343 2.22097  -2
   2  -9  -1 25.6343 2.22097   1
  -2   9   3 27.9104 2.04370  -2
  -2   9   1 27.9104 2.04370   1
   1  -9  -3 2.46049 1.73126  -2
   1  -9  -1 2.46049 1.73126   1
  -1   9   3 -0.9376 1.13300  -2
  -1   9   1 -0.9376 1.13300   1
   0  -9  -1 0.83124 0.74499   2
   0  -9  -1 40.7882 2.34081   1
  -2  -9  -2 0.90356 0.95875  -2
  -2  -9  -1 0.90356 0.95875   1
   2   9   2 0.77293 1.17421  -2
   2   9   1 0.77293 1.17421   1
  -3  -9  -1 0.77840 0.86097   2
  -3  -9  -1 46.8448 2.52234   1
   3   9   1 1.13870 0.84526   2
   3   9   2 48.9838 2.95382  -2
   3   9   1 48.9838 2.95382   1
   4   9   1 -0.1388 0.69341   2
   4   9   1 8.49247 1.19320   1
  -2  10   3 6.05082 1.99105  -2
  -2  10   1 6.05082 1.99105   1
  -2  10   1 -0.8656 0.93966   2
   1 -10  -3 2.18734 1.74574  -2
   1 -10  -1 2.18734 1.74574   1
   0 -10  -1 -0.1601 0.91198   2
   0 -10  -1 1.71142 0.96063   1
   1  10   1 1.06316 0.85550   1
   1  10   1 -0.9117 0.77658   2
  -2 -10  -1 1.21401 0.71052   2
   2  10   2 12.3749 1.81296  -2
   2  10   1 12.3749 1.81296   1
  -3 -10  -1 0.07024 0.71249   2
  -3 -10  -2 2.81302 1.12921  -2
  -3 -10  -1 2.81302 1.12921   1
   3  10   1 -0.1883 0.73017   2
   3  10   2 3.64234 1.55580  -2
   3  10   1 3.64234 1.55580   1
  -2 -10   2 -0.0105 0.80797   2
  -2 -10   2 -0.2959 0.67107   1
   1  10  -2 9.84083 1.17234   1
   0 -10   2 -0.2919 0.94406   1
  -1  10  -2 -0.3640 0.94387   2
  -1  10   0 -2.0155 1.71295  -2
  -1  10  -2 -2.0155 1.71295   1
   1 -10   2 0.44251 0.98487   2
   1 -10   2 0.40493 1.04488   1
  -3  -9   2 9.42983 1.21198   1
  -3  -9   2 -0.3497 0.83469   2
   2   9  -2 -0.6030 0.65342   1
  -2  -9   2 1.13822 0.76294   1
  -2  -9   2 0.19192 0.68591   2
   1   9  -2 0.40815 0.63404   2
   1   9  -2 3.73522 0.79571   1
  -1  -9   2 -0.3480 0.56293   2
   0   9  -2 11.9299 1.15040   1
   0   9  -2 -0.8773 0.66835   2
   0  -9   2 11.1790 1.24029   1
   0  -9   2 0.39532 0.80489   2
  -1   9  -2 -0.5527 0.74673   2
  -1   9   0 11.8445 1.52614  -2
  -1   9  -2 11.8445 1.52614   1
   1  -9   2 8.21698 1.23639   1
   1  -9   2 -0.1176 0.83079   2
  -2   9   0 1.80072 1.65347  -2
  -2   9  -2 1.80072 1.65347   1
  -2   9  -2 -0.5954 0.85995   2
   2  -9   2 0.29367 0.95684   2
   2  -9   0 1.61292 1.78118  -2
   2  -9   2 1.61292 1.78118   1
   3  -9   2 0.36979 1.18484   2
  -4  -8   2 0.65893 0.91476   2
  -4  -8   2 0.70043 0.92671   1
   3   8  -2 1.14428 0.69121   1
  -3  -8   2 0.44284 0.74548   1
  -3  -8   2 -0.1297 0.70904   2
   2   8  -2 -0.0303 0.53972   2
   2   8  -2 -0.0686 0.59296   1
  -2  -8   2 0.22657 0.61401   1
  -2  -8   2 -0.2232 0.62844   2
   1   8  -2 0.30153 0.58446   2
  -1  -8   2 0.01127 0.57705   2
  -1  -8   2 2.06974 0.61165   1
   0   8  -2 61.4471 2.61194   1
   0   8  -2 0.81638 0.61714   2
   0  -8   2 1.23779 0.64565   2
   0  -8   2 57.0843 3.04451   1
  -1   8  -2 -0.2693 0.62856   2
  -1   8   0 11.6938 1.44597  -2
  -1   8  -2 11.6938 1.44597   1
   1  -8   2 -0.5524 0.68884   2
   1  -8   2 10.0461 1.17797   1
  -2   8   0 63.2309 2.83387  -2
  -2   8  -2 63.2309 2.83387   1
  -2   8  -2 0.53660 0.69409   2
   2  -8   0 56.3399 3.42929  -2
   2  -8   2 56.3399 3.42929   1
   2  -8   2 0.57709 0.87032   2
  -3   8  -2 0.09137 0.83824   2
  -3   8   0 16.1930 1.77592  -2
  -3   8  -2 16.1930 1.77592   1
   3  -8   2 1.49615 1.04496   2
   3  -8   0 14.0040 1.96641  -2
   3  -8   2 14.0040 1.96641   1
  -4  -7   2 -0.1922 0.84087   1
  -4  -7   2 0.14408 0.91037   2
   3   7  -2 1.52065 0.67239   1
   3   7  -2 -0.2239 0.61921   2
  -3  -7   2 0.02141 0.63913   2
  -3  -7   2 -0.3674 0.61423   1
   2   7  -2 19.6787 1.25332   1
   2   7  -2 0.47013 0.54634   2
  -2  -7   2 1.00790 0.59779   2
  -2  -7   2 17.8212 1.28938   1
   1   7  -2 1.17791 0.51843   2
   1   7  -2 0.33447 0.44907   2
   1   7  -2 32.1209 1.48168   1
  -1  -7   2 30.6164 1.62621   1
  -1  -7   2 0.68937 0.51000   2
   0   7  -2 -0.1227 0.47858   2
   0   7  -2 22.1672 1.17365   1
   0  -7   2 0.14547 0.39816   2
   0  -7   2 0.57066 0.54231   2
   0  -7   1 19.5340 1.25940  -2
   0  -7   2 19.5340 1.25940   1
   0  -7   2 19.8114 1.35681   1
  -1   7  -2 2.80034 0.60881   1
  -1   7  -2 -0.7215 0.52693   2
   1  -7   2 3.01752 0.73108   1
   1  -7   2 -0.6138 0.58275   2
  -2   7  -2 0.53304 0.60296   2
  -2   7   0 24.3557 1.59084  -2
  -2   7  -2 24.3557 1.59084   1
   2  -7   2 22.9214 1.61999   1
   2  -7   2 0.46835 0.74237   2
  -3   7   0 23.7720 1.73930  -2
  -3   7  -2 23.7720 1.73930   1
  -3   7  -2 0.12742 0.67576   2
   3  -7   2 0.88622 0.87695   2
   3  -7   0 28.7147 2.17622  -2
   3  -7   2 28.7147 2.17622   1
  -4   7   0 -1.1324 1.62327  -2
  -4   7  -2 -1.1324 1.62327   1
  -4   7  -2 -0.0889 0.75684   2
   4  -7   0 0.82571 1.75158  -2
   4  -7   2 0.82571 1.75158   1
  -5  -6   2 -0.1519 1.09062   1
  -5  -6   2 -0.6032 1.08342   2
   4   6  -2 -0.2913 0.63861   1
   4   6  -2 -0.4946 0.65093   2
  -4  -6   2 -0.2009 0.68722   2
  -4  -6   2 0.59375 0.69909   1
   3   6  -2 22.0938 1.37928   1
   3   6  -2 0.56426 0.52568   2
  -3  -6   2 21.8502 1.46239   1
  -3  -6   2 0.56680 0.62088   2
   2   6  -2 5.21381 0.66016   1
   2   6  -2 0.69787 0.47413   2
  -2  -6   2 -0.0665 0.47267   2
  -2  -6   2 5.65483 0.72388   1
   1   6  -2 0.37191 0.39161   2
   1   6  -2 0.20077 0.35655   2
   1   6  -2 8.98279 0.69007   1
  -1  -6   2 0.71040 0.42218   2
  -1  -6   2 9.49378 0.78675   1
   0   6  -2 20.3972 1.01647   1
   0   6  -2 0.18291 0.39669   2
   0  -6   2 1.45805 0.47599   2
   0  -6   2 0.26869 0.34805   2
   0  -6   2 18.6359 1.03346   1
   0  -6   2 19.4190 1.22015   1
  -1   6  -2 2.98932 0.52179   1
  -1   6  -2 0.14523 0.43231   2
   1  -6   1 3.34534 1.15568  -2
   1  -6   2 3.34534 1.15568   1
   1  -6   2 -0.2101 0.51513   2
  -2   6  -2 0.88931 0.51654   2
  -2   6   0 1.09998 1.11045  -2
  -2   6  -2 1.09998 1.11045   1
   2  -6   2 0.21050 0.64799   2
   2  -6   2 2.18858 0.73311   1
  -3   6   0 3.23635 1.11326  -2
  -3   6  -2 3.23635 1.11326   1
   3  -6   0 5.14636 1.43102  -2
   3  -6   2 5.14636 1.43102   1
   3  -6   2 0.17626 0.70300   2
  -4   6   0 2.18960 0.99485  -2
  -4   6  -2 2.18960 0.99485   1
   4  -6   0 2.25067 1.41646  -2
   4  -6   2 2.25067 1.41646   1
  -5   6  -2 -0.1613 0.77275   2
   5   5  -2 0.74878 0.64267   1
   5   5  -2 -0.0089 0.72133   2
  -5  -5   2 0.95795 1.01492   1
  -5  -5   2 -0.3927 0.98354   2
   4   5  -2 18.6226 1.31170   1
   4   5  -2 0.04684 0.64134   2
  -4  -5   2 16.4367 1.35450   1
  -4  -5   2 0.68539 0.65671   2
   3   5  -2 0.43799 0.46664   1
   3   5  -2 0.22287 0.48842   2
  -3  -5   2 0.04254 0.52417   2
  -3  -5   2 0.26165 0.50106   1
   2   5  -2 0.01715 0.30128   2
   2   5  -2 0.02679 0.35582   2
   2   5  -2 2.35080 0.35846   1
   2   5  -2 2.61120 0.48231   1
  -2  -5   2 2.64060 0.51728   1
  -2  -5   2 0.07303 0.40924   2
   1   5  -2 0.44862 0.31668   2
   1   5  -2 1.41517 0.35544   2
   1   5  -2 26.5070 1.18459   1
  -1  -5   2 0.64100 0.37048   2
  -1  -5   2 26.5539 1.32470   1
   0   5  -1 32.7121 1.51703  -2
   0   5  -2 32.7121 1.51703   1
   0   5  -2 0.75307 0.33323   2
   0  -5   2 34.8968 1.79062   1
   0  -5   2 35.4097 1.60988   1
   0  -5   2 0.80944 0.30397   2
   0  -5   2 0.78822 0.39111   2
  -1   5  -2 35.4750 1.57496   1
  -1   5  -2 0.64135 0.37696   2
   1  -5   2 0.98339 0.45490   2
   1  -5   2 0.77248 0.25706   2
   1  -5   1 41.7485 1.76308  -2
   1  -5   2 41.7485 1.76308   1
   1  -5   1 37.0329 2.10854  -2
   1  -5   2 37.0329 2.10854   1
  -2   5  -2 0.84614 0.45597   1
  -2   5  -2 -0.2330 0.39359   2
   2  -5   2 1.01856 0.53649   1
   2  -5   2 0.22802 0.50509   2
  -3   5  -2 0.89638 0.54581   2
  -3   5  -2 3.67428 0.64993   1
   3  -5   2 2.91164 0.74325   1
   3  -5   2 0.04109 0.60380   2
  -4   5   0 6.73162 1.13035  -2
  -4   5  -2 6.73162 1.13035   1
   4  -5   0 8.20675 1.53593  -2
   4  -5   2 8.20675 1.53593   1
   4  -5   2 0.32595 0.73503   2
  -5   5   0 -0.2218 1.16513  -2
  -5   5  -2 -0.2218 1.16513   1
   5  -5   0 -0.5969 1.42481  -2
   5  -5   2 -0.5969 1.42481   1
   5   4  -2 0.54242 0.72127   2
   5   4  -2 10.6320 1.18815   1
  -5  -4   2 0.92981 0.94104   2
  -5  -4   2 12.2398 1.31139   1
   4   4  -2 0.59830 0.66942   2
   4   4  -2 11.6885 1.15515   1
  -4  -4   2 11.7343 1.12720   1
  -4  -4   2 0.49385 0.63707   2
   3   4  -2 0.27421 0.46192   2
   3   4  -2 16.6964 1.10431   1
  -3  -4   2 19.5316 1.17961   1
  -3  -4   2 1.31186 0.55101   2
   2   4  -2 0.09789 0.32855   2
   2   4  -2 0.09805 0.26427   2
   2   4  -2 0.75045 0.27321   1
   2   4  -2 1.49677 0.38734   1
  -2  -4   2 0.18300 0.36234   2
  -2  -4   2 0.39918 0.38557   1
   1   4  -2 -0.0740 0.25976   1
   1   4  -2 -0.0574 0.22279   1
   1   4  -2 -0.0165 0.24796   2
   1   4  -2 -0.2126 0.23603   2
  -1  -4   2 0.03704 0.28938   1
  -1  -4   2 -0.0738 0.29660   2
   0   4  -2 538.377 20.4011   1
   0   4  -2 18.8601 0.95772   2
   0  -4   2 20.7253 1.00169   2
   0  -4   2 21.1117 1.08715   2
   0  -4   2 534.093 23.8821   1
   0  -4   2 537.756 22.0954   1
  -1   4  -1 2.99187 0.60827  -2
  -1   4  -2 2.99187 0.60827   1
  -1   4  -2 -0.0834 0.26280   2
   1  -4   2 0.06809 0.35655   2
   1  -4   2 0.08245 0.17336   2
   1  -4   1 4.00762 0.76906  -2
   1  -4   2 4.00762 0.76906   1
   1  -4   1 3.90669 0.39839  -2
   1  -4   2 3.90669 0.39839   1
  -2   4  -2 1.58796 0.41354   2
  -2   4  -1 63.8326 2.61040  -2
  -2   4  -2 63.8326 2.61040   1
   2  -4   1 60.3705 3.04187  -2
   2  -4   2 60.3705 3.04187   1
   2  -4   2 1.53709 0.47537   2
  -3   4  -2 5.53449 0.63459   1
  -3   4  -2 0.26953 0.43415   2
   3  -4   2 6.94651 0.81833   1
   3  -4   2 0.78252 0.52780   2
  -4   4   0 16.3104 1.40668  -2
  -4   4  -2 16.3104 1.40668   1
   4  -4   2 -0.1328 0.61908   2
   4  -4   2 13.5299 1.18421   1
  -5   4   0 5.37507 1.17311  -2
  -5   4  -2 5.37507 1.17311   1
   5  -4   0 4.29556 1.53378  -2
   5  -4   2 4.29556 1.53378   1
   6   3  -2 0.77565 0.84164   2
   6   3  -2 1.32202 0.68565   1
   5   3  -2 0.73278 0.67604   1
   5   3  -2 -0.2000 0.68618   2
  -5  -3   2 1.26153 0.89729   1
  -5  -3   2 -0.3760 0.78530   2
   4   3  -2 -0.3644 0.55399   2
   4   3  -2 0.63067 0.58050   1
  -4  -3   2 0.83627 0.58334   2
  -4  -3   2 0.00779 0.54873   1
   3   3  -2 4.24642 0.48439   2
   3   3  -2 4.92474 0.65966   2
   3   3  -2 98.0098 3.81720   1
   3   3  -2 96.9299 4.49781   1
  -3  -3   2 7.09314 0.73719   2
  -3  -3   2 96.9801 4.23339   1
   2   3  -2 116.475 5.07196   1
   2   3  -2 110.212 4.31612   1
   2   3  -2 4.74487 0.41979   2
   2   3  -2 6.24482 0.50904   2
  -2  -3   2 3.89888 0.48660   2
  -2  -3   2 107.882 4.74921   1
   1   3  -2 828.043 31.2910   1
   1   3  -2 839.234 36.6216   1
   1   3  -2 37.0427 1.52071   2
  -1  -3   2 37.6523 1.68556   2
  -1  -3   2 810.048 33.9546   1
   0   3  -2 0.20496 0.22387   2
   0   3  -2 6.77867 0.42656   1
   0  -3   2 6.63985 0.43407   1
   0  -3   2 7.03074 0.48637   1
   0  -3   2 0.22346 0.18074   2
   0  -3   2 0.20222 0.20610   2
  -1   3  -2 68.9456 2.80675   1
  -1   3  -2 1.38210 0.27759   2
   1  -3   2 72.8578 2.96145   1
   1  -3   2 70.2095 3.27718   1
   1  -3   2 1.46226 0.21450   2
   1  -3   2 2.91214 0.36978   2
  -2   3  -1 257.187 9.93474  -2
  -2   3  -2 257.187 9.93474   1
   2  -3   1 260.188 11.6383  -2
   2  -3   2 260.188 11.6383   1
  -3   3  -1 56.3574 2.37463  -2
  -3   3  -2 56.3574 2.37463   1
   3  -3   1 53.5444 2.78344  -2
   3  -3   2 53.5444 2.78344   1
  -4   3  -2 0.69297 0.49736   2
  -4   3  -2 43.1462 1.99174   1
   4  -3   2 45.7415 2.38863   1
   4  -3   2 0.61930 0.59943   2
  -5   3   0 2.79090 1.21282  -2
  -5   3  -2 2.79090 1.21282   1
   5  -3   2 1.60950 0.80257   2
   5  -3   2 2.36324 0.86727   1
   6   2  -2 16.8789 1.38930   1
   6   2  -2 1.06818 0.74737   2
   5   2  -2 82.7032 4.25263   1
   5   2  -2 3.57996 0.82808   2
  -5  -2   2 93.0226 4.02342   1
  -5  -2   2 3.77362 0.93304   2
   4   2  -2 2.02915 0.57346   2
   4   2  -2 29.2986 1.74494   1
  -4  -2   2 34.1489 1.70134   1
  -4  -2   2 2.64550 0.60159   2
   3   2  -2 0.98491 0.31714   2
   3   2  -2 0.88514 0.43138   2
   3   2  -2 15.2116 0.80823   1
   3   2  -2 15.7791 0.99051   1
  -3  -2   2 16.2373 0.98412   1
  -3  -2   2 0.87683 0.43030   2
   2   2  -2 59.7631 2.36866   1
   2   2  -2 62.7897 2.78124   1
   2   2  -2 2.95137 0.39039   2
   2   2  -2 2.83406 0.30065   2
  -2  -2   2 56.8479 2.60800   1
  -2  -2   2 2.72285 0.38154   2
   1   2  -2 1.84280 0.23729   1
   1   2  -2 2.39236 0.24907   1
   1   2  -2 0.07442 0.19567   2
   1   2  -2 -0.0041 0.15874   2
  -1  -2   2 1.93571 0.28352   1
  -1  -2   2 -0.3140 0.18994   2
   0   2  -2 13.0306 0.64507   2
   0   2  -2 349.139 13.0163   1
   0  -2   2 14.0849 0.68036   2
   0  -2   2 14.5678 0.70147   2
   0  -2   2 337.956 14.1003   1
   0  -2   2 340.581 15.2127   1
  -1   2  -2 0.22977 0.18510   2
  -1   2  -2 14.6271 0.67624   1
   1  -2   2 14.1713 0.64009   1
   1  -2   2 13.2503 0.76427   1
   1  -2   2 0.33258 0.15248   2
   1  -2   2 0.55418 0.23559   2
  -2   2  -1 335.858 12.4966  -2
  -2   2  -2 335.858 12.4966   1
  -2   2  -1 319.732 13.4705  -2
  -2   2  -2 319.732 13.4705   1
   2  -2   1 326.411 14.6380  -2
   2  -2   2 326.411 14.6380   1
  -3   2  -1 4.54406 0.56542  -2
  -3   2  -2 4.54406 0.56542   1
   3  -2   1 4.19128 0.75764  -2
   3  -2   2 4.19128 0.75764   1
  -4   2  -1 0.00657 0.80606  -2
  -4   2  -2 0.00657 0.80606   1
   4  -2   1 0.17805 0.75127  -2
   4  -2   2 0.17805 0.75127   1
   4  -2   2 0.15069 0.55597   2
  -5   2  -2 -0.3809 0.54293   1
  -5   2  -2 -0.6455 0.50523   2
   5  -2   2 0.07628 0.71344   2
   5  -2   2 0.10384 0.60531   1
   6  -2   2 0.69008 0.86589   2
   6   1  -2 0.45070 0.82921   2
   6   1  -2 1.90927 0.84110   1
   5   1  -2 0.22181 0.57572   2
   5   1  -2 -0.0057 0.58958   1
   4   1  -2 0.68237 0.56764   2
   4   1  -2 7.07069 0.84998   1
  -4  -1   2 -0.5417 0.54034   2
  -4  -1   2 -0.0254 0.39189   2
  -4  -1   2 6.54116 0.63476   1
  -4  -1   2 7.74340 0.85035   1
   3   1  -2 2.34032 0.45824   2
   3   1  -2 1.57277 0.34799   2
   3   1  -2 39.7180 1.70172   1
   3   1  -2 42.3486 2.01657   1
  -3  -1   2 39.8543 1.87531   1
  -3  -1   2 0.81285 0.39437   2
   2   1  -2 1.73944 0.31716   1
   2   1  -2 1.87790 0.27405   1
   2   1  -2 0.55134 0.28027   2
   2   1  -2 0.32619 0.21086   2
  -2  -1   2 2.28444 0.33391   1
  -2  -1   2 -0.0233 0.24307   2
   1   1  -2 1.55163 0.20636   2
   1   1  -2 2.27321 0.27356   2
   1   1  -2 45.7303 1.97466   1
   1   1  -2 43.2348 1.70338   1
  -1  -1   2 1.79547 0.23837   2
  -1  -1   2 40.3589 1.85644   1
   0   1  -2 -0.0417 0.12966   2
   0   1  -2 2.23477 0.19870   1
   0  -1   2 2.21939 0.22226   1
   0  -1   2 1.78000 0.18452   1
   0  -1   2 0.22625 0.13690   2
  -1   1  -2 2.32963 0.24855   2
  -1   1  -2 2.20496 0.24429   2
  -1   1  -2 56.5630 2.28552   1
  -1   1  -2 52.9135 2.12426   1
   1  -1   2 3.19403 0.29166   2
   1  -1   2 53.4859 2.49320   1
  -2   1  -2 0.20981 0.20974   2
  -2   1  -2 0.23267 0.19571   2
  -2   1  -2 0.35935 0.19765   1
  -2   1  -2 0.26104 0.19098   1
   2  -1   2 0.19320 0.30942   2
   2  -1   2 0.01706 0.27057   1
  -3   1  -1 53.0228 2.26537  -2
  -3   1  -2 53.0228 2.26537   1
  -3   1  -1 54.5126 2.12845  -2
  -3   1  -2 54.5126 2.12845   1
   3  -1   1 46.4087 2.52794  -2
   3  -1   2 46.4087 2.52794   1
  -4   1  -1 65.6838 2.75003  -2
  -4   1  -2 65.6838 2.75003   1
   4  -1   1 67.4205 3.29443  -2
   4  -1   2 67.4205 3.29443   1
   5  -1   2 0.41786 0.63789   1
   5  -1   2 0.19746 0.57373   2
   6  -1   2 0.46102 0.90876   2
   6  -1   2 2.31415 0.95157   1
   6   0  -2 -0.1263 0.85193   1
   6   0  -2 0.64494 0.87109   2
   5   0  -2 0.04044 0.62755   2
   5   0  -2 1.06018 0.67546   1
   4   0  -2 1.36139 0.50773   1
   4   0  -2 0.24938 0.46034   2
  -4   0   2 2.26305 0.49978   1
  -4   0   2 1.48348 0.51500   1
  -4   0   2 -0.0878 0.37890   2
   3   0  -2 1.27292 0.41435   1
   3   0  -2 0.04854 0.38255   2
  -3   0   2 0.01122 0.32745   2
  -3   0   2 -0.0561 0.29236   2
  -3   0   2 1.19988 0.37908   1
   2   0  -2 1.25277 0.31714   2
   2   0  -2 0.89477 0.24402   2
   2   0  -2 18.2471 0.85998   1
   2   0  -2 19.9604 1.01208   1
  -2   0   2 18.6479 0.92075   1
  -2   0   2 0.75846 0.24793   2
   1   0  -2 2.87931 0.27175   2
   1   0  -2 2.03746 0.23395   2
   1   0  -2 57.4213 2.24564   1
   1   0  -2 58.9214 2.60598   1
  -1   0   2 2.49461 0.24705   2
  -1   0   2 56.0101 2.42027   1
   0   0  -2 15.6182 0.63540   2
   0   0  -2 414.152 15.6846   1
   0   0   2 428.885 17.6252  -2
   0   0   2 428.885 17.6252   1
  -1   0  -2 30.5777 1.36637   2
  -1   0  -2 32.6333 1.24265   2
  -1   0  -2 695.500 25.8659   1
  -1   0  -2 661.666 28.0542   1
   1   0   2 693.052 30.2988   1
  -2   0  -2 50.9940 2.02288   1
  -2   0  -2 51.7978 2.21082   1
  -2   0  -2 2.16005 0.23609   2
  -2   0  -2 1.86870 0.27534   2
   2   0   2 1.54817 0.31805   2
   2   0   2 51.5482 2.42354   1
  -3   0  -2 0.82664 0.24240   2
  -3   0  -2 0.43643 0.32285   2
  -3   0  -2 22.7418 1.17348   1
  -3   0  -2 25.2498 1.06440   1
   3   0   2 25.1408 1.34156   1
   3   0   2 1.03044 0.38412   2
  -4   0  -1 39.3486 1.72003  -2
  -4   0  -2 39.3486 1.72003   1
  -4   0  -1 38.5467 1.92880  -2
  -4   0  -2 38.5467 1.92880   1
   4   0   1 41.7348 2.18540  -2
   4   0   2 41.7348 2.18540   1
   5   0   1 8.03137 1.20633  -2
   5   0   2 8.03137 1.20633   1
   6   0   2 0.26824 0.76690   2
   6   0   2 10.9736 1.31875   1
   6  -1  -2 0.58583 0.70928   2
   6  -1  -2 5.71681 1.03005   1
   5  -1  -2 0.57399 0.68238   2
   5  -1  -2 0.67195 0.62528   1
  -5   1   2 0.25479 0.53085   2
  -5   1   2 0.13538 0.56179   1
   4  -1  -2 -0.0177 0.54045   2
   4  -1  -2 3.54041 0.69254   1
  -4   1   2 3.49281 0.54438   1
  -4   1   2 0.56584 0.45175   2
   3  -1  -2 28.5950 1.49499   1
   3  -1  -2 0.95914 0.42390   2
  -3   1   2 0.52580 0.32801   2
  -3   1   2 0.38753 0.30835   2
  -3   1   2 28.5410 1.27443   1
  -3   1   2 26.4701 1.30900   1
   2  -1  -2 17.7931 0.94635   1
   2  -1  -2 16.4128 0.80960   1
   2  -1  -2 0.64798 0.31780   2
  -2   1   2 0.37963 0.20963   2
  -2   1   2 0.83931 0.27466   2
  -2   1   2 16.3348 0.80210   1
   1  -1  -2 416.548 18.5107   2
   1  -1  -2 9671.25 437.262   1
   1  -1  -2 9951.61 373.578   1
  -1   1   2 9999.99 404.806   1
   0  -1  -2 3.35511 0.22882   2
   0  -1  -2 3.73834 0.24344   2
   0  -1  -2 1.95551 0.20511   2
   0  -1  -2 82.0765 3.16811   1
   0  -1  -2 84.9701 3.71012   1
   0  -1  -2 81.3074 3.43701   1
  -1  -1  -2 236.495 9.76588  -2
  -1  -1  -2 236.495 9.76588   1
   1   1   2 216.516 9.64539   1
   1   1   2 20.0995 0.98490   2
  -2  -1  -2 1.15901 0.14820   2
  -2  -1  -2 0.92049 0.26439   2
  -2  -1  -2 26.9771 1.12159   1
  -2  -1  -2 28.3695 1.31420   1
   2   1   2 2.12817 0.35492   2
   2   1   2 29.8763 1.40440   1
  -3  -1  -2 2.87143 0.29552   1
  -3  -1  -2 2.79175 0.48734   1
  -3  -1  -2 0.05098 0.19516   2
  -3  -1  -2 0.05681 0.30597   2
   3   1   2 3.51889 0.50810   1
   3   1   2 0.61310 0.39803   2
  -4  -1  -1 1.61469 0.99782  -2
  -4  -1  -2 1.61469 0.99782   1
   4   1   2 0.29312 0.50241   1
   5   1   1 24.7562 1.76798  -2
   5   1   2 24.7562 1.76798   1
   6   1   2 5.48222 0.95064   1
   6  -2  -2 18.3960 1.60082   1
   5  -2  -2 9.51435 1.13911   1
   5  -2  -2 -0.4058 0.66789   2
  -5   2   2 10.0709 0.97540   1
  -5   2   2 0.37624 0.53480   2
   4  -2  -2 15.5235 1.19332   1
   4  -2  -2 0.59319 0.54068   2
  -4   2   2 0.08301 0.47505   2
  -4   2   2 17.9752 1.03545   1
   3  -2  -2 0.85712 0.42801   2
   3  -2  -2 15.9458 1.06535   1
  -3   2   2 0.75014 0.36023   2
  -3   2   2 17.9735 0.92859   1
   2  -2  -2 53.8496 2.57656   1
   2  -2  -2 2.40090 0.40824   2
  -2   2   2 54.5383 2.20789   1
   1  -2  -2 12.4447 0.70496   1
   1  -2  -2 0.24902 0.26268   2
  -1   2   2 11.5389 0.59153   1
  -1   2   2 -0.3320 0.20506   2
   0  -2  -2 102.292 4.49561   1
   0  -2  -2 99.2555 4.13919   1
   0  -2  -2 2.77199 0.25608   2
   0  -2  -2 4.14068 0.31859   2
   0   2   2 2.49745 0.24607   2
   0   2   2 97.6740 3.82137   1
  -1  -2  -2 -0.7471 0.38793  -2
  -1  -2  -2 -0.7471 0.38793   1
   1   2   2 -0.4402 0.39026  -2
   1   2   2 -0.4402 0.39026   1
  -2  -2  -2 2.11743 0.55521  -2
  -2  -2  -2 2.11743 0.55521   1
   2   2   2 2.51769 0.47014  -2
   2   2   2 2.51769 0.47014   1
  -3  -2  -2 0.09443 0.38896   2
  -3  -2  -2 0.00952 0.13497   2
  -3  -2  -2 0.45725 0.16022   1
  -3  -2  -2 0.69675 0.40733   1
   3   2   2 0.42315 0.37529   2
   3   2   2 0.56189 0.38937   1
  -4  -2  -2 3.08415 0.64916   1
  -4  -2  -2 0.16985 0.46270   2
   4   2   2 0.00355 0.53620   2
   4   2   2 2.72815 0.64065   1
  -5  -2  -1 3.25899 1.22969  -2
  -5  -2  -2 3.25899 1.22969   1
   5   2   1 2.57337 1.24375  -2
   5   2   2 2.57337 1.24375   1
   6   2   1 6.64349 1.67769  -2
   6   2   2 6.64349 1.67769   1
   5  -3  -2 0.71587 0.73621   1
   5  -3  -2 0.00568 0.74821   2
  -5   3   2 0.61025 0.67095   1
  -5   3   2 -0.0504 0.58171   2
   4  -3  -2 1.53975 0.64383   1
   4  -3  -2 0.16503 0.56003   2
  -4   3   2 3.13114 0.62673   1
  -4   3   2 0.22758 0.46692   2
   3  -3  -2 6.95951 0.77984   1
   3  -3  -2 0.05528 0.45445   2
  -3   3   2 -0.1011 0.39301   2
  -3   3   2 8.35917 0.67858   1
   2  -3  -2 2.01347 0.44280   1
  -2   3   2 1.41165 0.33418   1
   1  -3  -2 3.37163 0.44002   1
  -1   3   2 0.42369 0.25197   2
  -1   3   2 2.92189 0.33584   1
   0  -3  -2 4.58853 0.35310   2
   0  -3  -2 4.51089 0.40636   2
   0  -3  -2 129.722 5.89724   1
   0  -3  -2 134.335 5.42462   1
   0   3   2 127.609 5.01196   1
   0   3   2 3.35599 0.30801   2
  -1  -3  -2 8.12796 0.53508   1
  -1  -3  -2 0.29886 0.25471   2
   1   3   2 8.62536 0.68368  -2
   1   3   2 8.62536 0.68368   1
   1   3   2 7.15332 0.34915   1
   1   3   2 0.41844 0.13406   2
  -2  -3  -2 165.188 7.10236  -2
  -2  -3  -2 165.188 7.10236   1
   2   3   2 173.949 7.65319  -2
   2   3   2 173.949 7.65319   1
  -3  -3  -2 0.16612 0.76352  -2
  -3  -3  -2 0.16612 0.76352   1
   3   3   2 0.00957 0.51081  -2
   3   3   2 0.00957 0.51081   1
  -4  -3  -2 5.03964 1.24693  -2
  -4  -3  -2 5.03964 1.24693   1
   4   3   2 1.13546 0.60942   2
   4   3   2 7.65569 0.87999   1
  -5  -3  -1 0.41041 1.57690  -2
  -5  -3  -2 0.41041 1.57690   1
   5   3   2 -0.3268 0.66512   1
   5   3   2 -0.1326 0.65834   2
   6   3   1 4.66763 1.66671  -2
   6   3   2 4.66763 1.66671   1
   5  -4  -2 0.76025 0.81015   1
  -5   4   2 0.38631 0.63947   2
  -5   4   2 -0.0335 0.61955   1
   4  -4  -2 2.71207 0.75719   1
   4  -4  -2 0.69902 0.63416   2
  -4   4   2 2.92923 0.67630   1
  -4   4   2 -0.2966 0.48751   2
   3  -4  -2 15.9251 1.19427   1
   3  -4  -2 0.26991 0.53500   2
  -3   4   2 19.2273 1.07887   1
  -3   4   2 0.43570 0.43203   2
   2  -4  -2 4.68849 0.62224   1
  -2   4   2 4.47398 0.51941   1
   1  -4  -3 1.54669 0.70537  -2
   1  -4  -2 1.54669 0.70537   1
   1  -4  -3 2.36085 0.30478  -2
   1  -4  -2 2.36085 0.30478   1
  -1   4   2 2.38140 0.36462   1
   0  -4  -2 99.3754 4.61293   1
   0  -4  -2 103.260 4.21318   1
   0  -4  -2 1.68382 0.28436   2
   0  -4  -2 3.95785 0.46984   2
   0   4   2 3.11785 0.32444   2
   0   4   2 98.7759 3.90355   1
  -1  -4  -2 136.684 5.60374   1
  -1  -4  -2 4.22921 0.49198   2
   1   4   2 3.31002 0.31641   2
   1   4   2 132.104 5.09923   1
   1   4   2 131.400 6.03803   1
  -2  -4  -2 7.14447 0.79089  -2
  -2  -4  -2 7.14447 0.79089   1
   2   4   2 8.97474 0.79654  -2
   2   4   2 8.97474 0.79654   1
   3   4   2 27.9691 1.54215  -2
   3   4   2 27.9691 1.54215   1
  -4  -4  -2 20.0335 1.60346  -2
  -4  -4  -2 20.0335 1.60346   1
   4   4   2 21.6811 1.62337  -2
   4   4   2 21.6811 1.62337   1
  -5  -4  -2 0.79510 0.69446   2
  -5  -4  -2 8.98947 1.14808   1
   5   4   2 0.82175 0.75669   2
   5   4   2 9.89604 1.21353   1
  -6  -4  -2 1.73428 1.00277   1
  -6  -4  -2 0.59147 0.99449   2
   6   4   1 4.33938 1.72489  -2
   6   4   2 4.33938 1.72489   1
   5  -5  -2 2.83132 1.00278   1
  -5   5   2 0.58142 0.72875   1
   4  -5  -2 8.67146 1.12475   1
  -4   5   2 -0.4170 0.55685   2
  -4   5   2 9.10413 0.92360   1
   3  -5  -2 0.61403 0.60876   2
   3  -5  -2 25.1779 1.59777   1
  -3   5   2 25.1828 1.33884   1
  -3   5   2 0.64890 0.50853   2
   2  -5  -2 0.87987 0.56355   1
  -2   5   2 1.12786 0.42908   1
  -2   5   2 -0.1668 0.38786   2
   1  -5  -3 34.6064 1.90125  -2
   1  -5  -2 34.6064 1.90125   1
  -1   5   2 32.6159 1.44744   1
   0  -5  -3 39.8187 1.72803  -2
   0  -5  -2 39.8187 1.72803   1
   0  -5  -3 34.7295 1.97892  -2
   0  -5  -2 34.7295 1.97892   1
   0   5   3 38.8105 1.63866  -2
   0   5   2 38.8105 1.63866   1
  -1  -5  -2 44.4132 2.28457   1
  -1  -5  -2 48.2692 2.09216   1
  -1  -5  -2 2.34753 0.46018   2
   1   5   3 48.6915 1.96378  -2
   1   5   2 48.6915 1.96378   1
  -2  -5  -2 21.2815 1.34110  -2
  -2  -5  -2 21.2815 1.34110   1
   2   5   2 15.8951 1.00112   1
   2   5   2 1.54771 0.42999   2
  -3  -5  -2 5.62138 1.00636  -2
  -3  -5  -2 5.62138 1.00636   1
   3   5   2 8.71727 1.06327  -2
   3   5   2 8.71727 1.06327   1
  -4  -5  -2 45.7254 2.36171  -2
  -4  -5  -2 45.7254 2.36171   1
   4   5   2 40.3364 2.38590  -2
   4   5   2 40.3364 2.38590   1
  -5  -5  -2 -0.8960 1.86421  -2
  -5  -5  -2 -0.8960 1.86421   1
   5   5   2 1.01215 0.82197   1
   5   5   2 0.48918 0.82180   2
   4  -6  -2 13.1741 1.45279   1
  -4   6   2 13.6193 1.18051   1
   3  -6  -2 16.3221 1.34963   1
  -3   6   2 14.8476 1.06764   1
   2  -6  -2 -0.2428 0.60915   2
   2  -6  -2 12.3708 1.13868   1
  -2   6   2 0.31459 0.49747   2
  -2   6   2 14.0287 0.95083   1
   1  -6  -3 0.48244 1.00153  -2
   1  -6  -2 0.48244 1.00153   1
  -1   6   2 0.29755 0.39352   1
  -1   6   2 -0.6255 0.39022   2
   0  -6  -3 1.12767 0.52810  -2
   0  -6  -2 1.12767 0.52810   1
   0  -6  -3 2.21635 0.78552  -2
   0  -6  -2 2.21635 0.78552   1
   0   6   3 2.60251 0.64933  -2
   0   6   2 2.60251 0.64933   1
  -1  -6  -3 25.9492 1.34870  -2
  -1  -6  -2 25.9492 1.34870   1
  -1  -6  -2 19.7479 1.22665   1
   1   6   3 23.5896 1.15892  -2
   1   6   2 23.5896 1.15892   1
  -2  -6  -2 13.8610 1.00344   1
   2   6   2 13.7590 1.03068   1
   2   6   2 6.99119 0.81349   2
  -3  -6  -2 77.7759 3.66021  -2
  -3  -6  -2 77.7759 3.66021   1
   3   6   2 79.5648 3.91641  -2
   3   6   2 79.5648 3.91641   1
  -4  -6  -2 3.22115 0.78803  -2
  -4  -6  -2 3.22115 0.78803   1
   4   6   2 4.61244 1.11834  -2
   4   6   2 4.61244 1.11834   1
  -5  -6  -2 3.56933 2.04867  -2
  -5  -6  -2 3.56933 2.04867   1
   5   6   2 2.78250 1.54180  -2
   5   6   2 2.78250 1.54180   1
   4  -7  -2 0.68124 1.02837   1
  -4   7   2 0.72549 0.77240   1
   3  -7  -2 4.01972 0.92714   1
  -3   7   2 2.65626 0.70684   1
   2  -7  -2 17.7567 1.36974   1
   2  -7  -2 0.88903 0.71518   2
  -2   7   2 15.5565 1.13573   1
   1  -7  -2 0.72081 0.61242   2
   1  -7  -2 0.50828 0.62977   1
  -1   7   2 0.15091 0.55825   2
  -1   7   2 0.25595 0.48762   1
   0  -7  -3 9.47771 1.15417  -2
   0  -7  -2 9.47771 1.15417   1
   0   7   2 0.32369 0.45754   2
   0   7   3 8.90877 1.13907  -2
   0   7   2 8.90877 1.13907   1
  -1  -7  -3 68.3522 3.08299  -2
  -1  -7  -2 68.3522 3.08299   1
  -2  -7  -3 105.168 4.69126  -2
  -2  -7  -2 105.168 4.69126   1
   2   7   3 106.999 5.04141  -2
   2   7   2 106.999 5.04141   1
   3   7   2 0.80384 0.64255   2
   3   7   2 3.51681 0.72716   1
  -4  -7  -2 0.05424 1.51613  -2
  -4  -7  -2 0.05424 1.51613   1
   4   7   2 -1.1156 1.30193  -2
   4   7   2 -1.1156 1.30193   1
   5   7   2 -1.6741 1.63685  -2
   5   7   2 -1.6741 1.63685   1
   3  -8  -4 10.3189 2.04994  -2
   3  -8  -2 10.3189 2.04994   1
  -3   8   4 9.56470 1.69317  -2
  -3   8   2 9.56470 1.69317   1
   2  -8  -4 -0.5963 1.64009  -2
   2  -8  -2 -0.5963 1.64009   1
  -2   8   4 -1.0802 1.25200  -2
  -2   8   2 -1.0802 1.25200   1
   1  -8  -2 0.57601 0.70671   1
   1  -8  -2 1.34899 0.74969   2
  -1   8   2 0.62125 0.60774   1
   0  -8  -2 0.68746 0.63920   1
   0  -8  -2 -0.1759 0.62968   2
   0   8   2 2.46334 0.60712   2
   0   8   2 0.69166 0.57756   1
  -1  -8  -3 16.0108 1.22811  -2
  -1  -8  -2 16.0108 1.22811   1
  -2  -8  -3 2.40406 1.06337  -2
  -2  -8  -2 2.40406 1.06337   1
   2   8   3 2.34434 0.97580  -2
   2   8   2 2.34434 0.97580   1
  -3  -8  -2 -0.0237 0.67329   2
  -3  -8  -3 5.97776 1.53806  -2
  -3  -8  -2 5.97776 1.53806   1
   3   8   2 6.57970 0.92430   1
   3   8   2 0.49757 0.67011   2
  -4  -8  -2 0.45734 0.89075   1
  -4  -8  -2 -0.1205 0.82473   2
   4   8   2 0.53754 0.88128   1
   4   8   2 0.08727 0.69732   2
  -3   9   2 4.23814 1.07918   1
   2  -9  -4 6.60784 1.91419  -2
   2  -9  -2 6.60784 1.91419   1
  -2   9   4 7.34866 1.61351  -2
  -2   9   2 7.34866 1.61351   1
   1  -9  -2 12.8681 1.44795   1
  -1   9   4 17.2004 1.61454  -2
  -1   9   2 17.2004 1.61454   1
   0  -9  -2 0.69769 0.74709   2
   0  -9  -2 4.30569 0.90288   1
  -2  -9  -3 2.27438 1.14051  -2
  -2  -9  -2 2.27438 1.14051   1
   2   9   3 -0.0676 1.08280  -2
   2   9   2 -0.0676 1.08280   1
  -3  -9  -3 0.61834 1.60524  -2
  -3  -9  -2 0.61834 1.60524   1
   3   9   3 -0.7024 1.37398  -2
   3   9   2 -0.7024 1.37398   1
   4   9   2 -0.6632 0.84237   2
   4   9   2 0.40853 0.90548   1
  -2  10   2 27.5924 1.95560   1
   1 -10  -4 0.42763 1.91751  -2
   1 -10  -2 0.42763 1.91751   1
   0 -10  -2 0.02589 0.93678   2
   0 -10  -2 0.13255 0.91944   1
   1  10   2 4.51251 0.99281   1
   1  10   2 0.58927 0.86248   2
   2  10   3 6.59640 1.64457  -2
   2  10   2 6.59640 1.64457   1
  -3 -10  -3 22.0527 1.79708  -2
  -3 -10  -2 22.0527 1.79708   1
  -2 -10   3 4.76723 0.90167   1
  -2 -10   3 -0.4349 0.69548   2
   0 -10   3 0.22433 0.91931   1
  -1  10  -3 -0.1543 0.93621   1
  -1  10  -3 -0.2095 0.96176   2
   1 -10   3 0.37961 1.09431   1
  -3  -9   3 0.20620 0.87000   1
  -3  -9   3 -0.0092 0.80914   2
  -2  -9   3 0.55823 0.80901   2
  -2  -9   3 3.81511 0.84721   1
   1   9  -3 1.85608 0.68444   1
  -1  -9   3 0.31151 0.62203   2
   0   9  -3 0.47976 0.70923   2
   0   9  -3 4.27720 0.88883   1
   0  -9   3 2.16668 0.83992   1
  -1   9  -3 0.32488 0.74689   1
  -1   9  -3 -0.5479 0.74564   2
   1  -9   3 -0.0037 0.83196   2
   1  -9   3 0.43162 0.89946   1
  -2   9  -3 -0.2678 0.82081   1
  -2   9  -3 -0.0450 0.86138   2
   2  -9   3 0.41305 0.97679   2
   2  -9   1 0.00465 1.89504  -2
   2  -9   3 0.00465 1.89504   1
   3  -9   3 0.24454 1.26180   2
  -4  -8   3 1.58933 1.01420   2
  -4  -8   3 32.0586 2.11769   1
  -3  -8   3 6.77941 1.03684   1
  -3  -8   3 0.51952 0.77576   2
   2   8  -3 2.08991 0.60372   1
  -2  -8   3 0.11685 0.64076   2
  -2  -8   3 2.85855 0.77798   1
   1   8  -3 0.00675 0.66333   2
   1   8  -3 -0.5441 0.56979   2
   1   8  -3 0.45551 0.62446   1
  -1  -8   3 0.10820 0.57853   2
  -1  -8   3 -0.1338 0.54005   1
   0   8  -3 -0.1970 0.58085   2
   0   8  -3 7.07051 0.84889   1
   0  -8   3 7.78897 0.99516   1
   0  -8   3 0.43359 0.65910   2
  -1   8  -3 22.6153 1.42152   1
  -1   8  -3 0.57595 0.64960   2
   1  -8   3 21.6038 1.61953   1
   1  -8   3 0.64725 0.76758   2
  -2   8  -3 0.34033 0.67334   2
  -2   8  -1 44.4204 2.38967  -2
  -2   8  -3 44.4204 2.38967   1
   2  -8   3 34.3247 2.19884   1
   2  -8   3 0.93359 0.88441   2
  -3   8  -3 0.50397 0.84297   2
  -3   8  -3 29.3742 1.82548   1
   3  -8   1 31.6215 2.52050  -2
   3  -8   3 31.6215 2.52050   1
   3  -8   3 0.08821 1.01703   2
  -4  -7   3 -0.1926 0.81973   2
  -4  -7   3 4.60862 0.98303   1
  -3  -7   3 -0.3195 0.63721   2
  -3  -7   3 1.28178 0.67630   1
   2   7  -3 3.17348 0.61435   2
   2   7  -3 55.9519 2.75412   1
  -2  -7   3 0.91958 0.60830   2
  -2  -7   3 55.4612 2.68331   1
   1   7  -3 0.23088 0.48599   2
   1   7  -3 0.19911 0.46448   2
   1   7  -3 18.4321 1.03249   1
  -1  -7   3 0.57535 0.52147   2
  -1  -7   3 14.7433 1.10227   1
   0   7  -3 0.40911 0.48198   2
   0   7  -3 28.2708 1.42070   1
   0  -7   3 29.0099 1.66596   1
   0  -7   3 26.8326 1.41284   1
   0  -7   3 0.29734 0.47492   2
   0  -7   3 0.62917 0.56374   2
  -1   7  -3 1.98496 0.59779   1
  -1   7  -3 0.08073 0.55803   2
   1  -7   3 -0.2989 0.61457   2
   1  -7   3 1.23194 0.63777   1
  -2   7  -1 19.8603 1.54733  -2
  -2   7  -3 19.8603 1.54733   1
  -2   7  -3 0.71772 0.61786   2
   2  -7   3 17.1881 1.42725   1
   2  -7   3 0.44235 0.77329   2
  -3   7  -1 43.0919 2.33751  -2
  -3   7  -3 43.0919 2.33751   1
  -3   7  -3 -0.5675 0.65932   2
   3  -7   3 1.32124 0.90107   2
   3  -7   1 46.5688 2.85613  -2
   3  -7   3 46.5688 2.85613   1
  -4   7  -3 1.88060 0.81816   1
  -4   7  -3 -0.7838 0.78158   2
   4  -7   3 0.86628 1.07591   2
   4  -7   1 4.29797 1.90736  -2
   4  -7   3 4.29797 1.90736   1
  -5  -6   3 2.08269 1.12875   1
  -5  -6   3 0.13281 1.04895   2
  -4  -6   3 -0.1329 0.74337   2
  -4  -6   3 7.90973 1.04725   1
   3   6  -3 -0.1187 0.49579   2
   3   6  -3 0.50702 0.55558   1
  -3  -6   3 0.05503 0.63163   1
  -3  -6   3 -0.0940 0.58390   2
   2   6  -3 17.9351 1.22588   1
   2   6  -3 0.86119 0.45070   2
   2   6  -3 0.49227 0.40885   2
  -2  -6   3 1.12212 0.56547   2
  -2  -6   3 24.4728 1.31137   1
   1   6  -3 -0.1447 0.38439   2
   1   6  -3 0.70656 0.40562   2
   1   6  -3 15.0349 0.87293   1
  -1  -6   3 0.40046 0.45142   2
  -1  -6   3 14.9689 0.99735   1
   0   6  -3 0.41107 0.42950   2
   0   6  -3 4.37873 0.56278   1
   0  -6   3 2.61037 0.58293   1
   0  -6   3 4.26728 0.50685   1
   0  -6   3 0.09522 0.43830   2
   0  -6   3 -0.1238 0.36238   2
  -1   6  -3 0.20605 0.43316   2
  -1   6  -3 3.31147 0.56738   1
   1  -6   3 0.31051 0.32571   2
   1  -6   3 -0.0465 0.51092   2
   1  -6   3 4.81765 0.73268   1
  -2   6  -3 -0.0902 0.49719   2
  -2   6  -3 13.1787 1.00616   1
   2  -6   3 1.20081 0.68374   2
   2  -6   3 15.3348 1.23857   1
  -3   6  -1 0.75975 1.12939  -2
  -3   6  -3 0.75975 1.12939   1
  -3   6  -3 0.36518 0.56501   2
   3  -6   3 -0.3810 0.68400   1
   3  -6   3 0.30130 0.71241   2
  -4   6  -3 -0.6455 0.67153   2
  -4   6  -1 -1.3173 1.25580  -2
  -4   6  -3 -1.3173 1.25580   1
   4  -6   1 0.58597 1.47314  -2
   4  -6   3 0.58597 1.47314   1
   4  -6   3 -0.7914 0.83807   2
  -5   6  -3 -0.6165 0.74955   2
  -5  -5   3 -0.0378 1.04294   2
  -5  -5   3 1.07987 1.02457   1
   4   5  -3 14.6720 1.17963   1
   4   5  -3 0.88158 0.69832   2
  -4  -5   3 -0.0442 0.65597   2
  -4  -5   3 15.8496 1.31508   1
   3   5  -3 9.82023 0.88032   1
   3   5  -3 0.60244 0.53508   2
  -3  -5   3 10.3966 0.97825   1
  -3  -5   3 -0.1147 0.53455   2
   2   5  -3 0.96992 0.41930   1
   2   5  -3 0.25896 0.33128   1
   2   5  -3 0.00418 0.39355   2
   2   5  -3 0.13732 0.33696   2
  -2  -5   3 1.36659 0.49985   1
  -2  -5   3 -0.1966 0.46290   2
   1   5  -3 9.08529 0.61455   1
   1   5  -3 9.96607 0.68452   1
   1   5  -3 0.31635 0.32494   2
   1   5  -3 0.05304 0.32384   2
  -1  -5   3 8.27270 0.70700   1
  -1  -5   3 0.11679 0.36378   2
   0   5  -3 1.63385 0.38601   2
   0   5  -3 68.9794 2.97259   1
   0  -5   3 76.9432 3.19762   1
   0  -5   3 75.7899 3.47985   1
   0  -5   3 1.78868 0.36425   2
   0  -5   3 1.91795 0.42850   2
  -1   5  -3 -0.5519 0.36413   2
  -1   5  -3 0.74793 0.38231   1
   1  -5   3 0.35554 0.45206   2
   1  -5   3 0.13875 0.26409   2
   1  -5   3 0.45725 0.46602   1
   1  -5   3 0.81805 0.25963   1
  -2   5  -3 7.81559 0.74065   1
  -2   5  -3 0.23974 0.42406   2
   2  -5   3 -0.0015 0.50787   2
   2  -5   3 6.58614 0.84177   1
  -3   5  -3 3.99334 0.69549   1
  -3   5  -3 0.17813 0.48987   2
   3  -5   3 3.63057 0.76570   1
   3  -5   3 0.36750 0.61557   2
  -4   5  -1 0.70635 1.08413  -2
  -4   5  -3 0.70635 1.08413   1
  -4   5  -3 -0.0230 0.58974   2
   4  -5   3 0.48109 0.73615   2
   4  -5   1 1.97096 1.41025  -2
   4  -5   3 1.97096 1.41025   1
  -5   5  -3 -0.3986 0.68509   2
  -5   5  -1 3.47802 1.38963  -2
  -5   5  -3 3.47802 1.38963   1
   5  -5   1 3.66867 1.53119  -2
   5  -5   3 3.66867 1.53119   1
   5   4  -3 0.48867 0.64678   2
  -5  -4   3 6.62640 1.12357   1
  -5  -4   3 0.40742 0.93838   2
   4   4  -3 0.00783 0.59686   2
   4   4  -3 10.1188 1.02455   1
  -4  -4   3 7.39625 0.92708   1
  -4  -4   3 0.39899 0.67600   2
   3   4  -3 1.10573 0.52959   2
   3   4  -3 0.95894 0.48842   2
   3   4  -3 32.1869 1.75139   1
  -3  -4   3 35.8262 1.76297   1
  -3  -4   3 1.33953 0.54308   2
   2   4  -3 2.90734 0.43943   1
   2   4  -3 2.51948 0.36386   1
   2   4  -3 0.12841 0.29491   2
   2   4  -3 0.30656 0.33410   2
  -2  -4   3 0.33010 0.40532   2
  -2  -4   3 2.64816 0.50571   1
   1   4  -3 0.01301 0.26325   2
   1   4  -3 0.17975 0.23732   2
   1   4  -3 6.45815 0.51704   1
   1   4  -3 5.29112 0.47305   1
  -1  -4   3 0.04704 0.31484   2
  -1  -4   3 6.74415 0.57356   1
   0   4  -3 55.4670 2.29328   1
   0   4  -3 1.43589 0.32410   2
   0  -4   3 57.6934 2.45830   1
   0  -4   3 56.7916 2.66005   1
   0  -4   3 1.38219 0.32026   2
   0  -4   3 1.28690 0.29747   2
  -1   4  -3 16.1950 0.85883   1
  -1   4  -3 0.44660 0.31156   2
   1  -4   3 16.0514 0.99343   1
   1  -4   3 17.2102 0.80892   1
   1  -4   3 -0.0072 0.20648   2
   1  -4   3 0.93651 0.38375   2
  -2   4  -3 14.9405 0.85505   1
  -2   4  -3 0.71391 0.37278   2
   2  -4   3 12.4705 0.96268   1
   2  -4   3 0.22386 0.42527   2
   2  -4   3 0.51344 0.19792   2
  -3   4  -3 44.6720 1.92258   1
  -3   4  -3 1.09756 0.46781   2
   3  -4   3 40.6447 2.22708   1
   3  -4   3 1.18078 0.56207   2
  -4   4  -3 -0.3427 0.50590   2
  -4   4  -1 0.39049 1.04352  -2
  -4   4  -3 0.39049 1.04352   1
   4  -4   3 0.35394 0.65789   2
   4  -4   3 0.47461 0.64834   1
  -5   4  -1 11.6158 1.27219  -2
  -5   4  -3 11.6158 1.27219   1
   5  -4   1 11.2136 1.68360  -2
   5  -4   3 11.2136 1.68360   1
   5  -4   3 -0.2446 0.81506   2
   5   3  -3 11.0157 1.12930   2
   5   3  -3 138.170 6.69000   1
  -5  -3   3 7.41557 1.14121   2
  -5  -3   3 149.300 6.28768   1
   4   3  -3 -0.3152 0.51268   1
   4   3  -3 -0.0513 0.51940   2
  -4  -3   3 0.06336 0.62779   2
  -4  -3   3 0.55459 0.61110   1
   3   3  -3 13.8190 0.96214   1
   3   3  -3 12.9376 0.78115   1
   3   3  -3 0.50252 0.34999   2
   3   3  -3 0.35019 0.46453   2
  -3  -3   3 16.3893 1.02945   1
  -3  -3   3 -0.0052 0.44798   2
   2   3  -3 6.64713 0.51750   2
   2   3  -3 10.1602 0.64076   2
   2   3  -3 179.373 6.86343   1
   2   3  -3 180.116 8.01829   1
  -2  -3   3 7.22505 0.67844   2
  -2  -3   3 175.932 7.49512   1
   1   3  -3 0.51760 0.23588   2
   1   3  -3 0.93830 0.23577   2
   1   3  -3 12.6167 0.68080   1
   1   3  -3 12.1895 0.63261   1
  -1  -3   3 12.7239 0.74432   1
  -1  -3   3 0.62523 0.30008   2
   0   3  -3 2.43964 0.30217   2
   0   3  -3 75.1512 3.00373   1
   0  -3   3 3.02870 0.32703   2
   0  -3   3 2.09412 0.29488   2
   0  -3   3 76.6662 3.47725   1
   0  -3   3 77.3264 3.23869   1
  -1   3  -3 0.25563 0.25723   2
  -1   3  -3 0.49137 0.25309   1
   1  -3   3 0.29856 0.27344   2
   1  -3   3 -0.0321 0.18274   2
   1  -3   3 0.31794 0.30087   1
   1  -3   3 0.51156 0.18340   1
  -2   3  -2 31.9744 1.44100  -2
  -2   3  -3 31.9744 1.44100   1
  -2   3  -3 0.39585 0.29195   2
   2  -3   3 0.26209 0.18866   2
   2  -3   3 0.58129 0.38232   2
   2  -3   2 31.3260 1.70127  -2
   2  -3   3 31.3260 1.70127   1
  -3   3  -3 3.72446 0.53883   2
  -3   3  -3 150.663 5.90809   1
   3  -3   2 152.648 7.04711  -2
   3  -3   3 152.648 7.04711   1
   3  -3   3 5.35970 0.69760   2
  -4   3  -3 18.2108 1.13475   1
  -4   3  -3 0.15907 0.50610   2
   4  -3   3 0.49167 0.59144   2
   4  -3   3 20.5287 1.36495   1
  -5   3  -1 47.6237 2.34998  -2
  -5   3  -3 47.6237 2.34998   1
   5  -3   3 45.0150 2.56169   1
   5  -3   3 1.01708 0.77097   2
   6   2  -3 0.51270 0.69520   2
   5   2  -3 6.20280 0.89525   1
   5   2  -3 0.09238 0.66255   2
  -5  -2   3 8.24117 1.05146   1
   4   2  -3 7.54700 0.70877   1
   4   2  -3 8.43464 0.92107   1
   4   2  -3 0.46292 0.54280   2
  -4  -2   3 9.81859 1.00452   1
  -4  -2   3 -0.0952 0.54387   2
   3   2  -3 4.85574 0.52876   1
   3   2  -3 4.70439 0.57256   1
   3   2  -3 -0.1505 0.30953   2
   3   2  -3 0.10462 0.39143   2
  -3  -2   3 0.08700 0.42206   2
  -3  -2   3 5.46845 0.61970   1
   2   2  -3 -0.1560 0.29066   2
   2   2  -3 -0.0284 0.23206   2
   2   2  -3 3.37491 0.37944   1
   2   2  -3 2.51942 0.32439   1
  -2  -2   3 -0.0022 0.30606   2
  -2  -2   3 2.19535 0.39937   1
   1   2  -3 -0.0786 0.19076   1
   1   2  -3 -0.1173 0.18187   1
   1   2  -3 0.21541 0.18637   2
   1   2  -3 0.00190 0.17968   2
  -1  -2   3 -0.2033 0.20983   2
  -1  -2   3 0.05801 0.21391   1
   0   2  -3 0.24891 0.18211   2
   0   2  -3 4.37511 0.34407   1
   0  -2   3 4.87760 0.36382   1
   0  -2   3 5.28192 0.37476   1
   0  -2   3 0.03709 0.14665   2
   0  -2   3 0.16590 0.17618   2
  -1   2  -3 58.8786 2.37747   1
  -1   2  -3 2.04542 0.27869   2
   1  -2   3 60.6383 2.77464   1
   1  -2   3 60.8929 2.53470   1
   1  -2   3 2.14501 0.25565   2
   1  -2   3 3.10346 0.35795   2
  -2   2  -3 10.6609 0.65396   2
  -2   2  -3 275.786 10.3960   1
   2  -2   3 267.656 12.1792   1
   2  -2   3 13.9974 0.79379   2
  -3   2  -2 7.57631 0.68593  -2
  -3   2  -3 7.57631 0.68593   1
   3  -2   2 7.89133 0.87451  -2
   3  -2   3 7.89133 0.87451   1
  -4   2  -2 5.72392 0.94531  -2
  -4   2  -3 5.72392 0.94531   1
  -4   2  -3 0.06403 0.45316   2
   4  -2   3 6.10192 0.82555   1
   4  -2   3 1.09447 0.57780   2
  -5   2  -3 6.80537 0.77574   1
  -5   2  -3 0.42254 0.58092   2
   5  -2   3 -0.1117 0.72744   2
   5  -2   3 6.82660 1.00158   1
   6  -2   3 23.2913 1.84587   1
   6  -2   3 1.56025 0.89740   2
   6   1  -3 0.97455 0.68398   1
   6   1  -3 0.37444 0.83808   2
   5   1  -3 3.09872 0.72471   1
   5   1  -3 0.40025 0.59987   2
   4   1  -3 24.7658 1.55531   1
   4   1  -3 25.4102 1.32817   1
   4   1  -3 -0.0351 0.53593   2
  -4  -1   3 1.05729 0.47109   2
  -4  -1   3 0.56850 0.53659   2
  -4  -1   3 30.8894 1.52454   1
   3   1  -3 17.3319 0.99785   1
   3   1  -3 16.0442 0.84753   1
   3   1  -3 0.28734 0.30344   2
   3   1  -3 0.81476 0.42283   2
  -3  -1   3 15.7963 0.98741   1
  -3  -1   3 0.38883 0.38601   2
   2   1  -3 44.9871 2.05420   1
   2   1  -3 42.7954 1.77303   1
   2   1  -3 1.20518 0.27554   2
   2   1  -3 2.39462 0.33476   2
  -2  -1   3 1.50072 0.31383   2
  -2  -1   3 42.2397 1.93130   1
   1   1  -3 0.14595 0.18203   2
   1   1  -3 0.12244 0.16611   2
   1   1  -3 3.91782 0.32477   1
   1   1  -3 4.30772 0.31997   1
  -1  -1   3 4.77308 0.36805   1
  -1  -1   3 -0.0894 0.19208   2
   0   1  -3 1.63197 0.22363   2
   0   1  -3 52.0720 2.04779   1
   0  -1   3 52.5252 2.21787   1
   0  -1   3 3.21859 0.28062   2
  -1   1  -3 1.24475 0.20547   2
  -1   1  -3 44.3104 1.74290   1
   1  -1   3 43.5717 2.03269   1
   1  -1   3 2.55419 0.30751   2
  -2   1  -3 128.572 5.30395   1
  -2   1  -3 128.094 4.91050   1
  -2   1  -3 5.33972 0.38140   2
  -2   1  -3 4.06156 0.39098   2
   2  -1   3 124.973 5.77033   1
   2  -1   3 7.23412 0.54772   2
  -3   1  -2 3.38132 0.52523  -2
  -3   1  -3 3.38132 0.52523   1
  -3   1  -2 2.76574 0.57236  -2
  -3   1  -3 2.76574 0.57236   1
   3  -1   2 5.39311 0.77676  -2
   3  -1   3 5.39311 0.77676   1
  -4   1  -2 2.24634 0.71098  -2
  -4   1  -3 2.24634 0.71098   1
   4  -1   2 4.15548 0.83963  -2
   4  -1   3 4.15548 0.83963   1
   5  -1   3 0.46655 0.59636   2
   5  -1   3 0.79544 0.63178   1
   6  -1   3 0.35913 0.89922   2
   6  -1   3 3.51426 1.03545   1
   6   0  -3 0.30627 0.76619   2
   6   0  -3 2.76611 0.79536   1
   5   0  -3 0.56588 0.68599   1
   5   0  -3 0.02760 0.65917   2
  -5   0   3 -0.5798 0.46769   1
   4   0  -3 6.14081 0.76847   1
   4   0  -3 0.20968 0.47699   2
  -4   0   3 6.49670 0.70914   1
  -4   0   3 6.86793 0.74068   1
  -4   0   3 -0.1239 0.46219   2
   3   0  -3 29.3997 1.31192   1
   3   0  -3 29.1247 1.51029   1
   3   0  -3 0.90571 0.36947   2
  -3   0   3 0.77027 0.36761   2
  -3   0   3 28.4631 1.40884   1
   2   0  -3 2.41808 0.32297   2
   2   0  -3 3.76108 0.40068   2
   2   0  -3 89.2854 4.10176   1
   2   0  -3 90.7948 3.53193   1
  -2   0   3 2.34217 0.32030   2
  -2   0   3 89.9443 3.80150   1
   1   0  -3 4.57376 0.34810   2
   1   0  -3 143.276 5.56858   1
   1   0  -3 146.081 6.47819   1
  -1   0   3 145.926 6.02729   1
  -1   0   3 5.35429 0.35503   2
   0   0  -3 4.52065 0.28402   2
   0   0  -3 137.104 5.16927   1
   0   0   3 133.789 5.60901   1
  -1   0  -3 259.161 9.84792   1
  -1   0  -3 262.571 10.6982   1
  -1   0  -3 10.7142 0.54075   2
  -1   0  -3 11.8964 0.61381   2
   1   0   3 256.219 11.5368   1
   1   0   3 14.3105 0.65703   2
  -2   0  -3 0.01807 0.19867   2
  -2   0  -3 0.12253 0.15949   2
  -2   0  -3 0.38430 0.17561   1
  -2   0  -3 0.19902 0.23778   1
   2   0   3 0.46252 0.29383   1
   2   0   3 0.00812 0.29675   2
  -3   0  -3 0.28334 0.32240   1
  -3   0  -3 0.22793 0.23056   1
  -3   0  -3 -0.0803 0.22498   2
  -3   0  -3 -0.2937 0.30172   2
   3   0   3 0.55430 0.38567   1
   3   0   3 0.53398 0.36849   2
  -4   0  -2 42.9071 1.84953  -2
  -4   0  -3 42.9071 1.84953   1
  -4   0  -2 42.2438 2.07007  -2
  -4   0  -3 42.2438 2.07007   1
   4   0   2 45.8917 2.33445  -2
   4   0   3 45.8917 2.33445   1
   5   0   2 -0.1087 0.87683  -2
   5   0   3 -0.1087 0.87683   1
   6   0   3 0.29802 0.75042   1
   6   0   3 0.05215 0.73382   2
   6  -1  -3 0.39732 0.74446   1
   6  -1  -3 -0.4869 0.64967   2
   5  -1  -3 -0.5979 0.59527   1
   5  -1  -3 0.15856 0.59000   2
  -5   1   3 0.02402 0.50773   1
  -5   1   3 0.33496 0.59156   2
   4  -1  -3 4.34349 0.67370   1
   4  -1  -3 0.19120 0.54416   2
  -4   1   3 5.88139 0.65392   1
  -4   1   3 -0.2497 0.43536   2
   3  -1  -3 37.9763 1.91208   1
   3  -1  -3 1.15694 0.43182   2
  -3   1   3 36.5836 1.71532   1
  -3   1   3 38.5921 1.64360   1
  -3   1   3 1.46948 0.38262   2
  -3   1   3 0.80038 0.31271   2
   2  -1  -3 86.8407 3.93371   1
   2  -1  -3 85.2279 3.38626   1
   2  -1  -3 3.24974 0.41597   2
  -2   1   3 2.29221 0.27506   2
  -2   1   3 85.1779 3.61125   1
   1  -1  -3 3.93244 0.37195   2
   1  -1  -3 6.66929 0.42275   2
   1  -1  -3 180.673 7.97311   1
   1  -1  -3 179.309 6.83528   1
  -1   1   3 5.05950 0.32968   2
  -1   1   3 175.370 7.36941   1
   0  -1  -3 935.735 37.4780   1
   0  -1  -3 924.437 40.4480   1
   0  -1  -3 879.289 34.5597   1
   0  -1  -3 36.7268 1.62181   2
   0  -1  -3 33.4714 1.39397   2
  -1  -1  -3 25.3185 0.97551   1
  -1  -1  -3 16.8346 0.81286  -2
  -1  -1  -3 16.8346 0.81286   1
  -1  -1  -3 0.73915 0.12122   2
   1   1   3 1.57865 0.24258   2
   1   1   3 24.1475 1.18908   1
  -2  -1  -3 12.7874 0.54744   1
  -2  -1  -3 11.8676 0.68876   1
  -2  -1  -3 0.93567 0.27738   2
  -2  -1  -3 0.50858 0.13510   2
   2   1   3 12.1247 0.75051   1
   2   1   3 1.12163 0.30926   2
  -3  -1  -3 14.3524 0.63885   2
  -3  -1  -3 11.1676 0.80859   2
  -3  -1  -3 297.044 12.1555   1
  -3  -1  -3 288.439 11.1416   1
   3   1   3 292.736 13.1389   1
  -4  -1  -2 10.3778 1.05176  -2
  -4  -1  -3 10.3778 1.05176   1
   4   1   2 11.3373 1.22338  -2
   4   1   3 11.3373 1.22338   1
   4   1   3 -0.1285 0.48877   2
   5   1   2 51.6357 2.79333  -2
   5   1   3 51.6357 2.79333   1
   6   1   2 10.6308 1.71120  -2
   6   1   3 10.6308 1.71120   1
   5  -2  -3 0.98726 0.77539   1
   5  -2  -3 -0.0177 0.72511   2
  -5   2   3 1.29388 0.63445   1
  -5   2   3 0.42154 0.59682   2
   4  -2  -3 0.03649 0.56210   2
   4  -2  -3 0.45379 0.57884   1
  -4   2   3 0.04771 0.48650   2
  -4   2   3 0.12504 0.46274   1
   3  -2  -3 0.96527 0.48243   2
   3  -2  -3 20.1030 1.23077   1
  -3   2   3 0.78657 0.39379   2
  -3   2   3 21.2234 1.06939   1
   2  -2  -3 17.8374 0.97206   1
   2  -2  -3 0.80958 0.33700   2
  -2   2   3 17.0938 0.84394   1
  -2   2   3 16.3459 0.80014   1
  -2   2   3 0.83750 0.30795   2
   1  -2  -3 105.187 4.01703   1
   1  -2  -3 102.820 4.67894   1
   1  -2  -3 4.17668 0.40987   2
  -1   2   3 102.017 4.28628   1
  -1   2   3 2.94068 0.32293   2
  -1   2   3 3.29748 0.25564   2
   0  -2  -3 744.282 32.7573   1
   0  -2  -3 721.356 27.9712   1
   0  -2  -3 749.895 30.3269   1
   0  -2  -3 27.2254 1.26234   2
   0  -2  -3 30.8206 1.39345   2
  -1  -2  -3 199.373 8.27401  -2
  -1  -2  -3 199.373 8.27401   1
   1   2   3 193.928 8.66840   1
   1   2   3 12.7009 0.70159   2
   2   2   3 134.264 6.09562  -2
   2   2   3 134.264 6.09562   1
  -3  -2  -3 32.9326 1.27550   1
  -3  -2  -3 28.4672 1.52967   1
  -3  -2  -3 1.24332 0.38993   2
   3   2   3 33.9528 1.66545   1
   3   2   3 3.41226 0.50602   2
  -4  -2  -3 0.63570 0.49231   1
   4   2   3 1.40656 0.60441   1
   4   2   3 0.05995 0.52564   2
  -5  -2  -2 17.5425 1.52326  -2
  -5  -2  -3 17.5425 1.52326   1
   5   2   2 15.3067 1.56320  -2
   5   2   3 15.3067 1.56320   1
   6   2   2 21.3555 1.93223  -2
   6   2   3 21.3555 1.93223   1
   5  -3  -3 0.82087 0.75537   1
   5  -3  -3 -0.5353 0.73662   2
  -5   3   3 1.00051 0.67033   1
  -5   3   3 0.61382 0.61316   2
   4  -3  -3 -0.1018 0.58259   2
   4  -3  -3 -0.2562 0.56238   1
  -4   3   3 -0.3590 0.51748   2
  -4   3   3 0.08232 0.50971   1
   3  -3  -3 89.6768 4.40248   1
   3  -3  -3 2.07011 0.55701   2
  -3   3   3 3.20575 0.52998   2
  -3   3   3 97.8102 3.78120   1
   2  -3  -3 475.325 21.5865   1
   2  -3  -3 14.2283 0.92687   2
  -2   3   3 13.8966 0.81486   2
  -2   3   3 492.418 18.4521   1
   1  -3  -3 133.864 6.09523   1
   1  -3  -3 4.43705 0.50425   2
  -1   3   3 135.309 5.21649   1
  -1   3   3 3.63000 0.39633   2
   0  -3  -3 -0.0234 0.24662   2
   0  -3  -3 -0.0368 0.17825   2
   0  -3  -3 6.26689 0.41580   1
   0  -3  -3 6.32705 0.50654   1
   0   3   3 6.06813 0.37726   1
   0   3   3 -0.0041 0.16799   2
  -1  -3  -3 16.2781 0.80872   1
  -1  -3  -3 0.40376 0.23332   2
   1   3   3 0.59055 0.27183   2
   1   3   3 0.03505 0.13202   2
   1   3   3 14.8919 0.85777   1
  -2  -3  -3 33.0716 1.65599  -2
  -2  -3  -3 33.0716 1.65599   1
   2   3   3 35.1781 1.74259  -2
   2   3   3 35.1781 1.74259   1
  -3  -3  -3 22.4518 1.42707  -2
  -3  -3  -3 22.4518 1.42707   1
   3   3   3 24.9268 1.42968  -2
   3   3   3 24.9268 1.42968   1
  -4  -3  -3 -0.2278 1.32182  -2
  -4  -3  -3 -0.2278 1.32182   1
   4   3   3 0.32397 0.54352   2
   4   3   3 0.66591 0.62359   1
  -5  -3  -2 38.6062 2.29425  -2
  -5  -3  -3 38.6062 2.29425   1
   5   3   3 1.85936 0.74427   2
   5   3   3 37.6328 2.20196   1
   6   3   2 0.85909 1.53363  -2
   6   3   3 0.85909 1.53363   1
   5  -4  -3 0.37896 0.85682   2
   5  -4  -3 0.49542 0.82744   1
  -5   4   3 -0.2685 0.67765   2
  -5   4   3 0.26207 0.73560   1
   4  -4  -3 0.23304 0.65200   2
   4  -4  -3 3.98527 0.81887   1
  -4   4   3 4.11615 0.71525   1
  -4   4   3 0.88298 0.52981   2
   3  -4  -3 19.4189 1.30627   1
   3  -4  -3 0.77472 0.56272   2
  -3   4   3 0.04271 0.48383   2
  -3   4   3 19.4977 1.12743   1
   2  -4  -3 3.67965 0.60236   1
   2  -4  -3 0.33972 0.45374   2
  -2   4   3 2.95906 0.45803   1
  -2   4   3 0.01793 0.36153   2
   1  -4  -3 0.48175 0.39142   1
  -1   4   3 0.64872 0.28730   1
  -1   4   3 -0.1799 0.28286   2
   0  -4  -3 1.33289 0.25043   2
   0  -4  -3 2.07648 0.38527   2
   0  -4  -3 60.0634 2.49432   1
   0   4   3 56.3457 2.31749   1
   0   4   3 2.00273 0.27826   2
  -1  -4  -3 2.51391 0.36332   1
  -1  -4  -3 0.45350 0.32130   2
   1   4   3 0.10183 0.20891   2
   1   4   3 1.77784 0.21687   1
   1   4   3 2.52953 0.38516   1
  -2  -4  -3 90.0005 3.88766  -2
  -2  -4  -3 90.0005 3.88766   1
   2   4   3 88.3001 4.15510  -2
   2   4   3 88.3001 4.15510   1
  -3  -4  -3 0.46086 0.75266  -2
  -3  -4  -3 0.46086 0.75266   1
   3   4   3 0.40718 0.67400  -2
   3   4   3 0.40718 0.67400   1
  -4  -4  -3 36.9398 1.93359  -2
  -4  -4  -3 36.9398 1.93359   1
   4   4   3 24.6311 1.66348  -2
   4   4   3 24.6311 1.66348   1
   5   4   3 0.57251 0.79903   2
   5   4   3 1.59413 0.84116   1
  -6  -4  -3 4.19990 1.10191   1
   5  -5  -3 1.39101 0.88026   1
   5  -5  -3 1.33462 0.91408   2
  -5   5   3 1.06839 0.68210   1
  -5   5   3 0.61398 0.72431   2
   4  -5  -3 -0.6972 0.70637   2
   4  -5  -3 2.45095 0.83490   1
  -4   5   3 0.69888 0.67403   1
  -4   5   3 -0.1098 0.58392   2
   3  -5  -3 0.65474 0.61890   1
   3  -5  -3 -0.6014 0.57945   2
  -3   5   3 0.88100 0.54327   1
  -3   5   3 -0.3675 0.44841   2
   2  -5  -3 3.19935 0.68613   1
   2  -5  -3 0.03858 0.55221   2
  -2   5   3 4.15561 0.57373   1
  -2   5   3 0.27062 0.40472   2
   1  -5  -4 19.1988 1.34286  -2
   1  -5  -3 19.1988 1.34286   1
  -1   5   3 16.8941 0.91658   1
  -1   5   3 0.74768 0.34592   2
   0  -5  -3 13.4879 0.72979   1
   0  -5  -3 14.5638 0.91579   1
   0   5   3 12.2905 0.69924   1
  -1  -5  -3 16.9382 1.07717   1
  -1  -5  -3 19.9380 1.01790   1
  -1  -5  -3 0.69835 0.41999   2
  -1  -5  -3 1.04210 0.34511   2
   1   5   3 17.1388 0.81506   1
  -2  -5  -3 0.30129 0.84228  -2
  -2  -5  -3 0.30129 0.84228   1
   2   5   3 0.28376 0.39581   2
   2   5   3 0.97122 0.42068   1
  -3  -5  -3 27.7021 1.61459  -2
  -3  -5  -3 27.7021 1.61459   1
   3   5   3 26.8717 1.55914  -2
   3   5   3 26.8717 1.55914   1
  -4  -5  -3 34.5612 2.05461  -2
  -4  -5  -3 34.5612 2.05461   1
   4   5   3 35.5818 1.99613  -2
   4   5   3 35.5818 1.99613   1
  -5  -5  -3 -0.8777 1.45146  -2
  -5  -5  -3 -0.8777 1.45146   1
   5   5   3 0.00802 0.85167   1
   5   5   3 -0.3391 0.79951   2
   4  -6  -3 7.34516 1.13541   1
  -4   6   3 7.11849 0.91706   1
   3  -6  -3 17.1011 1.45710   1
  -3   6   3 0.33273 0.54146   2
  -3   6   3 19.4482 1.17069   1
   2  -6  -3 0.43707 0.62301   2
   2  -6  -3 4.20214 0.78988   1
  -2   6   3 -0.3470 0.44636   2
  -2   6   3 3.51021 0.56206   1
   1  -6  -3 10.7387 0.96948   1
  -1   6   3 0.62751 0.42007   2
  -1   6   3 11.8761 0.78779   1
   0  -6  -4 30.6879 1.49801  -2
   0  -6  -3 30.6879 1.49801   1
   0  -6  -4 31.3064 1.81617  -2
   0  -6  -3 31.3064 1.81617   1
   0   6   3 29.2270 1.32235   1
  -1  -6  -3 0.19682 0.45240   1
  -1  -6  -4 0.29286 0.73421  -2
  -1  -6  -3 0.29286 0.73421   1
  -2  -6  -3 45.3045 2.19006   2
  -2  -6  -3 814.086 32.5627   1
   2   6   3 47.1434 2.36455   2
   2   6   3 764.264 35.1311   1
  -3  -6  -3 27.7211 1.73440  -2
  -3  -6  -3 27.7211 1.73440   1
   3   6   3 2.19470 0.67609   2
   3   6   3 26.4619 1.61341   1
  -4  -6  -3 6.29700 1.14335  -2
  -4  -6  -3 6.29700 1.14335   1
   4   6   3 8.41627 1.17232  -2
   4   6   3 8.41627 1.17232   1
  -5  -6  -3 1.74048 1.55623  -2
  -5  -6  -3 1.74048 1.55623   1
   5   6   3 -1.2323 1.39318  -2
   5   6   3 -1.2323 1.39318   1
   4  -7  -3 2.87357 1.06894   1
  -4   7   3 2.88100 0.89687   1
   3  -7  -3 25.5289 1.80640   1
  -3   7   3 25.9279 1.51185   1
   2  -7  -3 14.1276 1.30279   1
   2  -7  -3 1.50722 0.72578   2
  -2   7   3 14.1783 1.04500   1
   1  -7  -3 27.0233 1.69090   1
   1  -7  -3 0.45042 0.63671   2
  -1   7   3 1.18587 0.53687   2
  -1   7   3 30.1097 1.43803   1
   0  -7  -4 3.73716 1.10819  -2
   0  -7  -3 3.73716 1.10819   1
   0   7   3 2.37394 0.50812   1
  -1  -7  -4 38.6969 1.93924  -2
  -1  -7  -3 38.6969 1.93924   1
  -2  -7  -4 49.9286 2.58510  -2
  -2  -7  -3 49.9286 2.58510   1
   2   7   4 53.8761 2.74729  -2
   2   7   3 53.8761 2.74729   1
   3   7   3 31.2527 1.82910   1
   3   7   3 1.46287 0.65936   2
  -4  -7  -3 2.24887 1.44882  -2
  -4  -7  -3 2.24887 1.44882   1
   4   7   3 0.26166 1.29785  -2
   4   7   3 0.26166 1.29785   1
  -5  -7  -3 0.09887 1.25528  -2
  -5  -7  -3 0.09887 1.25528   1
   5   7   3 -1.2379 1.39577  -2
   5   7   3 -1.2379 1.39577   1
   3  -8  -3 11.7991 1.42045   1
  -3   8   3 13.4892 1.29410   1
   2  -8  -3 2.61033 0.80670   1
  -2   8   3 2.99479 0.74354   1
   1  -8  -3 0.24478 0.73257   2
   1  -8  -3 0.06814 0.68270   1
  -1   8   3 0.09467 0.59413   1
   0  -8  -3 -0.0278 0.64046   2
   0  -8  -3 1.69466 0.70157   1
   0   8   3 2.39864 0.68943   1
   0   8   3 0.15570 0.53662   2
  -1  -8  -4 0.84349 0.87632  -2
  -1  -8  -3 0.84349 0.87632   1
  -2  -8  -4 1.29473 1.17583  -2
  -2  -8  -3 1.29473 1.17583   1
   2   8   4 2.38567 0.96579  -2
   2   8   3 2.38567 0.96579   1
  -3  -8  -4 1.30953 1.41181  -2
  -3  -8  -3 1.30953 1.41181   1
   3   8   3 0.50852 0.72371   1
   3   8   3 0.85438 0.70393   2
  -4  -8  -3 -1.7927 1.75167  -2
  -4  -8  -3 -1.7927 1.75167   1
   4   8   3 0.60169 0.86470   2
   4   8   3 0.22169 0.85101   1
  -3   9   3 1.31085 1.09372   1
   2  -9  -3 0.41525 0.89441   1
  -2   9   3 0.55902 0.80545   1
   1  -9  -3 0.41579 0.85903   1
  -1   9   3 0.02859 0.69935   1
   0  -9  -3 4.33743 0.89792   1
   0  -9  -3 1.99543 0.79579   2
  -2  -9  -4 3.72762 1.02631  -2
  -2  -9  -3 3.72762 1.02631   1
   2   9   4 2.28840 1.15627  -2
   2   9   3 2.28840 1.15627   1
  -3  -9  -4 2.98093 1.38201  -2
  -3  -9  -3 2.98093 1.38201   1
   3   9   4 3.52910 1.36361  -2
   3   9   3 3.52910 1.36361   1
   4   9   3 -0.2726 0.85928   2
   4   9   3 10.1941 1.34559   1
  -2  10   3 0.74576 1.09333   1
   1 -10  -5 17.0108 2.18074  -2
   1 -10  -3 17.0108 2.18074   1
   0 -10  -3 6.92325 1.25844   1
   0 -10  -3 -0.2613 0.88751   2
   1  10   3 0.23581 0.81683   2
   1  10   3 0.62099 0.83575   1
   2  10   4 15.1558 1.79412  -2
   2  10   3 15.1558 1.79412   1
  -3 -10  -4 3.45015 1.27608  -2
  -3 -10  -3 3.45015 1.27608   1
  -2 -10   4 -0.1153 0.72762   2
  -2 -10   4 1.47206 0.65929   1
  -1  10  -4 1.17414 0.97868   2
  -1  10  -4 -0.0450 1.01688   1
  -3  -9   4 0.39934 0.81905   1
  -3  -9   4 0.08315 0.82491   2
  -2  -9   4 9.85173 1.16443   1
  -2  -9   4 -0.4025 0.77533   2
  -1  -9   4 0.23480 0.65741   2
   0   9  -4 0.74352 0.71222   1
   0   9  -4 0.43935 0.72105   2
  -1   9  -4 7.58122 1.02166   1
  -1   9  -4 -0.6056 0.78435   2
   1  -9   4 5.24420 1.14415   1
  -2   9  -4 0.32279 0.94498   1
  -2   9  -4 0.50979 0.89387   2
   2  -9   4 1.59268 1.09467   1
  -3  -8   4 0.46567 0.84630   1
  -3  -8   4 -0.7597 0.76854   2
  -2  -8   4 -0.7259 0.63251   2
  -2  -8   4 1.09621 0.71647   1
   1   8  -4 0.07647 0.60738   2
   1   8  -4 10.3690 1.23538   1
  -1  -8   4 0.20366 0.61975   2
  -1  -8   4 8.46524 0.98869   1
   0   8  -4 -0.0183 0.59914   2
   0   8  -4 8.80967 0.99558   1
   0  -8   4 8.58160 1.05760   1
   0  -8   4 0.00716 0.68718   2
  -1   8  -4 0.22835 0.67506   2
  -1   8  -4 6.34194 0.85895   1
   1  -8   4 0.74127 0.90267   2
   1  -8   4 5.60644 0.99067   1
  -2   8  -4 0.20741 0.73557   1
  -2   8  -4 -0.3822 0.70807   2
   2  -8   4 0.88673 0.89565   1
   2  -8   4 -0.7544 1.02164   2
  -3   8  -4 15.8295 1.44772   1
  -3   8  -4 1.13025 0.85196   2
   3  -8   4 14.7513 1.64216   1
   3  -8   4 0.10909 1.02282   2
  -4  -7   4 2.96460 0.94698   1
  -4  -7   4 -0.1773 0.89298   2
  -3  -7   4 0.23368 0.72881   1
  -3  -7   4 0.55191 0.70366   2
  -2  -7   4 1.35405 0.64923   1
  -2  -7   4 0.27183 0.61129   2
   1   7  -4 0.32017 0.49741   2
   1   7  -4 28.8205 1.42671   1
   1   7  -4 28.0687 1.57542   1
  -1  -7   4 27.7753 1.56735   1
  -1  -7   4 0.50091 0.55230   2
   0   7  -4 5.85309 0.71650   1
   0   7  -4 0.26009 0.52608   2
   0  -7   4 5.93793 0.66624   1
   0  -7   4 5.39832 0.79615   1
   0  -7   4 0.20100 0.52026   2
   0  -7   4 0.62189 0.50616   2
  -1   7  -4 2.77197 0.64097   2
  -1   7  -4 113.543 4.67164   1
   1  -7   4 117.562 5.44976   1
   1  -7   4 2.94405 0.71975   2
  -2   7  -4 -0.3275 0.58981   2
  -2   7  -4 40.3880 2.01825   1
   2  -7   4 0.65147 0.79704   2
   2  -7   4 42.5928 2.37196   1
  -3   7  -4 13.0865 1.23913   1
  -3   7  -4 -0.2050 0.69428   2
   3  -7   4 0.85889 0.89535   2
   3  -7   4 13.7334 1.48127   1
  -4   7  -4 0.75484 0.79045   1
  -4   7  -4 -0.4009 0.78284   2
   4  -7   4 0.09172 1.07374   2
  -5  -6   4 -0.9223 1.08364   2
  -4  -6   4 13.5600 1.42560   1
  -4  -6   4 0.20374 0.80865   2
  -3  -6   4 -0.0565 0.61105   2
  -3  -6   4 8.93433 1.08706   1
   2   6  -4 25.6814 1.40508   1
   2   6  -4 24.1541 1.23662   1
   2   6  -4 1.89254 0.77853   2
   2   6  -4 0.58538 0.42736   2
  -2  -6   4 1.16369 0.57814   2
  -2  -6   4 25.3931 1.49424   1
   1   6  -4 0.36748 0.41226   2
   1   6  -4 0.96547 0.36754   2
   1   6  -4 12.7444 0.90321   1
   1   6  -4 12.9736 0.87343   1
  -1  -6   4 0.57256 0.48050   2
  -1  -6   4 15.3570 0.99320   1
   0   6  -4 0.55350 0.45347   1
   0   6  -4 0.59962 0.44291   2
   0  -6   4 0.81303 0.40364   1
   0  -6   4 0.72890 0.51437   1
   0  -6   4 -0.1202 0.37850   2
   0  -6   4 -0.0715 0.44160   2
  -1   6  -4 120.448 4.78024   1
  -1   6  -4 2.18135 0.53116   2
   1  -6   4 2.58739 0.61969   2
   1  -6   4 1.79138 0.39947   2
   1  -6   4 118.319 5.55670   1
  -2   6  -4 3.03196 0.62008   2
  -2   6  -4 100.763 4.09388   1
   2  -6   4 2.64001 0.75045   2
   2  -6   4 99.2465 4.76851   1
  -3   6  -2 0.72814 1.15090  -2
  -3   6  -4 0.72814 1.15090   1
  -3   6  -4 0.18872 0.57823   2
   3  -6   4 1.57483 0.76237   1
   3  -6   4 0.35768 0.72402   2
  -4   6  -2 -0.7401 1.26099  -2
  -4   6  -4 -0.7401 1.26099   1
  -4   6  -4 -0.1312 0.71717   2
   4  -6   4 -0.3237 0.84480   2
   4  -6   2 -0.5210 1.57471  -2
   4  -6   4 -0.5210 1.57471   1
  -5  -5   4 0.08532 0.99634   2
  -4  -5   4 7.99139 1.02144   1
  -4  -5   4 0.29027 0.68445   2
   3   5  -4 1.44471 0.54827   2
   3   5  -4 25.7690 1.42690   1
  -3  -5   4 23.0565 1.50521   1
  -3  -5   4 0.75170 0.61415   2
   2   5  -4 -0.1085 0.38799   1
   2   5  -4 0.06932 0.35211   1
   2   5  -4 -0.3730 0.36192   2
   2   5  -4 -0.0850 0.36123   2
  -2  -5   4 0.48649 0.48969   2
  -2  -5   4 0.33238 0.47656   1
   1   5  -4 0.06090 0.33892   2
   1   5  -4 0.40192 0.30114   2
   1   5  -4 13.9577 0.80819   1
   1   5  -4 14.4870 0.86379   1
  -1  -5   4 0.36855 0.39950   2
  -1  -5   4 14.1814 0.90730   1
   0   5  -4 0.14454 0.34662   2
   0   5  -4 3.50132 0.47897   1
   0  -5   4 0.31786 0.34859   2
   0  -5   4 0.04849 0.35593   2
   0  -5   4 2.22358 0.48739   1
   0  -5   4 2.61504 0.41757   1
  -1   5  -4 8.80380 0.70575   1
  -1   5  -4 0.65595 0.40842   2
   1  -5   4 7.56790 0.79515   1
   1  -5   4 7.67180 0.57842   1
   1  -5   4 0.41375 0.30377   2
   1  -5   4 0.36286 0.46069   2
  -2   5  -4 0.53652 0.44186   2
  -2   5  -4 1.12614 0.45987   1
   2  -5   4 0.55623 0.55368   1
   2  -5   4 0.52091 0.52793   2
  -3   5  -4 1.01542 0.52746   1
  -3   5  -4 -0.0980 0.49822   2
   3  -5   4 0.16815 0.62577   2
   3  -5   4 0.67667 0.66801   1
  -4   5  -4 -0.2300 0.61080   2
  -4   5  -2 0.21975 1.23289  -2
  -4   5  -4 0.21975 1.23289   1
   4  -5   4 0.04263 0.73051   2
   4  -5   4 0.12054 0.73971   1
  -5   5  -2 -0.2532 1.44267  -2
  -5   5  -4 -0.2532 1.44267   1
  -5   5  -4 -0.4904 0.70477   2
   5  -5   4 0.54483 0.98693   2
   5  -5   2 2.36332 1.56661  -2
   5  -5   4 2.36332 1.56661   1
  -5  -4   4 0.78871 0.92785   2
  -5  -4   4 6.10639 1.10636   1
   4   4  -4 0.17363 0.57649   2
  -4  -4   4 0.81273 0.70791   1
  -4  -4   4 0.16974 0.64380   2
   3   4  -4 -0.1192 0.47727   2
   3   4  -4 0.49138 0.41912   2
   3   4  -4 15.9890 0.91839   1
   3   4  -4 15.4604 1.02742   1
  -3  -4   4 -0.2185 0.50375   2
  -3  -4   4 15.1803 1.13082   1
   2   4  -4 0.47578 0.32452   2
   2   4  -4 0.68370 0.34254   2
   2   4  -4 21.1384 1.14933   1
   2   4  -4 19.8310 1.00803   1
  -2  -4   4 24.2088 1.24913   1
  -2  -4   4 0.57371 0.44856   2
   1   4  -4 41.9300 1.81976   1
   1   4  -4 45.8530 2.06876   1
   1   4  -4 1.85593 0.30385   2
   1   4  -4 1.48802 0.32337   2
  -1  -4   4 43.4299 2.00967   1
  -1  -4   4 1.71316 0.38602   2
   0   4  -4 25.8978 1.20617   1
   0   4  -4 0.61259 0.30907   2
   0  -4   4 28.4360 1.29312   1
   0  -4   4 26.5413 1.36848   1
   0  -4   4 0.72621 0.30296   2
   0  -4   4 0.73268 0.29971   2
  -1   4  -4 0.06334 0.32300   2
  -1   4  -4 0.65191 0.33230   1
   1  -4   4 0.20294 0.35704   2
   1  -4   4 -0.0782 0.25218   2
   1  -4   4 0.76666 0.25343   1
   1  -4   4 1.01746 0.42754   1
  -2   4  -4 0.55807 0.36502   2
  -2   4  -4 25.9340 1.24723   1
   2  -4   4 0.59582 0.44397   2
   2  -4   4 0.43847 0.24922   2
   2  -4   4 25.1126 1.43816   1
  -3   4  -4 0.24407 0.44757   2
  -3   4  -4 15.6297 1.02624   1
   3  -4   4 14.4268 1.10488   1
   3  -4   4 0.46308 0.53600   2
  -4   4  -2 0.62130 1.06606  -2
  -4   4  -4 0.62130 1.06606   1
  -4   4  -4 0.08232 0.51588   2
   4  -4   4 0.09782 0.62147   1
   4  -4   4 -0.2446 0.60389   2
  -5   4  -4 0.14391 0.66346   2
  -5   4  -2 -0.6350 1.23618  -2
  -5   4  -4 -0.6350 1.23618   1
   5  -4   2 -0.3671 1.52997  -2
   5  -4   4 -0.3671 1.52997   1
   5  -4   4 0.06993 0.82627   2
   5   3  -4 0.37735 0.65317   2
  -5  -3   4 0.83253 0.89614   2
  -5  -3   4 10.5591 1.17670   1
   4   3  -4 11.6418 1.02971   1
   4   3  -4 0.10824 0.53169   2
  -4  -3   4 1.06055 0.66329   2
  -4  -3   4 14.0236 1.19299   1
   3   3  -4 0.24886 0.42652   2
   3   3  -4 -0.2134 0.34489   2
   3   3  -4 0.18867 0.32443   1
   3   3  -4 -0.1839 0.41083   1
  -3  -3   4 -0.1596 0.48270   2
  -3  -3   4 -0.2068 0.47305   1
   2   3  -4 3.93273 0.41727   1
   2   3  -4 3.47896 0.45505   1
   2   3  -4 0.54351 0.28706   2
   2   3  -4 0.30636 0.31468   2
  -2  -3   4 -0.1099 0.34543   2
  -2  -3   4 3.36573 0.49363   1
   1   3  -4 812.202 31.3544   1
   1   3  -4 835.158 36.6471   1
   1   3  -4 40.0126 1.62927   2
   1   3  -4 30.3613 1.44645   2
  -1  -3   4 832.583 34.0202   1
  -1  -3   4 31.4165 1.59488   2
   0   3  -4 4.95229 0.43512   1
   0   3  -4 -0.0676 0.23165   2
   0  -3   4 5.05423 0.42140   1
   0  -3   4 5.14866 0.43311   1
   0  -3   4 0.27198 0.24339   2
   0  -3   4 -0.0061 0.22260   2
  -1   3  -4 130.283 5.18865   1
  -1   3  -4 4.62066 0.45599   2
   1  -3   4 5.30852 0.46208   2
   1  -3   4 3.79101 0.39194   2
   1  -3   4 135.972 5.57359   1
   1  -3   4 134.769 6.05115   1
  -2   3  -4 18.0240 0.92276   1
  -2   3  -4 0.59743 0.31525   2
   2  -3   4 18.8875 0.86973   1
   2  -3   4 17.9730 1.07777   1
   2  -3   4 0.81261 0.38338   2
   2  -3   4 0.52023 0.25920   2
  -3   3  -4 13.1617 0.87809   1
  -3   3  -4 0.26741 0.38311   2
   3  -3   4 0.57823 0.47216   2
   3  -3   4 12.9889 0.99816   1
  -4   3  -4 0.71073 0.48826   2
  -4   3  -4 10.2621 0.89861   1
   4  -3   4 0.27861 0.56969   2
   4  -3   4 10.6537 1.07309   1
  -5   3  -2 72.4481 3.21165  -2
  -5   3  -4 72.4481 3.21165   1
  -5   3  -4 0.90293 0.60485   2
   5  -3   4 1.48375 0.78971   2
   5  -3   4 67.1039 3.48453   1
   5   2  -4 2.49595 0.70487   1
   5   2  -4 -0.5534 0.58102   2
  -5  -2   4 2.99673 0.84251   1
   4   2  -4 3.71383 0.57635   2
   4   2  -4 5.72715 0.75524   2
   4   2  -4 108.530 4.20102   1
   4   2  -4 99.1217 4.90517   1
  -4  -2   4 2.18761 0.65656   2
  -4  -2   4 106.916 4.61125   1
   3   2  -4 1.49969 0.42855   2
   3   2  -4 0.78352 0.36880   2
   3   2  -4 22.9638 1.33673   1
   3   2  -4 24.4525 1.17243   1
  -3  -2   4 0.93221 0.48175   2
  -3  -2   4 28.4889 1.38711   1
   2   2  -4 340.084 12.8224   1
   2   2  -4 334.864 14.9628   1
   2   2  -4 12.8254 0.73006   2
   2   2  -4 16.7371 0.84415   2
  -2  -2   4 10.7902 0.79593   2
  -2  -2   4 332.759 13.9263   1
   1   2  -4 2.11931 0.26776   1
   1   2  -4 2.93133 0.30204   1
   1   2  -4 -0.0581 0.21331   2
   1   2  -4 0.05504 0.17674   2
  -1  -2   4 2.19531 0.32515   1
  -1  -2   4 0.09939 0.24369   2
   0   2  -4 13.9941 0.68330   1
   0   2  -4 0.43019 0.21609   2
   0  -2   4 15.1632 0.74233   1
   0  -2   4 13.9500 0.70862   1
   0  -2   4 0.64306 0.22255   2
  -1   2  -4 877.489 34.0008   1
  -1   2  -4 32.5430 1.50015   2
   1  -2   4 34.9287 1.59803   2
   1  -2   4 40.9763 1.72215   2
   1  -2   4 898.434 36.8355   1
   1  -2   4 915.016 39.7858   1
  -2   2  -4 8.46174 0.58867   2
  -2   2  -4 225.670 8.60606   1
   2  -2   4 11.2525 0.70146   2
   2  -2   4 222.621 10.0778   1
  -3   2  -3 54.3604 2.30055  -2
  -3   2  -4 54.3604 2.30055   1
  -3   2  -4 0.91463 0.32483   2
  -3   2  -4 1.47678 0.39063   2
   3  -2   4 2.04972 0.47258   2
   3  -2   3 53.5038 2.71210  -2
   3  -2   4 53.5038 2.71210   1
  -4   2  -4 0.45564 0.45250   1
  -4   2  -4 -0.2859 0.41283   2
   4  -2   4 0.25444 0.57193   1
   4  -2   4 1.17794 0.58365   2
  -5   2  -4 7.39667 0.84157   1
   5  -2   4 8.20118 1.09702   1
   5  -2   4 -0.0875 0.74163   2
   6  -2   4 0.58000 0.88488   2
   6  -2   4 13.3480 1.61373   1
   5   1  -4 18.8341 1.33909   1
   5   1  -4 0.91494 0.67701   2
   4   1  -4 5.28733 0.68831   1
   4   1  -4 6.54232 0.69851   1
   4   1  -4 0.29923 0.47999   2
  -4  -1   4 6.93951 0.78367   1
  -4  -1   4 0.56090 0.56239   2
  -4  -1   4 0.48366 0.46883   2
   3   1  -4 -0.3605 0.33410   2
   3   1  -4 0.05886 0.38874   2
   3   1  -4 6.14872 0.59010   1
   3   1  -4 6.98883 0.64694   1
  -3  -1   4 6.64506 0.70757   1
  -3  -1   4 0.20589 0.41483   2
   2   1  -4 0.22957 0.27436   2
   2   1  -4 0.02328 0.25864   2
   2   1  -4 0.70342 0.29031   1
   2   1  -4 0.92442 0.29017   1
  -2  -1   4 0.28862 0.30162   2
  -2  -1   4 0.84625 0.33084   1
   1   1  -4 156.736 5.98198   1
   1   1  -4 5.03047 0.39379   2
  -1  -1   4 154.908 6.50240   1
  -1  -1   4 5.79893 0.42343   2
   0   1  -4 1.19908 0.21916   1
   0   1  -4 -0.1675 0.17673   2
   0  -1   4 1.17657 0.23139   1
   0  -1   4 0.28243 0.19818   2
  -1   1  -4 743.643 28.4397   1
  -1   1  -4 27.4912 1.15348   2
   1  -1   4 756.981 33.2750   1
  -2   1  -4 -0.0271 0.22706   1
  -2   1  -4 -0.0987 0.20491   1
  -2   1  -4 -0.2026 0.20005   2
  -2   1  -4 0.09641 0.24021   2
   2  -1   4 -0.2495 0.31332   1
   2  -1   4 0.05032 0.31817   2
  -3   1  -3 -0.1970 0.63953  -2
  -3   1  -4 -0.1970 0.63953   1
  -3   1  -3 -0.4390 0.52283  -2
  -3   1  -4 -0.4390 0.52283   1
  -3   1  -4 0.09973 0.31967   2
  -3   1  -4 -0.0175 0.26204   2
   3  -1   3 0.49120 0.83296  -2
   3  -1   4 0.49120 0.83296   1
  -4   1  -3 1.79447 0.74374  -2
  -4   1  -4 1.79447 0.74374   1
  -4   1  -4 0.16402 0.36072   2
   4  -1   3 1.88259 0.89310  -2
   4  -1   4 1.88259 0.89310   1
   5  -1   4 1.87773 0.66020   2
   5  -1   4 4.61856 0.85506   1
   6  -1   4 -0.0543 0.88967   2
   6  -1   4 0.95517 0.89091   1
   5   0  -4 1.07430 0.71082   1
   5   0  -4 0.89729 0.71306   2
  -5   0   4 -0.3959 0.49276   2
  -5   0   4 0.91961 0.59046   1
   4   0  -4 0.47003 0.55050   2
   4   0  -4 16.2081 1.18849   1
  -4   0   4 19.5645 1.17912   1
  -4   0   4 0.24724 0.48333   2
   3   0  -4 0.81956 0.38810   1
   3   0  -4 0.03418 0.35700   1
   3   0  -4 -0.1875 0.35883   2
   3   0  -4 -0.0180 0.32209   2
  -3   0   4 0.16738 0.37869   2
  -3   0   4 0.65808 0.38513   1
   2   0  -4 9.90818 0.60944   1
   2   0  -4 11.3157 0.65974   1
   2   0  -4 0.36812 0.29578   2
   2   0  -4 0.11462 0.25743   2
  -2   0   4 0.14333 0.27047   2
  -2   0   4 10.4014 0.63632   1
   1   0  -4 0.28794 0.21139   2
   1   0  -4 0.57665 0.18424   2
   1   0  -4 11.0445 0.57553   1
   1   0  -4 11.8519 0.60178   1
  -1   0   4 0.33349 0.21584   2
  -1   0   4 12.0668 0.63450   1
   0   0  -4 3.11769 0.27884   2
   0   0  -4 90.2825 3.44004   1
   0   0   4 88.0959 3.73639   1
   0   0   4 4.46542 0.34417   2
  -1   0  -4 0.86968 0.18061   1
  -1   0  -4 0.20116 0.21473   1
  -1   0  -4 -0.0896 0.13757   2
  -1   0  -4 0.18721 0.21700   2
   1   0   4 0.57671 0.20582   1
   1   0   4 0.06594 0.19436   2
  -2   0  -4 2.21791 0.32870   2
  -2   0  -4 1.93692 0.23743   2
  -2   0  -4 58.0314 2.44929   1
  -2   0  -4 55.9199 2.21911   1
   2   0   4 55.5748 2.65177   1
   2   0   4 3.05951 0.37840   2
  -3   0  -4 112.150 4.65898   1
  -3   0  -4 111.041 4.26131   1
  -3   0  -4 4.10675 0.38792   2
  -3   0  -4 3.02130 0.45176   2
   3   0   4 105.403 5.04848   1
   3   0   4 5.91801 0.61825   2
  -4   0  -3 0.21659 0.83751  -2
  -4   0  -4 0.21659 0.83751   1
  -4   0  -3 2.20706 0.58649  -2
  -4   0  -4 2.20706 0.58649   1
  -4   0  -4 -0.2757 0.29633   2
   4   0   3 3.47824 0.96083  -2
   4   0   4 3.47824 0.96083   1
   5   0   3 6.36734 1.26267  -2
   5   0   4 6.36734 1.26267   1
   6   0   4 5.06499 0.98559   1
   6   0   4 0.41509 0.79264   2
   5  -1  -4 0.09762 0.64002   2
   5  -1  -4 3.09724 0.74722   1
  -5   1   4 -0.0832 0.54147   2
  -5   1   4 5.16964 0.73152   1
   4  -1  -4 -0.1457 0.49569   2
   4  -1  -4 1.04218 0.54693   1
  -4   1   4 0.78124 0.50332   1
  -4   1   4 0.13245 0.43906   2
   3  -1  -4 0.35004 0.37995   2
   3  -1  -4 -0.1312 0.34926   1
   3  -1  -4 0.35433 0.36448   1
  -3   1   4 0.08832 0.34738   2
  -3   1   4 -0.2519 0.35247   2
  -3   1   4 0.33700 0.36059   1
   2  -1  -4 0.70098 0.30152   2
   2  -1  -4 0.46416 0.26357   2
   2  -1  -4 23.8023 1.23500   1
   2  -1  -4 24.5573 1.09990   1
  -2   1   4 23.8910 1.12600   1
  -2   1   4 0.22855 0.22096   2
   1  -1  -4 3.35851 0.34513   2
   1  -1  -4 3.69699 0.35550   2
   1  -1  -4 110.136 4.87890   1
   1  -1  -4 109.508 4.20690   1
  -1   1   4 105.640 4.52180   1
  -1   1   4 2.88694 0.29878   2
   0  -1  -4 30.8408 1.22180   2
   0  -1  -4 22.7800 1.09691   2
   0  -1  -4 27.6613 1.26901   2
   0  -1  -4 662.865 25.9622   1
   0  -1  -4 706.964 30.3745   1
   0  -1  -4 686.011 28.1640   1
  -1  -1  -4 6.49704 0.48941   1
  -1  -1  -4 7.98551 0.38096   1
  -1  -1  -4 0.33027 0.12933   2
  -1  -1  -4 0.51515 0.25179   2
   1   1   4 0.21833 0.19510   2
   1   1   4 8.61306 0.49722   1
  -2  -1  -4 0.34110 0.27055   2
  -2  -1  -4 -0.0152 0.15088   2
  -2  -1  -4 0.10979 0.14721   1
  -2  -1  -4 0.05236 0.25730   1
   2   1   4 0.40441 0.31230   1
   2   1   4 0.18422 0.29042   2
  -3  -1  -4 1.44236 0.40638   2
  -3  -1  -4 0.75006 0.19380   2
  -3  -1  -4 33.3175 1.36222   1
  -3  -1  -4 32.4364 1.57944   1
   3   1   4 33.6383 1.73071   1
   3   1   4 1.74539 0.46161   2
  -4  -1  -3 11.2303 1.08896  -2
  -4  -1  -4 11.2303 1.08896   1
   4   1   4 10.1956 0.95569   1
   4   1   4 0.95167 0.54636   2
   5   1   3 14.9262 1.37982  -2
   5   1   4 14.9262 1.37982   1
   6   1   3 6.17477 1.63245  -2
   6   1   4 6.17477 1.63245   1
   5  -2  -4 0.06283 0.69424   1
   5  -2  -4 0.29392 0.70180   2
  -5   2   4 -0.1753 0.59467   1
  -5   2   4 -0.2342 0.59925   2
   4  -2  -4 6.99259 0.89568   1
   4  -2  -4 0.05846 0.60523   2
  -4   2   4 0.44720 0.48411   2
  -4   2   4 6.88093 0.75877   1
   3  -2  -4 -0.0158 0.46552   2
   3  -2  -4 0.39871 0.43990   1
  -3   2   4 -0.0871 0.38850   1
  -3   2   4 0.19490 0.41244   2
   2  -2  -4 49.3434 2.49340   2
   2  -2  -4 1546.71 59.6366   1
   2  -2  -4 1564.34 69.7828   1
  -2   2   4 1610.06 64.5727   1
  -2   2   4 55.0854 2.16303   2
   1  -2  -4 0.56095 0.27323   1
   1  -2  -4 0.47768 0.24727   1
   1  -2  -4 0.54822 0.24856   2
   1  -2  -4 -0.1124 0.25868   2
  -1   2   4 0.18023 0.18144   2
  -1   2   4 0.74570 0.21510   1
   0  -2  -4 219.986 9.56439   1
   0  -2  -4 207.373 8.85742   1
   0  -2  -4 215.040 8.16813   1
   0  -2  -4 7.70418 0.43427   2
   0  -2  -4 4.88325 0.40151   2
   0  -2  -4 8.04550 0.48669   2
  -1  -2  -4 71.3018 2.71121   1
  -1  -2  -4 70.7625 3.01450   1
  -1  -2  -4 2.84184 0.35557   2
   1   2   4 69.8574 3.22650   1
   1   2   4 3.64887 0.36613   2
  -2  -2  -4 -0.1735 0.27805   1
  -2  -2  -4 -0.0047 0.27951   2
   2   2   4 0.01485 0.30407   2
   2   2   4 0.29041 0.32650   1
  -3  -2  -4 1.31077 0.42310   2
  -3  -2  -4 22.3114 1.18980   1
   3   2   4 22.5436 1.28139   1
   3   2   4 1.74725 0.45864   2
  -4  -2  -3 8.75690 1.19132  -2
  -4  -2  -4 8.75690 1.19132   1
  -4  -2  -4 0.41367 0.50609   2
   4   2   4 8.85030 0.96667   1
   4   2   4 0.27305 0.58107   2
  -5  -2  -3 23.2705 1.67702  -2
  -5  -2  -4 23.2705 1.67702   1
   5   2   3 23.8573 1.79376  -2
   5   2   4 23.8573 1.79376   1
   6   2   3 22.6522 1.78660  -2
   6   2   4 22.6522 1.78660   1
   5  -3  -4 0.00897 0.71723   2
   5  -3  -4 0.37941 0.75473   1
  -5   3   4 0.85022 0.66786   1
  -5   3   4 0.05730 0.61315   2
   4  -3  -4 2.62077 0.68183   1
   4  -3  -4 -0.0969 0.58033   2
  -4   3   4 2.54291 0.59779   1
  -4   3   4 0.25001 0.53880   2
   3  -3  -4 11.5838 0.94937   1
   3  -3  -4 0.79165 0.52157   2
  -3   3   4 0.72963 0.43145   2
  -3   3   4 11.6099 0.84988   1
   2  -3  -4 5.66491 0.62363   1
   2  -3  -4 1.38208 0.42167   2
  -2   3   4 5.76161 0.57149   1
  -2   3   4 -0.1181 0.33447   2
   1  -3  -4 3.38139 0.45152   1
   1  -3  -4 0.91628 0.34273   2
  -1   3   4 3.03544 0.36826   1
  -1   3   4 0.71131 0.28594   2
   0  -3  -4 58.3295 2.49473   1
   0  -3  -4 58.1060 2.71496   1
   0  -3  -4 1.53531 0.24327   2
   0  -3  -4 1.31556 0.30501   2
   0   3   4 1.45680 0.25197   2
  -1  -3  -4 43.2645 1.86016   1
  -1  -3  -4 2.07790 0.32029   2
   1   3   4 40.7561 1.63108   1
   1   3   4 41.5618 1.98777   1
   1   3   4 2.98403 0.38195   2
  -2  -3  -4 7.26410 0.73123  -2
  -2  -3  -4 7.26410 0.73123   1
   2   3   4 7.93831 0.80853  -2
   2   3   4 7.93831 0.80853   1
  -3  -3  -4 -0.7278 0.79530  -2
  -3  -3  -4 -0.7278 0.79530   1
   3   3   4 1.14064 0.77475  -2
   3   3   4 1.14064 0.77475   1
  -4  -3  -4 0.39093 0.53651   2
  -4  -3  -4 0.30642 0.53894   1
   4   3   4 0.03953 0.51920   2
   4   3   4 1.01513 0.61969   1
  -5  -3  -3 25.5691 1.88582  -2
  -5  -3  -4 25.5691 1.88582   1
   5   3   4 22.9463 1.62470   1
   5   3   4 1.91457 0.76331   2
   6   3   3 2.39869 1.47850  -2
   6   3   4 2.39869 1.47850   1
   5  -4  -4 0.90041 0.84987   1
   5  -4  -4 0.06504 0.86265   2
  -5   4   4 0.05042 0.67945   2
  -5   4   4 1.23480 0.74169   1
   4  -4  -4 0.09658 0.66801   2
   4  -4  -4 4.26979 0.85084   1
  -4   4   4 2.92241 0.67404   1
  -4   4   4 0.32760 0.52076   2
   3  -4  -4 2.47565 0.66720   1
   3  -4  -4 0.33001 0.55601   2
  -3   4   4 0.01798 0.48431   2
  -3   4   4 3.30923 0.56854   1
   2  -4  -4 0.14588 0.48036   2
   2  -4  -4 2.08947 0.54183   1
  -2   4   4 0.25128 0.36851   2
  -2   4   4 2.35217 0.44698   1
   1  -4  -4 1.94348 0.45685   2
   1  -4  -4 63.0395 2.93553   1
  -1   4   4 60.2151 2.49278   1
  -1   4   4 1.82961 0.36807   2
   0  -4  -4 19.6104 1.06430   1
   0  -4  -4 18.5246 0.91973   1
   0  -4  -4 0.90412 0.35824   2
   0  -4  -4 0.68966 0.23523   2
   0   4   4 0.68714 0.26840   2
   0   4   4 18.4490 0.85986   1
  -1  -4  -4 121.424 4.94539   1
  -1  -4  -4 4.56083 0.46721   2
   1   4   4 3.78449 0.32364   2
   1   4   4 116.478 4.48703   1
   1   4   4 113.223 5.32758   1
  -2  -4  -4 -0.1680 0.70563  -2
  -2  -4  -4 -0.1680 0.70563   1
   2   4   4 -0.2064 0.33170   2
   2   4   4 0.69929 0.38356   1
  -3  -4  -4 1.22969 0.60476  -2
  -3  -4  -4 1.22969 0.60476   1
   3   4   4 1.17450 0.80104  -2
   3   4   4 1.17450 0.80104   1
  -4  -4  -4 -1.8508 1.14835  -2
  -4  -4  -4 -1.8508 1.14835   1
   4   4   4 -0.6239 1.11291  -2
   4   4   4 -0.6239 1.11291   1
   5   4   4 0.87771 0.80498   2
   5   4   4 9.15249 1.13164   1
  -6  -4  -3 0.95765 1.85920  -2
  -6  -4  -4 0.95765 1.85920   1
   6   4   4 1.09068 0.97815   2
   5  -5  -4 0.19288 0.95817   2
   5  -5  -4 1.01616 0.90465   1
  -5   5   4 1.36097 0.70072   1
  -5   5   4 0.21942 0.68562   2
   4  -5  -4 21.9810 1.67384   1
   4  -5  -4 -0.0863 0.75782   2
  -4   5   4 25.7092 1.46569   1
  -4   5   4 0.33858 0.60185   2
   3  -5  -4 0.31133 0.64061   2
   3  -5  -4 5.23692 0.86773   1
  -3   5   4 0.18552 0.46716   2
  -3   5   4 4.34077 0.68341   1
   2  -5  -4 7.46966 0.87520   1
   2  -5  -4 1.36226 0.59407   2
  -2   5   4 6.62172 0.68324   1
  -2   5   4 0.05863 0.42439   2
   1  -5  -4 28.1330 1.38733   1
   1  -5  -4 28.9693 1.55526   1
  -1   5   4 25.9793 1.27784   1
  -1   5   4 0.58753 0.35062   2
   0  -5  -4 2.76126 0.49527   2
   0  -5  -4 1.67859 0.31919   2
   0  -5  -4 88.1791 4.30686   1
   0  -5  -4 95.2762 3.92785   1
   0   5   4 2.98533 0.38945   2
   0   5   4 93.6196 3.64548   1
  -1  -5  -4 45.1203 2.00897   1
  -1  -5  -4 1.34082 0.46235   2
  -1  -5  -4 1.59163 0.36113   2
   1   5   4 1.35623 0.28017   2
   1   5   4 43.3781 1.77109   1
  -2  -5  -4 5.72410 0.66337   1
  -2  -5  -4 0.23504 0.39591   2
   2   5   4 0.48697 0.42880   2
   2   5   4 5.75429 0.67615   1
  -3  -5  -4 1.52068 0.90605  -2
  -3  -5  -4 1.52068 0.90605   1
   3   5   4 4.75881 0.99820  -2
   3   5   4 4.75881 0.99820   1
  -4  -5  -4 25.1961 1.69177  -2
  -4  -5  -4 25.1961 1.69177   1
   4   5   4 26.5542 1.68117  -2
   4   5   4 26.5542 1.68117   1
  -5  -5  -4 2.17186 1.51984  -2
  -5  -5  -4 2.17186 1.51984   1
   5   5   4 2.30234 1.53602  -2
   5   5   4 2.30234 1.53602   1
   4  -6  -4 -0.2659 0.86929   2
   4  -6  -4 11.5818 1.41531   1
  -4   6   4 9.98316 1.03843   1
  -4   6   4 -0.1950 0.67077   2
   3  -6  -4 0.27475 0.74695   2
   3  -6  -4 -0.2299 0.72387   1
  -3   6   4 0.14599 0.58193   1
  -3   6   4 0.36234 0.53673   2
   2  -6  -4 0.10469 0.62003   1
   2  -6  -4 -0.1309 0.62599   2
  -2   6   4 0.07870 0.47143   2
  -2   6   4 -0.0403 0.49751   1
   1  -6  -4 1.79699 0.57535   1
   1  -6  -4 0.22815 0.50711   2
  -1   6   4 1.07571 0.41371   1
  -1   6   4 -0.1355 0.39158   2
   0  -6  -4 19.8907 1.22556   1
   0  -6  -4 19.3997 1.00998   1
   0   6   4 18.5661 0.96675   1
   0   6   4 1.16942 0.38889   2
  -1  -6  -4 -0.0262 0.45691   2
  -1  -6  -4 6.34445 0.74993   1
  -1  -6  -4 5.46999 0.62616   1
  -2  -6  -4 13.1374 0.94556   1
   2   6   4 11.5546 1.02299   1
  -3  -6  -4 91.0025 4.17757  -2
  -3  -6  -4 91.0025 4.17757   1
   3   6   4 79.7463 3.85614   1
   3   6   4 5.22371 0.77666   2
  -4  -6  -4 2.49355 0.91861  -2
  -4  -6  -4 2.49355 0.91861   1
   4   6   4 3.11734 0.86340  -2
   4   6   4 3.11734 0.86340   1
  -5  -6  -4 6.67207 1.59999  -2
  -5  -6  -4 6.67207 1.59999   1
   5   6   4 3.81532 1.18219  -2
   5   6   4 3.81532 1.18219   1
   4  -7  -4 6.54557 1.17515   1
   4  -7  -4 -0.3030 0.98631   2
  -4   7   4 7.45384 1.00085   1
  -4   7   4 0.15649 0.83711   2
   3  -7  -4 0.94827 0.88194   1
   3  -7  -4 -0.5166 0.80692   2
  -3   7   4 0.92676 0.66889   1
  -3   7   4 0.23238 0.64295   2
   2  -7  -4 -0.1704 0.72279   1
   2  -7  -4 0.07623 0.69890   2
  -2   7   4 -0.2106 0.50234   1
  -2   7   4 0.23978 0.53552   2
   1  -7  -4 -0.0773 0.56387   2
   1  -7  -4 1.14787 0.64080   1
  -1   7   4 -0.0591 0.47884   1
  -1   7   4 -0.0436 0.49431   2
   0  -7  -4 13.0430 1.08281   1
   0   7   4 12.1672 0.86587   1
   0   7   4 0.15619 0.45910   2
  -1  -7  -5 24.3463 1.49116  -2
  -1  -7  -4 24.3463 1.49116   1
  -2  -7  -5 48.6835 2.55408  -2
  -2  -7  -4 48.6835 2.55408   1
   2   7   5 54.4625 2.78530  -2
   2   7   4 54.4625 2.78530   1
  -3  -7  -4 26.9996 1.96858  -2
  -3  -7  -4 26.9996 1.96858   1
   3   7   4 2.25662 0.67948   2
   3   7   4 18.5786 1.36526   1
  -4  -7  -4 1.16662 1.19330  -2
  -4  -7  -4 1.16662 1.19330   1
   4   7   4 1.90827 1.50476  -2
   4   7   4 1.90827 1.50476   1
  -5  -7  -4 7.92825 1.39168  -2
  -5  -7  -4 7.92825 1.39168   1
   5   7   4 6.30103 1.26707  -2
   5   7   4 6.30103 1.26707   1
   3  -8  -4 10.4557 1.38022   1
  -3   8   4 9.34317 1.13250   1
   2  -8  -4 -0.3139 0.74696   1
  -2   8   4 0.16522 0.63904   1
   1  -8  -4 -0.0037 0.70894   2
   1  -8  -4 3.57754 0.88247   1
  -1   8   4 4.62188 0.73089   1
  -1   8   4 0.26585 0.62116   2
   0  -8  -4 1.28044 0.67687   2
   0  -8  -4 45.7139 2.49305   1
   0   8   4 0.11740 0.55066   2
  -1  -8  -5 88.5944 3.95407  -2
  -1  -8  -4 88.5944 3.95407   1
  -2  -8  -5 10.8173 1.31492  -2
  -2  -8  -4 10.8173 1.31492   1
   2   8   5 10.0424 1.26586  -2
   2   8   4 10.0424 1.26586   1
  -3  -8  -5 0.57405 1.34362  -2
  -3  -8  -4 0.57405 1.34362   1
   3   8   5 0.96308 1.50113  -2
   3   8   4 0.96308 1.50113   1
   3   8   4 0.90760 0.74915   2
  -4  -8  -4 0.18701 1.51839  -2
  -4  -8  -4 0.18701 1.51839   1
   4   8   4 -0.3860 0.84025   2
   4   8   4 1.23746 0.89854   1
   2  -9  -4 -0.3506 0.82216   1
  -2   9   4 -0.3143 0.79896   1
   1  -9  -4 0.29850 0.89321   2
   1  -9  -4 0.72969 0.86471   1
  -1   9   4 1.59814 0.73871   1
   0  -9  -4 -0.1046 0.71755   2
   0  -9  -4 10.6763 1.20293   1
  -2  -9  -5 6.80863 1.17393  -2
  -2  -9  -4 6.80863 1.17393   1
   2   9   5 5.78260 1.39541  -2
   2   9   4 5.78260 1.39541   1
  -3  -9  -5 -1.1021 1.29812  -2
  -3  -9  -4 -1.1021 1.29812   1
   3   9   5 -0.2614 1.39904  -2
   3   9   4 -0.2614 1.39904   1
   4   9   4 0.07309 0.88084   1
   4   9   4 0.15476 0.85701   2
   1 -10  -4 0.93444 1.01714   1
   0 -10  -4 0.33656 0.99216   1
   0 -10  -4 -0.2599 0.98088   2
   1  10   4 0.57872 0.85061   2
   1  10   4 0.79463 0.87150   1
   2  10   5 1.07800 1.56979  -2
   2  10   4 1.07800 1.56979   1
  -3 -10  -5 0.22894 1.18847  -2
  -3 -10  -4 0.22894 1.18847   1
   0  10  -5 0.47911 0.85748   2
  -1  10  -5 1.29004 1.06081   1
  -1  10  -5 0.28145 0.93339   2
  -2  -9   5 -0.1561 0.83780   2
  -2  -9   5 0.14996 0.80894   1
  -1  -9   5 -1.5284 0.61256   2
   0   9  -5 0.50410 0.74241   1
   0   9  -5 0.00034 0.69674   2
  -1   9  -5 1.14127 0.89236   1
  -1   9  -5 -0.0727 0.79885   2
  -2   9  -5 1.67357 0.97320   1
  -2   9  -5 0.30807 0.92578   2
   2  -9   5 1.24433 1.05331   1
  -3  -8   5 -0.0012 0.84482   2
  -3  -8   5 3.60355 0.96161   1
  -2  -8   5 0.74564 0.73363   1
  -2  -8   5 0.03619 0.71237   2
   1   8  -5 13.1977 1.05362   1
   1   8  -5 -0.2634 0.61436   2
  -1  -8   5 0.43413 0.64094   2
  -1  -8   5 9.47512 1.07756   1
   0   8  -5 0.51978 0.64554   1
   0   8  -5 -0.6295 0.58203   2
   0  -8   5 -0.6116 0.53831   2
  -1   8  -5 0.35448 0.65339   2
  -1   8  -5 -0.1706 0.66202   1
   1  -8   5 0.39808 0.81782   1
  -2   8  -5 -0.2421 0.70793   2
  -2   8  -5 3.30922 0.80824   1
   2  -8   5 2.05809 0.95635   1
  -3   8  -5 15.9819 1.48534   1
  -3   8  -5 -0.0579 0.85657   2
   3  -8   5 16.6099 1.78296   1
  -4  -7   5 3.82742 1.09457   1
  -4  -7   5 0.23966 0.93075   2
  -3  -7   5 0.41943 0.77389   2
  -3  -7   5 2.65418 0.87874   1
  -2  -7   5 0.91035 0.64313   1
  -2  -7   5 -0.3830 0.64370   2
   1   7  -5 0.07421 0.53448   2
   1   7  -5 3.55354 0.61994   1
  -1  -7   5 3.87151 0.71478   1
  -1  -7   5 0.20944 0.57509   2
   0   7  -5 15.4102 1.04402   1
   0   7  -5 0.28676 0.52603   2
   0  -7   5 0.29630 0.49938   2
   0  -7   5 13.6159 1.02430   1
   0  -7   5 16.0145 1.21195   1
  -1   7  -5 43.5588 2.08095   1
  -1   7  -5 1.44373 0.62358   2
   1  -7   5 44.6333 2.38274   1
  -2   7  -5 51.7118 2.39547   1
  -2   7  -5 -0.4683 0.59086   2
   2  -7   5 0.61389 0.76243   2
   2  -7   5 51.8116 2.80289   1
  -3   7  -5 -0.2115 0.66140   2
  -3   7  -5 18.7096 1.38390   1
   3  -7   5 17.0755 1.64429   1
   3  -7   5 0.08665 0.89864   2
  -4   7  -5 -0.0385 0.83859   2
  -4   7  -5 0.43306 0.83213   1
   4  -7   5 1.42852 1.14328   1
   4  -7   5 0.54209 1.10308   2
  -4  -6   5 0.87542 0.87064   1
  -4  -6   5 0.25575 0.86496   2
  -3  -6   5 0.21715 0.70179   2
  -3  -6   5 31.1192 1.82325   1
   2   6  -5 23.8337 1.23528   1
   2   6  -5 0.40850 0.46004   2
  -2  -6   5 0.75123 0.60649   2
  -2  -6   5 24.4082 1.47695   1
   1   6  -5 6.52641 0.71307   1
   1   6  -5 5.52883 0.64993   1
   1   6  -5 0.12179 0.44976   2
  -1  -6   5 6.84253 0.75176   1
  -1  -6   5 -0.0973 0.51200   2
   0   6  -5 0.27294 0.45295   2
   0   6  -5 21.3123 1.06632   1
   0  -6   5 0.56501 0.45292   2
   0  -6   5 -0.1151 0.49014   2
   0  -6   5 15.9880 1.05836   1
   0  -6   5 16.5883 1.17904   1
  -1   6  -5 1.26306 0.52002   2
   1  -6   5 0.90203 0.39721   2
   1  -6   5 0.89940 0.54449   2
   1  -6   5 27.7533 1.63342   1
  -2   6  -5 126.952 5.08712   1
   2  -6   5 125.708 5.92121   1
   2  -6   5 2.71430 0.74230   2
  -3   6  -5 4.11825 0.73265   1
  -3   6  -5 0.09453 0.61032   2
   3  -6   5 5.09494 0.91763   1
   3  -6   5 0.05009 0.73350   2
  -4   6  -5 0.80057 0.72988   1
  -4   6  -5 0.22804 0.74654   2
   4  -6   5 -0.1749 0.84468   2
   4  -6   5 1.55301 0.95772   1
  -5  -5   5 0.06933 0.99154   2
  -4  -5   5 -0.0228 0.76227   2
  -4  -5   5 2.61573 0.87658   1
  -3  -5   5 11.6536 1.13807   1
  -3  -5   5 0.39136 0.62289   2
   2   5  -5 10.8734 1.09158   1
   2   5  -5 9.62710 0.74626   1
   2   5  -5 0.09466 0.40500   2
  -2  -5   5 14.1412 1.01807   1
  -2  -5   5 0.51157 0.50239   2
   1   5  -5 4.06867 0.46814   1
   1   5  -5 2.22624 0.45116   1
   1   5  -5 0.09790 0.38349   2
   1   5  -5 -0.1290 0.26667   2
  -1  -5   5 2.12442 0.51748   1
  -1  -5   5 -0.1281 0.42343   2
   0   5  -5 11.5626 0.76025   1
   0   5  -5 -0.2161 0.35072   2
   0  -5   5 0.15522 0.33637   2
   0  -5   5 0.21926 0.35761   2
   0  -5   5 11.1929 0.79164   1
   0  -5   5 10.9844 0.82375   1
  -1   5  -5 0.54521 0.42334   2
  -1   5  -5 4.62558 0.55682   1
   1  -5   5 4.22070 0.64205   1
   1  -5   5 4.06803 0.45514   1
   1  -5   5 0.01903 0.32116   2
   1  -5   5 -0.1422 0.44111   2
  -2   5  -5 0.71385 0.48434   1
  -2   5  -5 0.06118 0.44754   2
   2  -5   5 1.58242 0.59766   1
   2  -5   5 -0.1884 0.52939   2
  -3   5  -5 -0.2775 0.50320   2
  -3   5  -5 0.92701 0.53955   1
   3  -5   5 0.31607 0.66482   1
   3  -5   5 -0.2281 0.62136   2
  -4   5  -5 1.39745 0.67092   1
  -4   5  -5 -0.4412 0.59969   2
   4  -5   5 1.34801 0.78203   1
   4  -5   5 0.11404 0.74101   2
  -5   5  -5 0.42047 0.78188   1
  -5   5  -5 -0.6131 0.74939   2
   5  -5   5 0.48846 0.97675   2
   5  -5   3 0.91402 1.66183  -2
   5  -5   5 0.91402 1.66183   1
  -5  -4   5 11.2521 1.35075   1
  -5  -4   5 0.00687 0.84867   2
  -4  -4   5 -0.0559 0.70857   2
  -4  -4   5 5.89589 0.90632   1
   3   4  -5 3.07795 0.52687   1
   3   4  -5 0.04343 0.43327   2
  -3  -4   5 2.72842 0.66397   1
  -3  -4   5 0.04415 0.57416   2
   2   4  -5 -0.0321 0.35070   2
   2   4  -5 0.17280 0.33033   2
   2   4  -5 0.21121 0.34737   1
   2   4  -5 0.21452 0.30167   1
  -2  -4   5 0.34078 0.44918   2
  -2  -4   5 0.34283 0.44647   1
   1   4  -5 0.63793 0.33115   2
   1   4  -5 0.97137 0.25914   2
   1   4  -5 13.0967 0.78586   1
   1   4  -5 14.7120 0.77877   1
  -1  -4   5 13.9915 0.88853   1
  -1  -4   5 0.76086 0.39389   2
   0   4  -5 0.11516 0.29172   2
   0   4  -5 6.30441 0.55929   1
   0  -4   5 7.55716 0.58608   1
   0  -4   5 7.43040 0.59138   1
   0  -4   5 0.58255 0.27473   2
   0  -4   5 0.12750 0.30375   2
  -1   4  -5 3.72944 0.47172   1
  -1   4  -5 0.23931 0.33482   2
   1  -4   5 4.73371 0.57359   1
   1  -4   5 3.52076 0.40751   1
   1  -4   5 0.23739 0.37424   2
   1  -4   5 0.08719 0.25605   2
  -2   4  -5 -0.0629 0.36729   2
  -2   4  -5 1.76929 0.45478   1
   2  -4   5 0.14119 0.44507   2
   2  -4   5 0.03778 0.27488   2
   2  -4   5 1.51339 0.52025   1
  -3   4  -5 0.02687 0.44290   2
  -3   4  -5 0.10797 0.47082   1
   3  -4   5 -0.1780 0.51328   2
   3  -4   5 -0.1335 0.52640   1
  -4   4  -5 19.1582 1.21738   1
  -4   4  -5 0.04712 0.55509   2
   4  -4   5 -0.1212 0.61836   2
   4  -4   5 19.7116 1.44199   1
  -5   4  -5 -0.6978 0.65980   2
  -5   4  -3 0.16055 1.33787  -2
  -5   4  -5 0.16055 1.33787   1
   5  -4   5 0.15367 0.83130   2
   5  -4   5 1.24468 0.87263   1
  -5  -3   5 1.00579 0.88171   1
  -5  -3   5 0.64496 0.82000   2
   4   3  -5 0.94853 0.81764   2
  -4  -3   5 0.73666 0.68756   2
  -4  -3   5 14.2770 1.26145   1
   3   3  -5 -0.1621 0.40684   2
   3   3  -5 0.07760 0.40824   2
   3   3  -5 -0.0948 0.39926   1
   3   3  -5 0.22132 0.41049   1
  -3  -3   5 0.76622 0.54503   1
  -3  -3   5 -0.6572 0.49501   2
   2   3  -5 0.16330 0.32714   2
   2   3  -5 0.27114 0.31535   2
   2   3  -5 10.7238 0.73139   1
   2   3  -5 13.4841 0.76257   1
  -2  -3   5 0.35272 0.42646   2
  -2  -3   5 13.3230 0.89373   1
   1   3  -5 27.5220 1.25303   1
   1   3  -5 25.0008 1.16339   1
   1   3  -5 0.94968 0.29040   2
   1   3  -5 0.99815 0.23492   2
  -1  -3   5 25.1644 1.29229   1
  -1  -3   5 0.47153 0.30520   2
   0   3  -5 7.26121 0.53498   1
   0   3  -5 0.14484 0.25567   2
   0  -3   5 7.31800 0.55678   1
   0  -3   5 8.50457 0.50909   1
   0  -3   5 0.63575 0.28313   2
   0  -3   5 -0.0464 0.20538   2
  -1   3  -5 4.61054 0.44958   1
  -1   3  -5 -0.0542 0.28638   2
   1  -3   5 4.19542 0.40667   1
   1  -3   5 4.87986 0.49689   1
   1  -3   5 0.22842 0.29058   2
   1  -3   5 0.02668 0.24219   2
  -2   3  -5 1.42843 0.34420   2
  -2   3  -5 84.7185 3.39678   1
   2  -3   5 2.10209 0.34169   2
   2  -3   5 2.47238 0.46669   2
   2  -3   5 82.8322 3.95893   1
   2  -3   5 87.0508 3.59360   1
  -3   3  -5 0.36793 0.39062   2
  -3   3  -5 0.75296 0.41412   1
   3  -3   5 -0.0895 0.47944   1
   3  -3   5 0.01516 0.45502   2
  -4   3  -5 24.2960 1.35315   1
  -4   3  -5 0.23688 0.51319   2
   4  -3   5 27.0988 1.62702   1
   4  -3   5 0.09874 0.56845   2
  -5   3  -5 -0.4705 0.51587   2
  -5   3  -3 2.77024 1.27558  -2
  -5   3  -5 2.77024 1.27558   1
   5  -3   5 3.42550 0.90604   1
   5  -3   5 -0.0482 0.74809   2
  -5  -2   5 1.75059 0.86205   1
   4   2  -5 12.2936 0.87915   1
   4   2  -5 9.77390 1.01653   1
   4   2  -5 0.62594 0.56323   2
   4   2  -5 0.08429 0.46472   2
  -4  -2   5 0.26251 0.62700   2
  -4  -2   5 10.9876 1.08927   1
   3   2  -5 61.1847 2.91286   1
   3   2  -5 59.7654 2.54346   1
   3   2  -5 2.98077 0.50864   2
   3   2  -5 1.86890 0.43164   2
  -3  -2   5 1.47132 0.50351   2
  -3  -2   5 63.7803 2.81935   1
   2   2  -5 0.37598 0.30218   1
   2   2  -5 0.26579 0.24736   1
   2   2  -5 0.14401 0.29947   2
   2   2  -5 0.20130 0.28178   2
  -2  -2   5 0.10114 0.36320   2
  -2  -2   5 -0.2040 0.34827   1
   1   2  -5 157.353 6.25313   1
   1   2  -5 5.59744 0.44437   2
  -1  -2   5 5.59438 0.50318   2
  -1  -2   5 167.662 6.81582   1
   0   2  -5 1.10834 0.26295   2
   0   2  -5 5.77525 0.42577   1
   0  -2   5 6.38158 0.48172   1
   0  -2   5 0.26940 0.25554   2
  -1   2  -5 105.335 4.09635   1
  -1   2  -5 3.64274 0.38809   2
   1  -2   5 105.511 4.75263   1
   1  -2   5 104.077 4.41083   1
   1  -2   5 4.24147 0.40918   2
   1  -2   5 3.83989 0.37259   2
  -2   2  -5 286.067 11.2192   1
   2  -2   5 12.8868 0.80185   2
   2  -2   5 300.478 13.1412   1
  -3   2  -5 0.57855 0.33673   2
  -3   2  -5 0.41685 0.41028   2
  -3   2  -5 20.7182 1.10994   1
  -3   2  -5 21.8977 1.05909   1
   3  -2   5 0.67447 0.43832   2
   3  -2   5 21.5912 1.27727   1
  -4   2  -5 1.99200 0.48349   2
  -4   2  -5 124.489 4.95018   1
   4  -2   5 124.158 5.83841   1
   4  -2   5 3.12938 0.65783   2
  -5   2  -5 1.71072 0.57446   1
   5  -2   5 0.56991 0.75670   2
   5  -2   5 2.56653 0.83939   1
   6  -2   5 0.37757 1.51256   2
   5   1  -5 -0.2906 0.59674   2
   4   1  -5 15.6636 0.96832   1
   4   1  -5 14.1751 1.06543   1
   4   1  -5 0.42086 0.51210   2
   4   1  -5 0.46829 0.49333   2
  -4  -1   5 0.13579 0.60359   2
  -4  -1   5 16.8181 1.18492   1
   3   1  -5 -0.1594 0.36312   2
   3   1  -5 0.33172 0.34771   2
   3   1  -5 6.79924 0.63590   1
   3   1  -5 6.69159 0.61150   1
  -3  -1   5 7.26696 0.75216   1
  -3  -1   5 0.10964 0.42999   2
   2   1  -5 12.5149 0.70596   1
   2   1  -5 12.1377 0.68091   1
   2   1  -5 0.46032 0.26075   2
   2   1  -5 0.46422 0.24651   2
  -2  -1   5 11.3257 0.75000   1
  -2  -1   5 0.31218 0.31906   2
   1   1  -5 42.3329 1.68579   1
   1   1  -5 1.74177 0.22856   2
   1   1  -5 1.22522 0.26825   2
  -1  -1   5 1.31568 0.28868   2
  -1  -1   5 40.0353 1.84226   1
   0   1  -5 0.60913 0.21102   2
   0   1  -5 10.0089 0.52631   1
   0  -1   5 9.44752 0.57579   1
   0  -1   5 0.47164 0.22537   2
  -1   1  -5 669.326 25.2844   1
   1  -1   5 41.8142 1.93914   2
   1  -1   5 663.704 29.5653   1
  -2   1  -5 0.12850 0.22958   2
  -2   1  -5 -0.1329 0.28384   2
  -2   1  -5 1.84842 0.35762   1
  -2   1  -5 1.87730 0.29054   1
   2  -1   5 1.77865 0.41003   1
   2  -1   5 0.23033 0.31344   2
  -3   1  -5 -0.1664 0.26695   1
  -3   1  -5 0.05325 0.32888   1
  -3   1  -5 0.07616 0.33943   2
  -3   1  -5 0.00547 0.27001   2
   3  -1   5 -0.0368 0.43578   2
   3  -1   4 0.09647 0.89917  -2
   3  -1   5 0.09647 0.89917   1
  -4   1  -5 1.12078 0.52479   2
  -4   1  -5 0.64538 0.38501   2
  -4   1  -5 56.6406 2.38242   1
   4  -1   5 1.82314 0.60547   2
   4  -1   4 54.8266 2.89130  -2
   4  -1   5 54.8266 2.89130   1
   5  -1   5 2.77503 0.70138   2
   5  -1   5 97.4126 4.73765   1
   6  -1   5 0.56294 0.93429   2
   6  -1   5 1.47239 0.94350   1
   5   0  -5 0.12426 0.61452   2
   5   0  -5 5.09306 0.76917   1
  -5   0   5 -0.4644 0.46881   2
  -5   0   5 6.49600 0.78035   1
   4   0  -5 6.58720 0.80152   1
   4   0  -5 7.11303 0.75186   1
   4   0  -5 0.28220 0.55551   2
  -4   0   5 0.27888 0.48472   2
  -4   0   5 8.00964 0.90438   1
   3   0  -5 17.9784 0.94751   1
   3   0  -5 16.0787 1.02504   1
   3   0  -5 0.39261 0.43235   2
   3   0  -5 0.66794 0.38927   2
  -3   0   5 0.49925 0.40123   2
  -3   0   5 16.6672 1.00000   1
   2   0  -5 0.04597 0.26926   2
   2   0  -5 0.14694 0.28431   2
   2   0  -5 0.56362 0.29492   1
   2   0  -5 1.10281 0.30936   1
  -2   0   5 0.61351 0.30336   1
  -2   0   5 0.45690 0.28265   2
   1   0  -5 0.84492 0.24688   2
   1   0  -5 1.22462 0.20803   2
   1   0  -5 34.6622 1.53686   1
   1   0  -5 31.6458 1.38189   1
  -1   0   5 0.90606 0.24423   2
  -1   0   5 32.8052 1.49500   1
   0   0  -5 6.86621 0.44941   2
   0   0  -5 209.178 8.04593   1
   0   0   5 212.310 8.73412   1
   0   0   5 9.89997 0.53348   2
  -1   0  -5 2.95762 0.35284   2
  -1   0  -5 2.70324 0.30067   2
  -1   0  -5 73.0245 2.83510   1
  -1   0  -5 73.3419 3.11159   1
   1   0   5 72.3582 3.30596   1
   1   0   5 3.90015 0.33808   2
  -2   0  -5 0.02882 0.25686   2
  -2   0  -5 -0.1621 0.18490   2
  -2   0  -5 0.89353 0.28088   1
  -2   0  -5 1.18584 0.23291   1
   2   0   5 1.11778 0.34101   1
   2   0   5 0.20800 0.28717   2
  -3   0  -5 2.02718 0.31401   1
  -3   0  -5 3.50805 0.48182   1
  -3   0  -5 -0.2314 0.23983   2
  -3   0  -5 -0.0210 0.35715   2
   3   0   5 2.78292 0.49933   1
   3   0   5 0.23538 0.39325   2
  -4   0  -4 0.40652 0.91289  -2
  -4   0  -5 0.40652 0.91289   1
  -4   0  -5 0.50729 0.33761   1
  -4   0  -5 -0.0881 0.49422   2
   4   0   4 0.66100 1.04190  -2
   4   0   5 0.66100 1.04190   1
   5   0   4 4.25157 1.32451  -2
   5   0   5 4.25157 1.32451   1
   6   0   5 -0.2430 0.78628   2
   6   0   5 -0.0100 0.80089   1
   5  -1  -5 1.16877 0.70660   1
   5  -1  -5 0.15957 0.71197   2
  -5   1   5 0.81862 0.65511   1
  -5   1   5 -0.0116 0.56750   2
   4  -1  -5 0.06103 0.54501   2
   4  -1  -5 9.67499 0.94300   1
  -4   1   5 9.90625 0.84876   1
  -4   1   5 0.75047 0.53945   2
   3  -1  -5 26.6387 1.30195   1
   3  -1  -5 27.3895 1.47843   1
   3  -1  -5 0.48297 0.40729   2
  -3   1   5 0.46019 0.37861   2
  -3   1   5 28.1163 1.37058   1
   2  -1  -5 0.79167 0.34077   2
   2  -1  -5 0.27140 0.30703   2
   2  -1  -5 16.9095 0.89715   1
   2  -1  -5 15.2052 0.82678   1
  -2   1   5 15.1225 0.83685   1
  -2   1   5 0.12894 0.25172   2
   1  -1  -5 0.03108 0.21524   2
   1  -1  -5 0.08136 0.22047   2
   1  -1  -5 4.07098 0.36366   1
   1  -1  -5 4.59472 0.38427   1
  -1   1   5 3.64854 0.37830   1
  -1   1   5 0.03847 0.20345   2
   0  -1  -5 405.710 16.0346   1
   0  -1  -5 438.539 18.7417   1
   0  -1  -5 13.1078 0.66445   2
   0  -1  -5 14.9378 0.72499   2
  -1  -1  -5 0.08333 0.22958   2
  -1  -1  -5 0.02053 0.14509   2
  -1  -1  -5 2.81657 0.24424   1
  -1  -1  -5 2.37143 0.32777   1
   1   1   5 3.31329 0.32775   1
   1   1   5 -0.0254 0.19188   2
  -2  -1  -5 0.01117 0.14971   2
  -2  -1  -5 -0.0881 0.27779   2
  -2  -1  -5 0.17589 0.16702   1
  -2  -1  -5 -0.1133 0.28182   1
   2   1   5 -0.0697 0.28725   2
   2   1   5 0.03732 0.31445   1
  -3  -1  -5 1.85794 0.41614   2
  -3  -1  -5 51.8642 2.01285   1
  -3  -1  -5 50.2249 2.29212   1
   3   1   5 49.2569 2.47635   1
   3   1   5 2.81964 0.50514   2
  -4  -1  -4 0.26047 1.00339  -2
  -4  -1  -5 0.26047 1.00339   1
  -4  -1  -5 -0.1026 0.45975   2
   4   1   5 0.50558 0.55218   2
   4   1   5 0.59083 0.54307   1
   5   1   4 5.38793 1.30121  -2
   5   1   5 5.38793 1.30121   1
   6   1   4 6.09169 1.66519  -2
   6   1   5 6.09169 1.66519   1
   5  -2  -5 0.58667 0.74278   1
   5  -2  -5 0.45842 0.71809   2
  -5   2   5 -0.4413 0.65835   2
  -5   2   5 0.31772 0.62348   1
   4  -2  -5 9.64851 0.97924   1
   4  -2  -5 -0.0160 0.57830   2
  -4   2   5 12.6501 0.96964   1
  -4   2   5 0.05056 0.50190   2
   3  -2  -5 -0.2272 0.43263   2
   3  -2  -5 5.49651 0.68214   1
  -3   2   5 0.26105 0.44236   2
   2  -2  -5 82.4078 3.39297   1
   2  -2  -5 87.5752 3.92904   1
  -2   2   5 1.65604 0.27040   2
  -2   2   5 84.3542 3.59545   1
   1  -2  -5 210.622 7.99618   1
   1  -2  -5 205.902 9.31697   1
   1  -2  -5 5.92725 0.46845   2
   1  -2  -5 7.04433 0.52467   2
  -1   2   5 5.86030 0.42873   2
  -1   2   5 208.002 8.62142   1
   0  -2  -5 19.6038 0.87897   1
   0  -2  -5 20.3488 0.98807   1
   0  -2  -5 21.0352 1.02297   1
   0  -2  -5 0.49136 0.23359   2
   0  -2  -5 0.86089 0.24771   2
   0  -2  -5 0.83355 0.21405   2
  -1  -2  -5 -0.0482 0.23833   2
  -1  -2  -5 -0.0019 0.13633   2
  -1  -2  -5 3.51577 0.40923   1
  -1  -2  -5 3.33981 0.23743   1
   1   2   5 2.98291 0.37390   1
   1   2   5 0.03162 0.22706   2
  -2  -2  -5 39.7815 2.08587   2
  -2  -2  -5 691.960 28.1291   1
   2   2   5 53.7885 2.25764   2
   2   2   5 673.715 30.3464   1
  -3  -2  -5 0.24575 0.39821   1
  -3  -2  -5 0.09858 0.38577   2
   3   2   5 1.14266 0.45079   1
   3   2   5 -0.0084 0.39858   2
  -4  -2  -5 2.33242 0.60665   2
  -4  -2  -5 51.3986 2.49107   1
   4   2   5 2.87099 0.69455   2
   4   2   5 55.0299 2.71042   1
  -5  -2  -4 9.95532 1.38733  -2
  -5  -2  -5 9.95532 1.38733   1
   5   2   4 11.1512 1.49523  -2
   5   2   5 11.1512 1.49523   1
   6   2   4 4.38620 1.40478  -2
   6   2   5 4.38620 1.40478   1
   5  -3  -5 0.71992 0.78596   1
   5  -3  -5 0.11131 0.75336   2
  -5   3   5 -0.1225 0.65960   1
  -5   3   5 -0.2425 0.70379   2
   4  -3  -5 0.23336 0.63334   2
   4  -3  -5 2.09193 0.70037   1
  -4   3   5 2.69231 0.64709   1
  -4   3   5 -0.0301 0.50996   2
   3  -3  -5 4.22428 0.68868   1
   3  -3  -5 0.14075 0.51937   2
  -3   3   5 0.77399 0.46744   2
  -3   3   5 4.87998 0.63720   1
   2  -3  -5 -0.1197 0.39868   2
   2  -3  -5 4.11915 0.55068   1
  -2   3   5 3.46001 0.39296   1
  -2   3   5 3.90101 0.49861   1
  -2   3   5 -0.0358 0.36930   2
   1  -3  -5 13.7863 0.85458   2
   1  -3  -5 435.679 19.4659   1
   1  -3  -5 434.261 16.6499   1
  -1   3   5 14.2336 0.68852   2
  -1   3   5 11.6551 0.73471   2
  -1   3   5 440.227 17.9822   1
   0  -3  -5 1.56690 0.33746   2
   0  -3  -5 1.35387 0.24913   2
   0  -3  -5 47.5381 1.90548   1
   0  -3  -5 48.6148 2.07101   1
   0  -3  -5 46.1104 2.24513   1
  -1  -3  -5 329.159 12.2534   1
  -1  -3  -5 313.151 13.3554   1
  -1  -3  -5 14.2083 0.85199   2
   1   3   5 17.7712 0.91776   2
   1   3   5 325.408 14.4006   1
  -2  -3  -5 51.1328 2.28748   1
  -2  -3  -5 2.60895 0.41926   2
   2   3   5 50.3966 2.43288   1
   2   3   5 3.13486 0.44685   2
  -3  -3  -5 3.46383 0.56079   1
  -3  -3  -5 0.57019 0.42653   2
   3   3   5 0.07540 0.40225   2
   3   3   5 4.84705 0.59631   1
  -4  -3  -5 2.54236 0.62574   2
  -4  -3  -5 51.1296 2.41175   1
   4   3   5 2.06785 0.63084   2
   4   3   5 48.6209 2.55677   1
  -5  -3  -4 49.9461 2.68345  -2
  -5  -3  -5 49.9461 2.68345   1
   5   3   5 53.7876 2.87222   1
   5   3   5 2.28820 0.78899   2
   6   3   4 4.80751 1.54322  -2
   6   3   5 4.80751 1.54322   1
   5  -4  -5 -0.1403 0.84342   2
   5  -4  -5 2.16885 0.88627   1
  -5   4   5 0.83280 0.73671   1
  -5   4   5 -0.0276 0.64871   2
   4  -4  -5 0.40526 0.69896   2
   4  -4  -5 23.7952 1.64986   1
  -4   4   5 26.8741 1.44609   1
  -4   4   5 0.63466 0.64147   2
   3  -4  -5 2.92613 0.68903   2
   3  -4  -5 149.117 6.92489   1
  -3   4   5 150.395 5.93434   1
  -3   4   5 2.94959 0.62234   2
   2  -4  -5 1.18909 0.52697   2
   2  -4  -5 72.3468 3.48437   1
  -2   4   5 0.93879 0.42459   2
  -2   4   5 73.5752 3.00248   1
   1  -4  -5 -0.0067 0.38103   2
   1  -4  -5 5.50133 0.62641   1
  -1   4   5 4.79868 0.52175   1
  -1   4   5 0.08552 0.29897   2
   0  -4  -5 0.79980 0.37533   1
   0  -4  -5 1.15185 0.30435   1
   0  -4  -5 -0.1080 0.33040   2
   0  -4  -5 0.21617 0.25638   2
   0   4   5 -0.0177 0.24471   2
   0   4   5 0.99948 0.29029   1
  -1  -4  -5 0.08981 0.28704   2
  -1  -4  -5 -0.1889 0.27637   1
   1   4   5 0.10590 0.19555   1
   1   4   5 -0.2694 0.31385   1
   1   4   5 0.00522 0.19913   2
  -2  -4  -5 10.8212 0.76095   1
  -2  -4  -5 0.29425 0.37055   2
   2   4   5 9.61255 0.77353   1
   2   4   5 0.17982 0.38039   2
  -3  -4  -5 0.11808 0.62762  -2
  -3  -4  -5 0.11808 0.62762   1
   3   4   5 0.54509 0.90677  -2
   3   4   5 0.54509 0.90677   1
  -4  -4  -5 11.8002 1.03931   2
  -4  -4  -5 63.0330 2.95903   1
   4   4   5 75.1854 3.78168  -2
   4   4   5 75.1854 3.78168   1
  -5  -4  -4 1.30059 1.49816  -2
  -5  -4  -5 1.30059 1.49816   1
  -5  -4  -5 -0.0281 0.71280   2
   5   4   5 0.24881 0.75773   1
   5   4   5 1.25920 0.84598   2
  -6  -4  -4 -1.2403 1.78058  -2
  -6  -4  -5 -1.2403 1.78058   1
   5  -5  -5 0.72510 0.77561   1
   4  -5  -5 9.81097 1.19920   1
   4  -5  -5 0.29529 0.78643   2
  -4   5   5 0.21370 0.61182   2
  -4   5   5 9.81765 1.10834   1
   3  -5  -5 0.19459 0.67663   2
   3  -5  -5 1.02514 0.70611   1
  -3   5   5 0.40449 0.52908   1
  -3   5   5 0.41149 0.52696   2
   2  -5  -5 -0.5738 0.52713   1
   2  -5  -5 -0.2669 0.51504   2
  -2   5   5 -0.5705 0.38922   1
  -2   5   5 -0.0531 0.44546   2
   1  -5  -5 0.94754 0.51689   2
   1  -5  -5 21.3638 1.24972   1
  -1   5   5 19.1312 1.02476   1
  -1   5   5 0.94298 0.40391   2
   0  -5  -5 0.09748 0.27037   2
   0  -5  -5 0.01419 0.41603   2
   0  -5  -5 1.02560 0.42128   1
   0  -5  -5 0.67686 0.33765   1
   0   5   5 -0.0434 0.29205   2
   0   5   5 0.91968 0.32126   1
  -1  -5  -5 1.05378 0.44173   2
  -1  -5  -5 0.44223 0.34317   2
  -1  -5  -5 23.7208 1.16301   1
   1   5   5 0.43784 0.25051   2
   1   5   5 21.3648 0.96882   1
  -2  -5  -5 5.92374 0.69682   1
  -2  -5  -5 0.74396 0.42448   2
   2   5   5 0.36286 0.44676   2
   2   5   5 7.12812 0.71628   1
  -3  -5  -5 17.8329 1.38910  -2
  -3  -5  -5 17.8329 1.38910   1
   3   5   5 19.5160 1.48041  -2
   3   5   5 19.5160 1.48041   1
  -4  -5  -5 5.35496 1.25414  -2
  -4  -5  -5 5.35496 1.25414   1
   4   5   5 7.55769 1.15473  -2
   4   5   5 7.55769 1.15473   1
  -5  -5  -5 5.73803 1.71875  -2
  -5  -5  -5 5.73803 1.71875   1
   5   5   5 6.26506 1.65186  -2
   5   5   5 6.26506 1.65186   1
   4  -6  -5 0.21892 0.90854   1
   4  -6  -5 -0.0757 0.93783   2
  -4   6   5 0.06729 0.66144   2
  -4   6   5 0.48674 0.73974   1
   3  -6  -5 3.72917 0.86034   1
   3  -6  -5 0.55411 0.76706   2
  -3   6   5 -0.1616 0.55355   2
  -3   6   5 3.57556 0.71754   1
   2  -6  -5 14.4272 1.24867   1
   2  -6  -5 0.46291 0.67009   2
  -2   6   5 16.1322 1.05815   1
  -2   6   5 0.20226 0.48503   2
   1  -6  -5 -0.3733 0.49675   2
   1  -6  -5 0.19520 0.54450   1
  -1   6   5 1.37399 0.47860   1
  -1   6   5 -0.0776 0.40361   2
   0  -6  -5 10.7948 0.89457   1
   0  -6  -5 9.57129 0.67984   1
   0  -6  -5 0.12944 0.49217   2
   0   6   5 9.11116 0.65331   1
   0   6   5 0.39226 0.37505   2
  -1  -6  -5 0.35590 0.46517   2
  -1  -6  -5 0.15818 0.36150   2
  -1  -6  -5 0.22081 0.37335   1
  -2  -6  -5 23.7510 1.40605   1
  -2  -6  -5 0.59722 0.47223   2
   2   6   5 26.8579 1.51329   1
   2   6   5 0.86610 0.53054   2
  -3  -6  -5 54.9465 2.78200  -2
  -3  -6  -5 54.9465 2.78200   1
   3   6   5 48.5757 2.53135   1
   3   6   5 2.91084 0.73221   2
  -4  -6  -5 -0.5738 0.89249  -2
  -4  -6  -5 -0.5738 0.89249   1
   4   6   5 -1.4925 1.06523  -2
   4   6   5 -1.4925 1.06523   1
  -5  -6  -5 7.57549 1.68275  -2
  -5  -6  -5 7.57549 1.68275   1
   5   6   5 5.83821 1.52513  -2
   5   6   5 5.83821 1.52513   1
   4  -7  -5 5.35830 1.09530   1
   4  -7  -5 -0.2566 0.98208   2
  -4   7   5 4.10765 0.96770   1
  -4   7   5 -0.2689 0.85504   2
   3  -7  -5 0.07571 0.85486   1
   3  -7  -5 0.62834 0.88899   2
  -3   7   5 0.28258 0.62088   1
  -3   7   5 0.64588 0.68382   2
   2  -7  -5 0.84297 0.78391   1
   2  -7  -5 -0.0944 0.75299   2
  -2   7   5 0.41946 0.58317   2
  -2   7   5 0.75259 0.54802   1
   1  -7  -5 0.80305 0.62256   2
   1  -7  -5 22.0443 1.56696   1
  -1   7   5 25.8164 1.27692   1
  -1   7   5 0.51587 0.49654   2
   0  -7  -5 1.44201 0.63194   1
   0  -7  -5 0.35701 0.56867   2
   0   7   5 0.08464 0.45842   2
   0   7   5 0.96718 0.45712   1
  -1  -7  -5 424.607 17.6061   1
  -2  -7  -5 7.21812 0.82166   1
   2   7   5 8.06686 0.91950   1
  -3  -7  -5 0.75655 0.59117   2
  -3  -7  -5 16.1312 1.23609   1
   3   7   5 0.83968 0.63526   2
   3   7   5 16.5680 1.29727   1
  -4  -7  -5 1.69473 1.32407  -2
  -4  -7  -5 1.69473 1.32407   1
   4   7   5 1.18252 0.83379   1
   4   7   5 -0.1263 0.79405   2
   5   7   5 0.48090 1.16114  -2
   5   7   5 0.48090 1.16114   1
   3  -8  -5 4.68794 1.17615   1
   3  -8  -5 0.35960 0.96850   2
  -3   8   5 5.12457 0.94817   1
  -3   8   5 -0.0294 0.81935   2
   2  -8  -5 3.86625 0.96733   1
   2  -8  -5 0.39933 0.79642   2
  -2   8   5 0.66911 0.69380   2
  -2   8   5 3.36794 0.71943   1
   1  -8  -5 2.22997 0.82765   1
   1  -8  -5 0.11342 0.74431   2
  -1   8   5 1.24025 0.59764   1
  -1   8   5 0.41712 0.61694   2
   0  -8  -5 22.2162 1.49594   1
   0  -8  -5 0.71987 0.67144   2
  -1  -8  -5 36.0955 1.84638   1
  -2  -8  -6 13.8901 1.47122  -2
  -2  -8  -5 13.8901 1.47122   1
   2   8   6 15.2663 1.51666  -2
   2   8   5 15.2663 1.51666   1
  -3  -8  -5 8.43412 1.01448   1
   3   8   5 8.81728 1.06488   1
  -4  -8  -5 2.66335 1.58896  -2
  -4  -8  -5 2.66335 1.58896   1
   4   8   5 1.41655 0.93587   1
   4   8   5 -0.1129 0.89086   2
   2  -9  -5 0.03337 0.90089   1
   2  -9  -5 0.57240 0.93795   2
  -2   9   5 -0.3162 0.84473   2
  -2   9   5 -0.3515 0.79256   1
   1  -9  -5 0.07541 0.80802   1
   1  -9  -5 -0.3337 0.87487   2
  -1   9   5 0.76969 0.69003   1
  -1   9   5 1.86744 0.84778   2
   0  -9  -5 0.25659 0.73361   1
   0  -9  -5 -0.4886 0.71175   2
   1   9   5 0.90300 0.76882   1
  -2  -9  -6 -0.5145 1.19936  -2
  -2  -9  -5 -0.5145 1.19936   1
   2   9   5 -0.0965 0.70021   1
  -3  -9  -6 -1.0049 1.36453  -2
  -3  -9  -5 -1.0049 1.36453   1
   3   9   6 1.61917 1.56602  -2
   3   9   5 1.61917 1.56602   1
   4   9   5 0.92195 1.40390   2
   1 -10  -5 8.58271 1.30989   1
   0 -10  -5 2.06303 1.04267   1
   0 -10  -5 0.45303 0.96461   2
   1  10   5 2.26367 0.98127   1
   1  10   5 0.63123 0.88528   2
   2  10   5 4.69731 1.01131   1
  -3 -10  -5 6.65245 1.01177   1
   0  10  -6 -0.0309 0.95097   2
  -2  -9   6 4.30171 1.02431   1
  -2  -9   6 -0.2279 0.85976   2
  -1  -9   6 0.31602 0.78086   2
   0   9  -6 1.28833 0.81348   1
   0   9  -6 0.22731 0.74684   2
  -1   9  -6 6.39398 1.07889   1
  -1   9  -6 -0.2331 0.80462   2
  -2   9  -6 -0.7194 0.91771   2
  -2   9  -6 1.33452 0.97112   1
  -3  -8   6 0.29377 0.85761   1
  -3  -8   6 -0.1616 0.88859   2
  -2  -8   6 6.65872 1.00142   1
  -2  -8   6 0.57022 0.79700   2
   1   8  -6 0.72007 0.68837   1
   1   8  -6 0.53701 0.66639   2
  -1  -8   6 0.29209 0.66005   1
  -1  -8   6 0.94087 0.67513   2
   0   8  -6 8.51544 0.91973   1
   0   8  -6 0.42257 0.63902   2
   0  -8   6 0.06844 0.61509   2
  -1   8  -6 1.02069 0.73963   1
  -1   8  -6 0.00071 0.68162   2
  -2   8  -6 -0.1023 0.74936   2
  -2   8  -6 1.77934 0.86090   1
   2  -8   6 2.09058 1.04092   1
  -3   8  -6 0.31835 0.91274   2
  -3   8  -6 8.51124 1.21097   1
   3  -8   6 8.01808 1.38965   1
  -4  -7   6 -0.0883 0.96144   2
  -4  -7   6 0.58591 1.01267   1
  -3  -7   6 -0.5887 0.78218   2
  -3  -7   6 0.67301 0.82429   1
  -2  -7   6 0.20330 0.66957   2
  -2  -7   6 2.60503 0.74592   1
   1   7  -6 -0.3025 0.56495   2
   1   7  -6 0.34186 0.56332   1
  -1  -7   6 0.51727 0.61224   1
  -1  -7   6 0.15818 0.59493   2
   0   7  -6 4.70231 0.70459   1
   0   7  -6 0.38336 0.54986   2
   0  -7   6 3.76903 0.66031   1
   0  -7   6 -0.2031 0.55090   2
  -1   7  -6 0.66850 0.63361   1
  -1   7  -6 0.44515 0.58498   2
   1  -7   6 0.71884 0.70575   1
  -2   7  -6 28.9378 1.59877   1
  -2   7  -6 0.91122 0.67231   2
   2  -7   6 28.4695 1.89185   1
  -3   7  -6 4.74219 0.92783   1
  -3   7  -6 -0.5826 0.69728   2
   3  -7   6 4.78207 1.12271   1
  -4   7  -6 -0.5167 0.74090   2
  -4   7  -6 -0.4838 0.79632   1
   4  -7   6 0.44601 1.13982   1
   4  -7   6 0.41355 1.49149   2
  -4  -6   6 -0.3896 0.88501   1
  -4  -6   6 0.11137 0.92234   2
  -3  -6   6 -0.1688 0.69523   1
  -3  -6   6 -0.2562 0.70524   2
   2   6  -6 0.72607 0.50414   2
   2   6  -6 8.68406 0.79937   1
  -2  -6   6 0.07305 0.62389   2
  -2  -6   6 9.67146 1.06115   1
   1   6  -6 2.10356 0.54741   1
   1   6  -6 0.27303 0.45411   2
  -1  -6   6 -0.4524 0.52219   2
  -1  -6   6 2.03919 0.61029   1
   0   6  -6 155.862 6.16766   1
   0  -6   6 3.09938 0.60687   2
   0  -6   6 157.134 6.65099   1
  -1   6  -6 103.428 4.27213   1
  -1   6  -6 1.93331 0.55445   2
   1  -6   6 1.24361 0.47768   2
   1  -6   6 106.482 4.93703   1
  -2   6  -6 36.3886 1.78607   1
  -2   6  -6 0.68074 0.55933   2
   2  -6   6 1.05448 0.69178   2
   2  -6   6 37.8135 2.11253   1
  -3   6  -6 3.51090 0.72563   1
  -3   6  -6 -0.1199 0.67092   2
   3  -6   6 -0.1007 0.75770   2
   3  -6   6 3.94646 0.89271   1
  -4   6  -6 -0.4236 0.69461   2
  -4   6  -6 1.34073 0.81482   1
   4  -6   6 1.46354 0.98385   1
   4  -6   6 -0.2893 0.89701   2
  -5  -5   6 0.10062 0.97857   2
  -5  -5   6 24.9280 2.01594   1
  -4  -5   6 2.75812 0.87682   1
  -4  -5   6 0.42288 0.84217   2
  -3  -5   6 0.10311 0.64900   2
  -3  -5   6 14.4133 1.24503   1
   2   5  -6 0.54013 0.43008   2
   2   5  -6 7.66230 0.70615   1
  -2  -5   6 0.09700 0.55406   2
  -2  -5   6 7.40156 0.85851   1
   1   5  -6 -0.2498 0.38650   2
   1   5  -6 6.79127 0.67769   1
  -1  -5   6 6.96035 0.80015   1
  -1  -5   6 -0.3870 0.46422   2
   0   5  -6 269.876 10.4714   1
   0  -5   6 272.278 11.3296   1
   0  -5   6 272.597 12.1760   1
   0  -5   6 7.17965 0.73586   2
  -1   5  -6 229.561 8.95917   1
   1  -5   6 4.22759 0.54710   2
   1  -5   6 7.11280 0.70968   2
   1  -5   6 232.627 10.4187   1
   1  -5   6 230.444 9.63239   1
  -2   5  -6 1.91796 0.55348   1
  -2   5  -6 0.00980 0.46148   2
   2  -5   6 2.04153 0.61705   1
   2  -5   6 0.21213 0.53905   2
  -3   5  -6 0.78411 0.55986   1
  -3   5  -6 -0.0270 0.54144   2
   3  -5   6 -0.2383 0.64480   2
   3  -5   6 1.58281 0.73469   1
  -4   5  -6 -0.0683 0.67744   2
  -4   5  -6 -0.0928 0.65305   1
   4  -5   6 -0.1504 0.74430   2
   4  -5   6 -0.0875 0.72727   1
  -5   5  -6 9.16822 1.06341   1
  -5   5  -6 -0.8352 0.78698   2
   5  -5   6 7.24829 1.29632   1
   5  -5   6 0.62995 0.99234   2
  -5  -4   6 1.51562 0.99852   1
  -5  -4   6 -0.0213 1.02309   2
  -4  -4   6 0.97439 0.75991   2
  -4  -4   6 40.3947 2.23440   1
   3   4  -6 -0.2793 0.46509   2
   3   4  -6 6.35425 0.66961   1
  -3  -4   6 6.11524 0.83611   1
  -3  -4   6 0.31570 0.60640   2
   2   4  -6 4.21480 0.53018   1
   2   4  -6 0.21594 0.39769   2
  -2  -4   6 -0.0649 0.46802   2
  -2  -4   6 3.99890 0.62548   1
   1   4  -6 3.60997 0.48075   1
   1   4  -6 3.14951 0.35050   1
   1   4  -6 0.23946 0.35000   2
  -1  -4   6 3.10364 0.50874   1
  -1  -4   6 0.10661 0.36271   2
   0   4  -6 17.2335 0.94314   1
   0   4  -6 0.45222 0.32937   2
   0  -4   6 0.28647 0.24469   2
   0  -4   6 0.53726 0.35378   2
   0  -4   6 18.6325 1.01509   1
   0  -4   6 18.3747 0.99607   1
  -1   4  -6 -0.0454 0.34271   2
  -1   4  -6 1.04501 0.39458   1
   1  -4   6 0.71024 0.43789   1
   1  -4   6 0.48210 0.28129   1
   1  -4   6 0.46567 0.38640   2
   1  -4   6 0.04381 0.31001   2
  -2   4  -6 7.44798 0.72270   1
  -2   4  -6 0.08811 0.40631   2
   2  -4   6 7.94374 0.57038   1
   2  -4   6 8.32513 0.80134   1
   2  -4   6 0.14992 0.31486   2
   2  -4   6 -0.0074 0.44756   2
  -3   4  -6 0.58798 0.47748   2
  -3   4  -6 11.6662 0.87672   1
   3  -4   6 9.84891 0.98076   1
   3  -4   6 0.27421 0.55314   2
  -4   4  -6 0.08271 0.59074   2
  -4   4  -6 0.02648 0.58815   1
   4  -4   6 -0.2333 0.64361   2
   4  -4   6 0.32916 0.66427   1
  -5   4  -6 -0.1568 0.72480   2
  -5   4  -6 0.38727 0.70145   1
   5  -4   6 0.13630 0.88101   2
   5  -4   6 0.72438 0.92666   1
  -5  -3   6 0.50132 0.91750   2
  -5  -3   6 2.51975 1.00618   1
  -4  -3   6 11.1760 1.20112   1
  -4  -3   6 0.39874 0.70339   2
   3   3  -6 8.20787 0.74393   1
   3   3  -6 -0.1412 0.40168   2
  -3  -3   6 -0.0140 0.54495   2
  -3  -3   6 7.54792 0.92208   1
   2   3  -6 0.81322 0.37315   2
   2   3  -6 0.38357 0.30356   2
   2   3  -6 23.1673 1.17837   1
  -2  -3   6 0.80428 0.43383   2
  -2  -3   6 26.8749 1.36705   1
   1   3  -6 7.83530 0.48008   1
   1   3  -6 7.50642 0.57545   1
   1   3  -6 0.36616 0.29396   2
  -1  -3   6 9.01837 0.67901   1
  -1  -3   6 -0.0196 0.31837   2
   0   3  -6 0.05725 0.28523   1
   0   3  -6 0.11093 0.28885   2
   0  -3   6 0.43887 0.29540   1
   0  -3   6 0.17322 0.24511   1
   0  -3   6 -0.1843 0.27334   2
  -1   3  -6 1.52274 0.34203   2
  -1   3  -6 48.8028 2.05025   1
   1  -3   6 1.57039 0.33315   2
   1  -3   6 0.75753 0.31631   2
   1  -3   6 49.5976 2.17204   1
   1  -3   6 49.0623 2.32744   1
  -2   3  -6 0.92435 0.36975   2
  -2   3  -6 40.5482 1.70550   1
   2  -3   6 1.11654 0.43634   2
   2  -3   6 0.80358 0.31277   2
   2  -3   6 37.1788 1.93458   1
   2  -3   6 38.3786 1.73273   1
  -3   3  -6 2.77093 0.51883   1
  -3   3  -6 -0.4437 0.40483   2
   3  -3   6 0.06658 0.45885   2
   3  -3   6 0.02813 0.31999   2
   3  -3   6 3.19062 0.64323   1
  -4   3  -6 0.26845 0.51093   1
  -4   3  -6 -0.4580 0.51029   2
   4  -3   6 0.33725 0.58685   2
   4  -3   6 0.30877 0.60699   1
  -5   3  -6 1.49745 0.62467   1
  -5   3  -6 -0.4341 0.49847   2
   5  -3   6 -0.1374 0.74256   2
   5  -3   6 1.43138 0.84405   1
  -5  -2   6 4.35596 1.10227   1
   4   2  -6 -0.3772 0.53357   2
   4   2  -6 0.72696 0.53040   1
  -4  -2   6 0.05012 0.66261   1
  -4  -2   6 0.22156 0.69873   2
   3   2  -6 -0.0164 0.38941   1
   3   2  -6 0.14293 0.37578   2
   3   2  -6 -0.0644 0.40071   2
  -3  -2   6 -0.2786 0.48471   2
  -3  -2   6 0.16645 0.51415   1
   2   2  -6 12.1899 0.73374   2
   2   2  -6 345.121 14.9632   1
   2   2  -6 329.862 12.8639   1
  -2  -2   6 9.57143 0.79041   2
  -2  -2   6 332.826 13.9739   1
   1   2  -6 0.34413 0.27357   2
   1   2  -6 4.26686 0.43326   1
  -1  -2   6 4.88133 0.51768   1
  -1  -2   6 0.06789 0.30681   2
   0   2  -6 2.23642 0.33300   2
   0   2  -6 60.3975 2.49811   1
   0  -2   6 64.3530 2.71419   1
   0  -2   6 1.83352 0.33309   2
  -1   2  -6 0.55809 0.26834   2
  -1   2  -6 23.6522 1.04189   1
   1  -2   6 22.5789 1.10448   1
   1  -2   6 22.1007 1.15324   1
   1  -2   6 0.47912 0.29418   2
   1  -2   6 0.25332 0.23379   2
  -2   2  -6 0.76136 0.31358   2
  -2   2  -6 28.4992 1.25898   1
   2  -2   6 1.01360 0.32672   2
   2  -2   6 0.45100 0.31986   2
   2  -2   6 29.2996 1.32440   1
   2  -2   6 26.5735 1.46089   1
  -3   2  -6 5.91737 0.61785   1
  -3   2  -6 0.04288 0.34396   2
   3  -2   6 -0.0736 0.42122   2
   3  -2   6 5.77127 0.72939   1
  -4   2  -6 1.63873 0.47124   2
  -4   2  -6 96.7129 3.92014   1
   4  -2   6 97.1803 4.63595   1
   4  -2   6 1.65576 0.61607   2
   5  -2   6 26.5405 1.84736   1
   5  -2   6 0.61046 0.74708   2
   4   1  -6 0.33565 0.55252   2
   4   1  -6 -0.0854 0.48870   2
   4   1  -6 5.55730 0.71131   1
  -4  -1   6 0.14620 0.64899   2
  -4  -1   6 4.87750 0.80363   1
   3   1  -6 91.4942 4.36364   1
   3   1  -6 95.6777 3.80987   1
   3   1  -6 3.12612 0.51568   2
   3   1  -6 3.26670 0.52085   2
  -3  -1   6 97.3850 4.13466   1
  -3  -1   6 2.85039 0.57599   2
   2   1  -6 5.94908 0.54851   1
   2   1  -6 4.92677 0.42681   1
   2   1  -6 0.19540 0.30242   2
   2   1  -6 0.15741 0.27082   2
  -2  -1   6 -0.0083 0.32912   2
  -2  -1   6 4.87365 0.56545   1
   1   1  -6 0.64321 0.26542   1
   1   1  -6 -0.1403 0.24197   2
  -1  -1   6 -0.0065 0.25990   2
  -1  -1   6 0.33607 0.32146   1
   0   1  -6 19.9044 0.92578   2
   0   1  -6 550.650 20.9959   1
   0  -1   6 554.558 22.7671   1
   0  -1   6 21.2703 1.01885   2
  -1   1  -6 348.513 13.7569   1
   1  -1   6 18.9300 0.93716   2
   1  -1   6 17.8082 0.93597   2
   1  -1   6 363.381 14.9143   1
   1  -1   6 371.305 16.0616   1
  -2   1  -6 51.6125 2.10359   1
  -2   1  -6 53.7069 2.31183   1
  -2   1  -6 1.63937 0.30622   2
  -2   1  -6 1.30638 0.39043   2
   2  -1   6 2.24723 0.39978   2
   2  -1   6 50.3526 2.46966   1
  -3   1  -6 1.99049 0.44287   1
  -3   1  -6 1.60486 0.36410   1
  -3   1  -6 -0.0178 0.37923   2
  -3   1  -6 -0.2206 0.29706   2
   3  -1   6 -0.6866 0.44108   2
   3  -1   6 1.99813 0.54077   1
  -4   1  -6 19.3028 1.03770   1
  -4   1  -6 0.33784 0.51524   2
  -4   1  -6 0.36105 0.41298   2
   4  -1   6 18.7202 1.27881   1
   4  -1   6 0.29858 0.61801   2
   5  -1   6 49.7921 2.67423   1
   5  -1   6 1.59818 0.66916   2
   6  -1   6 0.20458 0.89628   2
   6  -1   6 0.59842 0.93273   1
   5   0  -6 0.50153 0.59537   2
  -5   0   6 -0.0420 0.60501   2
  -5   0   6 3.18980 0.72767   1
   4   0  -6 0.17822 0.51883   1
   4   0  -6 0.18120 0.48282   1
   4   0  -6 -0.2246 0.49385   2
  -4   0   6 -0.0052 0.52485   2
   3   0  -6 -0.3380 0.35481   2
   3   0  -6 -0.0808 0.41573   2
   3   0  -6 -0.2327 0.34832   1
   3   0  -6 -0.1473 0.40078   1
  -3   0   6 -0.3103 0.42028   2
  -3   0   6 0.37405 0.47008   1
   2   0  -6 12.6471 0.72267   1
   2   0  -6 12.2485 0.73497   1
   2   0  -6 0.68738 0.32735   2
   2   0  -6 0.36797 0.28912   2
  -2   0   6 0.02671 0.29843   2
  -2   0   6 11.6999 0.76777   1
   1   0  -6 0.58973 0.27776   2
   1   0  -6 0.78544 0.21751   2
   1   0  -6 15.6072 0.76169   1
  -1   0   6 14.1649 0.80652   1
  -1   0   6 0.29639 0.26336   2
   0   0  -6 11.3124 0.62244   2
   0   0  -6 323.986 12.4259   1
   0   0   6 13.5003 0.71416   2
   0   0   6 328.428 13.4864   1
  -1   0  -6 3.19033 0.31434   1
  -1   0  -6 3.53596 0.43137   1
  -1   0  -6 0.43424 0.21525   2
  -1   0  -6 0.39330 0.30538   2
   1   0   6 0.34766 0.21998   2
   1   0   6 3.04915 0.33689   1
  -2   0  -6 -0.2409 0.20712   2
  -2   0  -6 0.01019 0.30220   2
  -2   0  -6 -0.0704 0.21932   1
  -2   0  -6 -0.0637 0.27991   1
   2   0   6 -0.0966 0.30018   2
   2   0   6 -0.0604 0.29634   1
  -3   0  -6 0.08313 0.27611   2
  -3   0  -6 0.29417 0.36849   2
  -3   0  -6 13.8746 0.72915   1
  -3   0  -6 13.5111 0.87588   1
   3   0   6 0.33938 0.42336   2
   3   0   6 14.4168 0.96201   1
  -4   0  -6 0.09536 0.50847   2
  -4   0  -6 0.42471 0.52654   1
   4   0   5 1.65817 1.23787  -2
   4   0   6 1.65817 1.23787   1
   4   0   6 0.82690 0.56961   2
   5   0   5 4.16593 1.46473  -2
   5   0   6 4.16593 1.46473   1
   6   0   6 1.20163 0.86420   1
   6   0   6 0.48284 0.82829   2
   5  -1  -6 -0.1448 0.74188   2
  -5   1   6 2.95045 0.77656   1
  -5   1   6 -0.0827 0.62976   2
   4  -1  -6 -0.2544 0.56577   2
   4  -1  -6 1.91946 0.63583   1
  -4   1   6 0.15195 0.52726   2
   3  -1  -6 0.16649 0.39302   1
   3  -1  -6 0.23081 0.44457   1
   3  -1  -6 0.16568 0.44282   2
   3  -1  -6 -0.1571 0.40893   2
  -3   1   6 0.30422 0.43358   1
  -3   1   6 -0.0898 0.42226   2
   2  -1  -6 0.06227 0.31781   2
   2  -1  -6 0.11095 0.30755   2
   2  -1  -6 0.80642 0.35700   1
   2  -1  -6 0.76192 0.32404   1
  -2   1   6 -0.1994 0.26641   2
  -2   1   6 0.93475 0.32752   1
   1  -1  -6 67.9567 2.73378   1
   1  -1  -6 68.2384 3.11262   1
   1  -1  -6 2.10683 0.30281   2
   1  -1  -6 2.06606 0.33551   2
  -1   1   6 1.59951 0.29368   2
  -1   1   6 68.9744 2.93675   1
   0  -1  -6 1.38240 0.21736   2
   0  -1  -6 1.93622 0.27077   2
   0  -1  -6 47.4447 1.90292   1
  -1  -1  -6 0.62074 0.28567   1
  -1  -1  -6 0.12871 0.17749   1
  -1  -1  -6 -0.0582 0.16672   2
  -1  -1  -6 0.21180 0.27363   2
   1   1   6 0.07635 0.20740   2
   1   1   6 0.49079 0.23396   1
  -2  -1  -6 0.68933 0.20479   2
  -2  -1  -6 1.46328 0.35026   2
  -2  -1  -6 31.3561 1.54646   1
  -2  -1  -6 35.0571 1.34315   1
   2   1   6 1.48363 0.34640   2
   2   1   6 32.0073 1.64165   1
  -3  -1  -6 0.77901 0.42652   2
  -3  -1  -6 0.40537 0.21201   2
  -3  -1  -6 15.8988 0.73990   1
  -3  -1  -6 15.2958 0.95487   1
   3   1   6 15.4535 1.02893   1
   3   1   6 0.63401 0.43419   2
  -4  -1  -6 13.0439 1.01379   1
  -4  -1  -6 -0.2779 0.50114   2
   4   1   6 0.55868 0.56947   2
   4   1   6 13.9304 1.12470   1
  -5  -1  -6 0.11846 0.69118   2
   5   1   5 4.99445 1.41514  -2
   5   1   6 4.99445 1.41514   1
   6   1   5 -0.2359 1.81636  -2
   6   1   6 -0.2359 1.81636   1
   5  -2  -6 -0.5289 0.72091   2
   5  -2  -6 2.08009 0.64124   1
  -5   2   6 2.35848 0.72431   1
  -5   2   6 0.08277 0.65611   2
   4  -2  -6 0.47782 0.61685   2
   4  -2  -6 0.20404 0.56868   1
  -4   2   6 0.11922 0.54478   1
  -4   2   6 0.14347 0.56838   2
   3  -2  -6 2.45168 0.48894   1
   3  -2  -6 3.89458 0.60711   1
   3  -2  -6 0.43797 0.44696   2
  -3   2   6 0.20228 0.44654   2
   2  -2  -6 0.10645 0.31949   2
   2  -2  -6 0.12291 0.36668   2
   2  -2  -6 4.81260 0.54872   1
   2  -2  -6 4.72305 0.50397   1
  -2   2   6 0.09311 0.25495   2
  -2   2   6 4.06269 0.47711   1
   1  -2  -6 161.260 6.26421   1
   1  -2  -6 163.095 7.27891   1
   1  -2  -6 5.85553 0.47817   2
   1  -2  -6 4.46276 0.46893   2
  -1   2   6 3.33537 0.40798   2
  -1   2   6 161.293 6.75007   1
   0  -2  -6 0.01319 0.20269   2
   0  -2  -6 0.15559 0.26204   2
   0  -2  -6 -0.1331 0.22607   2
   0  -2  -6 0.02938 0.19551   1
   0  -2  -6 -0.1970 0.27922   1
   0  -2  -6 -0.0131 0.18889   1
  -1  -2  -6 5.14592 0.32121   1
  -1  -2  -6 4.66432 0.45571   1
  -1  -2  -6 -0.1002 0.15514   2
  -1  -2  -6 0.05041 0.26896   2
   1   2   6 -0.0337 0.24471   2
   1   2   6 4.28770 0.43505   1
  -2  -2  -6 25.9462 1.30901   1
  -2  -2  -6 26.4765 1.06129   1
  -2  -2  -6 0.84708 0.34730   2
  -2  -2  -6 0.51316 0.16731   2
   2   2   6 0.95910 0.35352   2
  -3  -2  -6 -0.2932 0.42794   2
  -3  -2  -6 3.93294 0.58199   1
   3   2   6 5.01718 0.62846   1
   3   2   6 0.18688 0.41231   2
  -4  -2  -6 0.94045 0.57266   1
  -4  -2  -6 -0.3597 0.55700   2
   4   2   6 0.09488 0.55336   2
   4   2   6 1.55205 0.61177   1
  -5  -2  -5 7.15181 1.47671  -2
  -5  -2  -6 7.15181 1.47671   1
  -5  -2  -6 0.25052 0.66036   2
   5   2   6 -0.0582 0.68965   2
   5   2   5 8.83212 1.56300  -2
   5   2   6 8.83212 1.56300   1
   6   2   5 2.16349 1.48752  -2
   6   2   6 2.16349 1.48752   1
   5  -3  -6 0.42878 0.80000   2
   5  -3  -6 1.83823 0.80441   1
  -5   3   6 0.66946 0.72916   2
  -5   3   6 1.62663 0.76247   1
   4  -3  -6 2.01893 0.86336   1
   4  -3  -6 -0.0425 0.63784   2
  -4   3   6 0.22677 0.52215   2
  -4   3   6 2.63710 0.66654   1
   3  -3  -6 242.717 11.2557   1
   3  -3  -6 2.98374 0.64667   2
  -3   3   6 6.40108 0.74172   2
  -3   3   6 255.068 9.66027   1
   2  -3  -6 9.08417 0.66373   1
   2  -3  -6 9.64950 0.75476   1
   2  -3  -6 0.11564 0.42077   2
  -2   3   6 7.90300 0.61484   1
  -2   3   6 0.37285 0.39598   2
   1  -3  -6 1.72332 0.40934   2
   1  -3  -6 65.1669 2.68390   1
   1  -3  -6 68.3992 3.12013   1
  -1   3   6 1.54116 0.29561   2
  -1   3   6 66.0956 2.85475   1
   0  -3  -6 66.1244 2.81958   1
   0  -3  -6 65.0853 2.58292   1
   0  -3  -6 64.2810 3.03009   1
   0  -3  -6 1.94767 0.31895   2
   0  -3  -6 0.91307 0.26670   2
   0  -3  -6 2.12196 0.37427   2
  -1  -3  -6 0.83579 0.33549   1
  -1  -3  -6 0.65506 0.19229   1
  -1  -3  -6 0.08570 0.28684   2
  -1  -3  -6 0.00920 0.17591   2
   1   3   6 0.69661 0.31997   1
   1   3   6 0.23613 0.32438   2
  -2  -3  -6 6.03953 0.63751   2
  -2  -3  -6 127.095 5.25031   1
   2   3   6 119.365 5.61742   1
   2   3   6 7.70971 0.64717   2
  -3  -3  -6 0.23944 0.43979   1
  -3  -3  -6 -0.2760 0.42241   2
   3   3   6 0.06288 0.40400   2
   3   3   6 0.51569 0.43471   1
  -4  -3  -6 30.2632 1.72772   1
  -4  -3  -6 1.10660 0.60123   2
   4   3   6 34.2572 1.86030   1
   4   3   6 1.29116 0.63786   2
  -5  -3  -5 46.6023 2.61361  -2
  -5  -3  -6 46.6023 2.61361   1
   5   3   6 1.20542 0.77762   2
   5   3   6 46.7802 2.59599   1
   5  -4  -6 -0.8041 0.78420   2
   5  -4  -6 0.44695 0.75699   1
  -5   4   6 0.85156 0.73380   1
  -5   4   6 -0.3043 0.68041   2
   4  -4  -6 3.06403 0.82717   1
   4  -4  -6 -0.3433 0.71812   2
  -4   4   6 -0.4312 0.59492   2
  -4   4   6 2.97290 0.72093   1
   3  -4  -6 1.89138 0.66088   1
   3  -4  -6 0.32922 0.63042   2
  -3   4   6 0.13439 0.48578   2
  -3   4   6 3.17443 0.63203   1
   2  -4  -6 2.96048 0.59716   1
   2  -4  -6 -0.0489 0.52716   2
  -2   4   6 2.11376 0.49463   1
  -2   4   6 -0.1788 0.40780   2
   1  -4  -6 1.59914 0.47169   2
   1  -4  -6 66.8898 3.12359   1
  -1   4   6 1.31543 0.40268   2
  -1   4   6 64.4132 2.66939   1
   0  -4  -6 35.9226 1.88099   1
   0  -4  -6 39.8097 1.72519   1
   0  -4  -6 0.27378 0.26007   2
   0  -4  -6 0.78520 0.39569   2
   0   4   6 0.81999 0.30082   2
  -1  -4  -6 0.73617 0.31462   2
  -1  -4  -6 18.9204 0.99560   1
   1   4   6 0.09116 0.22678   2
   1   4   6 0.21421 0.34444   2
   1   4   6 17.4851 1.05711   1
   1   4   6 18.1148 0.81097   1
  -2  -4  -6 -0.1182 0.36235   2
  -2  -4  -6 3.88460 0.53814   1
   2   4   6 5.44327 0.60882   1
   2   4   6 -0.2359 0.38466   2
  -3  -4  -6 -0.2045 0.46380   1
  -3  -4  -6 0.24717 0.46329   2
   3   4   6 -0.6699 0.48859   2
   3   4   6 -0.1257 0.50680   1
  -4  -4  -6 53.3906 2.58516   1
  -4  -4  -6 5.13329 0.75524   2
   4   4   6 64.5234 3.36289  -2
   4   4   6 64.5234 3.36289   1
  -5  -4  -6 11.1050 1.23750   1
  -5  -4  -6 0.89309 0.78312   2
   5   4   6 10.9257 1.20806   1
   5   4   6 1.24182 0.82732   2
  -6  -4  -5 2.80415 1.75455  -2
  -6  -4  -6 2.80415 1.75455   1
   4  -5  -6 3.89635 0.94193   1
   4  -5  -6 0.63682 0.87746   2
  -4   5   6 0.54728 0.69837   2
  -4   5   6 3.29132 0.76704   1
   3  -5  -6 0.30330 0.70402   2
   3  -5  -6 8.94443 1.03684   1
  -3   5   6 -0.0585 0.53645   2
  -3   5   6 6.74402 0.79949   1
   2  -5  -6 15.0594 1.15733   1
   2  -5  -6 0.35215 0.60804   2
  -2   5   6 0.36754 0.45555   2
  -2   5   6 14.7053 0.97461   1
   1  -5  -6 0.15639 0.47538   2
   1  -5  -6 9.16488 0.88295   1
  -1   5   6 0.52010 0.39811   2
  -1   5   6 10.4485 0.73776   1
   0  -5  -6 1.04412 0.35039   2
   0  -5  -6 0.80508 0.45308   2
   0  -5  -6 33.1349 1.70971   1
   0  -5  -6 32.0610 1.51356   1
   0   5   6 1.28614 0.37600   2
   0   5   6 31.7283 1.40803   1
  -1  -5  -6 0.16817 0.35586   2
  -1  -5  -6 3.31304 0.46484   1
   1   5   6 3.60195 0.37018   1
   1   5   6 3.87403 0.58779   1
   1   5   6 0.02646 0.25215   2
  -2  -5  -6 1.75495 0.49754   1
  -2  -5  -6 -0.0784 0.42146   2
   2   5   6 1.86174 0.51485   1
   2   5   6 -0.2025 0.42945   2
  -3  -5  -6 7.11042 0.85282   1
  -3  -5  -6 -0.3217 0.48290   2
   3   5   6 0.38011 0.54870   2
   3   5   6 7.67161 0.87982   1
  -4  -5  -6 8.27855 0.98174   1
  -4  -5  -6 0.88367 0.61434   2
   4   5   6 5.50428 1.20155  -2
   4   5   6 5.50428 1.20155   1
  -5  -5  -6 4.91458 0.99865   1
  -5  -5  -6 0.74228 0.82918   2
   5   5   6 4.23441 1.71963  -2
   5   5   6 4.23441 1.71963   1
   4  -6  -6 0.34981 0.94713   2
   4  -6  -6 5.13102 1.10057   1
  -4   6   6 7.34461 1.03415   1
  -4   6   6 0.25743 0.66770   2
   3  -6  -6 2.25740 0.82423   1
   3  -6  -6 0.43063 0.76095   2
  -3   6   6 3.32789 0.70449   1
  -3   6   6 0.05929 0.57744   2
   2  -6  -6 0.04930 0.64789   2
   2  -6  -6 12.7649 1.21865   1
  -2   6   6 13.8037 0.99599   1
  -2   6   6 0.30098 0.54152   2
   1  -6  -6 -0.0249 0.56604   2
   1  -6  -6 17.2813 1.27867   1
  -1   6   6 20.8103 1.07854   1
  -1   6   6 1.01905 0.48454   2
   0  -6  -6 0.52882 0.35033   2
   0  -6  -6 1.21477 0.51655   2
   0  -6  -6 19.8083 1.02062   1
   0  -6  -6 18.7248 1.23326   1
   0   6   6 0.25181 0.36942   2
   0   6   6 17.0580 0.98003   1
  -1  -6  -6 -0.0721 0.49262   2
  -1  -6  -6 -0.1933 0.39669   2
  -1  -6  -6 5.08030 0.61580   1
  -2  -6  -6 0.37926 0.50751   1
  -2  -6  -6 -0.2063 0.47097   2
   2   6   6 1.65626 0.58324   1
   2   6   6 0.25065 0.51726   2
  -3  -6  -6 31.5569 1.74346   1
  -3  -6  -6 2.68417 0.63522   2
   3   6   6 31.3280 1.82281   1
   3   6   6 2.17379 0.67258   2
  -4  -6  -6 5.49541 1.36658  -2
  -4  -6  -6 5.49541 1.36658   1
   4   6   6 3.39598 1.27399  -2
   4   6   6 3.39598 1.27399   1
  -5  -6  -6 1.81506 1.75704  -2
  -5  -6  -6 1.81506 1.75704   1
   5   6   6 0.19252 1.53752  -2
   5   6   6 0.19252 1.53752   1
   4  -7  -6 0.27071 0.92631   1
   3  -7  -6 -0.4780 0.90242   2
   3  -7  -6 1.60682 0.91620   1
  -3   7   6 2.06733 0.77775   1
  -3   7   6 -0.4508 0.66449   2
   2  -7  -6 -0.3631 0.66001   1
   2  -7  -6 0.69643 0.79745   2
  -2   7   6 0.31850 0.56102   2
  -2   7   6 -0.1547 0.56246   1
   1  -7  -6 0.27874 0.63485   2
   1  -7  -6 9.63167 1.08380   1
  -1   7   6 10.1892 0.91822   1
  -1   7   6 0.29504 0.49711   2
   0  -7  -6 1.21934 0.62955   1
   0  -7  -6 -0.1556 0.55955   2
   0   7   6 0.94102 0.44846   1
   0   7   6 0.38315 0.43717   2
  -1  -7  -6 10.5190 0.91496   1
  -1  -7  -6 1.60990 0.46893   2
  -2  -7  -6 1.86236 0.59618   2
  -2  -7  -6 66.3482 3.11717   1
   2   7   6 2.65612 0.65151   2
   2   7   6 70.2308 3.37631   1
  -3  -7  -6 0.28124 0.61021   2
  -3  -7  -6 3.35252 0.71590   1
   3   7   6 -0.2562 0.64761   2
   3   7   6 3.21555 0.76948   1
  -4  -7  -6 3.63535 1.49746  -2
  -4  -7  -6 3.63535 1.49746   1
   4   7   6 -0.2809 0.77073   2
   4   7   6 2.33581 0.88913   1
  -5  -7  -6 20.7945 2.25552  -2
  -5  -7  -6 20.7945 2.25552   1
   3  -8  -6 2.34806 1.06410   1
   3  -8  -6 0.31773 1.02399   2
  -3   8   6 0.00874 0.83848   2
  -3   8   6 2.00003 0.82984   1
   2  -8  -6 -0.4061 0.78375   2
   2  -8  -6 0.16726 0.84446   1
  -2   8   6 0.00514 0.61451   1
  -2   8   6 -0.2026 0.64618   2
   1  -8  -6 5.68008 1.00980   1
   1  -8  -6 0.29311 0.74730   2
  -1   8   6 0.06336 0.62760   2
  -1   8   6 6.32178 0.77432   1
   0  -8  -6 4.59380 0.82397   1
   0  -8  -6 -0.0579 0.67133   2
  -1  -8  -6 0.22221 0.49528   2
  -1  -8  -6 11.9891 0.99872   1
  -2  -8  -6 42.4810 2.21122   1
   2   8   6 44.9966 2.39365   1
  -3  -8  -6 0.34647 0.64227   2
  -3  -8  -6 0.58976 0.68914   1
   3   8   6 0.13826 0.75279   1
   3   8   6 0.69909 0.75367   2
  -4  -8  -6 16.4855 1.96321  -2
  -4  -8  -6 16.4855 1.96321   1
   4   8   6 -0.1050 0.89783   2
   4   8   6 11.6217 1.43254   1
   2  -9  -6 -0.0455 0.90380   1
   2  -9  -6 -0.2861 0.85707   2
  -2   9   6 -0.6617 0.82476   2
  -2   9   6 0.09778 0.78584   1
   1  -9  -6 14.9279 1.53183   1
   1  -9  -6 -0.1799 0.87306   2
  -1   9   6 0.29247 0.75733   2
   0  -9  -6 54.1964 2.94356   1
   0  -9  -6 0.57049 0.76064   2
   1   9   6 14.0559 1.36834   1
  -2  -9  -6 0.26967 0.61271   1
   2   9   6 -0.0262 0.73185   2
   2   9   6 -0.1589 0.70564   1
  -3  -9  -7 8.69991 1.70267  -2
  -3  -9  -6 8.69991 1.70267   1
   3   9   7 9.34616 1.81381  -2
   3   9   6 9.34616 1.81381   1
   1 -10  -6 0.55069 0.98292   2
   1 -10  -6 8.85381 1.30769   1
   0 -10  -6 -0.4708 0.92731   2
   0 -10  -6 1.54484 1.04050   1
   1  10   6 0.80774 0.88737   2
   1  10   6 1.54685 0.93078   1
   2  10   6 0.00163 0.79878   2
   2  10   6 -0.1536 0.83791   1
  -2  -9   7 0.02114 0.82695   1
  -2  -9   7 0.28486 0.83707   2
  -1  -9   7 -0.1727 0.81322   2
   0   9  -7 1.04097 0.84872   1
   0   9  -7 0.65654 0.82792   2
  -1   9  -7 4.34880 1.00035   1
  -3  -8   7 0.59380 0.92881   1
  -3  -8   7 0.54025 0.87279   2
  -2  -8   7 2.12618 0.83985   1
  -2  -8   7 0.70973 0.86374   2
   1   8  -7 -0.1512 0.64982   2
   1   8  -7 2.62037 0.73558   1
  -1  -8   7 0.80576 0.70294   2
  -1  -8   7 1.11276 0.73454   1
   0   8  -7 0.87552 0.67819   1
   0   8  -7 -0.0010 0.65602   2
   0  -8   7 -0.8980 0.60513   2
  -1   8  -7 0.37971 0.70080   2
  -1   8  -7 4.73573 0.88915   1
  -2   8  -7 0.47538 0.82881   1
  -2   8  -7 0.21732 0.76120   2
  -3   8  -7 -0.3966 0.83963   2
  -3   8  -7 6.47521 1.16709   1
  -3  -7   7 -0.1937 0.75150   1
  -3  -7   7 0.04299 0.83395   2
   2   7  -7 -0.3691 0.71199   2
  -2  -7   7 24.1062 1.62889   1
  -2  -7   7 0.28742 0.72899   2
   1   7  -7 0.46375 0.59559   2
   1   7  -7 -0.4006 0.58394   1
  -1  -7   7 -0.0008 0.62287   2
  -1  -7   7 0.03693 0.64328   1
   0   7  -7 0.40694 0.58295   1
   0   7  -7 -0.1526 0.56037   2
   0  -7   7 0.15386 0.58599   2
   0  -7   7 0.63546 0.60674   1
  -1   7  -7 3.63238 0.74830   1
  -1   7  -7 0.69804 0.64830   2
  -2   7  -7 43.3441 2.15420   1
  -2   7  -7 0.14845 0.67334   2
  -3   7  -7 0.13065 0.74368   2
  -3   7  -7 -0.2770 0.73968   1
   3  -7   7 0.90599 0.97345   1
   4  -7   7 1.23477 1.16364   1
  -4  -6   7 -0.0498 0.98995   2
  -4  -6   7 -0.1273 0.92621   1
  -3  -6   7 0.25194 0.79709   2
  -3  -6   7 2.05200 0.85250   1
   2   6  -7 4.00682 0.62487   1
   2   6  -7 0.27069 0.52469   2
  -2  -6   7 -0.0945 0.63144   2
  -2  -6   7 3.26310 0.74793   1
   1   6  -7 -0.2773 0.48896   2
   1   6  -7 0.36933 0.52385   1
  -1  -6   7 1.00641 0.57619   1
  -1  -6   7 -0.2401 0.56688   2
   0   6  -7 0.18965 0.48590   2
   0   6  -7 16.4086 1.05691   1
   0  -6   7 -0.2433 0.49909   2
   0  -6   7 16.0625 1.10341   1
  -1   6  -7 43.2866 2.03060   1
  -1   6  -7 0.16805 0.50572   2
   1  -6   7 0.66784 0.49817   2
  -2   6  -7 27.7376 1.55391   1
  -2   6  -7 0.58137 0.58123   2
   2  -6   7 31.1815 1.84048   1
  -3   6  -7 0.25435 0.63566   2
  -3   6  -7 2.81577 0.76980   1
   3  -6   7 4.09931 0.93619   1
  -4   6  -7 -1.0246 0.70661   2
  -4   6  -7 1.31474 0.79202   1
   4  -6   7 1.40932 0.99331   1
  -4  -5   7 0.23035 0.86663   2
  -4  -5   7 7.97172 1.16986   1
   3   5  -7 0.72358 0.60537   2
  -3  -5   7 14.2696 1.25072   1
  -3  -5   7 0.44013 0.66905   2
   2   5  -7 0.47912 0.49487   1
   2   5  -7 -0.3567 0.46837   2
  -2  -5   7 -0.2309 0.56613   1
  -2  -5   7 -0.0470 0.55235   2
   1   5  -7 0.67324 0.46538   2
   1   5  -7 23.3957 1.21802   1
  -1  -5   7 22.2000 1.34530   1
  -1  -5   7 -0.1006 0.49918   2
   0   5  -7 47.2042 2.07788   1
   0   5  -7 0.95126 0.46848   2
   0  -5   7 48.8315 2.25868   1
   0  -5   7 0.16781 0.45240   2
  -1   5  -7 297.982 11.7021   1
   1  -5   7 310.847 13.6152   1
   1  -5   7 300.764 12.6238   1
   1  -5   7 6.51503 0.70881   2
  -2   5  -7 1.29224 0.53566   1
  -2   5  -7 -0.1108 0.48288   2
   2  -5   7 1.76668 0.69086   1
   2  -5   7 0.09360 0.81854   2
   2  -5   7 0.38298 0.42245   2
  -3   5  -7 0.44047 0.57070   2
  -3   5  -7 3.68449 0.70283   1
   3  -5   7 3.34791 0.83548   1
   3  -5   7 0.70782 0.69914   2
  -4   5  -7 0.72236 0.66994   1
  -4   5  -7 -0.1448 0.63441   2
   4  -5   7 0.12179 0.77207   2
   4  -5   7 0.39868 0.82108   1
  -5   5  -7 -1.5344 0.72130   2
  -5   5  -7 -0.0408 0.75369   1
   5  -5   7 0.38860 0.97365   2
   5  -5   7 0.67048 1.05157   1
  -5  -4   7 -0.4141 1.00475   2
  -5  -4   7 8.89571 1.34993   1
  -4  -4   7 4.51974 0.96870   1
  -4  -4   7 -0.0865 0.75589   2
   3   4  -7 0.73531 0.51489   2
   3   4  -7 7.80586 0.78841   1
  -3  -4   7 7.96018 0.95408   1
  -3  -4   7 0.19861 0.62407   2
   2   4  -7 1.73141 0.46224   1
   2   4  -7 0.00407 0.41826   2
  -2  -4   7 0.90497 0.54882   1
  -2  -4   7 -0.3366 0.51095   2
   1   4  -7 12.1142 0.78868   1
   1   4  -7 0.17716 0.36937   2
  -1  -4   7 0.45421 0.43029   2
  -1  -4   7 11.2355 0.88192   1
   0   4  -7 0.07690 0.36674   2
   0   4  -7 0.08273 0.35513   1
   0  -4   7 -0.3095 0.33579   1
   0  -4   7 -0.1534 0.36608   2
  -1   4  -7 0.38165 0.37652   2
  -1   4  -7 3.34646 0.50045   1
   1  -4   7 2.96681 0.53389   1
   1  -4   7 2.83319 0.43734   1
   1  -4   7 0.10092 0.49947   2
   1  -4   7 0.22685 0.34630   2
  -2   4  -7 0.21822 0.45349   2
  -2   4  -7 1.32089 0.49011   1
   2  -4   7 0.33862 0.36501   2
   2  -4   7 0.06562 0.46524   2
   2  -4   7 0.83791 0.33559   1
   2  -4   7 0.97504 0.53242   1
  -3   4  -7 5.83417 0.71355   1
  -3   4  -7 0.03078 0.51039   2
   3  -4   7 0.18898 0.57658   2
   3  -4   7 4.20544 0.75163   1
  -4   4  -7 1.74466 0.65410   1
  -4   4  -7 -0.1944 0.57907   2
   4  -4   7 1.79256 0.76982   1
   4  -4   7 0.31080 0.70126   2
  -5   4  -7 1.32411 0.77154   1
  -5   4  -7 -0.2318 0.66406   2
   5  -4   7 0.34992 0.89312   2
  -5  -3   7 2.36196 1.08771   1
  -4  -3   7 0.27734 0.74229   2
  -4  -3   7 4.12607 0.87061   1
   3   3  -7 0.22715 0.44594   2
   3   3  -7 6.16834 0.70070   1
  -3  -3   7 0.11290 0.59410   2
  -3  -3   7 4.27196 0.76317   1
   2   3  -7 1.43432 0.44233   1
   2   3  -7 0.54970 0.41000   2
  -2  -3   7 1.01069 0.51114   1
  -2  -3   7 -0.0667 0.46172   2
   1   3  -7 43.3753 1.90346   1
   1   3  -7 0.94965 0.35453   2
  -1  -3   7 1.02948 0.39307   2
  -1  -3   7 46.6281 2.10956   1
   0   3  -7 -0.0176 0.31661   2
   0   3  -7 1.12056 0.34135   1
   0  -3   7 -0.2437 0.33554   2
   0  -3   7 0.50912 0.32687   1
  -1   3  -7 0.87161 0.35028   1
  -1   3  -7 -0.0358 0.30411   2
   1  -3   7 1.09985 0.33920   1
   1  -3   7 0.99648 0.36526   1
   1  -3   7 -0.0557 0.32628   2
   1  -3   7 -0.2030 0.28344   2
  -2   3  -7 0.67120 0.39888   1
  -2   3  -7 -0.0215 0.36990   2
   2  -3   7 0.07505 0.39491   1
   2  -3   7 0.27100 0.29473   1
   2  -3   7 -0.2603 0.34015   2
   2  -3   7 0.03102 0.41616   2
  -3   3  -7 0.76024 0.44869   2
  -3   3  -7 55.5740 2.40125   1
   3  -3   7 1.34459 0.54150   2
   3  -3   7 1.65083 0.40125   2
   3  -3   7 56.7331 2.80289   1
  -4   3  -7 -0.4947 0.54338   2
  -4   3  -7 0.25668 0.53680   1
   4  -3   7 0.18027 0.63310   1
   4  -3   7 0.41648 0.62270   2
  -5   3  -7 1.45843 0.61486   1
   5  -3   7 2.28190 0.91336   1
   5  -3   7 0.23460 0.79420   2
   4   2  -7 0.30871 0.57677   1
   4   2  -7 -0.0391 0.57226   2
  -4  -2   7 0.32288 0.69862   1
  -4  -2   7 0.18032 0.69840   2
   3   2  -7 1.96773 0.49112   1
   3   2  -7 -0.1867 0.44444   2
  -3  -2   7 2.26134 0.60586   1
  -3  -2   7 0.12057 0.53679   2
   2   2  -7 7.50616 0.66250   1
   2   2  -7 0.21408 0.37680   2
  -2  -2   7 7.58422 0.75282   1
  -2  -2   7 -0.2175 0.39127   2
   1   2  -7 1.81464 0.35532   1
   1   2  -7 0.46153 0.29621   2
  -1  -2   7 2.34131 0.41461   1
  -1  -2   7 -0.1277 0.33077   2
   0   2  -7 -0.2947 0.25702   2
   0   2  -7 3.25591 0.40397   1
   0  -2   7 0.30130 0.31442   2
   0  -2   7 3.62543 0.43948   1
  -1   2  -7 1.21831 0.31104   2
  -1   2  -7 56.7459 2.34569   1
   1  -2   7 1.37870 0.36131   2
   1  -2   7 1.87916 0.28447   2
   1  -2   7 56.9460 2.53169   1
   1  -2   7 59.0013 2.66739   1
  -2   2  -7 0.06407 0.30302   2
  -2   2  -7 12.9113 0.75392   1
   2  -2   7 0.33969 0.33406   2
   2  -2   7 0.27643 0.32637   2
   2  -2   7 13.3592 0.77994   1
   2  -2   7 12.0277 0.85158   1
  -3   2  -7 32.6441 1.50097   1
  -3   2  -7 0.45586 0.39452   2
   3  -2   7 1.23275 0.47225   2
   3  -2   7 32.4130 1.75690   1
  -4   2  -7 -0.0782 0.45355   2
  -4   2  -7 7.14544 0.74550   1
   4  -2   7 7.37522 0.91271   1
   4  -2   7 -0.0229 0.56829   2
   5  -2   7 1.13517 0.79040   2
   5  -2   7 46.1518 2.61892   1
   4   1  -7 24.6165 1.39489   1
   4   1  -7 0.69778 0.54777   2
  -4  -1   7 27.3454 1.60666   1
  -4  -1   7 0.67167 0.70306   2
   3   1  -7 0.31119 0.43911   1
   3   1  -7 -0.2680 0.41485   2
   3   1  -7 -0.1326 0.39320   2
  -3  -1   7 -0.3586 0.45778   2
  -3  -1   7 0.51300 0.50903   1
   2   1  -7 49.8188 2.29233   1
   2   1  -7 49.1393 2.06524   1
   2   1  -7 1.27142 0.36332   2
   2   1  -7 1.18014 0.27795   2
  -2  -1   7 46.5527 2.23787   1
  -2  -1   7 1.12767 0.40763   2
   1   1  -7 -0.2021 0.25785   2
   1   1  -7 0.13229 0.28287   1
  -1  -1   7 0.42731 0.33177   1
  -1  -1   7 0.12597 0.32081   2
   0   1  -7 0.76315 0.26822   2
   0   1  -7 29.3041 1.25096   1
   0  -1   7 27.8193 1.35920   1
   0  -1   7 0.99383 0.31761   2
  -1   1  -7 352.870 13.6297   1
   1  -1   7 360.836 14.7812   1
   1  -1   7 358.273 15.8926   1
   1  -1   7 18.3960 0.91291   2
   1  -1   7 16.9851 0.95318   2
  -2   1  -7 0.65236 0.41090   2
  -2   1  -7 0.69797 0.29726   2
  -2   1  -7 40.1079 1.61975   1
   2  -1   7 36.3138 1.88352   1
   2  -1   7 1.90103 0.39581   2
  -3   1  -7 153.852 6.50568   1
  -3   1  -7 150.658 5.97602   1
  -3   1  -7 3.67147 0.57246   2
   3  -1   7 157.033 7.03872   1
  -4   1  -7 16.9300 0.98062   1
  -4   1  -7 0.24478 0.55044   2
  -4   1  -7 0.30040 0.39245   2
   4  -1   7 0.65815 0.63026   2
   4  -1   7 17.5128 1.22434   1
   5  -1   7 0.77505 0.65706   2
   5  -1   7 14.7517 1.28494   1
   6  -1   7 0.85107 0.91619   2
   6  -1   7 0.14492 1.08829   1
  -5   0   7 -0.8180 0.63566   2
  -5   0   7 7.66018 0.93235   1
   4   0  -7 1.35480 0.55455   1
   4   0  -7 0.35755 0.58745   2
   4   0  -7 -0.2036 0.52567   2
   3   0  -7 14.4222 1.01793   1
   3   0  -7 14.8000 0.92737   1
   3   0  -7 1.03282 0.46415   2
   3   0  -7 0.48777 0.42130   2
  -3   0   7 15.7350 1.06378   1
  -3   0   7 0.41272 0.49490   2
   2   0  -7 1.50026 0.39142   2
   2   0  -7 1.52180 0.33748   2
   2   0  -7 65.1876 2.98934   1
   2   0  -7 64.0969 2.66375   1
  -2   0   7 65.1181 2.87259   1
  -2   0   7 1.17461 0.37547   2
   1   0  -7 1.91981 0.35106   1
   1   0  -7 0.01909 0.20288   2
   1   0  -7 -0.1713 0.27986   2
  -1   0   7 -0.3765 0.27701   2
  -1   0   7 2.44802 0.39340   1
   0   0  -7 342.506 13.0776   1
   0   0  -7 12.6765 0.68969   2
   0   0   7 343.303 14.1924   1
   0   0   7 12.7761 0.74894   2
  -1   0  -7 4.90174 0.42491   1
  -1   0  -7 0.06401 0.22729   2
   1   0   7 0.41675 0.22232   2
   1   0   7 5.39410 0.42940   1
  -2   0  -7 -0.1359 0.23121   1
  -2   0  -7 0.02446 0.33781   1
  -2   0  -7 0.06196 0.22096   2
  -2   0  -7 0.14103 0.38462   2
   2   0   7 0.00004 0.31142   2
   2   0   7 -0.0656 0.30576   1
  -3   0  -7 3.93035 0.55121   2
  -3   0  -7 161.934 6.20692   1
  -3   0  -7 157.011 6.77994   1
   3   0   7 7.87559 0.74145   2
   3   0   7 162.308 7.31985   1
  -4   0  -7 10.1146 0.98716   2
  -4   0  -7 278.507 11.4840   1
   4   0   7 15.3902 1.11615   2
   4   0   7 269.774 12.4209   1
   5   0   7 -0.0182 0.74449   2
   5   0   6 1.48018 1.50936  -2
   5   0   7 1.48018 1.50936   1
   6   0   7 0.42608 0.79649   2
   6   0   7 0.40210 0.81355   1
   5  -1  -7 -0.5859 0.53843   2
  -5   1   7 1.47622 0.76786   1
  -5   1   7 0.27043 0.65447   2
   4  -1  -7 0.02089 0.56673   2
   4  -1  -7 1.92155 0.58023   1
  -4   1   7 -0.1243 0.56030   2
   3  -1  -7 -0.0211 0.44723   2
   3  -1  -7 -0.0509 0.39933   2
   3  -1  -7 0.30974 0.44824   1
   3  -1  -7 0.26972 0.39372   1
  -3   1   7 -0.3130 0.44955   1
   2  -1  -7 0.59571 0.36386   2
   2  -1  -7 0.20623 0.32624   2
   2  -1  -7 1.71624 0.36342   1
   2  -1  -7 1.93994 0.41374   1
  -2   1   7 0.97912 0.36357   1
  -2   1   7 0.37182 0.32529   2
   1  -1  -7 218.487 8.42817   1
   1  -1  -7 7.22004 0.49034   2
   1  -1  -7 6.67126 0.55978   2
  -1   1   7 219.286 9.11208   1
  -1   1   7 5.78583 0.53630   2
   0  -1  -7 0.12973 0.22161   2
   0  -1  -7 0.41253 0.19531   2
   0  -1  -7 6.58625 0.46338   1
   0   1   7 0.64276 0.31033   2
   0   1   7 5.82731 0.53750   1
   0   1   7 7.12700 0.44084   1
  -1  -1  -7 1.07810 0.33794   2
  -1  -1  -7 0.95116 0.22654   2
  -1  -1  -7 40.1606 1.62980   1
  -1  -1  -7 40.7123 1.84869   1
   1   1   7 39.9947 1.89212   1
   1   1   7 1.08055 0.24419   2
  -2  -1  -7 0.45079 0.21858   2
  -2  -1  -7 0.27063 0.33991   2
  -2  -1  -7 4.47798 0.55749   1
  -2  -1  -7 5.78410 0.38800   1
   2   1   7 0.41453 0.32247   2
   2   1   7 5.22515 0.56110   1
  -3  -1  -7 0.69018 0.23335   1
  -3  -1  -7 0.20983 0.41212   1
  -3  -1  -7 -0.3304 0.40038   2
  -3  -1  -7 -0.1580 0.20619   2
   3   1   7 0.63051 0.47523   1
   3   1   7 0.13777 0.43972   2
  -4  -1  -7 2.10723 0.62249   1
  -4  -1  -7 -0.0142 0.56384   2
   4   1   7 2.89120 0.69918   1
   4   1   7 0.16948 0.57912   2
  -5  -1  -7 -0.0140 0.68264   2
  -5  -1  -7 5.70141 1.21230   1
   5   1   6 5.07661 1.47590  -2
   5   1   7 5.07661 1.47590   1
   5   1   7 0.64457 0.66917   2
   6   1   6 6.50136 1.98621  -2
   6   1   7 6.50136 1.98621   1
   6   1   7 0.67202 0.98510   2
   5  -2  -7 0.06102 0.67990   2
  -5   2   7 -0.5668 0.61937   2
  -5   2   7 1.51012 0.77924   1
   4  -2  -7 1.13543 0.60706   1
   4  -2  -7 -0.0278 0.61036   2
  -4   2   7 1.26336 0.58984   1
  -4   2   7 0.04349 0.57993   2
   3  -2  -7 11.1358 0.80858   1
   3  -2  -7 11.6066 0.92187   1
   3  -2  -7 0.21303 0.52712   2
  -3   2   7 -0.0435 0.49287   2
   2  -2  -7 0.07181 0.37332   2
   2  -2  -7 0.10701 0.34516   2
   2  -2  -7 2.35375 0.43991   1
   2  -2  -7 2.33029 0.46010   1
  -2   2   7 2.05009 0.43527   1
  -2   2   7 -0.0539 0.29313   2
   1  -2  -7 4.56918 0.48601   2
   1  -2  -7 3.83827 0.45049   2
   1  -2  -7 152.742 5.73381   1
   1  -2  -7 139.426 6.62861   1
  -1   2   7 3.56529 0.44572   2
  -1   2   7 150.044 6.17274   1
   0  -2  -7 2.99316 0.35768   1
   0  -2  -7 4.00951 0.38384   1
   0  -2  -7 0.11413 0.23266   2
   0  -2  -7 -0.1426 0.29646   2
   0  -2  -7 -0.0458 0.23793   2
  -1  -2  -7 1.27834 0.32331   2
  -1  -2  -7 0.88335 0.22579   2
  -1  -2  -7 34.2457 1.35283   1
  -1  -2  -7 32.3651 1.54857   1
   1   2   7 1.94841 0.33215   2
   1   2   7 31.9899 1.59742   1
  -2  -2  -7 9.16938 0.46262   1
  -2  -2  -7 7.20177 0.69684   1
  -2  -2  -7 0.39481 0.17990   2
  -2  -2  -7 0.37288 0.37208   2
   2   2   7 0.44028 0.35583   2
   2   2   7 9.72057 0.66151   1
  -3  -2  -7 16.8113 1.03896   1
  -3  -2  -7 0.78294 0.45209   2
   3   2   7 14.9390 1.05329   1
   3   2   7 0.65693 0.46485   2
  -4  -2  -7 7.67723 0.90228   1
  -4  -2  -7 0.56774 0.56503   2
   4   2   7 0.02003 0.55253   2
   4   2   7 8.06862 0.92695   1
  -5  -2  -7 -0.2723 0.69480   2
  -5  -2  -7 5.19341 0.89098   1
   5   2   7 7.30625 1.00374   1
   5   2   7 0.06762 0.72094   2
   5  -3  -7 -0.0090 0.77629   2
  -5   3   7 1.52169 0.75147   1
  -5   3   7 -0.2590 0.72459   2
   4  -3  -7 0.13651 0.64580   1
   4  -3  -7 0.25549 0.69154   2
  -4   3   7 -0.0032 0.57754   2
  -4   3   7 0.27049 0.63943   1
   3  -3  -7 19.3174 1.26026   1
   3  -3  -7 0.65444 0.58210   2
  -3   3   7 0.25061 0.53142   2
  -3   3   7 18.8931 1.15291   1
   2  -3  -7 0.34001 0.43629   2
   2  -3  -7 36.1740 1.83391   1
   2  -3  -7 35.0415 1.60208   1
  -2   3   7 35.4534 1.64302   1
  -2   3   7 0.76153 0.41657   2
   1  -3  -7 0.39682 0.31738   1
   1  -3  -7 0.42876 0.34022   1
   1  -3  -7 -0.0391 0.35941   2
   1  -3  -7 0.23813 0.29629   2
  -1   3   7 0.24472 0.29888   2
  -1   3   7 0.24950 0.31548   1
   0  -3  -7 5.52423 0.44618   1
   0  -3  -7 5.36297 0.48588   1
   0  -3  -7 5.70584 0.55279   1
   0  -3  -7 0.02703 0.28510   2
   0  -3  -7 0.15277 0.29639   2
   0  -3  -7 -0.1679 0.24752   2
  -1  -3  -7 588.235 21.6059   1
  -1  -3  -7 560.946 23.4953   1
  -1  -3  -7 15.6021 0.83174   2
  -1  -3  -7 22.4875 1.01859   2
   1   3   7 558.263 25.3170   1
  -2  -3  -7 0.22990 0.36919   2
  -2  -3  -7 0.08570 0.36312   1
   2   3   7 0.05738 0.36499   2
   2   3   7 -0.3863 0.37244   1
  -3  -3  -7 1.50832 0.47507   2
  -3  -3  -7 31.7054 1.63421   1
   3   3   7 30.7897 1.68177   1
   3   3   7 1.91297 0.50014   2
  -4  -3  -7 0.15434 0.59721   2
  -4  -3  -7 0.28575 0.61365   1
   4   3   7 2.09060 0.67642   1
   4   3   7 0.00479 0.60919   2
  -5  -3  -6 7.44728 1.63194  -2
  -5  -3  -7 7.44728 1.63194   1
  -5  -3  -7 0.54572 0.71241   2
   5   3   7 6.57428 1.01304   1
   5   3   7 -0.4495 0.75231   2
   5  -4  -7 1.17705 0.79204   2
   5  -4  -7 -0.7539 0.88249   1
   4  -4  -7 0.52344 0.65840   1
   4  -4  -7 0.29737 0.74929   2
  -4   4   7 0.61443 0.65039   1
  -4   4   7 0.24327 0.65077   2
   3  -4  -7 0.52821 0.64215   1
   3  -4  -7 0.18553 0.62625   2
  -3   4   7 0.55671 0.56209   1
  -3   4   7 -0.5308 0.45336   2
   2  -4  -7 195.295 8.91983   1
   2  -4  -7 4.06634 0.69480   2
  -2   4   7 4.97790 0.66280   2
  -2   4   7 197.304 7.64946   1
   1  -4  -7 -0.0946 0.38941   2
   1  -4  -7 2.86111 0.51585   1
   1  -4  -7 2.32673 0.40838   1
  -1   4   7 0.21503 0.32393   2
  -1   4   7 0.10063 0.36433   2
  -1   4   7 3.07025 0.43506   1
   0  -4  -7 5.33903 0.49867   2
   0  -4  -7 4.50266 0.57335   2
   0  -4  -7 164.475 7.65917   1
   0  -4  -7 173.847 7.09466   1
   0  -4  -7 168.710 6.53291   1
   0   4   7 4.04556 0.45916   2
  -1  -4  -7 20.1147 1.08298   1
  -1  -4  -7 19.1502 0.86451   1
  -1  -4  -7 0.92118 0.37733   2
   1   4   7 0.83991 0.39000   2
   1   4   7 0.69681 0.26639   2
   1   4   7 19.2128 1.11786   1
  -2  -4  -7 0.55750 0.43786   2
  -2  -4  -7 12.9596 0.86503   1
   2   4   7 12.2789 0.90677   1
   2   4   7 0.81248 0.45842   2
  -3  -4  -7 64.8484 3.08256   1
  -3  -4  -7 2.71739 0.60052   2
   3   4   7 4.84242 0.67783   2
   3   4   7 70.7180 3.31269   1
  -4  -4  -7 4.54652 0.78853   2
  -4  -4  -7 70.7672 3.18190   1
   4   4   7 3.88182 0.74162   2
   4   4   7 65.3745 3.36798   1
  -5  -4  -7 6.97928 1.04803   1
  -5  -4  -7 -0.0960 0.75168   2
   5   4   7 7.72755 1.14764   1
   5   4   7 0.73052 0.84011   2
  -6  -4  -7 0.57459 0.96629   2
  -6  -4  -6 -0.5180 1.91326  -2
  -6  -4  -7 -0.5180 1.91326   1
   4  -5  -7 0.89446 0.86276   2
   4  -5  -7 46.1949 2.61918   1
  -4   5   7 45.3292 2.23388   1
  -4   5   7 1.07121 0.76501   2
   3  -5  -7 0.14096 0.71129   2
   3  -5  -7 24.4093 1.57196   1
  -3   5   7 21.8510 1.31399   1
  -3   5   7 0.15007 0.55266   2
   2  -5  -7 3.59144 0.72398   1
   2  -5  -7 0.13209 0.61698   2
  -2   5   7 -0.2867 0.45326   2
  -2   5   7 4.30964 0.65906   1
   1  -5  -7 0.77406 0.51592   2
   1  -5  -7 8.54394 0.82913   1
  -1   5   7 9.74520 0.77225   1
  -1   5   7 0.20175 0.39849   2
   0  -5  -7 -0.1696 0.30616   2
   0  -5  -7 0.17527 0.40785   2
   0  -5  -7 2.95994 0.43119   1
   0  -5  -7 2.17943 0.53045   1
   0   5   7 3.09877 0.44509   1
   0   5   7 0.11369 0.33347   2
  -1  -5  -7 1.10177 0.42833   1
  -1  -5  -7 -0.1537 0.35246   2
   1   5   7 1.28808 0.49942   1
   1   5   7 1.27451 0.35994   1
   1   5   7 -0.1540 0.27663   2
  -2  -5  -7 0.10820 0.45995   2
  -2  -5  -7 3.85482 0.61614   1
   2   5   7 5.30169 0.69185   1
   2   5   7 0.68170 0.49729   2
  -3  -5  -7 65.4697 2.94946   1
  -3  -5  -7 2.93203 0.63541   2
   3   5   7 4.05239 0.72084   2
   3   5   7 61.3321 3.12340   1
  -4  -5  -7 0.10387 0.63573   2
  -4  -5  -7 1.40011 0.69448   1
   4   5   7 1.33891 0.67725   1
   4   5   7 0.19260 0.62818   2
  -5  -5  -7 0.09259 0.82378   2
  -5  -5  -7 2.86224 0.90092   1
   5   5   7 3.43834 0.91574   1
   5   5   7 -0.0536 0.81189   2
   4  -6  -7 -0.0855 0.93041   2
   4  -6  -7 3.21267 0.98655   1
  -4   6   7 -0.2339 0.65946   2
  -4   6   7 1.95620 0.86580   1
   3  -6  -7 -0.1324 0.78018   2
   3  -6  -7 0.49800 0.77389   1
  -3   6   7 -0.1102 0.64402   2
  -3   6   7 0.19468 0.61905   1
   2  -6  -7 0.33304 0.69152   2
   2  -6  -7 3.36855 0.82364   1
  -2   6   7 0.28459 0.56456   2
  -2   6   7 3.04225 0.61160   1
   1  -6  -7 2.59868 0.67242   1
   1  -6  -7 0.11622 0.53634   2
  -1   6   7 0.30505 0.48601   2
  -1   6   7 1.45048 0.50853   1
   0  -6  -7 0.47861 0.34183   1
   0  -6  -7 0.57498 0.52368   1
   0  -6  -7 -0.3368 0.47043   2
   0  -6  -7 0.05426 0.33024   2
   0   6   7 0.40094 0.38566   1
   0   6   7 0.32178 0.41696   2
  -1  -6  -7 10.9545 0.85207   1
  -1  -6  -7 0.34562 0.41741   2
   1   6   7 10.2367 0.92595   1
  -2  -6  -7 8.42137 0.83591   1
  -2  -6  -7 -0.2475 0.44749   2
   2   6   7 7.80072 0.89915   1
   2   6   7 0.07301 0.55142   2
  -3  -6  -7 0.38699 0.58018   2
  -3  -6  -7 16.9913 1.26104   1
   3   6   7 1.68132 0.70497   2
   3   6   7 17.6229 1.31353   1
  -4  -6  -7 0.11329 0.63523   2
  -4  -6  -7 0.65534 0.70089   1
   4   6   7 0.51786 0.63916   1
   4   6   7 0.30040 0.61608   2
  -5  -6  -7 3.30961 1.00019   1
  -5  -6  -7 0.99536 0.90131   2
   5   6   7 -0.6546 1.64711  -2
   5   6   7 -0.6546 1.64711   1
   3  -7  -7 -0.1251 0.88028   2
   3  -7  -7 7.05805 1.17357   1
  -3   7   7 0.30128 0.69897   2
  -3   7   7 6.65569 0.98228   1
   2  -7  -7 0.17626 0.73131   2
   2  -7  -7 0.39795 0.68561   1
  -2   7   7 -0.0318 0.62319   1
  -2   7   7 0.44190 0.57332   2
   1  -7  -7 1.75220 0.72376   1
   1  -7  -7 -0.2325 0.66225   2
  -1   7   7 5.41818 0.71126   1
  -1   7   7 -0.0622 0.50461   2
   0  -7  -7 0.92268 0.56390   1
   0  -7  -7 -0.4239 0.60513   2
   0   7   7 1.07647 0.53908   1
   0   7   7 0.20013 0.46188   2
  -1  -7  -7 -0.3122 0.50651   2
  -1  -7  -7 3.37528 0.62237   1
   1   7   7 2.73015 0.70009   1
  -2  -7  -7 1.12001 0.57999   2
  -2  -7  -7 26.3653 1.56946   1
   2   7   7 1.95918 0.63785   2
   2   7   7 29.4817 1.72042   1
  -3  -7  -7 0.18130 0.62040   1
  -3  -7  -7 -0.0176 0.59833   2
   3   7   7 -0.2895 0.65530   2
   3   7   7 -0.4099 0.65497   1
  -4  -7  -7 0.81506 0.76998   2
  -4  -7  -7 6.83885 1.01377   1
   4   7   7 7.30797 1.11991   1
   4   7   7 0.04758 0.80707   2
   3  -8  -7 -0.2068 0.85830   1
   3  -8  -7 0.67962 1.04385   2
  -3   8   7 -0.2689 0.79361   2
  -3   8   7 0.71720 0.75501   1
   2  -8  -7 8.91422 1.21126   1
   2  -8  -7 -0.1690 0.87524   2
  -2   8   7 7.55619 0.92206   1
  -2   8   7 0.04877 0.69907   2
   1  -8  -7 0.69896 0.78339   1
   1  -8  -7 0.36971 0.78109   2
  -1   8   7 0.05929 0.60564   2
  -1   8   7 1.57286 0.59516   1
   0  -8  -7 139.843 6.59103   1
   0  -8  -7 3.38882 0.78135   2
  -1  -8  -7 0.18243 0.57643   2
  -1  -8  -7 0.49627 0.52488   1
   1   8   7 0.31880 0.66239   1
  -2  -8  -7 1.05670 0.65804   2
  -2  -8  -7 16.0428 1.29248   1
   2   8   7 0.76057 0.65476   2
   2   8   7 18.4972 1.37870   1
  -3  -8  -7 0.32514 0.65238   2
  -3  -8  -7 0.42876 0.68924   1
   3   8   7 -0.8542 0.73626   1
   3   8   7 -0.1924 0.70790   2
  -4  -8  -7 -0.0725 0.77221   2
  -4  -8  -7 -0.3759 0.78827   1
   4   8   7 -0.5669 0.86091   1
   4   8   7 0.20435 0.90029   2
   2  -9  -7 -0.2479 0.86865   2
   2  -9  -7 0.93255 0.98152   1
  -2   9   7 1.60848 0.86155   1
  -2   9   7 0.18014 0.87633   2
   1  -9  -7 11.3219 1.37801   1
   1  -9  -7 0.39087 0.90310   2
  -1   9   7 0.82080 0.98033   2
   0  -9  -7 19.1727 1.60890   1
   0  -9  -7 0.51216 0.71047   2
   1   9   7 0.44811 0.80466   2
   1   9   7 2.38327 0.87049   1
  -2  -9  -7 19.3036 1.42775   1
  -2  -9  -7 0.54637 0.63145   2
   2   9   7 0.82956 0.77345   2
   2   9   7 21.4329 1.61576   1
  -3  -9  -7 8.20845 1.08037   1
   3   9   7 7.95100 1.15064   1
   0 -10  -7 -0.0216 1.00936   2
   0 -10  -7 1.13926 0.97788   1
   1  10   7 1.15289 0.98928   1
   1  10   7 0.18013 0.85095   2
   2  10   7 1.59173 0.91766   1
   2  10   7 0.58724 0.86714   2
  -1  -9   8 0.12226 0.82637   2
   0   9  -8 0.18174 0.87419   2
   0   9  -8 12.6508 1.37700   1
  -1   9  -8 0.30717 0.88067   2
  -1   9  -8 0.94076 0.95159   1
  -2  -8   8 3.11601 0.95309   1
  -2  -8   8 0.19776 0.83912   2
   1   8  -8 0.16286 0.68234   2
   1   8  -8 5.01762 0.89282   1
  -1  -8   8 4.37816 0.89338   1
  -1  -8   8 0.09159 0.75104   2
   0   8  -8 -0.0701 0.70614   2
   0   8  -8 9.35010 1.02423   1
   0  -8   8 0.14884 0.63758   2
  -1   8  -8 0.49831 0.78736   1
  -1   8  -8 0.50934 0.72949   2
  -2   8  -8 -0.1087 0.83171   2
  -2   8  -8 -0.8736 0.82898   1
  -3  -7   8 -0.2622 0.89585   2
  -3  -7   8 10.6777 1.32664   1
   2   7  -8 -0.4322 0.61084   2
  -2  -7   8 1.52117 0.83372   1
  -2  -7   8 0.16910 0.76673   2
   1   7  -8 3.68973 0.74182   1
   1   7  -8 0.11841 0.58949   2
  -1  -7   8 0.04202 0.64403   2
  -1  -7   8 2.70467 0.79038   1
   0   7  -8 4.23828 0.76749   1
   0   7  -8 0.34696 0.59524   2
   0  -7   8 4.48702 0.77443   1
   0  -7   8 -0.0899 0.62515   2
  -1   7  -8 0.64761 0.60828   1
  -1   7  -8 -0.4768 0.56041   2
  -2   7  -8 0.46556 0.67760   2
  -2   7  -8 2.93724 0.82523   1
  -3   7  -8 5.54971 0.95768   1
  -3   7  -8 -0.0731 0.79796   2
  -4  -6   8 -0.1593 1.02074   2
  -4  -6   8 0.33049 1.01832   1
  -3  -6   8 -0.2320 0.77936   1
  -3  -6   8 -0.0841 0.79166   2
   2   6  -8 -0.1003 0.54810   2
   2   6  -8 3.90755 0.66147   1
  -2  -6   8 2.79236 0.78260   1
  -2  -6   8 -0.4839 0.63877   2
   1   6  -8 -0.0880 0.51388   2
   1   6  -8 1.15525 0.61402   1
  -1  -6   8 0.55850 0.61515   1
  -1  -6   8 0.02264 0.59559   2
   0   6  -8 0.06020 0.52044   2
   0   6  -8 -0.1028 0.52233   1
   0  -6   8 0.09502 0.54354   1
   0  -6   8 -0.0810 0.53281   2
  -1   6  -8 0.10451 0.50488   2
  -1   6  -8 39.1899 1.88555   1
   1  -6   8 1.13304 0.54652   2
  -2   6  -8 0.02014 0.55351   2
  -2   6  -8 8.77974 0.97574   1
  -3   6  -8 0.03350 0.67295   2
  -3   6  -8 0.04641 0.68319   1
   3  -6   8 0.53472 0.86096   1
  -4   6  -8 -0.1890 0.75628   2
  -4   6  -8 7.27082 1.05551   1
   4  -6   8 9.67477 1.32387   1
  -4  -5   8 0.20507 0.94900   2
  -4  -5   8 0.87191 0.99104   1
   3   5  -8 0.64499 0.62874   2
   3   5  -8 5.23028 0.79253   1
  -3  -5   8 -0.5245 0.68863   2
  -3  -5   8 6.01634 0.96803   1
   2   5  -8 2.92761 0.61272   1
   2   5  -8 -0.0194 0.51097   2
  -2  -5   8 -0.1221 0.58760   2
  -2  -5   8 2.22409 0.68191   1
   1   5  -8 90.0814 3.64993   1
   1   5  -8 1.18007 0.49342   2
  -1  -5   8 88.5283 4.00277   1
  -1  -5   8 1.71541 0.56658   2
   0   5  -8 6.76754 0.73040   2
   0   5  -8 163.752 6.48785   1
   0  -5   8 166.389 7.03358   1
   0  -5   8 2.35069 0.59337   2
  -1   5  -8 86.5095 3.55229   1
  -1   5  -8 1.47259 0.49435   2
   1  -5   8 86.1440 3.79753   1
   1  -5   8 1.26970 0.49293   2
  -2   5  -8 2.77620 0.62305   1
  -2   5  -8 -0.4174 0.49059   2
   2  -5   8 -0.0502 0.41745   2
   2  -5   8 4.22906 0.79477   1
  -3   5  -8 2.72028 0.68123   1
  -3   5  -8 0.00301 0.57929   2
   3  -5   8 3.07688 0.83906   1
  -4   5  -8 0.58360 0.68363   2
  -4   5  -8 4.29142 0.82415   1
   4  -5   8 3.58917 0.95150   1
  -4  -4   8 0.70094 0.87518   2
  -4  -4   8 3.70164 0.99099   1
   3   4  -8 4.38243 0.67121   1
   3   4  -8 -0.1322 0.53402   2
  -3  -4   8 -0.3353 0.64637   2
  -3  -4   8 6.47544 0.92311   1
   2   4  -8 2.82208 0.54730   1
   2   4  -8 0.03998 0.45667   2
  -2  -4   8 2.48586 0.63731   1
  -2  -4   8 -0.2423 0.58023   2
   1   4  -8 216.910 8.42314   1
   1   4  -8 6.63552 0.66919   2
  -1  -4   8 217.382 9.16865   1
  -1  -4   8 3.99437 0.64056   2
   0   4  -8 8.89251 0.72718   2
   0   4  -8 248.759 9.72677   1
   0  -4   8 6.46071 0.72007   2
   0  -4   8 255.045 10.5642   1
  -1   4  -8 5.94528 0.62432   1
  -1   4  -8 0.97535 0.42533   2
   1  -4   8 -0.1267 0.41376   2
   1  -4   8 6.50211 0.63614   1
  -2   4  -8 0.10076 0.43937   2
  -2   4  -8 1.32479 0.52012   1
   2  -4   8 0.24023 0.40181   2
   2  -4   8 1.16904 0.57843   1
   2  -4   8 1.30290 0.39283   1
  -3   4  -8 -0.3358 0.53712   1
  -3   4  -8 -0.0141 0.51727   2
   3  -4   8 0.57741 0.63495   1
   3  -4   8 0.16816 0.58847   2
  -4   4  -8 9.42318 1.02993   1
  -4   4  -8 0.06120 0.61619   2
   4  -4   8 -0.4587 0.66721   2
   4  -4   8 8.40635 1.07049   1
  -5   4  -8 2.87268 0.82180   1
  -5   4  -8 0.64283 0.63648   2
   5  -4   8 2.59846 1.03699   1
   5  -4   8 -0.1115 0.90984   2
  -5  -3   8 30.6615 2.21003   1
   4   3  -8 6.75464 0.84617   1
   4   3  -8 0.01514 0.62517   2
  -4  -3   8 -0.2594 0.78604   2
  -4  -3   8 8.72892 1.08700   1
   3   3  -8 0.10953 0.46573   2
   3   3  -8 0.24828 0.53539   1
  -3  -3   8 0.39204 0.62667   1
  -3  -3   8 -0.0244 0.62616   2
   2   3  -8 1.57983 0.49035   1
   2   3  -8 -0.0059 0.43076   2
  -2  -3   8 -0.2486 0.47514   2
  -2  -3   8 1.66127 0.56009   1
   1   3  -8 0.35391 0.37874   2
   1   3  -8 9.55144 0.68671   1
  -1  -3   8 10.4262 0.81241   1
  -1  -3   8 -0.0192 0.41139   2
   0   3  -8 0.81241 0.38007   1
   0   3  -8 0.20121 0.34795   2
   0  -3   8 0.29182 0.38328   2
   0  -3   8 0.54744 0.39192   1
  -1   3  -8 11.8310 0.75443   1
  -1   3  -8 0.53571 0.35674   2
   1  -3   8 0.17229 0.37100   2
   1  -3   8 11.2020 0.76918   1
   1  -3   8 10.7367 0.74293   1
  -2   3  -8 0.76116 0.41616   2
  -2   3  -8 36.5149 1.60156   1
   2  -3   8 0.52746 0.41839   2
   2  -3   8 0.54494 0.41395   2
   2  -3   8 33.1512 1.79052   1
   2  -3   8 34.5093 1.63626   1
  -3   3  -8 0.01346 0.45898   2
  -3   3  -8 -0.3593 0.44938   1
   3  -3   8 0.28600 0.41196   2
   3  -3   8 -0.1604 0.49598   2
   3  -3   8 0.03441 0.54582   1
  -4   3  -8 -0.0914 0.57832   1
  -4   3  -8 -0.4446 0.54389   2
   4  -3   8 -0.0023 0.62196   2
   4  -3   8 1.14845 0.68497   1
  -5   3  -8 -0.0409 0.56451   1
   5  -3   8 0.40644 0.87620   1
   5  -3   8 0.81644 0.83538   2
   4   2  -8 0.10979 0.61013   2
   4   2  -8 0.55060 0.62514   1
  -4  -2   8 -0.0559 0.71349   2
  -4  -2   8 0.85752 0.71435   1
   3   2  -8 16.8975 1.05420   1
   3   2  -8 0.67013 0.49505   2
  -3  -2   8 0.10312 0.56254   2
  -3  -2   8 18.5212 1.28117   1
   2   2  -8 3.70594 0.53150   1
   2   2  -8 0.23387 0.40972   2
  -2  -2   8 3.78880 0.59431   1
  -2  -2   8 -0.1170 0.42448   2
   1   2  -8 -0.1310 0.32259   2
   1   2  -8 6.16262 0.57148   1
  -1  -2   8 -0.0234 0.35508   2
  -1  -2   8 5.54867 0.63666   1
   0   2  -8 0.40571 0.29559   2
   0   2  -8 14.4591 0.82510   1
   0  -2   8 0.16795 0.34396   2
   0  -2   8 16.1973 0.91398   1
  -1   2  -8 87.1003 3.46409   1
  -1   2  -8 2.30889 0.38719   2
   1  -2   8 88.4610 3.96132   1
   1  -2   8 85.2283 3.74624   1
   1  -2   8 2.45197 0.44248   2
  -2   2  -8 0.02693 0.31846   2
  -2   2  -8 15.6887 0.83961   1
   2  -2   8 13.6637 0.85969   1
   2  -2   8 13.7337 0.91963   1
   2  -2   8 0.55458 0.33746   2
   2  -2   8 0.56234 0.36270   2
  -3   2  -8 2.40299 0.50120   1
  -3   2  -8 0.10502 0.41423   2
   3  -2   8 0.18298 0.46815   2
   3  -2   8 2.01030 0.56418   1
  -4   2  -8 -0.7711 0.44981   2
  -4   2  -8 2.07526 0.55854   1
   4  -2   8 0.24132 0.58906   2
   4  -2   8 4.07955 0.80311   1
   5  -2   8 1.19466 0.82186   2
   5  -2   8 32.6829 2.12770   1
   4   1  -8 1.06245 0.60788   1
   4   1  -8 0.05078 0.53372   2
  -4  -1   8 2.01209 0.79449   1
   3   1  -8 2.02895 0.54603   2
   3   1  -8 76.8035 3.24307   1
  -3  -1   8 79.4516 3.52984   1
  -3  -1   8 1.30710 0.58284   2
   2   1  -8 0.18425 0.33389   2
   2   1  -8 -0.0463 0.36349   1
  -2  -1   8 -0.2867 0.39266   2
  -2  -1   8 -0.0052 0.40705   1
   1   1  -8 0.03569 0.30247   2
   1   1  -8 4.93280 0.51163   1
  -1  -1   8 -0.2129 0.35312   2
  -1  -1   8 4.55279 0.54608   1
   0   1  -8 0.28576 0.29358   2
   0   1  -8 7.63922 0.55918   1
   0  -1   8 0.02836 0.29852   2
   0  -1   8 7.17675 0.62016   1
  -1   1  -8 1.00062 0.31361   2
  -1   1  -8 37.2120 1.60846   1
   1  -1   8 37.9844 1.76513   1
   1  -1   8 38.5787 1.78779   1
   1  -1   8 1.26969 0.36264   2
   1  -1   8 1.62979 0.27848   2
  -2   1  -8 0.18283 0.27904   2
  -2   1  -8 1.62494 0.35885   1
   2  -1   8 1.43995 0.44239   1
   2  -1   8 -0.1859 0.35175   2
  -3   1  -8 1.27143 0.37654   2
  -3   1  -8 2.18577 0.57261   2
  -3   1  -8 58.4564 2.81591   1
  -3   1  -8 63.7415 2.56842   1
   3  -1   8 2.71077 0.57567   2
   3  -1   8 64.4187 3.03333   1
  -4   1  -8 0.01773 0.60153   2
  -4   1  -8 19.4140 1.06615   1
   4  -1   8 0.68519 0.65587   2
   4  -1   8 17.9114 1.28546   1
   5  -1   8 0.40105 0.66959   2
   5  -1   8 15.7222 1.35258   1
   6  -1   8 -0.1810 1.08833   2
  -5   0   8 0.17368 0.72083   2
   4   0  -8 31.5032 1.65909   1
   4   0  -8 0.42695 0.55994   2
   3   0  -8 0.64461 0.47236   2
   3   0  -8 7.68333 0.77092   1
  -3   0   8 0.46911 0.53444   2
  -3   0   8 8.41400 0.89999   1
   2   0  -8 0.29455 0.39306   2
   2   0  -8 0.28556 0.29855   2
   2   0  -8 1.05058 0.38987   1
  -2   0   8 -0.1161 0.37340   2
  -2   0   8 1.06426 0.42673   1
   1   0  -8 81.6519 3.25674   1
   1   0  -8 2.09191 0.37773   2
  -1   0   8 80.9999 3.52761   1
  -1   0   8 1.80211 0.40873   2
   0   0  -8 4.32200 0.47077   2
   0   0  -8 135.793 5.18823   1
   0   0   8 131.078 5.63659   1
   0   0   8 5.08797 0.52687   2
  -1   0  -8 0.59536 0.25510   2
  -1   0  -8 28.3469 1.22161   1
   1   0   8 1.01289 0.25765   2
   1   0   8 27.4477 1.34689   1
  -2   0  -8 0.31905 0.23867   2
  -2   0  -8 0.23020 0.40621   2
  -2   0  -8 10.6689 0.78839   1
  -2   0  -8 11.0821 0.60761   1
   2   0   8 9.84492 0.75141   1
   2   0   8 0.14702 0.32547   2
  -3   0  -8 0.56704 0.47962   2
  -3   0  -8 0.50209 0.29835   2
  -3   0  -8 24.5401 1.15727   1
  -3   0  -8 25.2378 1.37357   1
   3   0   8 1.00882 0.49588   2
   3   0   8 26.7576 1.45934   1
  -4   0  -8 188.735 7.82397   1
  -4   0  -8 4.31008 0.73346   2
   4   0   8 179.873 8.46134   1
   4   0   8 10.4627 0.96474   2
   5   0   8 0.68134 0.76336   2
   5   0   8 2.32938 0.85680   1
   6   0   8 0.03062 0.76630   2
   6   0   8 0.48463 0.89642   1
  -5   1   8 -0.0034 0.71873   1
  -5   1   8 0.59838 0.77642   2
   4  -1  -8 0.30867 0.55597   1
  -4   1   8 0.14647 0.56406   2
   3  -1  -8 0.14595 0.46360   2
   3  -1  -8 -0.4380 0.42811   2
   3  -1  -8 0.57138 0.50246   1
  -3   1   8 1.21073 0.49611   1
   2  -1  -8 0.71897 0.40390   2
   2  -1  -8 0.67094 0.35839   2
   2  -1  -8 26.4074 1.33053   1
   2  -1  -8 26.2434 1.28068   1
  -2   1   8 25.3626 1.33491   1
  -2   1   8 0.34055 0.35769   2
   1  -1  -8 2.02594 0.32152   2
   1  -1  -8 1.88190 0.38181   2
   1  -1  -8 77.3197 3.07325   1
   1  -1  -8 76.2805 3.46521   1
  -1   1   8 1.50666 0.38478   2
  -1   1   8 75.2321 3.30755   1
   0  -1  -8 -0.1172 0.19976   2
   0  -1  -8 0.39548 0.25442   2
   0  -1  -8 0.10283 0.25645   1
   0   1   8 0.22663 0.21069   1
   0   1   8 0.00731 0.33004   1
   0   1   8 0.05859 0.31207   2
  -1  -1  -8 1.28074 0.41968   1
  -1  -1  -8 1.39077 0.26917   1
  -1  -1  -8 0.05984 0.22465   2
  -1  -1  -8 0.09262 0.34917   2
   1   1   8 -0.1413 0.25262   2
   1   1   8 1.98368 0.33553   1
  -2  -1  -8 8.81342 0.73430   1
  -2  -1  -8 10.5242 0.57026   1
  -2  -1  -8 0.20184 0.23522   2
  -2  -1  -8 0.52550 0.38768   2
   2   1   8 9.29849 0.71058   1
   2   1   8 0.24747 0.33725   2
  -3  -1  -8 1.27131 0.47147   1
  -3  -1  -8 0.71747 0.27744   1
  -3  -1  -8 1.07070 0.47868   2
   3   1   8 0.15095 0.46156   2
   3   1   8 1.18407 0.50075   1
  -4  -1  -8 0.12169 0.48893   2
  -4  -1  -8 11.1038 1.01830   1
   4   1   8 0.16053 0.60222   2
   4   1   8 11.2298 1.09686   1
  -5  -1  -8 4.63886 0.96767   1
  -5  -1  -8 -0.4244 0.62096   2
   5   1   8 0.23702 0.69908   2
   5   1   8 5.84505 0.96716   1
   6   1   8 0.59389 1.00003   2
   6   1   8 9.29614 1.33176   1
  -5   2   8 -0.3393 0.71973   2
  -5   2   8 5.28702 0.93694   1
   4  -2  -8 -0.0603 0.60782   2
  -4   2   8 0.31225 0.63333   2
   3  -2  -8 -0.4957 0.52935   2
   3  -2  -8 0.36347 0.43496   1
   3  -2  -8 0.01892 0.46842   1
   2  -2  -8 11.2831 0.80633   1
   2  -2  -8 11.7340 0.78164   1
   2  -2  -8 0.22197 0.35516   2
   2  -2  -8 -0.1424 0.40885   2
  -2   2   8 0.00482 0.32853   2
  -2   2   8 11.5352 0.82836   1
   1  -2  -8 67.6739 2.77883   1
   1  -2  -8 68.6001 3.16064   1
   1  -2  -8 1.28850 0.37306   2
   1  -2  -8 1.58276 0.38480   2
  -1   2   8 1.52986 0.35836   2
  -1   2   8 68.7071 2.98138   1
   0  -2  -8 0.38802 0.25712   2
   0  -2  -8 0.57871 0.27347   2
   0  -2  -8 28.0568 1.33468   1
   0  -2  -8 25.2318 1.18194   1
  -1  -2  -8 -0.1809 0.20703   2
  -1  -2  -8 0.07285 0.35093   2
  -1  -2  -8 4.36456 0.53431   1
  -1  -2  -8 3.64929 0.37775   1
   1   2   8 4.11987 0.46176   1
   1   2   8 0.12224 0.29429   2
  -2  -2  -8 59.3133 2.30295   1
  -2  -2  -8 56.3583 2.62594   1
  -2  -2  -8 1.42493 0.24939   2
  -2  -2  -8 1.98881 0.43285   2
   2   2   8 2.19378 0.43505   2
   2   2   8 58.6903 2.76181   1
  -3  -2  -8 41.9530 2.00823   1
  -3  -2  -8 1.40377 0.51870   2
   3   2   8 1.89557 0.52116   2
   3   2   8 39.4803 2.08711   1
  -4  -2  -8 -0.0715 0.60047   2
  -4  -2  -8 0.98236 0.63210   1
   4   2   8 -0.2239 0.64055   2
   4   2   8 1.35215 0.65763   1
  -5  -2  -8 1.81328 0.81296   1
  -5  -2  -8 0.03480 0.75026   2
   5   2   8 1.61699 0.80255   1
   5   2   8 -0.0939 0.74543   2
   5  -3  -8 -0.1253 0.60598   2
  -5   3   8 0.46243 0.75983   1
  -5   3   8 -0.2971 0.65937   2
   4  -3  -8 0.21131 0.69523   2
  -4   3   8 -0.1271 0.66056   1
  -4   3   8 -0.2961 0.60931   2
   3  -3  -8 2.50412 0.65276   1
   3  -3  -8 1.85679 0.56073   1
   3  -3  -8 -0.0577 0.58589   2
  -3   3   8 -0.2253 0.51375   2
   2  -3  -8 11.5030 0.89802   1
   2  -3  -8 14.1220 0.82345   1
   2  -3  -8 0.42079 0.51072   2
  -2   3   8 11.7789 0.82423   1
   1  -3  -8 2.67641 0.42302   1
   1  -3  -8 2.92094 0.47902   1
   1  -3  -8 0.24896 0.38199   2
   1  -3  -8 -0.2307 0.30282   2
  -1   3   8 1.96193 0.42174   1
  -1   3   8 0.22128 0.33650   2
   0  -3  -8 0.17645 0.36168   2
   0  -3  -8 -0.0718 0.26412   2
   0  -3  -8 0.08748 0.31711   2
   0  -3  -8 0.89162 0.39952   1
   0  -3  -8 0.63468 0.31074   1
   0  -3  -8 0.64105 0.29294   1
  -1  -3  -8 0.13974 0.32536   2
  -1  -3  -8 0.07974 0.23329   2
  -1  -3  -8 12.1946 0.78508   1
  -1  -3  -8 11.9145 0.61560   1
   1   3   8 10.9784 0.78005   1
   1   3   8 0.74618 0.36115   2
  -2  -3  -8 0.25853 0.41975   2
  -2  -3  -8 0.53933 0.39870   1
   2   3   8 0.70331 0.44686   1
   2   3   8 0.15540 0.39010   2
  -3  -3  -8 -0.0008 0.47565   2
  -3  -3  -8 6.40560 0.77839   1
   3   3   8 6.08050 0.78537   1
   3   3   8 0.35861 0.46913   2
  -4  -3  -8 2.52338 0.70763   1
  -4  -3  -8 -0.5482 0.58873   2
   4   3   8 -0.3333 0.60009   2
   4   3   8 3.14523 0.75400   1
  -5  -3  -8 0.06239 0.72562   2
  -5  -3  -8 4.30550 0.91548   1
   5   3   8 5.60714 0.91872   1
   5   3   8 0.35866 0.79128   2
  -6  -3  -8 0.11106 1.05969   2
   4  -4  -8 41.1636 2.31779   1
   4  -4  -8 0.57503 0.83267   2
  -4   4   8 43.0896 2.11200   1
  -4   4   8 0.56141 0.66623   2
   3  -4  -8 -0.3995 0.66887   2
   3  -4  -8 7.66498 0.94797   1
  -3   4   8 0.45639 0.54282   2
  -3   4   8 7.07283 0.80009   1
   2  -4  -8 0.02951 0.55091   2
   2  -4  -8 19.5340 1.26783   1
  -2   4   8 0.79454 0.53665   2
   1  -4  -8 31.6568 1.70071   1
   1  -4  -8 33.1687 1.48184   1
   1  -4  -8 0.47874 0.46622   2
  -1   4   8 0.67534 0.36460   2
  -1   4   8 1.21485 0.42120   2
  -1   4   8 32.5593 1.55547   1
   0  -4  -8 0.13539 0.37887   2
   0  -4  -8 -0.0667 0.38022   2
   0  -4  -8 5.22371 0.55996   1
   0  -4  -8 4.27674 0.45111   1
   0  -4  -8 4.97707 0.55940   1
  -1  -4  -8 123.028 5.17704   1
  -1  -4  -8 126.234 4.68783   1
  -1  -4  -8 2.40132 0.38670   2
  -1  -4  -8 3.24629 0.49443   2
   1   4   8 113.340 5.52723   1
   1   4   8 5.60377 0.62701   2
  -2  -4  -8 -0.2097 0.40895   2
  -2  -4  -8 0.10064 0.45047   1
   2   4   8 -0.1727 0.43972   1
   2   4   8 0.39901 0.45415   2
  -3  -4  -8 24.6218 1.47069   1
  -3  -4  -8 2.28634 0.58674   2
   3   4   8 27.7990 1.59249   1
   3   4   8 1.62292 0.60528   2
  -4  -4  -8 70.7587 3.24447   1
  -4  -4  -8 3.28801 0.71262   2
   4   4   8 65.7226 3.39741   1
   4   4   8 3.12677 0.75699   2
  -5  -4  -8 0.56283 0.74930   2
  -5  -4  -8 11.7335 1.31449   1
   5   4   8 11.7876 1.46078   1
   5   4   8 0.37864 0.84828   2
   4  -5  -8 1.40095 0.80254   1
   4  -5  -8 0.23520 0.91716   2
  -4   5   8 -0.1564 0.74270   2
  -4   5   8 0.63399 0.73260   1
   3  -5  -8 4.26320 0.88150   1
   3  -5  -8 -0.0387 0.69162   2
  -3   5   8 2.54775 0.72549   1
  -3   5   8 -0.1169 0.56543   2
   2  -5  -8 0.69063 0.63729   2
   2  -5  -8 22.7023 1.49072   1
  -2   5   8 1.05039 0.55358   2
   1  -5  -8 17.8847 1.20228   1
   1  -5  -8 -0.1679 0.46807   2
  -1   5   8 17.4525 1.01860   1
  -1   5   8 0.68271 0.45940   2
   0  -5  -8 0.54846 0.36404   2
   0  -5  -8 0.54682 0.47476   2
   0  -5  -8 17.6310 1.01143   1
   0  -5  -8 16.7603 1.07856   1
   0   5   8 15.9886 0.90928   1
   0   5   8 0.46610 0.40355   2
  -1  -5  -8 20.2400 1.14797   1
  -1  -5  -8 0.70058 0.45024   2
   1   5   8 19.7966 1.24026   1
   1   5   8 0.75118 0.46913   2
  -2  -5  -8 0.09284 0.44734   2
  -2  -5  -8 2.76577 0.58078   1
   2   5   8 0.37283 0.49309   2
   2   5   8 2.01589 0.59078   1
  -3  -5  -8 2.29268 0.63591   2
  -3  -5  -8 54.1448 2.61608   1
   3   5   8 3.17332 0.73011   2
   3   5   8 53.5154 2.73580   1
  -4  -5  -8 12.7198 1.22609   1
  -4  -5  -8 0.17997 0.64141   2
   4   5   8 0.07581 0.62285   2
   4   5   8 13.2787 1.21127   1
  -5  -5  -8 3.31187 1.00386   1
  -5  -5  -8 0.51937 0.88173   2
   5   5   8 2.53966 0.96285   1
   5   5   8 -0.8495 0.78398   2
   4  -6  -8 4.65432 0.97397   1
   4  -6  -8 0.93003 0.87300   2
  -4   6   8 2.75126 1.41894   1
   3  -6  -8 0.77233 0.86102   1
   3  -6  -8 0.29692 0.80506   2
  -3   6   8 -0.2662 0.68297   2
  -3   6   8 1.21230 0.67120   1
   2  -6  -8 0.40869 0.64519   1
   2  -6  -8 0.03680 0.74416   2
  -2   6   8 0.77335 0.57811   2
  -2   6   8 1.95633 0.61660   1
   1  -6  -8 8.08946 0.98805   1
   1  -6  -8 0.05861 0.57932   2
  -1   6   8 0.28843 0.48040   2
  -1   6   8 10.9627 0.83983   1
   0  -6  -8 0.05456 0.36997   2
   0  -6  -8 0.15599 0.52584   2
   0  -6  -8 0.57907 0.43595   1
   0  -6  -8 0.52549 0.48867   1
   0   6   8 -0.2575 0.42611   2
   0   6   8 0.35357 0.40336   1
  -1  -6  -8 3.25727 0.58800   1
  -1  -6  -8 0.05056 0.47138   2
   1   6   8 4.37771 0.71996   1
  -2  -6  -8 1.04769 0.54144   2
  -2  -6  -8 22.6397 1.37036   1
   2   6   8 1.26201 0.61546   2
   2   6   8 24.3040 1.46960   1
  -3  -6  -8 0.31992 0.60556   2
  -3  -6  -8 2.22399 0.68552   1
   3   6   8 1.74641 0.73195   1
   3   6   8 -0.0840 0.63075   2
  -4  -6  -8 0.80565 0.72908   2
  -4  -6  -8 15.4680 1.38351   1
   4   6   8 15.2354 1.30959   1
   4   6   8 0.70073 0.65101   2
  -5  -6  -8 0.82344 0.97496   1
  -5  -6  -8 0.19103 0.95918   2
   5   6   8 -0.2531 1.83150  -2
   5   6   8 -0.2531 1.83150   1
   3  -7  -8 -0.7497 0.90738   2
   3  -7  -8 4.30164 1.10983   1
  -3   7   8 0.28733 0.73908   2
  -3   7   8 4.91415 0.99772   1
   2  -7  -8 1.84581 0.74222   1
   2  -7  -8 -0.2963 0.74382   2
  -2   7   8 2.23397 0.68757   1
  -2   7   8 0.03192 0.64784   2
   1  -7  -8 2.70592 0.79126   1
   1  -7  -8 0.36492 0.67610   2
  -1   7   8 -0.3506 0.55760   2
  -1   7   8 3.40101 0.66408   1
   0  -7  -8 4.39725 0.77656   1
   0  -7  -8 0.28743 0.59001   2
   0   7   8 0.50318 0.58145   2
  -1  -7  -8 -0.1266 0.53281   1
  -1  -7  -8 -0.1188 0.47689   2
   1   7   8 0.80463 0.62107   1
  -2  -7  -8 1.54731 0.61353   2
  -2  -7  -8 36.1245 1.92114   1
   2   7   8 1.19483 0.64006   2
   2   7   8 38.1583 2.10465   1
  -3  -7  -8 0.34103 0.61713   2
  -3  -7  -8 5.87283 0.90476   1
   3   7   8 7.34850 1.00235   1
   3   7   8 0.38712 0.71281   2
  -4  -7  -8 -0.8800 0.72109   2
  -4  -7  -8 0.06725 0.76882   1
   4   7   8 -0.7899 0.85706   2
   4   7   8 0.00664 0.85057   1
   3  -8  -8 -0.1195 0.74774   1
  -3   8   8 -0.0338 1.17246   1
   2  -8  -8 1.16108 0.88093   1
   2  -8  -8 -0.0856 0.79585   2
  -2   8   8 2.02978 0.79288   1
  -2   8   8 -0.0479 0.69252   2
   1  -8  -8 -0.0213 0.76338   1
   1  -8  -8 0.43722 0.79598   2
  -1   8   8 -0.2670 0.97867   1
  -1   8   8 0.80292 0.64388   2
   0  -8  -8 -0.1532 0.77804   2
   0  -8  -8 5.80993 0.97731   1
  -1  -8  -8 26.6586 1.49790   1
   1   8   8 24.6308 1.67296   1
  -2  -8  -8 -0.2462 0.60633   2
  -2  -8  -8 0.21163 0.59093   1
   2   8   8 -0.6270 0.70361   1
   2   8   8 0.10364 0.67850   2
  -3  -8  -8 -0.3295 0.66388   2
  -3  -8  -8 0.07065 0.71347   1
   3   8   8 -0.7903 0.79407   1
   3   8   8 0.22807 0.79362   2
  -4  -8  -8 18.7279 1.60520   1
  -4  -8  -8 0.30412 0.77844   2
   4   8   8 -0.3051 0.90998   2
   4   8   8 20.7527 1.75444   1
   2  -9  -8 0.16168 0.89415   1
  -2   9   8 0.49700 0.88735   2
  -2   9   8 0.74007 0.81930   1
   1  -9  -8 0.11138 0.85018   2
   1  -9  -8 0.94686 0.87125   1
   0  -9  -8 0.93553 0.90299   2
   0  -9  -8 1.41697 0.87890   1
   1   9   8 2.44980 0.91109   2
   1   9   8 46.3076 2.63260   1
  -2  -9  -8 1.49151 0.70010   1
  -2  -9  -8 0.60147 0.61006   2
   2   9   8 -0.6133 0.77413   2
   2   9   8 1.41837 0.86506   1
  -3  -9  -8 1.08428 0.79213   2
  -3  -9  -8 19.0137 1.55403   1
   3   9   8 20.4699 1.73519   1
   3   9   8 0.67832 0.88603   2
   0 -10  -8 6.72118 1.17412   1
   0 -10  -8 -0.8315 0.92572   2
   1  10   8 0.70146 0.99019   1
   1  10   8 0.41425 0.95950   2
   0   9  -9 -0.4930 0.87257   2
   0   9  -9 0.92477 0.94446   1
  -2  -8   9 -0.5192 0.85952   2
  -2  -8   9 8.61246 1.26352   1
   1   8  -9 -0.3320 0.70410   1
   1   8  -9 -0.7205 0.81380   2
  -1  -8   9 0.85998 0.88950   2
  -1  -8   9 -0.1568 0.76623   1
   0   8  -9 1.13650 0.80604   2
   0   8  -9 -0.0095 0.77631   1
   0  -8   9 0.36007 0.68012   2
  -1   8  -9 0.66729 0.76364   2
  -1   8  -9 0.57101 0.81801   1
  -2   8  -9 0.15650 0.83705   2
  -2   8  -9 10.9167 1.22403   1
  -3  -7   9 -0.2859 0.91438   1
  -3  -7   9 -0.2362 0.93339   2
   2   7  -9 -0.0331 0.65389   1
   2   7  -9 -0.4368 0.64008   2
  -2  -7   9 0.07775 0.84913   2
  -2  -7   9 0.49230 0.83061   1
   1   7  -9 0.29950 0.63963   1
   1   7  -9 0.32385 0.60496   2
  -1  -7   9 0.32334 0.71130   1
  -1  -7   9 -0.2441 0.70801   2
   0   7  -9 4.98779 0.77815   1
   0   7  -9 -0.3848 0.63089   2
   0  -7   9 -0.1953 0.67837   2
   0  -7   9 3.93077 0.77018   1
  -1   7  -9 -0.2379 0.59714   2
  -1   7  -9 1.16860 0.72347   1
  -2   7  -9 0.60237 0.72662   2
  -2   7  -9 4.94248 0.92096   1
  -3   7  -9 -0.1367 0.73939   2
  -3   7  -9 5.73129 1.00264   1
  -3  -6   9 0.00258 0.86774   2
  -3  -6   9 23.0506 1.77580   1
   2   6  -9 0.38737 0.62298   2
   2   6  -9 0.13867 0.62569   1
  -2  -6   9 -0.9941 0.67410   1
  -2  -6   9 0.08156 0.70410   2
   1   6  -9 0.13693 0.54196   2
   1   6  -9 1.56095 0.61528   1
  -1  -6   9 1.53776 0.67230   1
  -1  -6   9 -0.3360 0.63344   2
   0   6  -9 2.81288 0.64744   1
   0   6  -9 0.14638 0.56494   2
   0  -6   9 -0.2185 0.56070   2
   0  -6   9 1.96279 0.62494   1
  -1   6  -9 48.8430 2.26129   1
  -1   6  -9 0.24745 0.51109   2
   1  -6   9 48.3553 2.69637   1
   1  -6   9 0.48641 0.56156   2
  -2   6  -9 2.41577 0.70765   1
  -2   6  -9 0.73741 0.60653   2
  -3   6  -9 1.10367 0.68914   2
  -3   6  -9 0.90364 0.77341   1
  -4   6  -9 -0.4160 0.75724   2
  -4   6  -9 0.46929 0.79036   1
  -4  -5   9 0.83324 1.04879   1
  -4  -5   9 0.16210 1.00399   2
   3   5  -9 2.83899 0.72692   1
   3   5  -9 -0.1205 0.65857   2
  -3  -5   9 -0.0687 0.73977   2
  -3  -5   9 2.63234 0.86841   1
   2   5  -9 1.41506 0.59579   1
   2   5  -9 -0.2384 0.55137   2
  -2  -5   9 1.96711 0.68957   1
  -2  -5   9 0.48486 0.65979   2
   1   5  -9 0.77430 0.51769   1
   1   5  -9 0.72410 0.50533   2
  -1  -5   9 -0.3132 0.56144   2
  -1  -5   9 0.60713 0.57519   1
   0   5  -9 -0.0657 0.50390   2
   0   5  -9 18.0436 1.07398   1
   0  -5   9 0.57165 0.53630   2
   0  -5   9 15.0780 1.12247   1
  -1   5  -9 23.6851 1.30004   1
  -1   5  -9 0.31116 0.50169   2
   1  -5   9 23.1716 1.34266   1
   1  -5   9 0.23929 0.52947   2
  -2   5  -9 0.67190 0.54910   2
  -2   5  -9 6.87892 0.80101   1
   2  -5   9 0.15058 0.45832   2
  -3   5  -9 9.43009 1.01810   1
  -3   5  -9 0.23427 0.56181   2
  -4   5  -9 0.65998 0.68394   1
  -4   5  -9 0.39994 0.72087   2
   4  -5   9 0.70317 0.90062   1
  -4  -4   9 4.43916 1.09298   1
  -4  -4   9 0.91311 0.96224   2
   3   4  -9 0.28366 0.58305   2
   3   4  -9 0.44582 0.59467   1
  -3  -4   9 -0.2812 0.69541   2
  -3  -4   9 0.22887 0.72085   1
   2   4  -9 0.05932 0.50883   2
   2   4  -9 8.46979 0.83492   1
  -2  -4   9 -0.9733 0.57560   2
  -2  -4   9 9.14670 0.97390   1
   1   4  -9 0.40578 0.46137   2
   1   4  -9 16.1147 1.00123   1
  -1  -4   9 -0.1734 0.52460   2
  -1  -4   9 18.0409 1.16950   1
   0   4  -9 418.539 16.1646   1
   0  -4   9 11.2241 0.92133   2
   0  -4   9 424.978 17.5473   1
  -1   4  -9 0.34646 0.42312   1
  -1   4  -9 -0.1542 0.42230   2
   1  -4   9 0.19654 0.43781   1
   1  -4   9 -0.1282 0.43717   2
  -2   4  -9 0.19184 0.45675   2
  -2   4  -9 1.26542 0.52061   1
   2  -4   9 0.29814 0.40735   1
   2  -4   9 0.32925 0.43830   2
  -3   4  -9 3.66153 0.68114   1
  -3   4  -9 -0.3813 0.49299   2
   3  -4   9 2.56646 0.73775   1
  -4   4  -9 0.41526 0.66661   1
  -4   4  -9 -0.2017 0.63086   2
   4  -4   9 1.83768 0.79279   1
  -5   4  -9 0.45309 0.67381   2
  -5   4  -9 8.83396 0.99208   1
   5  -4   9 7.51507 1.27450   1
   4   3  -9 3.39992 0.75868   1
   4   3  -9 0.22277 0.64663   2
  -4  -3   9 0.23117 0.79103   2
  -4  -3   9 5.91372 1.04320   1
   3   3  -9 -0.0903 0.51726   2
   3   3  -9 0.56752 0.61386   1
  -3  -3   9 0.99155 0.70631   1
  -3  -3   9 -0.2535 0.62235   2
   2   3  -9 2.21588 0.54600   1
   2   3  -9 0.25907 0.48829   2
  -2  -3   9 0.08283 0.52164   2
  -2  -3   9 2.50462 0.64109   1
   1   3  -9 1.95484 0.45368   1
   1   3  -9 -0.3358 0.39256   2
  -1  -3   9 -0.1226 0.41443   2
  -1  -3   9 1.95463 0.51781   1
   0   3  -9 0.53407 0.39953   1
   0   3  -9 0.07821 0.34683   2
   0  -3   9 -0.3577 0.39228   2
   0  -3   9 1.09654 0.47022   1
  -1   3  -9 0.79140 0.40779   1
  -1   3  -9 -0.3407 0.37110   2
   1  -3   9 0.10690 0.42873   2
   1  -3   9 1.20257 0.44008   1
  -2   3  -9 7.53629 0.71374   1
  -2   3  -9 0.29226 0.40180   2
   2  -3   9 0.27356 0.41209   2
   2  -3   9 6.20055 0.64460   1
   2  -3   9 6.55603 0.72954   1
  -3   3  -9 1.15331 0.54101   1
  -3   3  -9 0.41947 0.47348   2
   3  -3   9 -0.1126 0.53278   2
   3  -3   9 0.27792 0.45308   2
   3  -3   9 2.19473 0.65219   1
  -4   3  -9 0.56023 0.59772   1
  -4   3  -9 0.26489 0.55287   2
   4  -3   9 0.38725 0.70100   1
   4  -3   9 -0.0387 0.65527   2
   5  -3   9 1.27456 0.93013   1
   5  -3   9 -0.1020 0.82729   2
   4   2  -9 0.78307 0.63294   2
   4   2  -9 2.67451 0.69217   1
  -4  -2   9 4.12093 0.93041   1
  -4  -2   9 0.48340 0.76529   2
   3   2  -9 0.14617 0.52120   2
   3   2  -9 0.59459 0.48468   1
  -3  -2   9 -0.3463 0.62085   2
  -3  -2   9 0.78568 0.66061   1
   2   2  -9 1.80939 0.50560   2
   2   2  -9 62.3626 2.60076   1
  -2  -2   9 60.4325 2.84641   1
  -2  -2   9 1.02599 0.50701   2
   1   2  -9 0.46753 0.39987   2
   1   2  -9 21.8354 1.11645   1
  -1  -2   9 0.16829 0.40693   2
  -1  -2   9 23.2448 1.26967   1
   0   2  -9 0.23786 0.33599   2
   0   2  -9 18.4097 0.94976   1
   0  -2   9 17.1452 1.03784   1
   0  -2   9 0.47905 0.39340   2
  -1   2  -9 0.00837 0.33588   2
  -1   2  -9 0.23574 0.33764   1
   1  -2   9 0.12469 0.37403   2
   1  -2   9 0.16776 0.34634   1
  -2   2  -9 74.9132 2.95466   1
  -2   2  -9 1.40218 0.38996   2
   2  -2   9 1.40330 0.43967   2
   2  -2   9 1.86975 0.41062   2
   2  -2   9 72.4558 3.17436   1
   2  -2   9 69.4083 3.38809   1
  -3   2  -9 -0.2250 0.43906   1
  -3   2  -9 -0.0341 0.42174   2
   3  -2   9 0.13210 0.45831   2
   3  -2   9 -0.2602 0.47982   2
   3  -2   9 0.04767 0.52448   1
  -4   2  -9 0.44108 0.52720   1
  -4   2  -9 0.10453 0.49713   2
   4  -2   9 0.06709 0.63500   2
   4  -2   9 0.45209 0.68141   1
   5  -2   9 0.90512 0.82371   2
   5  -2   9 4.12570 1.03121   1
   5   1  -9 1.03144 0.79679   1
  -5  -1   9 2.65533 0.72951   2
   4   1  -9 0.01045 0.55509   2
   4   1  -9 0.24611 0.62426   1
  -4  -1   9 0.48608 0.77950   1
   3   1  -9 2.07122 0.59664   1
   3   1  -9 -0.1795 0.50352   2
  -3  -1   9 3.69796 0.72979   1
  -3  -1   9 -0.3851 0.56982   2
   2   1  -9 0.05299 0.38372   2
   2   1  -9 0.55707 0.43706   1
  -2  -1   9 0.69966 0.48285   1
  -2  -1   9 -0.1980 0.43519   2
   1   1  -9 15.8066 0.88218   1
   1   1  -9 0.22924 0.34708   2
  -1  -1   9 15.4822 0.98471   1
  -1  -1   9 0.59623 0.41550   2
   0   1  -9 0.09144 0.31478   2
   0   1  -9 6.25124 0.52833   1
   0  -1   9 5.01701 0.60439   1
   0  -1   9 -0.0721 0.36867   2
  -1   1  -9 2.13092 0.37715   2
  -1   1  -9 77.7737 3.10520   1
   1  -1   9 2.39301 0.44548   2
   1  -1   9 79.0422 3.52057   1
   1  -1   9 74.7044 3.37542   1
  -2   1  -9 0.32941 0.31285   2
  -2   1  -9 17.7328 0.90094   1
   2  -1   9 0.49101 0.39113   2
   2  -1   9 17.0461 1.04470   1
  -3   1  -9 6.42846 0.62727   1
  -3   1  -9 2.27046 0.65882   1
  -3   1  -9 0.55085 0.55759   2
  -3   1  -9 0.32713 0.37621   2
   3  -1   9 0.31163 0.52795   2
   3  -1   9 8.37048 0.82841   1
  -4   1  -9 1.53936 0.72556   2
  -4   1  -9 67.6440 2.93234   1
   4  -1   9 2.72877 0.72139   2
   4  -1   9 67.4512 3.34920   1
   5  -1   9 15.2869 1.35828   1
   5  -1   9 0.52787 0.65002   2
   5   0  -9 5.38229 1.04616   1
  -5   0   9 0.53435 0.71509   2
   4   0  -9 0.46746 0.56394   2
   4   0  -9 0.37040 0.61984   1
   3   0  -9 13.8470 0.98990   1
   3   0  -9 0.99445 0.52212   2
  -3   0   9 -0.2482 0.55700   2
  -3   0   9 12.3363 1.05042   1
   2   0  -9 3.90880 0.54867   1
   2   0  -9 -0.4623 0.37155   2
  -2   0   9 3.31415 0.56473   1
  -2   0   9 0.06346 0.41013   2
   1   0  -9 0.18785 0.33875   1
   1   0  -9 0.06143 0.35338   2
  -1   0   9 0.25277 0.39834   1
  -1   0   9 -0.1510 0.37686   2
   0   0  -9 126.755 5.00386   1
   0   0  -9 4.63927 0.50402   2
   0   0   9 129.670 5.45241   1
   0   0   9 3.06593 0.46172   2
  -1   0  -9 38.5632 1.60479   1
  -1   0  -9 0.52133 0.28775   2
   1   0   9 37.0083 1.78217   1
   1   0   9 1.01227 0.28073   2
  -2   0  -9 130.225 4.90489   1
  -2   0  -9 132.113 5.40041   1
  -2   0  -9 3.14842 0.40832   2
  -2   0  -9 4.85503 0.64244   2
   2   0   9 115.548 5.72092   1
   2   0   9 6.23406 0.57660   2
  -3   0  -9 72.0645 2.92956   1
  -3   0  -9 71.3192 3.28157   1
  -3   0  -9 1.08885 0.35386   2
  -3   0  -9 0.77058 0.58404   2
   3   0   9 3.72681 0.60327   2
   3   0   9 74.5911 3.48145   1
  -4   0  -9 57.3458 2.76404   1
  -4   0  -9 2.44938 0.67581   2
   4   0   9 59.7415 2.98522   1
   4   0   9 2.41060 0.67661   2
   5   0   9 0.58724 0.80385   1
   5   0   9 -0.0255 0.77663   2
  -5   1   9 0.68937 0.75812   1
  -5   1   9 -0.4432 0.71557   2
   4  -1  -9 5.46026 0.78201   1
   3  -1  -9 51.7245 2.31365   1
   3  -1  -9 0.78912 0.49588   2
  -3   1   9 52.9395 2.47356   1
   2  -1  -9 0.58994 0.41973   1
   2  -1  -9 0.26882 0.41519   2
   2  -1  -9 0.52307 0.35149   2
  -2   1   9 -0.1247 0.40449   2
  -2   1   9 0.03307 0.40865   1
   1  -1  -9 72.2167 2.89388   1
   1  -1  -9 1.97356 0.42241   2
   1  -1  -9 1.22513 0.30410   2
  -1   1   9 1.38341 0.42034   2
  -1   1   9 69.2602 3.10891   1
   0  -1  -9 11.5886 0.66790   1
   0  -1  -9 0.47302 0.29318   2
   0   1   9 11.4109 0.76402   1
   0   1   9 10.0613 0.61055   1
   0   1   9 0.60340 0.37816   2
  -1  -1  -9 0.03733 0.26207   2
  -1  -1  -9 0.05243 0.41759   2
  -1  -1  -9 0.77011 0.28612   1
   1   1   9 0.32655 0.26640   1
   1   1   9 0.09884 0.29383   2
  -2  -1  -9 5.24426 0.49448   2
  -2  -1  -9 7.67382 0.80267   2
  -2  -1  -9 201.858 8.56525   1
  -2  -1  -9 207.261 7.81774   1
   2   1   9 200.764 9.14894   1
   2   1   9 10.0839 0.69009   2
  -3  -1  -9 445.089 18.0652   1
  -3  -1  -9 17.7582 1.15988   2
   3   1   9 424.427 19.4474   1
  -4  -1  -9 0.25081 0.58346   2
  -4  -1  -9 4.11165 0.73772   1
   4   1   9 5.80276 0.84611   1
   4   1   9 0.31605 0.62906   2
  -5  -1  -9 -0.0953 0.69613   2
  -5  -1  -9 0.03197 0.67962   1
   5   1   9 0.06413 0.69848   2
   5   1   9 0.03601 0.78954   1
   6   1   9 1.25142 1.73068   2
  -5   2   9 0.28054 0.81615   1
  -5   2   9 -0.7645 0.62389   2
   4  -2  -9 2.11060 0.75009   1
  -4   2   9 -0.0605 0.64125   2
   3  -2  -9 -0.0551 0.54697   2
   3  -2  -9 -0.2300 0.50218   2
   3  -2  -9 -0.2743 0.51863   1
   2  -2  -9 110.106 4.87859   1
   2  -2  -9 96.0095 4.06321   1
   2  -2  -9 2.63065 0.52004   2
   2  -2  -9 2.30923 0.50231   2
  -2   2   9 1.45144 0.41165   2
  -2   2   9 97.8001 4.34237   1
   1  -2  -9 0.42549 0.35221   2
   1  -2  -9 0.50186 0.36808   2
   1  -2  -9 19.2849 1.08298   1
   1  -2  -9 22.5269 1.06649   1
  -1   2   9 0.48898 0.36385   2
  -1   2   9 20.0091 1.10395   1
   0  -2  -9 32.5762 1.39281   1
   0  -2  -9 0.53812 0.29322   2
   0  -2  -9 0.78125 0.32535   2
   0   2   9 30.3184 1.52498   1
  -1  -2  -9 4.43868 0.43644   1
  -1  -2  -9 5.94009 0.66685   1
  -1  -2  -9 -0.0028 0.38573   2
  -1  -2  -9 -0.0698 0.24935   2
   1   2   9 4.68027 0.51764   1
   1   2   9 0.16792 0.30814   2
  -2  -2  -9 10.3431 0.79512   1
  -2  -2  -9 9.25233 0.55030   1
  -2  -2  -9 0.08647 0.22898   2
  -2  -2  -9 0.11527 0.41136   2
   2   2   9 8.42120 0.72439   1
   2   2   9 0.21838 0.40672   2
  -3  -2  -9 5.60885 0.70322   1
  -3  -2  -9 0.02657 0.46102   2
   3   2   9 7.39986 0.78089   1
   3   2   9 -0.3047 0.46680   2
  -4  -2  -9 13.5309 1.11729   1
  -4  -2  -9 0.62319 0.66067   2
   4   2   9 1.17458 0.71916   2
   4   2   9 11.8854 1.17956   1
  -5  -2  -9 0.86810 0.78332   2
  -5  -2  -9 6.71849 0.98072   1
   5   2   9 0.54544 0.80978   2
   5   2   9 7.96351 1.08038   1
   4  -3  -9 0.87862 0.72282   2
  -4   3   9 -0.1838 0.68622   2
  -4   3   9 9.10185 1.00260   1
   3  -3  -9 0.34992 0.47923   1
   3  -3  -9 0.34461 0.63027   2
  -3   3   9 0.30479 0.56247   2
   2  -3  -9 1.20662 0.49626   2
   2  -3  -9 1.46001 0.57387   2
   2  -3  -9 47.7928 2.11289   1
   2  -3  -9 49.3448 2.37746   1
  -2   3   9 46.9510 2.20535   1
   1  -3  -9 2.40197 0.48992   1
   1  -3  -9 3.11589 0.47922   1
   1  -3  -9 -0.2701 0.38926   2
   1  -3  -9 0.20030 0.37674   2
  -1   3   9 -0.0952 0.37701   2
  -1   3   9 2.80222 0.48040   1
   0  -3  -9 0.78871 0.32581   2
   0  -3  -9 1.00895 0.35396   2
   0  -3  -9 38.1694 1.83727   1
   0  -3  -9 35.9587 1.59618   1
  -1  -3  -9 1.12846 0.44282   1
  -1  -3  -9 0.50495 0.25776   1
  -1  -3  -9 -0.1251 0.24699   2
  -1  -3  -9 0.09268 0.38657   2
   1   3   9 -0.0843 0.34062   2
   1   3   9 0.47637 0.34758   1
  -2  -3  -9 1.04367 0.44871   2
  -2  -3  -9 24.9403 1.35811   1
   2   3   9 0.96454 0.47338   2
   2   3   9 25.4527 1.40622   1
  -3  -3  -9 8.15816 0.85604   1
  -3  -3  -9 0.26498 0.50926   2
   3   3   9 0.23037 0.48496   2
   3   3   9 6.98363 0.82337   1
  -4  -3  -9 -0.3785 0.62911   2
  -4  -3  -9 10.1455 1.03718   1
   4   3   9 8.42159 0.97878   1
   4   3   9 0.24667 0.67338   2
  -5  -3  -9 -0.3249 0.79120   2
  -5  -3  -9 6.64063 1.04509   1
   5   3   9 8.16536 1.11157   1
   5   3   9 -0.5273 0.82384   2
   4  -4  -9 -0.0773 0.78887   2
  -4   4   9 -0.1982 0.66823   2
  -4   4   9 1.12917 0.77034   1
   3  -4  -9 0.57014 0.86027   2
   3  -4  -9 4.41271 0.77738   1
  -3   4   9 4.47948 0.71932   1
  -3   4   9 0.34585 0.60535   2
   2  -4  -9 0.21162 0.57114   2
   2  -4  -9 2.75369 0.54567   1
   2  -4  -9 2.18517 0.62973   1
  -2   4   9 -0.0358 0.49535   2
   1  -4  -9 -0.1495 0.43433   2
   1  -4  -9 13.3095 0.83149   1
   1  -4  -9 12.6109 0.95245   1
  -1   4   9 13.9490 0.91377   1
  -1   4   9 0.25459 0.40768   2
   0  -4  -9 3.51885 0.46711   2
   0  -4  -9 3.70676 0.53606   2
   0  -4  -9 3.55561 0.53612   2
   0  -4  -9 149.343 6.19492   1
   0  -4  -9 146.105 5.67555   1
   0  -4  -9 141.581 6.64234   1
  -1  -4  -9 0.87685 0.42703   1
  -1  -4  -9 1.15987 0.30184   1
  -1  -4  -9 0.21151 0.38185   2
  -1  -4  -9 -0.0613 0.24849   2
   1   4   9 0.37188 0.45763   2
   1   4   9 0.70696 0.41927   1
  -2  -4  -9 4.32384 0.63196   1
  -2  -4  -9 0.06114 0.45044   2
   2   4   9 5.06880 0.67020   1
   2   4   9 -0.0856 0.47933   2
  -3  -4  -9 -0.0450 0.51962   2
  -3  -4  -9 0.45986 0.58236   1
   3   4   9 0.47613 0.47968   1
   3   4   9 -0.4836 0.56554   2
  -4  -4  -9 10.5250 1.13928   1
  -4  -4  -9 0.12922 0.62797   2
   4   4   9 11.5384 1.16895   1
   4   4   9 0.98014 0.68879   2
  -5  -4  -9 -0.0158 0.80439   2
  -5  -4  -9 3.93746 0.96421   1
   5   4   9 1.11832 0.85943   1
   5   4   9 0.09523 0.91962   2
   4  -5  -9 0.85122 0.91138   2
  -4   5   9 0.70572 0.75510   1
  -4   5   9 0.03194 0.73879   2
   3  -5  -9 0.84022 0.76435   2
   3  -5  -9 66.3051 3.35080   1
  -3   5   9 0.53794 0.66859   2
  -3   5   9 66.3255 2.95341   1
   2  -5  -9 0.45713 0.63068   1
   2  -5  -9 -0.3297 0.63817   2
  -2   5   9 -0.1714 0.51483   2
  -2   5   9 1.21253 0.59564   1
   1  -5  -9 1.66727 0.57216   2
   1  -5  -9 37.6755 2.03651   1
  -1   5   9 2.10346 0.55567   2
   0  -5  -9 6.89799 0.74208   1
   0  -5  -9 5.36267 0.70036   1
   0  -5  -9 0.54711 0.54064   2
   0  -5  -9 0.15434 0.44470   2
   0   5   9 -0.1480 0.40786   2
  -1  -5  -9 5.10740 0.68122   1
  -1  -5  -9 -0.0210 0.40567   2
   1   5   9 0.06145 0.49302   2
   1   5   9 6.96838 0.76114   1
  -2  -5  -9 1.17409 0.54226   2
  -2  -5  -9 26.7525 1.50690   1
   2   5   9 25.4239 1.54019   1
   2   5   9 1.06202 0.55115   2
  -3  -5  -9 42.2177 2.15445   1
  -3  -5  -9 1.40872 0.63893   2
   3   5   9 41.1994 2.25552   1
   3   5   9 1.56017 0.67758   2
  -4  -5  -9 11.2531 1.15145   1
  -4  -5  -9 0.19814 0.64537   2
   4   5   9 9.39972 1.15500   1
   4   5   9 0.66065 0.67246   2
  -5  -5  -9 0.99710 0.91368   1
  -5  -5  -9 0.47082 0.93725   2
   5   5   9 -0.3109 0.87839   2
   5   5   9 0.82869 0.90443   1
   3  -6  -9 2.09714 0.92373   1
   3  -6  -9 -0.6809 0.82015   2
  -3   6   9 0.03184 0.72311   2
  -3   6   9 1.86247 0.76933   1
   2  -6  -9 -0.2717 0.66138   2
   2  -6  -9 5.78632 0.89940   1
  -2   6   9 -0.1816 0.54494   2
  -2   6   9 5.97154 0.80217   1
   1  -6  -9 0.03923 0.62409   2
   1  -6  -9 0.05541 0.56861   1
  -1   6   9 0.28074 0.54782   1
  -1   6   9 0.01840 0.49183   2
   0  -6  -9 -0.1230 0.50788   1
   0  -6  -9 0.36344 0.53832   1
   0  -6  -9 0.04353 0.52236   2
   0   6   9 0.45387 0.47245   1
   0   6   9 -0.1846 0.42063   2
  -1  -6  -9 -0.0990 0.44768   2
  -1  -6  -9 10.4121 0.89731   1
   1   6   9 12.6039 1.06455   1
   1   6   9 0.36973 0.57916   2
  -2  -6  -9 40.6595 2.11372   1
  -2  -6  -9 0.86054 0.57438   2
   2   6   9 42.4979 2.22926   1
   2   6   9 1.47539 0.65140   2
  -3  -6  -9 -0.0329 0.53978   1
  -3  -6  -9 -0.5916 0.57109   2
   3   6   9 0.24466 0.67546   2
   3   6   9 1.31693 0.73093   1
  -4  -6  -9 0.01838 0.64494   2
  -4  -6  -9 1.29633 0.73432   1
   4   6   9 -0.1261 0.65968   2
   4   6   9 1.18490 0.79220   1
  -5  -6  -9 -0.2551 0.88281   2
  -5  -6  -9 0.05441 0.87460   1
   5   6   9 -1.0586 0.89872   2
   5   6   9 -0.4357 0.93069   1
   3  -7  -9 -0.3425 0.97346   2
   3  -7  -9 -0.1849 0.83042   1
  -3   7   9 0.80297 0.83095   1
  -3   7   9 0.04008 0.84296   2
   2  -7  -9 0.11253 0.77292   2
   2  -7  -9 3.92682 0.89987   1
  -2   7   9 4.74429 0.80317   1
  -2   7   9 0.27894 0.68946   2
   1  -7  -9 3.21552 0.82652   1
   1  -7  -9 0.02555 0.72043   2
  -1   7   9 3.25515 0.65343   1
  -1   7   9 0.00445 0.59547   2
   0  -7  -9 -0.2011 0.56752   2
   0  -7  -9 7.97253 0.99947   1
  -1  -7  -9 3.50531 0.62395   1
  -1  -7  -9 -0.1609 0.48137   2
   1   7   9 0.68259 0.68105   2
   1   7   9 3.16894 0.77887   1
  -2  -7  -9 0.52510 0.58001   2
  -2  -7  -9 19.8043 1.35371   1
   2   7   9 0.70250 0.66268   2
   2   7   9 20.3846 1.46030   1
  -3  -7  -9 1.18186 0.68459   1
  -3  -7  -9 0.04486 0.59437   2
   3   7   9 0.25363 0.73529   2
   3   7   9 1.16601 0.87000   1
  -4  -7  -9 0.00531 0.80637   2
  -4  -7  -9 0.03843 0.73055   1
   4   7   9 0.34346 0.91556   1
   4   7   9 -1.1382 0.82526   2
   2  -8  -9 2.07802 0.96803   1
   2  -8  -9 -0.2024 0.86805   2
  -2   8   9 0.48772 0.74475   2
  -2   8   9 1.27509 0.81022   1
   1  -8  -9 -0.1795 0.83248   2
   1  -8  -9 0.48051 0.74924   1
  -1   8   9 0.92695 0.64814   1
  -1   8   9 0.30386 0.60792   2
   0  -8  -9 -0.0256 0.68489   2
   0  -8  -9 0.56744 0.75159   1
  -1  -8  -9 4.87752 0.75516   1
   1   8   9 6.78073 0.98470   1
   1   8   9 0.50974 0.71597   2
  -2  -8  -9 0.26875 0.63686   1
  -2  -8  -9 -0.1150 0.58837   2
   2   8   9 0.84344 0.79222   1
   2   8   9 -0.0258 0.71049   2
  -3  -8  -9 0.47909 0.76091   2
  -3  -8  -9 3.92431 0.83601   1
   3   8   9 -0.5295 0.76557   2
   3   8   9 4.16436 0.97808   1
  -4  -8  -9 0.34470 0.82801   2
  -4  -8  -9 1.46903 0.78674   1
   4   8   9 1.70678 1.03604   1
   4   8   9 -0.5422 0.94604   2
   1  -9  -9 1.03240 0.92279   2
   1  -9  -9 35.9598 2.30824   1
   0  -9  -9 0.47399 0.86822   1
   0  -9  -9 -0.1628 0.86278   2
   1   9   9 0.65179 0.89548   2
   1   9   9 10.7287 1.31845   1
  -2  -9  -9 -0.2540 0.58154   2
  -2  -9  -9 1.59372 0.71533   1
   2   9   9 -0.2125 0.82369   2
   2   9   9 2.54803 0.98158   1
  -3  -9  -9 0.20352 0.78944   2
  -3  -9  -9 0.50827 0.78154   1
   3   9   9 -0.4206 0.91245   2
   3   9   9 0.61661 0.97121   1
   1  10   9 23.1416 2.72327   1
   1   8 -10 37.2748 2.00024   1
   1   8 -10 0.58503 0.79759   2
  -1  -8  10 1.15005 0.97199   2
  -1  -8  10 32.2794 2.12985   1
   0   8 -10 14.4840 1.43198   1
   0  -8  10 0.42470 0.73184   2
  -1   8 -10 12.6477 1.36426   1
  -1   8 -10 0.05900 0.85825   2
   2   7 -10 5.27639 0.90966   1
   2   7 -10 0.57084 0.73771   2
  -2  -7  10 7.56486 1.14663   1
  -2  -7  10 -0.1476 0.90855   2
   1   7 -10 -0.1301 0.65566   2
   1   7 -10 8.31633 0.96477   1
  -1  -7  10 7.22926 1.03188   1
  -1  -7  10 0.65282 0.80236   2
   0   7 -10 1.58460 0.74359   1
   0   7 -10 0.39368 0.69025   2
   0  -7  10 0.05022 0.75087   2
   0  -7  10 1.92515 0.71180   1
  -1   7 -10 0.40707 0.71151   2
  -1   7 -10 3.15227 0.78957   1
   1  -7  10 -0.1024 0.59592   2
  -2   7 -10 22.6672 1.56060   1
  -2   7 -10 0.35933 0.73227   2
  -3   7 -10 0.80755 0.84778   1
  -3   7 -10 0.53581 0.78361   2
  -3  -6  10 0.22496 0.96758   2
  -3  -6  10 1.71747 0.93800   1
   2   6 -10 -0.0100 0.65757   1
   2   6 -10 -0.0879 0.64787   2
  -2  -6  10 0.07507 0.74272   1
  -2  -6  10 0.09886 0.73767   2
   1   6 -10 -0.0995 0.56754   2
   1   6 -10 3.20755 0.69558   1
  -1  -6  10 0.24692 0.70965   2
  -1  -6  10 3.47753 0.82119   1
   0   6 -10 4.73362 0.74657   1
   0   6 -10 0.00688 0.55325   2
   0  -6  10 0.08334 0.61678   2
   0  -6  10 3.71710 0.75812   1
  -1   6 -10 0.31781 0.58847   2
  -1   6 -10 0.64422 0.58176   1
   1  -6  10 -0.3437 0.56026   2
   1  -6  10 0.26378 0.74610   1
  -2   6 -10 0.62236 0.61543   2
  -2   6 -10 12.3026 1.10652   1
  -3   6 -10 2.04529 0.83808   1
  -3   6 -10 0.10658 0.67829   2
  -4   6 -10 0.80464 0.77579   2
  -4  -5  10 0.00981 1.17925   2
   3   5 -10 0.17298 0.71107   2
   3   5 -10 4.68488 0.83916   1
  -3  -5  10 -0.0932 0.88424   2
  -3  -5  10 6.31168 1.13943   1
   2   5 -10 0.54251 0.58472   1
   2   5 -10 -0.4594 0.57923   2
  -2  -5  10 0.30005 0.68155   1
  -2  -5  10 0.14383 0.71698   2
   1   5 -10 0.24676 0.52258   2
   1   5 -10 -0.5517 0.53486   1
  -1  -5  10 0.02175 0.58230   1
  -1  -5  10 0.00520 0.60090   2
   0   5 -10 38.3773 1.80225   1
   0   5 -10 1.09177 0.54243   2
   0  -5  10 35.1787 1.92379   1
   0  -5  10 0.29283 0.55398   2
  -1   5 -10 10.2294 0.91645   1
  -1   5 -10 0.06579 0.52214   2
   1  -5  10 8.91966 0.90948   1
   1  -5  10 0.11004 0.51915   2
  -2   5 -10 -0.0981 0.53803   1
  -2   5 -10 -0.1499 0.51838   2
   2  -5  10 0.44630 0.52338   2
  -3   5 -10 14.0192 1.18718   1
  -3   5 -10 0.40277 0.62027   2
  -4   5 -10 0.55367 0.70460   2
  -4   5 -10 14.6603 1.32349   1
  -4  -4  10 2.66126 1.07648   1
  -4  -4  10 1.02361 1.00852   2
   3   4 -10 2.23442 0.68388   1
   3   4 -10 0.27355 0.62049   2
  -3  -4  10 -0.3993 0.75017   2
  -3  -4  10 2.35574 0.81824   1
   2   4 -10 0.14532 0.52616   2
   2   4 -10 35.3758 1.76870   1
  -2  -4  10 0.56973 0.65688   2
  -2  -4  10 38.0383 2.02895   1
   1   4 -10 2.64015 0.56268   2
   1   4 -10 127.900 5.11094   1
  -1  -4  10 128.207 5.60274   1
  -1  -4  10 1.02021 0.63192   2
   0   4 -10 1.61805 0.51107   2
   0   4 -10 106.742 4.30058   1
   0  -4  10 2.26715 0.56976   2
   0  -4  10 106.255 4.68554   1
  -1   4 -10 1.98131 0.51750   1
  -1   4 -10 -0.1594 0.46872   2
   1  -4  10 1.39604 0.51197   1
   1  -4  10 0.10693 0.48434   2
  -2   4 -10 1.12459 0.53924   1
  -2   4 -10 -0.9110 0.44359   2
   2  -4  10 0.05669 0.46794   2
   2  -4  10 0.72140 0.48126   1
  -3   4 -10 -0.3056 0.54188   2
  -3   4 -10 0.33097 0.57914   1
  -4   4 -10 0.42619 0.65124   2
  -4   4 -10 8.20473 0.95810   1
   4  -4  10 8.31007 1.17796   1
  -5   4 -10 43.0556 2.12360   1
   4   3 -10 2.39234 0.78651   1
   4   3 -10 0.21576 0.72875   2
  -4  -3  10 -0.6987 0.86771   2
  -4  -3  10 2.38799 1.00106   1
   3   3 -10 -0.0053 0.54667   2
   3   3 -10 0.56497 0.63957   1
  -3  -3  10 -0.0474 0.71436   1
  -3  -3  10 -0.2082 0.69712   2
   2   3 -10 90.3850 3.71397   1
   2   3 -10 2.48715 0.60485   2
  -2  -3  10 2.32688 0.64076   2
  -2  -3  10 90.1332 4.08252   1
   1   3 -10 4.07621 0.58468   2
   1   3 -10 144.283 5.73533   1
  -1  -3  10 146.394 6.27750   1
  -1  -3  10 2.78786 0.60450   2
   0   3 -10 9.24927 0.73334   1
   0   3 -10 -0.2376 0.38651   2
   0  -3  10 0.29650 0.47517   2
   0  -3  10 8.72752 0.85334   1
  -1   3 -10 3.49140 0.53326   1
  -1   3 -10 0.29296 0.43337   2
   1  -3  10 -0.1215 0.45950   2
   1  -3  10 2.74074 0.54679   1
  -2   3 -10 4.67525 0.62577   1
  -2   3 -10 -0.1023 0.41959   2
   2  -3  10 4.16182 0.59914   1
   2  -3  10 0.27205 0.46440   2
  -3   3 -10 1.70894 0.59671   1
  -3   3 -10 0.19898 0.48686   2
   3  -3  10 1.39341 0.67561   1
   3  -3  10 0.57067 0.51304   2
  -4   3 -10 0.12084 0.57946   2
  -4   3 -10 -0.5827 0.57689   1
   4  -3  10 0.26473 0.71475   1
   5  -3  10 3.84139 1.07982   1
   4   2 -10 0.34558 0.68461   2
   4   2 -10 -0.0513 0.67252   1
  -4  -2  10 0.15856 0.84788   1
  -4  -2  10 -0.2504 0.80177   2
   3   2 -10 0.82192 0.52507   1
   3   2 -10 0.32816 0.56523   2
  -3  -2  10 0.24533 0.69574   2
  -3  -2  10 0.65673 0.71758   1
   2   2 -10 8.79747 0.85035   1
   2   2 -10 -0.1653 0.47985   2
  -2  -2  10 0.08079 0.53669   2
  -2  -2  10 9.23855 0.93321   1
   1   2 -10 -0.2421 0.41138   2
   1   2 -10 1.69214 0.46730   1
  -1  -2  10 0.02468 0.44600   2
  -1  -2  10 2.29970 0.52158   1
   0   2 -10 1.20088 0.41210   1
   0   2 -10 0.09683 0.35395   2
   0  -2  10 -0.1679 0.41972   2
   0  -2  10 1.15719 0.48033   1
  -1   2 -10 13.8353 0.84884   1
  -1   2 -10 0.02608 0.37858   2
   1  -2  10 0.21890 0.41279   2
   1  -2  10 13.4557 0.91982   1
  -2   2 -10 0.27605 0.41560   2
  -2   2 -10 0.33966 0.40115   1
   2  -2  10 -0.0064 0.41852   1
   2  -2  10 -0.5483 0.44944   2
  -3   2 -10 2.47384 0.55419   1
  -3   2 -10 0.41134 0.42577   2
   3  -2  10 3.31264 0.59510   1
   3  -2  10 4.38856 0.72033   1
   3  -2  10 -0.3914 0.49149   2
  -4   2 -10 0.50622 0.56909   1
  -4   2 -10 0.38668 0.46921   2
   4  -2  10 0.22471 0.67106   2
   4  -2  10 0.14356 0.70599   1
   5  -2  10 0.07179 0.84904   2
   5  -2  10 5.25965 1.09445   1
   4   1 -10 2.42692 0.72135   1
   4   1 -10 0.04076 0.70522   2
  -4  -1  10 3.18428 0.89197   1
   3   1 -10 3.01773 0.63137   1
   3   1 -10 0.54309 0.52416   2
  -3  -1  10 -0.3725 0.64622   2
  -3  -1  10 3.10448 0.74164   1
   2   1 -10 3.31865 0.59246   1
   2   1 -10 0.28333 0.43508   2
  -2  -1  10 -0.2235 0.47770   2
  -2  -1  10 3.68133 0.66046   1
   1   1 -10 2.04049 0.46251   1
   1   1 -10 -0.2529 0.38096   2
  -1  -1  10 -0.3611 0.42314   2
  -1  -1  10 2.50037 0.53575   1
   0   1 -10 92.1990 3.62019   1
   0   1 -10 2.67409 0.43825   2
   0  -1  10 2.46243 0.48747   2
   0  -1  10 88.5510 3.94308   1
  -1   1 -10 10.6780 0.71542   1
  -1   1 -10 0.03505 0.32321   2
   1  -1  10 10.9735 0.80721   1
   1  -1  10 -0.1987 0.39936   2
  -2   1 -10 0.04975 0.34871   1
  -2   1 -10 -0.2262 0.36808   2
   2  -1  10 0.19670 0.47049   2
   2  -1  10 -0.3011 0.42328   1
   2  -1  10 0.30456 0.42720   1
  -3   1 -10 -0.0592 0.38698   2
  -3   1 -10 0.92290 0.43117   1
   3  -1  10 0.11489 0.53374   1
   3  -1  10 -0.1163 0.56898   2
  -4   1 -10 0.45535 0.74468   2
   4  -1  10 53.1202 2.73544   1
   4  -1  10 1.73825 0.71953   2
   5  -1  10 0.84371 0.80125   1
   5  -1  10 0.21630 0.71277   2
   4   0 -10 8.70972 0.97818   1
   4   0 -10 -0.1086 0.61297   2
   3   0 -10 2.62381 0.61877   1
   3   0 -10 0.27080 0.52908   2
  -3   0  10 -0.2424 0.61209   2
  -3   0  10 1.74489 0.65317   1
   2   0 -10 0.01650 0.44537   2
   2   0 -10 1.21895 0.48907   1
  -2   0  10 0.78286 0.50169   1
  -2   0  10 0.33739 0.47033   2
   1   0 -10 -0.0685 0.36449   1
   1   0 -10 -0.0740 0.36519   2
  -1   0  10 -0.0555 0.45150   1
  -1   0  10 -0.3772 0.42725   2
   0   0 -10 0.25244 0.34105   2
   0   0 -10 11.4214 0.70484   1
   0   0  10 11.1555 0.83105   1
   0   0  10 -0.2057 0.40250   2
  -1   0 -10 30.4093 1.39024   1
  -1   0 -10 1.02756 0.34388   2
   1   0  10 1.31118 0.44003   2
   1   0  10 29.0718 1.54833   1
   1   0  10 34.5239 1.70718   1
  -2   0 -10 15.1526 0.84261   1
  -2   0 -10 -0.0492 0.32019   2
   2   0  10 0.37467 0.39060   2
   2   0  10 15.0452 0.97230   1
  -3   0 -10 -0.5581 0.59856   2
  -3   0 -10 0.23683 0.33624   2
  -3   0 -10 5.45801 0.57278   1
  -3   0 -10 7.42565 0.83567   1
   3   0  10 7.76840 0.78566   1
   3   0  10 -0.0577 0.51862   2
  -4   0 -10 0.09490 0.68299   2
  -4   0 -10 20.0574 1.44333   1
   4   0  10 -0.1385 0.61465   2
   4   0  10 22.3092 1.50752   1
   5   0  10 -0.0084 0.82549   1
   5   0  10 0.03740 0.79345   2
   4  -1 -10 3.74745 0.75889   1
   3  -1 -10 1.69698 0.59959   1
   3  -1 -10 -0.0368 0.54832   2
  -3   1  10 0.91868 0.59228   1
   2  -1 -10 2.94480 0.54960   1
   2  -1 -10 0.42981 0.45265   2
  -2   1  10 2.52964 0.54368   1
  -2   1  10 -0.0599 0.45900   2
   1  -1 -10 14.2402 0.88371   1
   1  -1 -10 0.87113 0.40580   2
  -1   1  10 14.9332 0.96704   1
  -1   1  10 -0.0282 0.41129   2
   0  -1 -10 0.38621 0.32200   2
   0  -1 -10 7.16622 0.59879   1
   0   1  10 7.71042 0.70749   1
   0   1  10 0.36465 0.29702   2
   0   1  10 0.11331 0.39661   2
  -1  -1 -10 0.52475 0.32102   2
  -1  -1 -10 10.9170 0.66116   1
   1   1  10 10.3128 0.67975   1
   1   1  10 0.25089 0.32563   2
  -2  -1 -10 0.50463 0.47426   2
  -2  -1 -10 0.43370 0.31427   2
  -2  -1 -10 18.6773 0.93722   1
  -2  -1 -10 20.7666 1.22262   1
   2   1  10 18.6410 1.11603   1
   2   1  10 0.82181 0.42230   2
  -3  -1 -10 377.904 16.0317   1
  -3  -1 -10 15.0441 1.13274   2
   3   1  10 391.005 17.2496   1
  -4  -1 -10 15.0500 1.22657   1
  -4  -1 -10 0.62253 0.67361   2
   4   1  10 0.62419 0.67937   2
   4   1  10 15.6756 1.26819   1
  -5  -1 -10 0.24597 0.79502   2
  -5  -1 -10 -0.7713 0.73354   1
   5   1  10 -0.0739 0.74138   2
   5   1  10 -0.4518 0.83424   1
   4  -2 -10 -0.1441 0.68138   1
  -4   2  10 -0.0352 0.69390   2
   3  -2 -10 18.7628 1.18067   1
   3  -2 -10 0.09084 0.49585   2
   2  -2 -10 0.93753 0.47952   2
   2  -2 -10 0.27576 0.51336   2
   2  -2 -10 26.7938 1.41876   1
  -2   2  10 0.21399 0.43017   2
  -2   2  10 30.4373 1.53507   1
   1  -2 -10 -0.0003 0.34014   2
   1  -2 -10 0.07500 0.37844   2
   1  -2 -10 4.06605 0.56026   1
  -1   2  10 4.54497 0.59183   1
  -1   2  10 0.27796 0.41315   2
   0  -2 -10 0.06972 0.31937   2
   0  -2 -10 -0.0209 0.30389   2
   0  -2 -10 6.41025 0.55948   1
   0   2  10 0.04059 0.40761   2
   0   2  10 5.07011 0.52665   1
   0   2  10 5.88837 0.68222   1
  -1  -2 -10 -0.0529 0.46370   2
  -1  -2 -10 0.24380 0.29169   2
  -1  -2 -10 1.33587 0.49976   1
  -1  -2 -10 1.31040 0.33614   1
   1   2  10 2.27709 0.43970   1
   1   2  10 0.04420 0.34405   2
  -2  -2 -10 -0.1006 0.43460   2
  -2  -2 -10 -0.0980 0.26491   2
  -2  -2 -10 0.15237 0.47323   1
  -2  -2 -10 0.23167 0.25726   1
   2   2  10 0.12593 0.42348   2
   2   2  10 -0.2353 0.40460   1
  -3  -2 -10 8.30618 0.87215   1
  -3  -2 -10 0.61285 0.52137   2
   3   2  10 9.01513 0.89126   1
   3   2  10 0.33342 0.50755   2
  -4  -2 -10 1.34427 0.66703   2
  -4  -2 -10 17.1683 1.25559   1
   4   2  10 1.29342 0.73819   2
   4   2  10 16.0108 1.31484   1
  -5  -2 -10 11.8303 1.23665   1
  -5  -2 -10 0.60896 0.78705   2
   5   2  10 0.40309 0.82598   2
   5   2  10 9.82418 1.19555   1
  -4   3  10 -0.3057 0.72503   2
  -4   3  10 0.25353 0.71255   1
   3  -3 -10 0.00317 0.62923   2
   3  -3 -10 2.48952 0.60891   1
  -3   3  10 0.56072 0.59507   2
   2  -3 -10 20.9095 1.20943   1
   2  -3 -10 0.96133 0.54957   2
   2  -3 -10 0.41503 0.47806   2
  -2   3  10 23.8380 1.29191   1
   1  -3 -10 15.1055 0.97512   1
   1  -3 -10 16.5228 0.95627   1
   1  -3 -10 0.50729 0.41677   2
   1  -3 -10 -0.0244 0.40689   2
  -1   3  10 16.3016 1.00631   1
  -1   3  10 -0.2292 0.41682   2
   0  -3 -10 6.97113 0.58919   1
   0  -3 -10 0.29132 0.33729   2
   0  -3 -10 0.03382 0.33127   2
  -1  -3 -10 50.8556 2.51497   1
  -1  -3 -10 59.2013 2.24298   1
  -1  -3 -10 1.49835 0.35361   2
  -1  -3 -10 1.40603 0.51205   2
   1   3  10 52.7026 2.59939   1
   1   3  10 2.14675 0.45023   2
  -2  -3 -10 1.37277 0.50034   2
  -2  -3 -10 49.2397 2.30053   1
   2   3  10 2.19355 0.54359   2
   2   3  10 46.8639 2.37779   1
  -3  -3 -10 -0.4330 0.46398   1
  -3  -3 -10 -0.1703 0.47367   2
   3   3  10 0.10270 0.51981   2
   3   3  10 -0.4086 0.52641   1
  -4  -3 -10 0.16955 0.63930   2
  -4  -3 -10 1.12217 0.70671   1
   4   3  10 1.56631 0.74800   1
   4   3  10 0.32467 0.66410   2
  -5  -3 -10 -0.0625 0.83343   2
  -5  -3 -10 16.2558 1.50598   1
   5   3  10 -0.0135 0.85014   2
   5   3  10 19.9789 1.63311   1
  -4   4  10 4.49355 0.91770   1
  -4   4  10 -0.4426 0.72255   2
   3  -4 -10 0.38562 0.68985   2
  -3   4  10 0.71132 0.66594   1
  -3   4  10 0.33297 0.64180   2
   2  -4 -10 2.56561 0.56860   1
   2  -4 -10 3.05880 0.62400   1
   2  -4 -10 0.21620 0.61796   2
  -2   4  10 -0.3656 0.51408   2
   1  -4 -10 2.65931 0.59020   1
   1  -4 -10 2.54335 0.51324   1
   1  -4 -10 -0.0922 0.41666   2
   1  -4 -10 0.25485 0.50231   2
  -1   4  10 1.93013 0.52788   1
   0  -4 -10 -0.0330 0.41412   2
   0  -4 -10 0.67452 0.46949   2
   0  -4 -10 -0.1325 0.34049   2
   0  -4 -10 2.08373 0.51106   1
   0  -4 -10 2.25995 0.44211   1
  -1  -4 -10 0.27640 0.29520   1
  -1  -4 -10 -0.1679 0.47700   1
  -1  -4 -10 -0.2094 0.43861   2
  -1  -4 -10 0.02509 0.29366   2
   1   4  10 -0.0820 0.42062   1
   1   4  10 0.21860 0.47827   2
  -2  -4 -10 0.13288 0.46089   2
  -2  -4 -10 11.9845 0.95144   1
   2   4  10 0.41290 0.51835   2
   2   4  10 12.0567 1.00194   1
  -3  -4 -10 -0.0910 0.52984   2
  -3  -4 -10 0.23014 0.53279   1
   3   4  10 0.02741 0.51644   1
   3   4  10 -0.4760 0.58398   2
  -4  -4 -10 0.42934 0.71879   2
  -4  -4 -10 15.7168 1.29526   1
   4   4  10 13.6277 1.30127   1
   4   4  10 0.35865 0.70172   2
  -5  -4 -10 12.2043 1.37993   1
  -5  -4 -10 0.90889 0.95237   2
   5   4  10 -0.2920 0.99284   2
   5   4  10 11.8389 1.50802   1
   4  -5 -10 -0.0915 0.72305   2
   3  -5 -10 -0.2265 0.75738   2
  -3   5  10 6.38473 0.93777   1
  -3   5  10 0.35475 0.68935   2
   2  -5 -10 0.39713 0.68387   2
   2  -5 -10 18.8180 1.36426   1
  -2   5  10 -0.1572 0.57464   2
  -2   5  10 18.9204 1.21105   1
   1  -5 -10 6.45147 0.70914   1
   1  -5 -10 5.51925 0.75025   1
   1  -5 -10 -0.3079 0.59159   2
  -1   5  10 -0.3204 0.50251   2
   0  -5 -10 0.51873 0.51494   2
   0  -5 -10 0.87253 0.50555   2
   0  -5 -10 30.1353 1.69072   1
   0  -5 -10 31.9999 1.43630   1
   0  -5 -10 29.4518 1.64491   1
   0   5  10 0.63190 0.46101   2
  -1  -5 -10 0.33132 0.45711   2
  -1  -5 -10 5.26136 0.70690   1
   1   5  10 5.64733 0.71884   1
   1   5  10 -0.1802 0.51458   2
  -2  -5 -10 4.26860 0.68717   1
  -2  -5 -10 -0.0834 0.52426   2
   2   5  10 7.47761 0.82261   1
   2   5  10 -0.2118 0.53391   2
  -3  -5 -10 2.81247 0.73413   2
  -3  -5 -10 71.6856 3.41658   1
   3   5  10 2.81281 0.75469   2
   3   5  10 75.4756 3.64845   1
  -4  -5 -10 0.17726 0.72103   2
  -4  -5 -10 14.3749 1.35391   1
   4   5  10 15.0620 1.36522   1
   4   5  10 0.52628 0.70718   2
  -5  -5 -10 0.05038 0.97556   2
  -5  -5 -10 10.1507 1.34315   1
   5   5  10 0.42989 0.96653   2
   5   5  10 11.4876 1.39482   1
   3  -6 -10 0.66210 0.91812   2
   3  -6 -10 8.56603 1.16030   1
  -3   6  10 13.1410 1.22323   1
  -3   6  10 -0.3836 0.75045   2
   2  -6 -10 -0.0527 0.70461   2
   2  -6 -10 2.24990 0.72546   1
  -2   6  10 0.16272 0.57968   2
  -2   6  10 2.26907 0.73422   1
   1  -6 -10 4.87099 0.78940   1
   1  -6 -10 -0.2635 0.63712   2
  -1   6  10 0.40833 0.54456   2
  -1   6  10 4.27322 0.71716   1
   0  -6 -10 17.2069 1.23124   1
   0  -6 -10 15.3191 1.16609   1
   0  -6 -10 0.37339 0.55949   2
   0   6  10 19.2355 1.05644   1
   0   6  10 0.40801 0.49700   2
  -1  -6 -10 1.57615 0.57517   1
  -1  -6 -10 0.20742 0.47298   2
   1   6  10 0.12555 0.59165   2
   1   6  10 1.79602 0.67697   1
  -2  -6 -10 15.1421 1.16185   1
  -2  -6 -10 -0.0963 0.60878   2
   2   6  10 -0.3439 0.62224   2
   2   6  10 14.9175 1.21328   1
  -3  -6 -10 2.23599 0.76418   1
  -3  -6 -10 0.34940 0.64664   2
   3   6  10 3.14240 0.82947   1
   3   6  10 0.57012 0.75428   2
  -4  -6 -10 7.94808 1.09066   1
  -4  -6 -10 0.33399 0.74475   2
   4   6  10 0.28764 0.73777   2
   4   6  10 9.27512 1.17640   1
   3  -7 -10 -0.1503 0.87621   2
   3  -7 -10 -0.3945 0.71922   1
  -3   7  10 -0.6103 0.83443   2
  -3   7  10 0.50238 0.77170   1
   2  -7 -10 -0.5372 0.75389   2
   2  -7 -10 2.24881 0.91454   1
  -2   7  10 0.09755 0.71662   2
  -2   7  10 1.65015 0.76661   1
   1  -7 -10 0.06098 0.71144   2
   1  -7 -10 1.39835 0.69622   1
  -1   7  10 -0.3060 0.62606   2
  -1   7  10 1.19742 0.62315   1
   0  -7 -10 0.18939 0.66038   1
   0  -7 -10 -0.2023 0.63966   2
  -1  -7 -10 26.4349 1.49219   1
  -1  -7 -10 0.09078 0.53497   2
   1   7  10 24.6887 1.64336   1
   1   7  10 0.84960 0.70889   2
  -2  -7 -10 0.29829 0.64440   2
  -2  -7 -10 0.06138 0.61129   1
   2   7  10 -0.4330 0.66102   2
   2   7  10 -0.4688 0.63312   1
  -3  -7 -10 18.1388 1.48597   1
  -3  -7 -10 0.45398 0.70483   2
   3   7  10 0.21615 0.79342   2
   3   7  10 21.3968 1.60659   1
  -4  -7 -10 4.18522 0.97827   1
  -4  -7 -10 -0.1562 0.74415   2
   4   7  10 0.18472 0.88870   2
   4   7  10 1.26307 0.83738   1
   2  -8 -10 0.40466 0.93083   1
   2  -8 -10 0.15951 0.94541   2
  -2   8  10 0.68358 0.76353   2
  -2   8  10 -0.6649 0.81159   1
   1  -8 -10 -0.2327 0.75349   2
   1  -8 -10 5.23659 1.00967   1
  -1   8  10 -0.1279 0.62791   2
   0  -8 -10 -0.0776 0.75977   2
   0  -8 -10 0.15122 0.71669   1
  -1  -8 -10 33.6997 2.16165   1
   1   8  10 0.28800 0.79068   2
   1   8  10 32.4697 2.05082   1
  -2  -8 -10 2.90939 0.75696   1
  -2  -8 -10 0.84895 0.70442   2
   2   8  10 -0.3672 0.74480   2
   2   8  10 3.34023 0.94647   1
  -3  -8 -10 0.82118 0.79012   1
  -3  -8 -10 -0.0164 0.73467   2
   3   8  10 -0.4149 0.84492   2
   3   8  10 0.89539 0.93912   1
   1  -9 -10 1.33013 0.85043   1
   1  -9 -10 0.41163 0.86367   2
   0  -9 -10 1.45653 0.90400   1
   0  -9 -10 0.22773 0.84706   2
   1   9  10 0.46377 0.93598   2
   1   9  10 2.39329 1.05791   1
  -2  -9 -10 1.45203 0.70785   1
   2   9  10 -0.0682 0.95538   1
   2   9  10 -0.6654 0.88283   2
  -3  -9 -10 0.06873 0.67085   2
  -3  -9 -10 14.0308 1.34612   1
   1   8 -11 0.42762 0.89636   1
   1   8 -11 0.71328 0.86077   2
  -1  -8  11 1.05346 0.89867   1
  -1  -8  11 0.18907 0.76543   2
   0   8 -11 13.0630 1.46103   1
   0   8 -11 0.18364 0.84357   2
   0  -8  11 0.13515 0.78194   2
  -1   8 -11 0.20955 1.26047   2
  -1   8 -11 5.77339 1.08228   1
   2   7 -11 0.09168 0.84011   2
   2   7 -11 -0.3887 0.78884   1
  -2  -7  11 0.69623 0.91581   1
  -2  -7  11 -0.0619 0.86814   2
   1   7 -11 0.25602 0.72216   2
   1   7 -11 4.99100 0.92883   1
  -1  -7  11 -0.3057 0.85621   2
  -1  -7  11 4.29898 0.98677   1
   0   7 -11 -0.3531 0.71701   2
   0   7 -11 0.13834 0.74781   1
   0  -7  11 0.34232 0.76607   2
   0  -7  11 1.28437 0.73112   1
  -1   7 -11 1.53228 0.78907   2
  -1   7 -11 12.8883 1.21731   1
   1  -7  11 0.81304 0.58668   2
  -2   7 -11 0.42090 0.74206   2
  -2   7 -11 38.7764 2.16381   1
   2   6 -11 0.89949 0.72939   1
   2   6 -11 -0.0646 0.70218   2
  -2  -6  11 0.90097 0.83717   1
  -2  -6  11 0.33041 0.86696   2
   1   6 -11 0.38168 0.65934   1
   1   6 -11 0.04164 0.63427   2
  -1  -6  11 0.05895 0.71173   1
  -1  -6  11 -0.1010 0.71798   2
   0   6 -11 -0.0607 0.63365   2
   0   6 -11 8.72734 0.92662   1
   0  -6  11 -0.1632 0.62915   2
   0  -6  11 8.07302 1.00911   1
  -1   6 -11 1.45956 0.67082   1
  -1   6 -11 -0.3256 0.65371   2
   1  -6  11 0.34372 0.63020   2
   1  -6  11 1.83411 0.87171   1
  -2   6 -11 24.6683 1.55193   1
  -2   6 -11 0.86991 0.67841   2
  -3   6 -11 0.24143 0.76565   1
  -3   6 -11 -0.0802 0.73706   2
   3   5 -11 -0.6275 0.75961   2
   3   5 -11 0.61439 0.78417   1
  -3  -5  11 0.03322 0.95866   1
  -3  -5  11 0.54500 0.99675   2
   2   5 -11 1.32687 0.68309   1
   2   5 -11 0.05682 0.63727   2
  -2  -5  11 1.76766 0.83234   1
  -2  -5  11 0.33367 0.79847   2
   1   5 -11 0.71831 0.55659   1
   1   5 -11 0.03147 0.54360   2
  -1  -5  11 0.13947 0.63518   1
  -1  -5  11 -0.1150 0.63831   2
   0   5 -11 0.41454 0.52466   2
   0   5 -11 25.5335 1.42305   1
   0  -5  11 23.8059 1.52164   1
   0  -5  11 -0.2226 0.58330   2
  -1   5 -11 -0.3883 0.53659   1
  -1   5 -11 0.08201 0.56717   2
   1  -5  11 -0.2461 0.53871   2
   1  -5  11 -0.5255 0.52918   1
  -2   5 -11 0.24229 0.56323   2
  -2   5 -11 0.34499 0.60664   1
   2  -5  11 -0.3829 0.53356   2
  -3   5 -11 1.10321 0.68854   1
  -3   5 -11 0.33535 0.60660   2
  -4   5 -11 10.2104 1.11848   1
  -4   5 -11 0.67783 0.72537   2
  -4  -4  11 1.01504 1.26326   1
  -4  -4  11 0.41562 1.04108   2
   3   4 -11 1.36744 0.73715   1
   3   4 -11 0.04416 0.66970   2
  -3  -4  11 1.34981 0.89227   1
  -3  -4  11 -0.1337 0.82248   2
   2   4 -11 -0.2351 0.56166   2
   2   4 -11 -0.5878 0.57395   1
  -2  -4  11 0.08912 0.69205   2
  -2  -4  11 -0.0905 0.65198   1
   1   4 -11 6.95827 0.75199   1
   1   4 -11 0.12320 0.51314   2
  -1  -4  11 6.88167 0.87343   1
  -1  -4  11 -0.3686 0.55628   2
   0   4 -11 0.27854 0.45566   2
   0   4 -11 9.41216 0.86000   1
   0  -4  11 0.41304 0.53867   2
   0  -4  11 10.3340 0.98056   1
  -1   4 -11 7.71776 0.82724   1
  -1   4 -11 0.18703 0.51244   2
   1  -4  11 9.82442 0.93014   1
   1  -4  11 0.44535 0.54586   2
  -2   4 -11 14.1991 1.02292   1
  -2   4 -11 0.20755 0.49336   2
   2  -4  11 0.43270 0.57034   2
   2  -4  11 12.0664 1.01818   1
  -3   4 -11 1.51596 0.62587   1
  -3   4 -11 0.40908 0.55974   2
  -4   4 -11 0.27268 0.67325   2
  -4   4 -11 15.0627 1.32967   1
   4   3 -11 0.00281 0.77370   2
   4   3 -11 1.73063 0.82598   1
  -4  -3  11 -1.1867 0.95369   2
  -4  -3  11 1.10851 1.05038   1
   3   3 -11 2.26840 0.76877   1
   3   3 -11 0.68960 0.64656   2
  -3  -3  11 -0.5188 0.74717   2
  -3  -3  11 0.74637 0.82622   1
   2   3 -11 0.25509 0.53692   2
   2   3 -11 2.68519 0.64438   1
  -2  -3  11 0.55163 0.62238   2
  -2  -3  11 4.19355 0.78165   1
   1   3 -11 9.36788 0.82277   2
   1   3 -11 289.609 11.3276   1
  -1  -3  11 4.30648 0.71826   2
  -1  -3  11 296.324 12.3449   1
   0   3 -11 -0.0248 0.42724   2
   0   3 -11 0.88116 0.47590   1
   0  -3  11 1.70864 0.58259   1
   0  -3  11 -0.3357 0.49723   2
  -1   3 -11 -0.5176 0.43175   2
  -1   3 -11 0.81265 0.48917   1
   1  -3  11 0.34367 0.49000   1
   1  -3  11 -0.3352 0.48265   2
  -2   3 -11 0.51059 0.49221   2
  -2   3 -11 13.1664 0.94052   1
   2  -3  11 14.1263 1.00735   1
   2  -3  11 -0.0116 0.47501   2
  -3   3 -11 -0.1588 0.48336   2
  -3   3 -11 12.0690 0.95789   1
   3  -3  11 0.03202 0.53164   2
  -4   3 -11 14.3937 1.13394   1
  -4   3 -11 -0.4690 0.53060   2
   5  -3  11 21.2961 1.87146   1
   4   2 -11 -0.2492 0.76672   2
   4   2 -11 0.04774 0.78279   1
  -4  -2  11 0.27587 0.98384   1
  -4  -2  11 0.13993 0.88650   2
   3   2 -11 -0.0758 0.53115   1
   3   2 -11 0.37623 0.60894   2
  -3  -2  11 0.01232 0.73482   2
  -3  -2  11 -0.1067 0.70559   1
   2   2 -11 0.24682 0.55648   2
   2   2 -11 8.31405 0.85033   1
  -2  -2  11 0.61589 0.58257   2
  -2  -2  11 7.83958 0.89413   1
   1   2 -11 16.7698 1.01222   1
   1   2 -11 0.13032 0.44619   2
  -1  -2  11 16.5552 1.13117   1
  -1  -2  11 0.08606 0.47726   2
   0   2 -11 9.69960 0.74452   1
   0   2 -11 0.24973 0.42122   2
   0  -2  11 0.24832 0.48144   2
   0  -2  11 8.67652 0.87037   1
  -1   2 -11 7.83489 0.74247   1
  -1   2 -11 0.62798 0.43155   2
   1  -2  11 0.45307 0.45789   2
   1  -2  11 7.93596 0.79996   1
  -2   2 -11 1.21766 0.44582   1
  -2   2 -11 0.24627 0.42336   2
   2  -2  11 1.50214 0.53778   1
   2  -2  11 -0.4410 0.47640   2
  -3   2 -11 0.21595 0.47618   2
  -3   2 -11 0.91255 0.53348   1
   3  -2  11 0.76040 0.52246   1
   3  -2  11 0.03800 0.53954   2
  -4   2 -11 0.65224 0.51585   1
   4  -2  11 0.42246 0.77887   1
   4  -2  11 0.15654 0.64344   2
   5  -2  11 22.0467 1.79067   1
   4   1 -11 -0.3619 0.74638   2
   4   1 -11 0.17850 0.76751   1
  -4  -1  11 0.46577 0.87630   1
   3   1 -11 30.6229 1.66512   1
   3   1 -11 0.60039 0.60078   2
  -3  -1  11 32.6010 1.85410   1
  -3  -1  11 0.97681 0.71386   2
   2   1 -11 31.8105 1.57439   1
   2   1 -11 0.58572 0.47235   2
  -2  -1  11 31.2343 1.74044   1
  -2  -1  11 0.28655 0.53538   2
   1   1 -11 -0.3494 0.42894   2
   1   1 -11 18.3059 1.03733   1
  -1  -1  11 -0.2599 0.46540   2
  -1  -1  11 17.2475 1.17650   1
   0   1 -11 4.90384 0.56200   1
   0   1 -11 0.23953 0.38756   2
   0  -1  11 0.36411 0.45950   2
   0  -1  11 5.72420 0.68811   1
  -1   1 -11 10.9819 0.79228   1
  -1   1 -11 0.55003 0.37694   2
   1  -1  11 12.7515 0.90744   1
   1  -1  11 0.78183 0.47258   2
  -2   1 -11 -0.3006 0.39187   2
  -2   1 -11 2.52815 0.49805   1
   2  -1  11 2.32766 0.57318   1
   2  -1  11 0.40256 0.51050   2
  -3   1 -11 4.06762 0.54585   1
  -3   1 -11 0.21556 0.45141   2
   3  -1  11 4.71253 0.67379   1
   4  -1  11 0.08107 0.73700   2
   4  -1  11 1.94452 0.72417   1
   5  -1  11 4.52751 0.99121   1
   5  -1  11 0.62992 0.75123   2
   4   0 -11 0.93286 0.76196   1
   4   0 -11 -0.3381 0.67094   2
   3   0 -11 2.10176 0.62894   1
   3   0 -11 0.11593 0.54323   2
  -3   0  11 -0.0151 0.63383   2
  -3   0  11 1.82907 0.69444   1
   2   0 -11 -0.4331 0.46140   2
   2   0 -11 3.89396 0.65237   1
  -2   0  11 4.07634 0.68465   1
  -2   0  11 -0.0213 0.50933   2
   1   0 -11 0.87622 0.45898   1
   1   0 -11 -0.4695 0.38342   2
  -1   0  11 -0.2475 0.46191   2
  -1   0  11 1.39743 0.53543   1
   0   0 -11 71.6175 2.91832   1
   0   0 -11 1.46340 0.44667   2
   0   0  11 1.07981 0.46646   2
   0   0  11 70.9335 3.19500   1
  -1   0 -11 9.93539 0.69305   1
  -1   0 -11 0.59740 0.36726   2
   1   0  11 9.87409 0.83767   1
   1   0  11 -0.0511 0.43012   2
  -2   0 -11 0.06905 0.32162   2
  -2   0 -11 0.52432 0.39555   1
   2   0  11 0.63551 0.49671   1
  -3   0 -11 54.0990 2.66162   1
  -3   0 -11 53.3111 2.31160   1
  -3   0 -11 0.83744 0.41892   2
  -3   0 -11 1.19045 0.68663   2
   3   0  11 57.7279 2.75899   1
   3   0  11 1.86534 0.57909   2
  -4   0 -11 12.9488 1.27838   1
  -4   0 -11 0.04979 0.74087   2
   4   0  11 0.79936 0.69686   2
   4   0  11 13.0984 1.23191   1
   5   0  11 0.43209 0.90215   2
   5   0  11 2.04953 0.91533   1
   4  -1 -11 0.42996 0.79153   2
   4  -1 -11 1.16987 0.70893   1
   3  -1 -11 6.40918 0.80283   1
   3  -1 -11 -0.4650 0.55457   2
  -3   1  11 6.07508 0.83606   1
   2  -1 -11 -0.0825 0.47734   2
   2  -1 -11 2.16955 0.58066   1
  -2   1  11 0.36352 0.52789   2
  -2   1  11 1.71058 0.55057   1
   1  -1 -11 43.9584 2.02016   1
   1  -1 -11 1.24131 0.45727   2
  -1   1  11 0.68398 0.49517   2
  -1   1  11 47.3483 2.19020   1
   0  -1 -11 0.50164 0.38620   2
   0  -1 -11 17.6777 0.96855   1
   0   1  11 0.40589 0.45788   2
   0   1  11 16.9411 1.08689   1
  -1  -1 -11 58.2803 2.39674   1
  -1  -1 -11 1.56528 0.37626   2
  -2  -1 -11 103.645 4.78030   1
  -2  -1 -11 110.647 4.30000   1
  -2  -1 -11 2.10034 0.40108   2
  -2  -1 -11 2.76531 0.67273   2
   2   1  11 112.154 5.01974   1
   2   1  11 2.61513 0.47814   2
  -3  -1 -11 3.40905 0.74965   2
  -3  -1 -11 106.157 4.78403   1
   3   1  11 6.14810 0.78872   2
   3   1  11 109.881 5.06370   1
  -4  -1 -11 -0.2054 0.68922   2
  -4  -1 -11 0.04801 0.67211   1
   4   1  11 -0.0478 0.66775   2
   4   1  11 0.22850 0.67220   1
  -5  -1 -11 0.09011 0.86410   2
  -5  -1 -11 0.75486 0.81631   1
   5   1  11 0.08209 0.78245   2
   5   1  11 0.04578 0.89266   1
   4  -2 -11 20.9795 1.44384   1
  -4   2  11 0.93799 0.77147   2
   3  -2 -11 -0.1625 0.54562   2
   3  -2 -11 0.63947 0.57883   1
   2  -2 -11 0.87008 0.49479   2
   2  -2 -11 4.01828 0.62082   1
  -2   2  11 0.22230 0.70790   2
  -2   2  11 4.47923 0.68161   1
   1  -2 -11 13.8661 0.93302   1
   1  -2 -11 -0.0725 0.40109   2
  -1   2  11 14.5799 0.99908   1
  -1   2  11 0.28041 0.46843   2
   0  -2 -11 4.99716 0.57412   1
   0  -2 -11 -0.1777 0.36368   2
   0   2  11 4.65873 0.63677   1
   0   2  11 -0.0921 0.44173   2
  -1  -2 -11 2.57119 0.43295   2
  -1  -2 -11 106.865 4.16880   1
   1   2  11 104.277 4.81997   1
   1   2  11 3.34467 0.48648   2
  -2  -2 -11 347.625 14.6892   1
  -2  -2 -11 356.661 13.4290   1
  -2  -2 -11 10.8607 0.98273   2
  -2  -2 -11 9.84256 0.70636   2
   2   2  11 349.951 15.7368   1
   2   2  11 15.5836 0.96675   2
  -3  -2 -11 0.81541 0.60493   2
  -3  -2 -11 15.4034 1.17688   1
   3   2  11 0.52390 0.56397   2
   3   2  11 15.9760 1.15410   1
  -4  -2 -11 2.04026 0.73783   1
  -4  -2 -11 -0.4116 0.64894   2
   4   2  11 0.61661 0.66517   2
   4   2  11 0.71741 0.69536   1
  -5  -2 -11 0.36250 0.84933   2
  -5  -2 -11 3.29363 0.90197   1
   5   2  11 0.64359 0.89338   2
   5   2  11 2.63760 0.93416   1
  -4   3  11 0.04704 0.78286   1
  -4   3  11 0.43895 0.76861   2
   3  -3 -11 33.3983 1.72639   1
  -3   3  11 0.84957 0.67319   2
   2  -3 -11 -0.2308 0.44788   2
   2  -3 -11 5.34583 0.68629   1
   1  -3 -11 -0.2314 0.41653   2
   1  -3 -11 0.14416 0.43622   2
   1  -3 -11 12.1871 0.83888   1
  -1   3  11 0.37878 0.47781   2
  -1   3  11 10.9326 0.94232   1
   0  -3 -11 -0.1860 0.38935   2
   0  -3 -11 0.16494 0.38790   2
   0  -3 -11 6.00661 0.62664   1
   0   3  11 5.07086 0.67328   1
   0   3  11 6.95129 0.73877   1
  -1  -3 -11 0.68900 0.52576   2
  -1  -3 -11 0.73198 0.34972   2
  -1  -3 -11 38.2242 1.87543   1
  -1  -3 -11 34.9879 1.57521   1
   1   3  11 36.1054 1.83639   1
   1   3  11 1.21890 0.45059   2
  -2  -3 -11 0.37673 0.52458   2
  -2  -3 -11 17.9243 1.20211   1
   2   3  11 1.16718 0.54531   2
   2   3  11 18.3457 1.18727   1
  -3  -3 -11 0.71051 0.56797   2
  -3  -3 -11 4.71949 0.75463   1
   3   3  11 0.64771 0.57360   2
   3   3  11 6.10044 0.81091   1
  -4  -3 -11 0.61728 0.68229   2
  -4  -3 -11 1.80299 0.72399   1
   4   3  11 3.53776 0.84824   1
   4   3  11 0.06212 0.69197   2
  -5  -3 -11 -0.0657 0.84016   2
  -5  -3 -11 0.34282 0.84613   1
   5   3  11 0.98978 0.90512   1
   5   3  11 -0.7722 0.90084   2
  -3   4  11 1.10585 0.74584   2
   2  -4 -11 -0.1148 0.59097   2
   2  -4 -11 0.39080 0.48741   1
  -2   4  11 0.16682 0.57280   2
   1  -4 -11 0.94780 0.57195   2
   1  -4 -11 -0.2769 0.41607   2
   1  -4 -11 10.9560 0.86313   1
   1  -4 -11 12.9466 1.22418   1
  -1   4  11 12.0676 0.95207   1
   0  -4 -11 1.47597 0.45014   1
   0  -4 -11 -0.1028 0.46853   2
   0  -4 -11 0.44537 0.39693   2
  -1  -4 -11 -0.2088 0.49603   2
  -1  -4 -11 0.35319 0.33019   2
  -1  -4 -11 9.29644 0.66998   1
  -1  -4 -11 10.6287 0.96705   1
   1   4  11 12.0785 0.92559   1
   1   4  11 0.58067 0.52556   2
  -2  -4 -11 -0.4844 0.49504   2
  -2  -4 -11 5.41484 0.75245   1
   2   4  11 7.18090 0.82169   1
   2   4  11 0.15581 0.54218   2
  -3  -4 -11 0.03858 0.55846   2
  -3  -4 -11 10.0799 0.99269   1
   3   4  11 0.60365 0.64882   2
   3   4  11 9.21101 1.00727   1
  -4  -4 -11 8.58265 1.07134   1
  -4  -4 -11 0.05040 0.72427   2
   4   4  11 8.48556 1.06865   1
   4   4  11 0.11839 0.73234   2
  -5  -4 -11 -0.5916 0.92117   2
   5   4  11 -0.4481 0.95566   1
   3  -5 -11 -0.1347 0.63975   2
  -3   5  11 0.06292 0.71193   2
  -3   5  11 2.50331 0.85004   1
   2  -5 -11 0.14450 0.67082   2
  -2   5  11 12.0431 1.05821   1
  -2   5  11 -0.4225 0.59060   2
   1  -5 -11 20.6077 1.36054   1
   1  -5 -11 21.8410 1.18709   1
   1  -5 -11 0.99398 0.65478   2
  -1   5  11 0.38189 0.54804   2
   0  -5 -11 4.83177 0.74553   1
   0  -5 -11 5.23855 0.62051   1
   0  -5 -11 0.23180 0.51628   2
   0   5  11 -0.0104 0.46951   2
  -1  -5 -11 0.05826 0.59258   1
  -1  -5 -11 -0.2800 0.49741   2
   1   5  11 0.02201 0.53115   1
   1   5  11 -0.0966 0.59269   2
  -2  -5 -11 0.60511 0.58197   1
  -2  -5 -11 -0.0757 0.53338   2
   2   5  11 0.34744 0.59812   2
   2   5  11 0.94684 0.63542   1
  -3  -5 -11 0.49172 0.63791   2
  -3  -5 -11 8.90793 0.99213   1
   3   5  11 8.86125 1.06890   1
   3   5  11 0.14307 0.70200   2
  -4  -5 -11 7.44214 1.05548   1
  -4  -5 -11 0.20246 0.73791   2
   4   5  11 8.22391 1.07171   1
   4   5  11 0.12029 0.75143   2
  -5  -5 -11 -0.0530 0.91739   2
  -5  -5 -11 12.4281 1.44789   1
   5   5  11 12.5580 1.46449   1
   5   5  11 0.61874 0.97513   2
   3  -6 -11 0.33459 0.85293   2
  -3   6  11 0.45966 0.84964   1
  -3   6  11 -0.7609 0.74944   2
   2  -6 -11 26.3701 1.79508   1
   2  -6 -11 0.31710 0.70566   2
  -2   6  11 29.6036 1.61990   1
  -2   6  11 0.03344 0.65797   2
   1  -6 -11 -0.6971 0.69525   2
   1  -6 -11 1.73206 0.69067   1
  -1   6  11 1.64993 0.64263   1
  -1   6  11 0.48009 0.57483   2
   0  -6 -11 -0.0061 0.62306   1
   0  -6 -11 0.42715 0.57570   1
   0  -6 -11 -0.3128 0.59097   2
   0   6  11 0.11883 0.87559   1
   0   6  11 0.35875 0.51862   2
  -1  -6 -11 0.78336 0.59060   2
  -1  -6 -11 1.18046 0.61104   1
   1   6  11 -0.1944 0.62763   2
   1   6  11 0.61746 0.62344   1
  -2  -6 -11 0.03878 0.50254   2
  -2  -6 -11 6.73191 0.88108   1
   2   6  11 8.59288 1.05580   1
   2   6  11 0.49712 0.63705   2
  -3  -6 -11 0.04494 0.65555   2
  -3  -6 -11 10.8543 1.13239   1
   3   6  11 -0.0599 0.74510   2
   3   6  11 11.3214 1.24063   1
  -4  -6 -11 0.11337 0.82708   2
  -4  -6 -11 0.43637 0.86883   1
   4   6  11 -0.2501 0.76699   2
   4   6  11 0.17562 0.85008   1
   2  -7 -11 2.05895 0.77026   1
   2  -7 -11 0.12972 0.84025   2
  -2   7  11 1.23939 0.78366   1
  -2   7  11 -1.0787 0.74782   2
   1  -7 -11 0.22190 0.70995   1
   1  -7 -11 0.05501 0.69337   2
  -1   7  11 0.19907 0.60846   1
  -1   7  11 0.48927 0.62966   2
   0  -7 -11 8.68883 1.10445   1
   0  -7 -11 0.01196 0.66431   2
  -1  -7 -11 24.7215 1.51261   1
  -1  -7 -11 0.43581 0.55208   2
   1   7  11 0.76083 0.73164   2
   1   7  11 26.0137 1.67584   1
  -2  -7 -11 1.08740 0.64380   1
  -2  -7 -11 -0.3691 0.60806   2
   2   7  11 0.75788 0.73619   1
   2   7  11 0.49920 0.75232   2
  -3  -7 -11 -0.2073 0.73608   2
  -3  -7 -11 0.30961 0.74285   1
   3   7  11 0.08002 0.83084   2
   3   7  11 -0.3331 0.83133   1
  -4  -7 -11 1.31391 0.89713   1
  -4  -7 -11 0.01670 0.83916   2
   4   7  11 -0.0867 0.87860   1
   4   7  11 -0.8431 0.95411   2
   2  -8 -11 4.06485 0.98450   1
   2  -8 -11 -0.4046 0.82242   2
  -2   8  11 -0.3577 0.78687   2
  -2   8  11 4.45403 1.01333   1
   1  -8 -11 2.39766 0.85847   1
   1  -8 -11 0.14185 0.83811   2
   0  -8 -11 0.09419 0.76107   2
   0  -8 -11 2.54274 0.86289   1
   1   8  11 0.79390 0.87059   2
   1   8  11 11.8546 1.34257   1
  -2  -8 -11 2.07126 0.73864   1
  -2  -8 -11 0.11681 0.67035   2
   2   8  11 0.51048 0.87124   2
   2   8  11 2.49673 0.93652   1
  -3  -8 -11 0.36924 0.78327   2
  -3  -8 -11 2.27117 0.89681   1
   3   8  11 -1.0871 0.92526   2
   3   8  11 2.13380 1.09786   1
   0  -9 -11 0.12310 0.86828   1
   0  -9 -11 0.58946 0.89961   2
   1   9  11 0.42548 1.00332   2
  -2  -9 -11 2.82062 0.69147   1
   2   9  11 3.24721 1.06350   1
   2   9  11 -0.1691 0.96523   2
   1   7 -12 17.2469 1.42320   1
   1   7 -12 -0.2105 0.82819   2
  -1  -7  12 17.3983 1.69020   1
  -1  -7  12 -0.0332 0.88578   2
   0   7 -12 0.20473 0.79340   2
   0   7 -12 8.20335 1.11621   1
   0  -7  12 6.34128 1.00117   1
   0  -7  12 -0.1770 0.79219   2
  -1   7 -12 0.17145 0.83001   2
  -1   7 -12 2.40809 0.90713   1
   1  -7  12 1.05592 0.64847   2
   2   6 -12 3.73751 0.88096   1
   2   6 -12 0.40604 0.79111   2
  -2  -6  12 2.94380 0.97171   1
  -2  -6  12 0.24482 0.96205   2
   1   6 -12 0.32386 0.71288   2
   1   6 -12 3.27521 0.79340   1
  -1  -6  12 0.28307 0.77044   2
  -1  -6  12 2.39497 0.86646   1
   0   6 -12 4.37250 0.85282   1
   0   6 -12 -0.0855 0.67271   2
   0  -6  12 -0.0542 0.69628   2
   0  -6  12 3.32571 0.83901   1
  -1   6 -12 0.57528 0.74145   2
  -1   6 -12 42.3420 2.11599   1
   1  -6  12 41.8557 2.54948   1
   1  -6  12 1.11367 0.70863   2
  -2   6 -12 -0.2663 0.69946   2
  -2   6 -12 -0.2327 0.68712   1
  -3   6 -12 -0.8310 0.74087   1
  -3   6 -12 0.13632 0.65657   2
   3   5 -12 0.25505 0.83300   2
   3   5 -12 0.41309 0.81329   1
  -3  -5  12 0.41457 1.00320   2
  -3  -5  12 0.07708 0.96694   1
   2   5 -12 1.38347 0.74623   1
   2   5 -12 -0.1679 0.70435   2
  -2  -5  12 0.22440 0.85364   2
  -2  -5  12 1.44293 0.87763   1
   1   5 -12 0.17664 0.60494   2
   1   5 -12 3.66007 0.71429   1
  -1  -5  12 2.05665 0.76642   1
  -1  -5  12 0.26274 0.70705   2
   0   5 -12 1.14672 0.60904   1
   0   5 -12 -0.3546 0.55604   2
   0  -5  12 1.12710 0.66686   1
   0  -5  12 -0.5275 0.64102   2
  -1   5 -12 13.6345 1.08425   1
  -1   5 -12 -0.1887 0.54488   2
   1  -5  12 10.7466 1.08563   1
   1  -5  12 0.06145 0.58485   2
  -2   5 -12 5.74169 0.82143   1
  -2   5 -12 -0.1041 0.63189   2
   2  -5  12 0.01862 0.56320   2
  -3   5 -12 2.27606 0.77560   1
  -3   5 -12 0.51879 0.65379   2
  -4   5 -12 -0.1415 0.61301   2
  -4   5 -12 1.38749 0.73098   1
   3   4 -12 -0.7568 0.73547   2
   3   4 -12 0.10624 0.77213   1
  -3  -4  12 0.56247 0.98315   1
  -3  -4  12 0.13038 0.96738   2
   2   4 -12 0.72692 0.64443   1
   2   4 -12 -0.0976 0.63599   2
  -2  -4  12 -0.0610 0.71885   2
  -2  -4  12 0.60072 0.74376   1
   1   4 -12 0.97341 0.57630   2
   1   4 -12 24.9684 1.36392   1
  -1  -4  12 23.7544 1.55802   1
  -1  -4  12 0.41139 0.63106   2
   0   4 -12 0.02416 0.49844   2
   0   4 -12 2.71056 0.62741   1
   0  -4  12 2.34584 0.68069   1
   0  -4  12 -0.4999 0.54082   2
  -1   4 -12 2.91071 0.64206   1
  -1   4 -12 0.68442 0.52609   2
   1  -4  12 -0.1766 0.58428   2
   1  -4  12 3.03009 0.68509   1
  -2   4 -12 7.14946 0.79264   1
  -2   4 -12 -0.2279 0.54852   2
   2  -4  12 -0.0372 0.58731   2
   2  -4  12 7.48612 0.84452   1
  -3   4 -12 0.15448 0.62733   2
  -3   4 -12 9.34980 1.01129   1
  -4   4 -12 0.24266 0.72610   1
  -4   4 -12 0.07904 0.66646   2
   4   3 -12 0.25913 0.89169   2
   4   3 -12 1.33434 0.93642   1
  -4  -3  12 1.47727 1.14270   1
  -4  -3  12 -0.3678 1.06226   2
   3   3 -12 14.1082 1.23950   1
   3   3 -12 -0.2616 0.66059   2
  -3  -3  12 0.16910 0.87659   2
  -3  -3  12 16.3845 1.53499   1
   2   3 -12 2.28929 0.64335   2
   2   3 -12 58.9977 2.60908   1
  -2  -3  12 0.59598 0.65910   2
  -2  -3  12 57.7947 2.88714   1
   1   3 -12 1.35722 0.59710   2
   1   3 -12 54.5801 2.33299   1
  -1  -3  12 50.0241 2.59227   1
  -1  -3  12 0.55217 0.63384   2
   0   3 -12 0.97811 0.50099   1
   0   3 -12 -0.0485 0.45341   2
   0  -3  12 0.28303 0.57321   2
   0  -3  12 0.40554 0.56453   1
  -1   3 -12 -0.3639 0.46892   2
  -1   3 -12 0.04012 0.50438   1
   1  -3  12 0.31475 0.55503   2
   1  -3  12 0.87209 0.55762   1
  -2   3 -12 0.38717 0.52119   2
  -2   3 -12 0.13049 0.51119   1
   2  -3  12 0.26960 0.55138   2
   2  -3  12 0.56492 0.54308   1
  -3   3 -12 20.7519 1.26475   1
  -3   3 -12 0.41689 0.55921   2
   3  -3  12 0.22990 0.60315   2
  -4   3 -12 0.15579 0.53509   2
  -4   3 -12 30.8214 1.66291   1
   4   2 -12 0.30803 0.84467   2
   4   2 -12 -0.0795 0.81935   1
  -4  -2  12 1.05258 1.05792   1
   3   2 -12 20.4979 1.40654   1
   3   2 -12 0.37823 0.61689   2
  -3  -2  12 28.7376 1.78815   1
  -3  -2  12 1.04266 0.85071   2
   2   2 -12 1.22076 0.58507   2
   2   2 -12 51.4871 2.34428   1
  -2  -2  12 50.5500 2.57535   1
  -2  -2  12 0.55939 0.63900   2
   1   2 -12 6.94285 0.70315   1
   1   2 -12 0.12822 0.48420   2
  -1  -2  12 4.83687 0.73672   1
  -1  -2  12 -0.1934 0.53645   2
   0   2 -12 8.55335 0.76926   1
   0   2 -12 -0.0300 0.44690   2
   0  -2  12 0.22828 0.53574   2
   0  -2  12 8.29453 0.91301   1
  -1   2 -12 3.11358 0.56875   1
  -1   2 -12 0.33729 0.43012   2
   1  -2  12 -0.2026 0.49346   2
   1  -2  12 2.96759 0.60424   1
  -2   2 -12 0.00217 0.47265   2
  -2   2 -12 1.39772 0.52505   1
   2  -2  12 1.37445 0.56521   1
   2  -2  12 -0.2820 0.51142   2
  -3   2 -12 4.42147 0.66042   1
  -3   2 -12 0.47084 0.48720   2
   3  -2  12 -0.1294 0.57138   2
   3  -2  12 4.89062 0.73616   1
  -4   2 -12 8.07258 1.02184   1
   4  -2  12 0.38102 0.56998   2
   4   1 -12 0.44267 0.83137   1
   4   1 -12 0.47085 0.82320   2
  -4  -1  12 0.47646 0.92874   1
   3   1 -12 7.44205 0.89867   1
   3   1 -12 -0.3513 0.61227   2
  -3  -1  12 6.77038 0.97770   1
  -3  -1  12 -0.0091 0.71580   2
   2   1 -12 0.05339 0.47358   2
   2   1 -12 6.95140 0.79512   1
  -2  -1  12 6.90911 0.87378   1
  -2  -1  12 0.42329 0.60354   2
   1   1 -12 -0.7664 0.40814   2
   1   1 -12 3.74798 0.59433   1
  -1  -1  12 0.16725 0.55519   2
  -1  -1  12 4.42867 0.71693   1
   0   1 -12 -0.5382 0.42311   1
   0   1 -12 -0.0487 0.43763   2
   0  -1  12 0.15031 0.50734   2
   0  -1  12 0.20849 0.50966   1
  -1   1 -12 1.33148 0.45877   1
  -1   1 -12 0.28875 0.42294   2
   1  -1  12 1.98818 0.56979   1
   1  -1  12 0.03089 0.50103   2
  -2   1 -12 0.02892 0.42187   2
  -2   1 -12 5.47622 0.64054   1
   2  -1  12 8.12008 0.79953   1
   2  -1  12 0.22939 0.52214   2
  -3   1 -12 -0.0297 0.47694   2
  -3   1 -12 2.35748 0.53457   1
   5  -1  12 38.4845 2.34183   1
   4   0 -12 4.16338 0.91956   1
   3   0 -12 -0.3173 0.59798   2
   3   0 -12 -0.0624 0.62110   1
  -3   0  12 0.04587 0.67398   1
   2   0 -12 2.34187 0.62473   1
   2   0 -12 0.11898 0.51362   2
  -2   0  12 0.90643 0.60774   1
  -2   0  12 -0.1078 0.56088   2
   1   0 -12 1.09309 0.48603   2
   1   0 -12 37.2408 1.70985   1
  -1   0  12 33.5268 1.83332   1
  -1   0  12 0.75273 0.53911   2
   0   0 -12 0.73635 0.44300   1
   0   0 -12 0.48523 0.43349   2
   0   0  12 0.62863 0.48885   1
   0   0  12 -0.0518 0.45536   2
  -1   0 -12 0.35033 0.40538   2
  -1   0 -12 5.57001 0.63421   1
   1   0  12 0.27478 0.51143   2
   1   0  12 6.24356 0.71745   1
  -2   0 -12 0.13192 0.40306   2
  -2   0 -12 2.06361 0.48562   1
  -3   0 -12 36.1397 1.65375   1
  -4   0 -12 0.54219 0.82074   2
  -4   0 -12 7.71844 1.09236   1
   4   0  12 7.13629 1.03793   1
  -5   0 -12 0.08496 1.16630   2
   5   0  12 0.02721 1.08779   2
   5   0  12 4.06295 1.06355   1
   4  -1 -12 3.27854 0.96585   1
   4  -1 -12 0.35550 0.78476   2
   3  -1 -12 1.14613 0.65583   2
   3  -1 -12 2.18415 0.68517   1
  -3   1  12 2.30257 0.77405   1
   2  -1 -12 0.22949 0.49932   2
   2  -1 -12 0.50339 0.52115   1
  -2   1  12 0.26344 0.54874   1
  -2   1  12 -0.1426 0.53422   2
   1  -1 -12 0.59214 0.47288   1
   1  -1 -12 -0.1410 0.45913   2
  -1   1  12 0.81606 0.56155   1
  -1   1  12 0.31643 0.50256   2
   0  -1 -12 0.74893 0.44363   2
   0  -1 -12 23.7378 1.24456   1
   0   1  12 25.6982 1.40376   1
   0   1  12 0.60211 0.49042   2
  -1  -1 -12 5.79809 0.58344   1
  -1  -1 -12 0.31835 0.39030   2
   1   1  12 -0.0619 0.50644   2
   1   1  12 6.55830 0.74922   1
  -2  -1 -12 0.09923 0.36982   1
  -2  -1 -12 0.39337 0.38609   2
  -3  -1 -12 0.53227 0.69689   2
  -3  -1 -12 20.2394 1.50023   1
   3   1  12 1.10395 0.63253   2
   3   1  12 23.7114 1.46350   1
  -4  -1 -12 2.90857 0.87182   1
  -4  -1 -12 0.04402 0.76239   2
   4   1  12 0.39621 0.74214   2
   4   1  12 3.68495 0.82536   1
  -5  -1 -12 0.12115 0.97937   2
  -5  -1 -12 1.38069 1.01526   1
   5   1  12 0.21944 0.83668   2
   5   1  12 2.73009 0.99805   1
   4  -2 -12 1.38662 0.77623   1
  -4   2  12 -0.0397 0.75328   2
   3  -2 -12 -0.0490 0.58812   2
   3  -2 -12 1.58333 0.68853   1
   2  -2 -12 0.24424 0.51072   2
   2  -2 -12 0.68621 0.53138   1
  -2   2  12 -0.0984 0.59839   1
   1  -2 -12 6.04743 0.70311   1
   1  -2 -12 0.33356 0.44963   2
  -1   2  12 0.05364 0.50011   2
  -1   2  12 7.55942 0.86644   1
   0  -2 -12 4.57200 0.59068   1
   0  -2 -12 -0.4852 0.37742   2
   0   2  12 4.20617 0.65524   1
   0   2  12 0.41750 0.51350   2
  -1  -2 -12 5.61851 0.58836   1
  -1  -2 -12 0.50569 0.41446   2
  -2  -2 -12 439.682 16.6458   1
  -2  -2 -12 430.622 18.1593   1
  -2  -2 -12 12.8679 1.13413   2
   2   2  12 435.971 19.4627   1
  -3  -2 -12 1.05939 0.69513   2
  -3  -2 -12 32.8291 1.88631   1
   3   2  12 33.9620 1.89011   1
   3   2  12 0.26646 0.57951   2
  -4  -2 -12 0.29715 0.73118   2
  -4  -2 -12 -0.3564 0.72343   1
   4   2  12 -0.3026 0.68444   1
   4   2  12 0.24072 0.75805   2
  -5  -2 -12 0.21262 0.94113   2
  -5  -2 -12 2.28693 1.00433   1
   5   2  12 -0.1702 0.91018   2
   5   2  12 3.35788 1.02427   1
   3  -3 -12 8.53805 0.92639   1
   2  -3 -12 -0.3799 0.47717   2
   2  -3 -12 8.00345 0.87902   1
   1  -3 -12 -0.3080 0.46590   2
   1  -3 -12 4.64400 0.64816   1
  -1   3  12 5.98525 0.72747   1
  -1   3  12 0.30792 0.51125   2
   0  -3 -12 0.58281 0.45869   1
   0  -3 -12 -0.0217 0.41997   2
   0   3  12 0.13143 0.52665   2
   0   3  12 0.70012 0.56842   1
  -1  -3 -12 0.01784 0.38410   2
  -1  -3 -12 0.28036 0.57481   2
  -1  -3 -12 0.54015 0.63362   1
  -1  -3 -12 5.56114 0.56732   1
   1   3  12 0.25348 0.47064   2
  -2  -3 -12 -0.1637 0.60971   2
  -2  -3 -12 0.95619 0.61397   1
   2   3  12 0.23695 0.48315   1
   2   3  12 0.38175 0.56728   2
  -3  -3 -12 0.62207 0.62533   2
  -3  -3 -12 43.1731 2.25867   1
   3   3  12 1.34479 0.63287   2
   3   3  12 43.2686 2.29942   1
  -4  -3 -12 0.35881 0.73756   2
  -4  -3 -12 11.0669 1.16431   1
   4   3  12 0.15102 0.72929   2
   4   3  12 9.72719 1.20739   1
  -5  -3 -12 -0.2914 0.90550   1
   5   3  12 -0.1609 0.97637   2
   5   3  12 -0.3181 0.95003   1
   3  -4 -12 6.30953 0.92781   1
  -3   4  12 0.10151 0.74463   2
   2  -4 -12 1.67940 0.60287   1
   1  -4 -12 0.73256 0.52198   1
   1  -4 -12 0.17205 0.47002   2
   1  -4 -12 0.41475 0.55464   2
  -1   4  12 1.60838 0.61999   1
   0  -4 -12 0.63236 0.48920   2
   0  -4 -12 0.22786 0.50285   2
   0  -4 -12 27.5185 1.37823   1
  -1  -4 -12 41.4174 2.21024   1
  -1  -4 -12 41.6147 2.07126   1
  -1  -4 -12 1.02089 0.60624   2
  -1  -4 -12 0.50931 0.48752   2
   1   4  12 1.67823 0.55377   2
   1   4  12 46.8079 2.23222   1
  -2  -4 -12 0.04299 0.57199   2
  -2  -4 -12 0.97690 0.63806   1
   2   4  12 0.29250 0.57668   2
   2   4  12 1.13596 0.63211   1
  -3  -4 -12 -0.3239 0.57638   2
  -3  -4 -12 0.04488 0.62862   1
   3   4  12 0.37513 0.65007   1
   3   4  12 -0.1146 0.68873   2
  -4  -4 -12 4.47842 0.91989   1
  -4  -4 -12 0.14818 0.72310   2
   4   4  12 -0.4725 0.77227   2
   4   4  12 6.26519 1.02361   1
  -5  -4 -12 -0.5493 0.87539   2
  -5  -4 -12 2.41149 0.97806   1
   5   4  12 -0.6013 1.01256   2
   5   4  12 0.41507 1.07126   1
  -3   5  12 -0.0960 0.77689   2
  -3   5  12 2.88927 0.91261   1
   2  -5 -12 -0.0693 0.63971   2
  -2   5  12 0.61973 0.71356   2
   1  -5 -12 0.04001 0.49851   1
   1  -5 -12 0.28645 0.64155   2
  -1   5  12 -0.4748 0.57241   2
   0  -5 -12 1.93189 0.50000   1
   0  -5 -12 -0.5966 0.53376   2
  -1  -5 -12 2.82218 0.69482   1
  -1  -5 -12 0.36785 0.58754   2
   1   5  12 5.00905 0.77537   1
   1   5  12 -0.4307 0.58483   2
  -2  -5 -12 -0.5458 0.56570   2
  -2  -5 -12 0.20878 0.60581   1
   2   5  12 0.45479 0.64642   1
   2   5  12 -0.2687 0.62619   2
  -3  -5 -12 0.16112 0.62329   2
  -3  -5 -12 22.1393 1.56533   1
   3   5  12 26.4867 1.68694   1
   3   5  12 0.90379 0.74066   2
  -4  -5 -12 8.74612 1.10286   1
  -4  -5 -12 0.59398 0.74774   2
   4   5  12 -0.0641 0.78953   2
   4   5  12 11.1774 1.35680   1
   5   5  12 1.12337 1.43030   1
   5   5  12 0.23621 1.24992   2
   2  -6 -12 -0.0070 0.68938   2
  -2   6  12 0.06713 0.70342   2
  -2   6  12 1.86901 0.80366   1
   1  -6 -12 0.17682 0.62772   2
  -1   6  12 6.93294 0.86093   1
  -1   6  12 0.20646 0.61267   2
   0  -6 -12 0.10374 0.62119   2
  -1  -6 -12 -0.2722 0.63614   1
  -1  -6 -12 -0.1043 0.67073   2
   1   6  12 0.49479 0.73605   2
   1   6  12 -0.3125 0.62449   1
  -2  -6 -12 0.78299 0.58466   2
  -2  -6 -12 41.4131 2.18958   1
   2   6  12 2.72791 0.76581   2
   2   6  12 43.1345 2.33520   1
  -3  -6 -12 0.10733 0.64376   2
  -3  -6 -12 6.84530 0.96891   1
   3   6  12 0.58388 0.84626   2
   3   6  12 7.81332 1.09483   1
  -4  -6 -12 0.29883 0.76934   2
  -4  -6 -12 6.17769 1.07053   1
   4   6  12 5.62761 1.10434   1
   2  -7 -12 0.78160 0.91884   2
  -2   7  12 -0.3870 0.80051   2
  -2   7  12 0.86240 0.82190   1
   1  -7 -12 -0.0875 0.76562   2
   1  -7 -12 10.3958 1.06692   1
  -1   7  12 0.27914 0.66694   2
  -1   7  12 11.1670 1.06813   1
   0  -7 -12 -0.3398 0.65085   2
  -1  -7 -12 0.59031 0.55431   2
  -1  -7 -12 1.81410 0.77536   1
   1   7  12 1.68101 0.76617   1
   1   7  12 -0.1228 0.75942   2
  -2  -7 -12 0.19568 0.64089   2
  -2  -7 -12 0.90547 0.67815   1
   2   7  12 0.05697 0.80773   1
   2   7  12 0.32354 0.79598   2
  -3  -7 -12 10.3241 1.15985   1
  -3  -7 -12 0.54247 0.75772   2
   3   7  12 12.7398 1.46695   1
   3   7  12 0.51463 0.92798   2
   4   7  12 0.23290 0.97289   2
   4   7  12 11.5825 1.47248   1
   1  -8 -12 0.12671 0.84977   2
   1  -8 -12 -0.5957 0.70908   1
   0  -8 -12 -0.1587 0.80860   2
   1   8  12 0.14638 0.92425   2
   1   8  12 0.68264 0.85268   1
  -2  -8 -12 11.3218 1.23181   1
  -2  -8 -12 0.68545 0.69235   2
   2   8  12 13.2480 1.48658   1
   2   8  12 0.17687 0.89059   2
  -3  -8 -12 0.69132 0.77131   2
  -3  -8 -12 5.78201 0.95655   1
   3   8  12 8.34228 1.34361   1
   3   8  12 0.09565 1.00212   2
   0  -9 -12 0.52852 0.84860   2
   1   9  12 -0.3028 0.97555   1
   1   9  12 0.83701 1.05346   2
  -2  -9 -12 0.81861 0.57806   1
   2   9  12 0.71550 1.23840   1
   0   7 -13 -0.6264 0.87037   2
   0   7 -13 0.30455 0.83042   1
   0  -7  13 0.06828 0.77823   2
   0  -7  13 1.34261 0.79687   1
   1  -7  13 -0.1289 0.59514   2
   2   6 -13 6.16132 1.03524   1
   2   6 -13 0.55071 0.81529   2
   1   6 -13 -0.1785 0.74753   2
  -1  -6  13 -0.0897 0.82653   1
  -1  -6  13 0.49048 0.86607   2
   0   6 -13 6.87321 0.97727   1
   0   6 -13 -0.0980 0.71270   2
   0  -6  13 -0.4264 0.76711   2
   0  -6  13 5.62028 1.01834   1
  -1   6 -13 45.3851 2.30315   1
  -1   6 -13 0.25124 0.74084   2
   1  -6  13 0.73653 0.75382   2
  -2   6 -13 30.6879 1.78170   1
  -2   6 -13 0.16031 0.74288   2
   2   5 -13 -0.0152 0.79158   1
   2   5 -13 0.23811 0.79950   2
  -2  -5  13 0.23255 0.93603   2
  -2  -5  13 0.57362 0.92147   1
   1   5 -13 13.8292 1.16351   1
   1   5 -13 -0.0043 0.67403   2
  -1  -5  13 0.64950 0.76871   2
  -1  -5  13 12.7852 1.35779   1
   0   5 -13 0.19335 0.65732   1
   0   5 -13 -0.2721 0.61613   2
   0  -5  13 1.12130 0.74435   1
   0  -5  13 -0.5884 0.68251   2
  -1   5 -13 0.83029 0.60728   2
  -1   5 -13 32.2374 1.75747   1
   1  -5  13 31.8738 1.84961   1
   1  -5  13 0.20417 0.63934   2
  -2   5 -13 1.14882 0.71942   1
  -2   5 -13 0.79828 0.71533   2
   2  -5  13 0.09761 0.65040   2
  -3   5 -13 -0.2559 0.66526   1
  -3   5 -13 -0.2005 0.70674   2
   3   4 -13 -0.5430 0.78516   2
   3   4 -13 0.76163 0.88293   1
  -3  -4  13 1.76637 1.06117   1
  -3  -4  13 0.30016 1.00154   2
   2   4 -13 0.05019 0.69301   1
   2   4 -13 0.20072 0.74562   2
  -2  -4  13 -0.0242 0.80816   1
  -2  -4  13 -0.1482 0.80062   2
   1   4 -13 3.64708 0.74671   1
   1   4 -13 0.60728 0.61816   2
  -1  -4  13 -0.0764 0.70011   2
  -1  -4  13 3.04415 0.82811   1
   0   4 -13 8.61720 0.94399   1
   0   4 -13 0.36988 0.55222   2
   0  -4  13 0.58911 0.63500   2
   0  -4  13 7.81955 0.94938   1
  -1   4 -13 0.42418 0.57369   2
  -1   4 -13 0.67557 0.60845   1
   1  -4  13 0.27754 0.59507   2
   1  -4  13 0.83134 0.63515   1
  -2   4 -13 2.10902 0.66404   1
  -2   4 -13 0.40453 0.62107   2
   2  -4  13 -0.6161 0.59558   2
   2  -4  13 1.98413 0.62043   1
  -3   4 -13 8.45517 0.92424   1
  -3   4 -13 0.20708 0.62612   2
  -4   4 -13 -0.0610 0.73298   1
  -4   4 -13 0.18119 0.60915   2
   3   3 -13 0.08089 0.76019   2
   3   3 -13 -0.7913 0.74594   1
  -3  -3  13 0.04098 0.96384   2
  -3  -3  13 0.79002 0.99808   1
   2   3 -13 0.14936 0.63260   2
   2   3 -13 1.44503 0.71661   1
  -2  -3  13 0.21428 0.72819   2
  -2  -3  13 2.86937 0.84293   1
   1   3 -13 1.89577 0.61516   1
   1   3 -13 -0.0852 0.54556   2
  -1  -3  13 1.02820 0.62229   1
  -1  -3  13 -0.1028 0.63236   2
   0   3 -13 -0.4806 0.50494   2
   0   3 -13 9.30939 0.86525   1
   0  -3  13 9.54022 1.07690   1
   0  -3  13 -0.1560 0.61342   2
  -1   3 -13 7.00033 0.78863   1
  -1   3 -13 -0.2404 0.48437   2
   1  -3  13 8.39765 0.93079   1
   1  -3  13 0.59148 0.61129   2
  -2   3 -13 0.11424 0.53969   2
  -2   3 -13 8.02571 0.83735   1
   2  -3  13 0.12142 0.59400   2
   2  -3  13 8.80854 0.93395   1
  -3   3 -13 6.39531 0.81292   1
  -3   3 -13 0.33633 0.61546   2
   3  -3  13 0.31319 0.61458   2
  -4   3 -13 0.20927 0.59529   2
  -4   3 -13 0.96020 0.62926   1
   3   2 -13 -0.5683 0.68666   2
   3   2 -13 0.32056 0.68286   1
  -3  -2  13 0.16685 0.89731   1
  -3  -2  13 -0.5878 0.83773   2
   2   2 -13 4.10277 0.72976   2
   2   2 -13 143.873 5.68742   1
  -2  -2  13 137.326 6.20158   1
  -2  -2  13 1.98244 0.74022   2
   1   2 -13 0.69738 0.54350   1
   1   2 -13 -0.1037 0.49290   2
  -1  -2  13 0.18338 0.55808   2
  -1  -2  13 0.02606 0.57983   1
   0   2 -13 0.73767 0.51697   2
   0   2 -13 3.39992 0.61693   1
   0  -2  13 3.15716 0.67420   1
   0  -2  13 0.50128 0.55174   2
  -1   2 -13 0.68804 0.47088   2
  -1   2 -13 24.7842 1.33995   1
   1  -2  13 0.89058 0.56401   2
   1  -2  13 26.4347 1.50824   1
  -2   2 -13 0.63194 0.50737   2
  -2   2 -13 30.2793 1.53103   1
   2  -2  13 0.81982 0.62488   2
   2  -2  13 29.2928 1.67265   1
  -3   2 -13 0.54589 0.54380   2
  -3   2 -13 11.8931 0.96280   1
   3  -2  13 0.54170 0.60648   2
   3  -2  13 9.35616 1.01580   1
   4  -2  13 0.08354 0.58466   2
   3   1 -13 7.11423 0.96391   1
   3   1 -13 0.10366 0.68606   2
  -3  -1  13 8.63468 1.12648   1
  -3  -1  13 -0.1467 0.78468   2
   2   1 -13 28.1569 1.54849   1
   2   1 -13 0.44724 0.57583   2
  -2  -1  13 26.3739 1.68270   1
  -2  -1  13 0.40467 0.64579   2
   1   1 -13 14.7391 1.01609   1
   1   1 -13 0.60302 0.52570   2
  -1  -1  13 14.3387 1.18489   1
  -1  -1  13 -0.0262 0.60153   2
   0   1 -13 0.63872 0.47321   2
   0   1 -13 8.10127 0.79619   1
   0  -1  13 0.17943 0.56216   2
   0  -1  13 9.47616 0.97304   1
  -1   1 -13 4.79568 0.61878   1
  -1   1 -13 -0.1827 0.45039   2
   1  -1  13 0.19821 0.56485   2
   1  -1  13 4.02346 0.68549   1
  -2   1 -13 0.32076 0.45731   2
  -2   1 -13 1.98080 0.54000   1
   2  -1  13 0.07809 0.57796   2
   2  -1  13 2.63798 0.66920   1
  -3   1 -13 3.95845 0.62980   1
  -3   1 -13 -0.3503 0.46564   2
   3  -1  13 -0.4785 0.58254   2
   3  -1  13 3.21637 0.74658   1
   3   0 -13 21.4825 1.40827   1
   3   0 -13 0.13195 0.67663   2
  -3   0  13 19.5571 1.50554   1
   2   0 -13 0.33959 0.58041   2
   2   0 -13 13.9695 1.03989   1
  -2   0  13 0.23528 0.67178   2
  -2   0  13 12.8363 1.17947   1
   1   0 -13 11.5728 0.89634   1
   1   0 -13 0.70771 0.52815   2
  -1   0  13 12.6117 1.07338   1
  -1   0  13 -0.0940 0.56804   2
   0   0 -13 -0.8714 0.44252   2
   0   0 -13 0.72008 0.48440   1
   0   0  13 0.15395 0.52879   2
   0   0  13 0.54483 0.55475   1
  -1   0 -13 -0.1938 0.42949   2
  -1   0 -13 5.75441 0.64271   1
   1   0  13 5.61082 0.76931   1
   1   0  13 0.00802 0.50886   2
  -2   0 -13 3.36114 0.56116   1
  -2   0 -13 -0.2019 0.44055   2
   2   0  13 -0.0249 0.58672   2
   2   0  13 2.98921 0.67782   1
  -5   0 -13 1.52193 1.14434   2
   3  -1 -13 0.28467 0.67626   2
   3  -1 -13 -0.4586 0.67527   1
   2  -1 -13 0.39890 0.53882   1
   2  -1 -13 0.14785 0.53683   2
  -2   1  13 0.60922 0.60311   1
  -2   1  13 0.10319 0.60085   2
   1  -1 -13 26.9419 1.43662   1
   1  -1 -13 1.12181 0.54307   2
  -1   1  13 0.24646 0.58174   2
  -1   1  13 28.3143 1.58840   1
   0  -1 -13 9.56643 0.80146   1
   0  -1 -13 -0.4218 0.43409   2
   0   1  13 -0.0947 0.54926   2
   0   1  13 9.29852 0.94396   1
  -1  -1 -13 4.46755 0.58399   1
  -1  -1 -13 -0.0990 0.40493   2
   1   1  13 5.09416 0.74678   1
   1   1  13 -0.2400 0.56871   2
  -2  -1 -13 0.68130 0.42862   2
  -2  -1 -13 23.5047 1.20570   1
  -3  -1 -13 0.47943 0.71167   2
  -3  -1 -13 2.00636 0.78842   1
  -4  -1 -13 0.34653 0.83763   2
  -4  -1 -13 10.2271 1.21186   1
   4   1  13 12.0717 1.31283   1
  -5  -1 -13 0.44286 1.08420   2
  -5  -1 -13 10.8223 1.48270   1
   5   1  13 12.6911 1.53351   1
   3  -2 -13 0.57665 0.70690   1
   3  -2 -13 0.16309 0.64912   2
   2  -2 -13 0.23547 0.53767   2
   2  -2 -13 10.0541 0.98812   1
  -2   2  13 11.6624 1.20068   1
   1  -2 -13 4.37472 0.65206   1
   1  -2 -13 0.02751 0.48393   2
  -1   2  13 2.42634 0.68233   1
  -1   2  13 -0.0347 0.57050   2
   0  -2 -13 28.0562 1.42603   1
   0  -2 -13 0.35689 0.47729   2
   0   2  13 0.43703 0.56126   2
   0   2  13 27.9950 1.58748   1
  -1  -2 -13 0.80666 0.43811   2
  -1  -2 -13 61.5311 2.58805   1
  -2  -2 -13 0.79568 0.68709   2
  -2  -2 -13 0.90396 0.66692   1
  -3  -2 -13 0.35317 0.74244   1
  -3  -2 -13 0.06519 0.71343   2
  -4  -2 -13 -0.0989 0.86062   2
  -4  -2 -13 2.84232 0.93771   1
   4   2  13 3.94522 0.91783   1
   4   2  13 -0.0040 0.78477   2
  -5  -2 -13 0.56453 1.21267   2
  -5  -2 -13 8.20313 1.32264   1
   5   2  13 0.39659 0.96662   2
   5   2  13 7.18208 1.19988   1
   3  -3 -13 0.09331 0.63263   1
   2  -3 -13 0.23013 0.54749   2
   2  -3 -13 6.18109 0.81013   1
   1  -3 -13 0.09311 0.49673   2
   1  -3 -13 5.17430 0.70922   1
  -1   3  13 7.32878 0.84069   1
  -1   3  13 0.13851 0.57614   2
   0  -3 -13 33.0911 1.62938   1
   0  -3 -13 0.52751 0.47300   2
   0   3  13 34.9066 1.82688   1
   0   3  13 0.48325 0.58507   2
  -1  -3 -13 176.459 6.89697   1
  -1  -3 -13 4.47195 0.58065   2
  -2  -3 -13 0.43017 0.64776   2
  -2  -3 -13 14.1652 1.23516   1
   2   3  13 0.27960 0.66062   2
  -3  -3 -13 0.63592 0.77225   1
  -3  -3 -13 0.33838 0.76724   2
   3   3  13 0.35852 0.68626   1
   3   3  13 -0.1713 0.66343   2
  -4  -3 -13 0.36423 0.82728   2
  -4  -3 -13 2.59381 0.92165   1
   4   3  13 1.81339 0.83464   1
   4   3  13 0.44943 0.77668   2
  -5  -3 -13 -0.4364 0.98917   2
  -5  -3 -13 1.88061 1.08937   1
   5   3  13 1.42363 1.05923   1
   5   3  13 0.77894 1.07448   2
   3  -4 -13 0.27119 0.65598   1
  -3   4  13 -0.0853 0.81509   2
   2  -4 -13 0.82636 0.60159   1
   1  -4 -13 3.88145 0.65284   1
   1  -4 -13 -0.2930 0.47333   2
  -1   4  13 5.59680 0.80460   1
   0  -4 -13 37.2759 1.69763   1
   0  -4 -13 0.83784 0.51237   2
   0   4  13 33.0368 1.86590   1
   0   4  13 0.51760 0.60088   2
  -1  -4 -13 0.40608 0.62536   2
  -1  -4 -13 0.30661 0.67632   1
   1   4  13 0.52274 0.58767   2
  -2  -4 -13 -0.0997 0.64268   2
  -2  -4 -13 0.27502 0.66457   1
   2   4  13 0.19619 0.62791   2
   2   4  13 0.72771 0.65239   1
  -3  -4 -13 0.11085 0.69614   1
  -3  -4 -13 -0.0497 0.67903   2
   3   4  13 -0.8735 0.58078   2
   3   4  13 0.19234 0.70978   1
  -4  -4 -13 1.24899 0.84953   1
  -4  -4 -13 0.24339 0.77441   2
   4   4  13 1.31711 0.86983   1
   4   4  13 -0.3398 0.80599   2
  -5  -4 -13 18.7991 2.10078   1
   5   4  13 0.99606 1.11720   2
   5   4  13 14.6166 1.75635   1
  -3   5  13 -0.6384 1.36431   1
   2  -5 -13 0.42155 0.63453   1
  -2   5  13 0.25933 0.74388   2
   1  -5 -13 2.39379 0.60512   1
  -1   5  13 0.20606 0.60768   2
   0  -5 -13 0.74928 0.54234   1
   0  -5 -13 0.04687 0.59469   2
   0  -5 -13 0.26443 0.50641   2
  -1  -5 -13 0.00494 0.65817   2
  -1  -5 -13 2.46661 0.75411   1
   1   5  13 0.36227 0.62697   2
   1   5  13 3.37383 0.88423   1
  -2  -5 -13 7.36494 1.02090   1
  -2  -5 -13 -0.2288 0.62801   2
   2   5  13 0.29266 0.68641   2
   2   5  13 9.46627 1.07094   1
  -3  -5 -13 3.82365 0.88510   1
  -3  -5 -13 -0.2071 0.65863   2
   3   5  13 0.15744 0.76838   2
   3   5  13 5.05406 0.89497   1
  -4  -5 -13 0.30011 0.82590   1
  -4  -5 -13 0.53736 0.81648   2
   4   5  13 -0.4627 0.85261   1
   4   5  13 -0.1902 0.87365   2
  -2   6  13 2.02796 0.86566   1
  -2   6  13 -0.0194 0.76042   2
   1  -6 -13 0.03473 0.62388   2
  -1   6  13 6.14777 0.88138   1
  -1   6  13 -0.0798 0.70189   2
   0  -6 -13 0.00732 0.63394   2
  -1  -6 -13 0.60309 0.66221   2
  -1  -6 -13 -0.2905 0.68591   1
   1   6  13 -0.1806 0.69884   2
   1   6  13 0.03825 0.72083   1
  -2  -6 -13 0.25901 0.65778   2
  -2  -6 -13 0.78759 0.72748   1
   2   6  13 -0.1098 0.72411   2
   2   6  13 0.60997 0.75896   1
  -3  -6 -13 0.32204 0.72282   2
  -3  -6 -13 10.1110 1.14783   1
   3   6  13 -0.1635 0.89551   2
   3   6  13 10.4438 1.35637   1
  -4  -6 -13 -0.0950 0.76904   2
  -4  -6 -13 4.09705 1.02450   1
   4   6  13 -0.6754 0.87162   2
   4   6  13 5.60016 1.19732   1
   2  -7 -13 0.09031 0.66585   2
  -2   7  13 0.09580 0.90346   1
  -2   7  13 -0.0344 0.81189   2
   1  -7 -13 0.18733 0.78901   2
  -1   7  13 0.12480 0.68714   2
   0  -7 -13 -0.3059 0.78529   2
   0   7  13 0.94820 0.84988   1
  -1  -7 -13 0.52473 0.70245   1
   1   7  13 -0.3029 0.80453   2
   1   7  13 -0.2503 0.73446   1
  -2  -7 -13 0.18715 0.73471   2
  -2  -7 -13 7.13589 1.01233   1
   2   7  13 -0.2319 0.83521   2
   2   7  13 9.54155 1.18841   1
  -3  -7 -13 -0.3775 0.72271   2
  -3  -7 -13 -0.1944 0.77796   1
   3   7  13 0.13558 0.99487   1
   3   7  13 -0.0082 0.99494   2
   1  -8 -13 0.35868 0.73885   2
   0  -8 -13 0.29810 0.84270   2
   0   8  13 13.5634 1.52802   1
   1   8  13 0.95693 1.02050   2
   1   8  13 3.96528 1.04808   1
  -2  -8 -13 0.45279 0.64465   2
  -2  -8 -13 1.49931 0.86895   1
   2   8  13 0.82474 1.00287   1
   2   8  13 0.28198 0.97859   2
   3   8  13 3.93715 1.22668   1
   1   6 -14 1.26876 0.83373   1
   1   6 -14 -0.1473 0.80032   2
  -1  -6  14 1.45459 0.85854   1
   0   6 -14 0.52330 0.81297   1
   0   6 -14 -0.4921 0.75922   2
   0  -6  14 -0.1742 0.77959   1
   0  -6  14 -0.8980 0.78069   2
  -1   6 -14 -0.5237 0.76245   2
  -1   6 -14 18.5057 1.50484   1
   1  -6  14 0.84844 0.84302   2
   2   5 -14 -0.3417 0.84410   2
   2   5 -14 2.65950 0.90848   1
   1   5 -14 0.08760 0.83762   1
   1   5 -14 0.38111 0.82510   2
  -1  -5  14 -0.3296 0.80148   1
  -1  -5  14 0.01117 0.83140   2
   0   5 -14 0.30541 0.68158   2
   0   5 -14 28.6934 1.68571   1
   0  -5  14 28.7534 1.83891   1
   0  -5  14 0.57109 0.78294   2
  -1   5 -14 0.38116 0.70249   2
  -1   5 -14 -0.3420 0.71182   1
   1  -5  14 -0.3431 0.67293   1
   1  -5  14 0.16542 0.69277   2
  -2   5 -14 0.20336 0.71433   2
  -2   5 -14 1.08094 0.76587   1
   2  -5  14 0.10080 0.71215   2
  -3   5 -14 -0.4928 0.67905   2
  -3   5 -14 1.27845 0.69045   1
   2   4 -14 0.22219 0.79967   1
   2   4 -14 0.35115 0.71858   2
  -2  -4  14 0.38429 0.91530   1
  -2  -4  14 0.33064 0.83914   2
   1   4 -14 3.45816 0.75892   1
   1   4 -14 0.04070 0.66656   2
  -1  -4  14 0.06302 0.78658   2
  -1  -4  14 2.84877 0.87076   1
   0   4 -14 12.2487 1.06539   1
   0   4 -14 -0.0906 0.62974   2
   0  -4  14 -0.3265 0.65271   2
   0  -4  14 11.5896 1.22339   1
  -1   4 -14 1.87573 0.67179   1
  -1   4 -14 0.51808 0.59973   2
   1  -4  14 -0.2027 0.67024   2
   1  -4  14 1.13461 0.71382   1
  -2   4 -14 0.28153 0.64954   2
  -2   4 -14 2.48913 0.72431   1
   2  -4  14 0.04205 0.68430   2
   2  -4  14 2.41740 0.70177   1
  -3   4 -14 0.87528 0.68918   1
  -3   4 -14 0.59071 0.71246   2
   3  -4  14 -0.2958 0.62572   2
   3   3 -14 -0.0345 0.82811   2
   3   3 -14 1.84022 0.88933   1
  -3  -3  14 0.85036 1.06078   1
  -3  -3  14 1.18232 1.09677   2
   2   3 -14 11.6319 1.23603   1
   2   3 -14 0.22402 0.76371   2
  -2  -3  14 -0.5331 0.78647   2
  -2  -3  14 12.0157 1.41019   1
   1   3 -14 0.61259 0.61271   1
   1   3 -14 -0.3384 0.61350   2
  -1  -3  14 -0.1391 0.68085   2
  -1  -3  14 -0.1515 0.66294   1
   0   3 -14 0.35397 0.55980   2
   0   3 -14 17.7467 1.12440   1
   0  -3  14 15.2405 1.37647   1
   0  -3  14 -0.0760 0.67273   2
  -1   3 -14 0.04171 0.56489   1
  -1   3 -14 -0.0719 0.54024   2
   1  -3  14 0.12378 0.61186   1
   1  -3  14 0.02082 0.63342   2
  -2   3 -14 3.83078 0.72528   1
  -2   3 -14 -0.0652 0.54926   2
   2  -3  14 -0.2641 0.62501   2
   2  -3  14 4.14459 0.78178   1
  -3   3 -14 0.54185 0.67807   2
  -3   3 -14 0.98568 0.65019   1
   3  -3  14 -0.0282 0.66095   2
  -4   3 -14 0.17570 0.54192   1
   3   2 -14 0.98060 0.82112   2
   3   2 -14 13.3324 1.29738   1
  -3  -2  14 1.09676 1.00814   2
   2   2 -14 0.70352 0.69217   2
   2   2 -14 14.8707 1.21269   1
  -2  -2  14 0.33469 0.71801   2
  -2  -2  14 15.4531 1.42251   1
   1   2 -14 -0.1933 0.57769   2
   1   2 -14 0.29911 0.58732   1
  -1  -2  14 -0.0564 0.60687   1
  -1  -2  14 0.32007 0.63273   2
   0   2 -14 -0.0398 0.52833   2
   0   2 -14 1.69722 0.59277   1
   0  -2  14 0.92965 0.62388   1
   0  -2  14 0.16156 0.60909   2
  -1   2 -14 0.27690 0.53475   2
  -1   2 -14 0.97626 0.55790   1
   1  -2  14 -0.0466 0.62411   2
   1  -2  14 0.86602 0.62061   1
  -2   2 -14 41.4641 1.96789   1
  -2   2 -14 0.27236 0.52105   2
   2  -2  14 0.97066 0.63357   2
   2  -2  14 41.2487 2.13520   1
  -3   2 -14 0.62554 0.57781   2
  -3   2 -14 8.16523 0.93234   1
   3  -2  14 8.26308 0.98275   1
   3  -2  14 0.22891 0.65483   2
   4  -2  14 0.52677 0.70060   2
   3   1 -14 0.24801 0.77789   2
   3   1 -14 12.1106 1.29129   1
  -3  -1  14 -0.0881 0.84132   2
  -3  -1  14 11.3737 1.32818   1
   2   1 -14 0.14167 0.60981   2
   2   1 -14 1.38661 0.70880   1
  -2  -1  14 -0.3067 0.68967   2
  -2  -1  14 0.95232 0.75679   1
   1   1 -14 16.2079 1.14334   1
   1   1 -14 0.26636 0.57215   2
  -1  -1  14 0.02026 0.67178   2
  -1  -1  14 15.8685 1.30021   1
   0   1 -14 0.42846 0.51665   1
   0   1 -14 -0.2476 0.48507   2
   0  -1  14 -0.0605 0.59487   1
   0  -1  14 0.02437 0.55792   2
  -1   1 -14 5.81457 0.69267   1
  -1   1 -14 0.19184 0.48484   2
   1  -1  14 6.91326 0.84792   1
   1  -1  14 0.67523 0.59878   2
  -2   1 -14 8.81198 0.87228   1
  -2   1 -14 0.31976 0.49893   2
   2  -1  14 9.74623 1.00656   1
   2  -1  14 -0.1646 0.60567   2
  -3   1 -14 7.02239 0.75608   1
  -3   1 -14 0.13194 0.48578   2
   3  -1  14 5.49272 0.84633   1
   3  -1  14 0.54801 0.65491   2
   4  -1  14 1.04853 0.79060   2
   4  -1  14 21.6814 1.48312   1
   3   0 -14 4.85486 0.95443   1
   3   0 -14 -0.2199 0.72837   2
  -3   0  14 6.29406 1.04584   1
   2   0 -14 10.0569 1.02270   1
   2   0 -14 -0.1740 0.61821   2
  -2   0  14 0.09446 0.66317   2
  -2   0  14 11.1736 1.17417   1
   1   0 -14 -0.6032 0.54342   2
   1   0 -14 3.15607 0.63215   1
  -1   0  14 4.00976 0.77044   1
  -1   0  14 0.40239 0.61457   2
   0   0 -14 3.44012 0.63463   1
   0   0 -14 0.59949 0.50059   2
   0   0  14 3.45299 0.67520   1
   0   0  14 0.39686 0.60367   2
  -1   0 -14 7.33943 0.78513   1
  -1   0 -14 0.75566 0.50878   2
   1   0  14 7.56933 0.85648   1
   1   0  14 0.09331 0.57202   2
  -2   0 -14 0.00888 0.46395   2
  -2   0 -14 8.19845 0.79448   1
   2   0  14 8.94161 0.95036   1
   2   0  14 -0.1323 0.60925   2
   3  -1 -14 0.61730 0.75324   1
   3  -1 -14 0.26472 0.73090   2
   2  -1 -14 0.74667 0.64050   2
   2  -1 -14 10.7669 1.04118   1
  -2   1  14 9.57137 1.09854   1
  -2   1  14 -0.3309 0.69946   2
   1  -1 -14 0.09761 0.52779   1
   1  -1 -14 0.52337 0.55756   2
  -1   1  14 -0.4121 0.60522   1
  -1   1  14 -0.0952 0.59309   2
   0  -1 -14 -0.0147 0.46397   2
   0  -1 -14 9.10732 0.85710   1
   0   1  14 0.39542 0.60553   2
   0   1  14 7.80973 0.95575   1
  -1  -1 -14 6.13320 0.70377   1
  -1  -1 -14 0.15654 0.51222   2
   1   1  14 5.09236 0.77817   1
   1   1  14 -0.1352 0.57286   2
  -2  -1 -14 0.19812 0.45106   2
  -2  -1 -14 16.2272 1.00758   1
  -4  -1 -14 0.52273 0.98467   1
  -4  -1 -14 0.01417 0.93013   2
  -5  -1 -14 6.27491 1.47814   1
  -5  -1 -14 0.35789 1.20393   2
   3  -2 -14 0.62248 0.76108   1
   3  -2 -14 0.44406 0.69958   2
   2  -2 -14 0.18935 0.60805   1
   2  -2 -14 0.39341 0.60758   2
  -2   2  14 0.08013 0.73455   1
   1  -2 -14 0.29236 0.50926   2
   1  -2 -14 6.54297 0.78572   1
  -1   2  14 6.31044 0.90480   1
  -1   2  14 -0.3102 0.62919   2
   0  -2 -14 0.21158 0.50108   2
   0  -2 -14 1.94958 0.54500   1
   0   2  14 3.28344 0.75412   1
   0   2  14 0.33882 0.61077   2
  -1  -2 -14 -0.3604 0.45777   2
  -1  -2 -14 0.29262 0.50720   1
   1   2  14 0.38062 0.61578   1
   1   2  14 0.39969 0.62131   2
  -3  -2 -14 -0.8377 0.75117   2
  -3  -2 -14 7.57920 1.09230   1
  -4  -2 -14 0.34770 0.92498   2
  -4  -2 -14 0.81508 0.94700   1
  -5  -2 -14 -0.5331 1.11441   2
  -5  -2 -14 0.64019 1.15443   1
   3  -3 -14 0.60582 0.69511   1
   3  -3 -14 -0.3862 0.68151   2
   2  -3 -14 0.22836 0.58655   2
   2  -3 -14 0.18475 0.64894   1
   1  -3 -14 -0.7758 0.50279   2
   1  -3 -14 1.28702 0.57907   1
  -1   3  14 0.10800 0.62173   2
  -1   3  14 3.12206 0.73663   1
   0  -3 -14 0.16304 0.48947   2
   0  -3 -14 1.75955 0.56828   1
   0   3  14 2.49527 0.74293   1
   0   3  14 0.16547 0.64600   2
  -1  -3 -14 256.730 9.95165   1
  -1  -3 -14 6.07569 0.68794   2
  -2  -3 -14 0.11614 0.70019   2
  -2  -3 -14 4.22955 0.90155   1
  -3  -3 -14 0.26294 0.77378   2
  -3  -3 -14 1.52859 0.81697   1
  -4  -3 -14 3.70923 1.11116   1
  -4  -3 -14 -0.3055 0.94476   2
   4   3  14 3.70485 1.28615   1
   2  -4 -14 1.03199 0.62387   1
   2  -4 -14 -0.3418 0.67622   2
   1  -4 -14 0.89688 0.58341   1
   1  -4 -14 -0.5563 0.50647   2
  -1   4  14 0.47207 0.67001   1
   0  -4 -14 6.60849 0.74900   1
   0  -4 -14 -0.1790 0.49453   2
   0   4  14 6.90538 0.91741   1
   0   4  14 0.03965 0.62847   2
  -2  -4 -14 0.64425 0.70185   2
  -2  -4 -14 45.8922 2.45430   1
  -3  -4 -14 0.03969 0.84192   2
  -3  -4 -14 11.4865 1.36417   1
   3   4  14 0.39921 0.68892   2
  -4  -4 -14 2.52025 1.01144   1
  -4  -4 -14 0.45763 0.89067   2
   4   4  14 2.45217 0.95779   1
   4   4  14 -0.5633 0.86715   2
   2  -5 -14 -0.1635 0.63495   1
   1  -5 -14 9.11737 0.95659   1
  -1   5  14 0.48119 0.68379   2
   0  -5 -14 34.5352 1.69845   1
   0  -5 -14 0.28402 0.49815   2
   0   5  14 36.2692 1.96784   1
  -1  -5 -14 1.01932 0.70765   2
  -2  -5 -14 1.82831 0.79339   1
  -2  -5 -14 0.62952 0.74011   2
   2   5  14 -0.0697 0.73493   2
  -3  -5 -14 0.36422 0.79996   2
  -3  -5 -14 0.75053 0.80148   1
   3   5  14 0.53748 0.85498   2
   3   5  14 -0.1750 0.74520   1
  -4  -5 -14 -0.2364 0.85936   2
  -4  -5 -14 5.49775 1.15301   1
   4   5  14 5.79028 1.17310   1
   4   5  14 -0.2425 0.96104   2
  -2   6  14 0.43886 0.87386   2
  -2   6  14 0.29044 0.87672   1
  -1   6  14 -0.2360 0.75241   2
  -1  -6 -14 0.33102 0.82364   1
  -1  -6 -14 -0.1589 0.72341   2
   1   6  14 -0.0597 0.71256   2
  -2  -6 -14 0.15169 0.81171   2
  -2  -6 -14 15.2582 1.47211   1
   2   6  14 1.68146 0.83700   2
   2   6  14 17.6464 1.45955   1
  -3  -6 -14 10.5178 1.26220   1
  -3  -6 -14 -0.2306 0.69651   2
   3   6  14 10.6804 1.38474   1
   3   6  14 -0.2054 0.96800   2
   4   6  14 -0.6207 1.03228   1
   4   6  14 0.27543 0.97903   2
  -1  -7 -14 12.3428 1.33716   1
   1   7  14 0.50125 0.89776   2
  -2  -7 -14 -0.0283 0.82379   2
  -2  -7 -14 -0.0419 0.88009   1
   2   7  14 0.16606 0.86909   2
   2   7  14 0.64994 0.88942   1
  -3  -7 -14 0.39644 0.77614   2
  -3  -7 -14 4.39657 0.99033   1
   3   7  14 0.77131 1.09050   2
   3   7  14 6.06629 1.24465   1
   1   8  14 2.02194 1.02207   1
   1   8  14 0.00787 1.03158   2
  -2  -8 -14 0.99267 0.62509   2
  -2  -8 -14 10.1007 1.24394   1
   2   8  14 12.0413 1.43285   1
   2   8  14 0.17515 1.01823   2
   1   5 -15 -0.0079 0.81778   2
   1   5 -15 1.34193 0.83508   1
  -1  -5  15 1.39381 0.89474   1
  -1  -5  15 -0.3240 0.83159   2
   0   5 -15 30.7492 1.77381   1
   0   5 -15 0.36652 0.79451   2
   0  -5  15 30.0733 1.98204   1
   0  -5  15 -0.1760 0.83422   2
  -1   5 -15 27.7408 1.67014   1
  -1   5 -15 -0.1532 0.71143   2
   1  -5  15 26.0203 1.81579   1
   1  -5  15 -0.0506 0.78245   2
  -2   5 -15 -0.3217 0.69766   2
  -2   5 -15 9.70062 1.08734   1
   2  -5  15 -0.4340 0.66966   2
   2   4 -15 -0.3870 0.81177   2
   2   4 -15 9.65169 1.16312   1
   1   4 -15 1.90865 0.79860   1
   1   4 -15 -0.3363 0.76269   2
  -1  -4  15 1.28384 0.87745   1
  -1  -4  15 -0.7159 0.78818   2
   0   4 -15 14.8949 1.19742   1
   0   4 -15 0.09851 0.64497   2
   0  -4  15 11.1267 1.31176   1
   0  -4  15 -0.3273 0.71456   2
  -1   4 -15 0.11910 0.63007   2
  -1   4 -15 0.33060 0.66091   1
   1  -4  15 0.14167 0.77769   2
   1  -4  15 0.84681 0.76407   1
  -2   4 -15 1.73596 0.79212   1
  -2   4 -15 -0.2343 0.67896   2
   2  -4  15 0.19734 0.75603   2
   2  -4  15 0.90200 0.63712   1
  -3   4 -15 15.2993 1.28274   1
  -3   4 -15 -0.6124 0.66937   2
   3  -4  15 0.70613 0.60771   2
   2   3 -15 0.06930 0.83836   1
   2   3 -15 -0.4124 0.85206   2
  -2  -3  15 0.08716 0.88607   1
  -2  -3  15 -0.1574 0.86731   2
   1   3 -15 24.0845 1.47684   1
   1   3 -15 0.35086 0.71558   2
  -1  -3  15 0.12016 0.78873   2
  -1  -3  15 21.6857 1.66667   1
   0   3 -15 0.47245 0.63335   2
   0   3 -15 3.43564 0.71993   1
   0  -3  15 0.18263 0.72521   2
   0  -3  15 4.03256 0.95053   1
  -1   3 -15 0.22834 0.61883   1
  -1   3 -15 0.38249 0.61489   2
   1  -3  15 0.20602 0.72863   2
   1  -3  15 0.54403 0.69216   1
  -2   3 -15 2.17808 0.73313   1
  -2   3 -15 -0.0845 0.58062   2
   2  -3  15 3.29778 0.81665   1
   2  -3  15 0.10225 0.70989   2
  -3   3 -15 -0.9463 0.64016   2
  -3   3 -15 0.75634 0.69639   1
   3  -3  15 0.38492 0.73477   2
   2   2 -15 -0.3483 0.71616   1
   2   2 -15 0.17880 0.77159   2
  -2  -2  15 0.16872 0.85180   1
  -2  -2  15 -0.1013 0.84258   2
   1   2 -15 0.19560 0.61441   2
   1   2 -15 5.32071 0.83583   1
  -1  -2  15 5.07416 0.94920   1
  -1  -2  15 0.24244 0.69568   2
   0   2 -15 0.33017 0.60043   2
   0   2 -15 1.50068 0.63575   1
   0  -2  15 -0.0417 0.71090   2
   0  -2  15 1.02076 0.69595   1
  -1   2 -15 10.3795 0.94306   1
  -1   2 -15 0.39994 0.58412   2
   1  -2  15 9.81445 1.12875   1
   1  -2  15 -0.0318 0.65288   2
  -2   2 -15 0.11575 0.57180   1
  -2   2 -15 -0.1856 0.55243   2
   2  -2  15 0.13358 0.61295   1
   2  -2  15 -0.2573 0.63245   2
  -3   2 -15 0.29716 0.54141   2
  -3   2 -15 -0.1981 0.62396   1
   3  -2  15 0.22206 0.72154   2
   3  -2  15 -0.4992 0.70165   1
   4  -2  15 0.11853 0.63482   2
  -3  -1  15 1.30328 1.01366   2
  -3  -1  15 44.0219 2.61355   1
   2   1 -15 0.06553 0.72142   2
   2   1 -15 2.98463 0.78494   1
  -2  -1  15 1.77167 0.83742   1
  -2  -1  15 -0.3034 0.77782   2
   1   1 -15 7.28074 0.88864   1
   1   1 -15 -0.2542 0.61311   2
  -1  -1  15 7.49188 1.02989   1
  -1  -1  15 -0.2132 0.73876   2
   0   1 -15 0.23466 0.56029   2
   0   1 -15 19.0591 1.23142   1
   0  -1  15 19.8930 1.40163   1
   0  -1  15 0.57167 0.68537   2
  -1   1 -15 33.5019 1.60871   1
  -1   1 -15 0.48080 0.53950   2
   1  -1  15 0.44867 0.56181   2
   1  -1  15 28.8639 1.77294   1
  -2   1 -15 1.71031 0.59932   1
  -2   1 -15 0.69666 0.55088   2
   2  -1  15 0.00779 0.61855   2
   2  -1  15 1.10615 0.66862   1
  -3   1 -15 1.53510 0.53949   1
   3  -1  15 -0.3067 0.72336   2
   3  -1  15 1.50475 0.72684   1
   4  -1  15 0.75353 0.80802   2
   4  -1  15 23.2703 1.93651   1
   3   0 -15 14.7357 1.43915   1
   3   0 -15 0.47043 0.87187   2
  -3   0  15 16.0579 1.60130   1
   2   0 -15 0.17120 0.69196   2
   2   0 -15 6.55782 0.93030   1
  -2   0  15 10.5880 1.27424   1
  -2   0  15 -0.3438 0.71446   2
   1   0 -15 0.34868 0.54177   2
   1   0 -15 14.6886 1.10750   1
  -1   0  15 14.5883 1.29531   1
  -1   0  15 -0.6105 0.67391   2
   0   0 -15 7.89975 0.89814   1
   0   0 -15 0.37393 0.56665   2
   0   0  15 0.03288 0.64017   2
   0   0  15 8.57282 0.99203   1
  -1   0 -15 1.32748 0.55283   1
  -1   0 -15 -0.4341 0.49984   2
   1   0  15 0.14359 0.64449   2
   1   0  15 0.69475 0.66118   1
  -2   0 -15 0.09903 0.50361   2
  -2   0 -15 1.54975 0.54802   1
   2   0  15 0.60786 0.67638   1
   2   0  15 -0.0156 0.65946   2
   3   0  15 0.36388 0.75778   2
   3   0  15 40.2665 2.19034   1
   3  -1 -15 -0.1428 1.00568   2
   2  -1 -15 7.75766 0.94677   1
   2  -1 -15 0.35989 0.68393   2
  -2   1  15 7.26987 0.99582   1
  -2   1  15 0.27533 0.71671   2
   1  -1 -15 2.35907 0.66539   1
   1  -1 -15 -0.1871 0.56688   2
  -1   1  15 0.48594 0.71394   2
  -1   1  15 2.55374 0.78829   1
   0  -1 -15 2.56186 0.60145   1
   0  -1 -15 0.27714 0.51862   2
   0   1  15 0.31342 0.63082   2
   0   1  15 2.61671 0.70042   1
  -1  -1 -15 -0.3642 0.48384   2
  -1  -1 -15 2.09990 0.60742   1
   1   1  15 1.45351 0.69512   1
   1   1  15 0.00748 0.61626   2
  -2  -1 -15 0.43062 0.64256   2
  -2  -1 -15 0.13174 0.45453   1
   2   1  15 -0.1118 0.69331   2
   2   1  15 -0.5377 0.66937   1
   2  -2 -15 4.77772 0.81822   1
   2  -2 -15 -0.0205 0.57785   2
  -2   2  15 6.22186 1.04144   1
   1  -2 -15 0.66597 0.59126   2
   1  -2 -15 8.78022 0.98633   1
  -1   2  15 0.17853 0.69633   2
  -1   2  15 10.2953 1.17895   1
   0  -2 -15 0.18808 0.54916   2
   0  -2 -15 7.08210 0.80517   1
   0   2  15 9.96292 1.03511   1
   0   2  15 0.00010 0.65052   2
  -1  -2 -15 0.45627 0.54494   2
  -1  -2 -15 9.70068 0.85046   1
   1   2  15 9.43599 1.05615   1
   1   2  15 0.10501 0.65548   2
  -4  -2 -15 0.19975 1.07162   2
   2  -3 -15 0.47625 0.71744   1
   2  -3 -15 -0.5031 0.61443   2
   1  -3 -15 0.36052 0.55345   2
   1  -3 -15 10.3635 0.98216   1
  -1   3  15 11.4638 1.18540   1
   0  -3 -15 15.7815 1.10257   1
   0  -3 -15 0.53372 0.56141   2
   0   3  15 14.8388 1.29890   1
   0   3  15 -0.1006 0.66950   2
  -1  -3 -15 1.14042 0.55345   2
  -1  -3 -15 28.4998 1.50959   1
   1   3  15 28.9167 1.72028   1
   1   3  15 0.14614 0.67715   2
  -3  -3 -15 -0.1143 0.89263   2
  -3  -3 -15 3.12081 1.01328   1
  -4  -3 -15 0.11210 1.01830   2
  -4  -3 -15 4.79265 1.18628   1
   2  -4 -15 1.27360 0.71329   1
   2  -4 -15 -0.4638 0.70134   2
   1  -4 -15 8.76128 0.99747   1
   1  -4 -15 0.59706 0.59982   2
  -1   4  15 9.97446 1.07605   1
   0  -4 -15 65.1868 2.80480   1
   0  -4 -15 1.71275 0.53677   2
   0   4  15 0.69647 0.70696   2
   0   4  15 64.5757 3.11891   1
  -2  -4 -15 0.87023 0.84153   1
  -2  -4 -15 -0.0566 0.81235   2
  -3  -4 -15 0.47530 0.92375   1
  -3  -4 -15 0.94679 0.86775   2
  -4  -4 -15 0.63127 1.05642   1
  -4  -4 -15 0.34969 1.03439   2
   2  -5 -15 1.38740 0.69797   1
  -2   5  15 -0.2764 0.85403   2
   1  -5 -15 11.5465 1.05648   1
   0   5  15 16.0934 1.38995   1
  -2  -5 -15 0.65922 0.82218   2
  -2  -5 -15 2.78217 0.96519   1
  -3  -5 -15 0.31589 0.94227   2
  -3  -5 -15 0.97807 0.91958   1
   4   5  15 -0.4472 1.21364   2
  -1   6  15 -0.5409 0.81139   2
  -2  -6 -15 1.51579 0.89265   1
  -2  -6 -15 0.68757 0.84222   2
  -3  -6 -15 -0.2785 0.81456   2
  -3  -6 -15 1.91225 1.04446   1
   3   6  15 0.07597 0.94762   2
  -2  -7 -15 2.57899 0.95608   1
  -2  -7 -15 0.18569 0.82077   2
   2   7  15 0.15312 0.97895   2
   0  -5  16 9.48252 1.25203   1
   1  -5  16 0.78659 0.78088   2
   1  -5  16 5.96185 1.02233   1
   1   4 -16 10.3356 1.43991   1
   1   4 -16 0.65253 1.08816   2
  -1  -4  16 -0.5111 1.05725   2
  -1  -4  16 5.49829 1.31416   1
   0   4 -16 0.24124 0.71378   2
   0   4 -16 -0.4229 0.68622   1
   0  -4  16 0.16738 0.79592   1
   0  -4  16 0.44792 0.79737   2
  -1   4 -16 -0.7123 0.63918   2
  -1   4 -16 1.12054 0.75921   1
   1  -4  16 1.53491 0.87871   1
   1  -4  16 0.58047 0.84016   2
  -2   4 -16 0.65163 0.72272   1
  -2   4 -16 -0.0810 0.64871   2
   2  -4  16 -0.2017 0.74897   2
   2  -4  16 1.40680 0.66469   1
   1   3 -16 0.27278 0.78841   2
   1   3 -16 15.0709 1.37353   1
  -1  -3  16 14.9811 1.48431   1
  -1  -3  16 -0.5363 0.84477   2
   0   3 -16 0.08903 0.66966   1
   0   3 -16 0.59305 0.70813   2
   0  -3  16 -0.5365 0.88129   2
   0  -3  16 0.25969 0.83730   1
  -1   3 -16 0.05898 0.66396   2
  -1   3 -16 0.17266 0.64192   1
   1  -3  16 0.07986 0.79884   2
   1  -3  16 -0.1134 0.77391   1
  -2   3 -16 1.10712 0.71825   1
  -2   3 -16 0.26586 0.63341   2
   2  -3  16 0.96440 0.79346   1
   2  -3  16 -0.4428 0.78027   2
  -3   3 -16 -0.4267 0.61456   2
  -3   3 -16 -0.5523 0.69648   1
   3  -3  16 -0.3822 0.76428   2
   2   2 -16 -0.2955 0.73481   2
   2   2 -16 -0.0184 0.80497   1
  -2  -2  16 0.29518 0.92832   1
   1   2 -16 0.28796 0.71634   2
   1   2 -16 21.6857 1.42916   1
  -1  -2  16 19.3467 1.64607   1
  -1  -2  16 -0.3306 0.80968   2
   0   2 -16 0.25176 0.63932   1
   0   2 -16 -0.6523 0.63854   2
   0  -2  16 0.76960 0.79495   1
   0  -2  16 0.33433 0.74939   2
  -1   2 -16 0.77592 0.60469   1
  -1   2 -16 -0.1355 0.59961   2
   1  -2  16 0.04838 0.71615   2
   1  -2  16 0.88492 0.76542   1
  -2   2 -16 -0.1503 0.60223   2
  -2   2 -16 0.88969 0.65191   1
   2  -2  16 0.08070 0.75394   2
   2  -2  16 0.95546 0.74125   1
  -3   2 -16 0.44426 0.64775   1
  -3   2 -16 -0.6567 0.50500   2
   3  -2  16 -0.4189 0.68791   1
   3  -2  16 -0.1390 0.78983   2
   2   1 -16 1.21302 0.82197   1
   2   1 -16 0.39248 0.83154   2
  -2  -1  16 -0.2805 0.85395   2
  -2  -1  16 2.93714 0.99609   1
   1   1 -16 1.53308 0.73292   1
   1   1 -16 0.07894 0.64001   2
  -1  -1  16 -0.2593 0.85990   2
  -1  -1  16 0.80520 0.86361   1
   0   1 -16 -0.2676 0.61819   2
   0   1 -16 1.64407 0.68276   1
   0  -1  16 1.13438 0.80004   1
   0  -1  16 -0.0966 0.71542   2
  -1   1 -16 41.9161 2.03905   1
  -1   1 -16 0.69636 0.60701   2
   1  -1  16 1.25830 0.73327   2
   1  -1  16 44.1640 2.30795   1
  -2   1 -16 0.13146 0.58903   2
  -2   1 -16 0.74525 0.58554   1
   2  -1  16 -0.1284 0.73864   1
   2  -1  16 0.37103 0.77210   2
   3  -1  16 0.76084 0.80453   2
   3  -1  16 10.1787 1.22492   1
   4  -1  16 0.01801 0.69336   2
   2   0 -16 14.9796 1.25541   1
   2   0 -16 0.60167 0.67848   2
  -2   0  16 17.7064 1.58829   1
  -2   0  16 -0.2655 0.83757   2
   1   0 -16 1.27951 0.70369   1
   1   0 -16 -0.1631 0.61502   2
  -1   0  16 0.78065 0.81044   2
  -1   0  16 1.15558 0.82441   1
   0   0 -16 3.53541 0.73139   1
   0   0 -16 0.04512 0.63884   2
   0   0  16 3.35746 0.85136   1
   0   0  16 0.17379 0.67466   2
  -1   0 -16 -0.5802 0.57784   2
  -1   0 -16 4.43210 0.70307   1
   1   0  16 -0.7001 0.65759   2
   1   0  16 4.28528 0.86126   1
  -2   0 -16 0.43084 0.56220   1
  -2   0 -16 0.90370 0.55557   2
   2   0  16 -0.0618 0.71579   2
   2   0  16 0.72718 0.72983   1
   3   0  16 28.8757 1.82242   1
   3   0  16 0.59981 0.84726   2
   4   0  16 72.8401 3.52694   1
   4   0  16 2.11622 0.88205   2
   2  -1 -16 0.24191 0.70975   2
   2  -1 -16 2.20365 0.78364   1
  -2   1  16 2.45808 0.91654   1
   1  -1 -16 1.05747 0.72390   1
   1  -1 -16 0.12365 0.66508   2
  -1   1  16 1.32356 0.80432   1
  -1   1  16 -0.2709 0.73939   2
   0  -1 -16 0.05034 0.60805   2
   0  -1 -16 5.16633 0.77170   1
   0   1  16 4.44258 0.87132   1
   0   1  16 0.29988 0.69830   2
  -1  -1 -16 0.59637 0.54297   2
  -1  -1 -16 7.71721 0.81010   1
   1   1  16 8.08565 1.03401   1
   1   1  16 0.03584 0.69212   2
   2   1  16 0.57044 0.72443   1
   2   1  16 -0.1245 0.72920   2
   2  -2 -16 -0.0099 0.68099   2
   2  -2 -16 0.25538 0.67943   1
  -2   2  16 -0.5483 0.90324   1
   1  -2 -16 1.77238 0.74859   1
   1  -2 -16 0.16659 0.67013   2
  -1   2  16 1.21687 0.77586   1
  -1   2  16 0.48553 0.74228   2
   0  -2 -16 0.38195 0.64211   2
   0  -2 -16 0.92437 0.63725   1
   0   2  16 1.02513 0.74524   1
   0   2  16 -0.2404 0.66721   2
  -1  -2 -16 5.16283 0.72975   1
  -1  -2 -16 0.41421 0.49573   2
   1   2  16 4.80314 0.93530   1
   1   2  16 0.89091 0.73697   2
   2   2  16 29.8525 1.85413   1
   2   2  16 0.24251 0.79090   2
   2  -3 -16 -0.2154 0.67382   2
   2  -3 -16 0.58441 0.71996   1
   1  -3 -16 2.14671 0.71442   1
   1  -3 -16 -0.3488 0.62568   2
  -1   3  16 2.84275 0.87650   1
   0  -3 -16 0.09486 0.58233   2
   0  -3 -16 0.76338 0.62630   1
   0   3  16 0.48295 0.81069   1
   0   3  16 -0.3402 0.71903   2
   1   3  16 1.76804 0.83973   1
   1   3  16 -0.4821 0.74886   2
  -3  -3 -16 0.21930 0.91871   2
  -3  -3 -16 1.06830 1.03111   1
  -4  -3 -16 2.37759 1.34932   1
   2  -4 -16 1.46999 0.81285   1
   2  -4 -16 -0.4259 0.75215   2
   1  -4 -16 -0.2021 0.62130   2
   1  -4 -16 1.24829 0.72637   1
  -1   4  16 1.75273 1.38296   1
   0  -4 -16 86.4995 3.57408   1
   0  -4 -16 3.46433 0.70394   2
   0   4  16 1.34928 0.80678   2
   0   4  16 82.5590 3.94887   1
   1   4  16 -0.2821 0.79687   2
   1   4  16 0.58643 0.82155   1
  -3  -4 -16 1.35139 1.05010   1
  -3  -4 -16 0.36248 0.91691   2
   1  -5 -16 2.42427 0.70932   1
   0   5  16 4.75150 1.00631   1
  -2  -5 -16 1.03506 0.92733   2
  -2  -5 -16 0.98540 0.93398   1
  -3  -5 -16 0.01578 0.90878   2
  -3  -5 -16 7.67728 1.20802   1
  -2  -6 -16 1.37491 0.94114   1
  -2  -6 -16 -0.2218 0.85126   2
   1  -4  17 3.61788 0.87166   1
   0   3 -17 -0.0582 0.68564   1
   0   3 -17 -0.5078 0.70901   2
   0  -3  17 0.10652 0.78783   2
   0  -3  17 -0.2438 0.78402   1
  -1   3 -17 0.26103 0.67414   2
  -1   3 -17 -0.1777 0.66504   1
   1  -3  17 0.16910 0.81268   2
   1  -3  17 0.56612 0.79905   1
  -2   3 -17 18.9215 1.35179   1
  -2   3 -17 0.85241 0.68884   2
   2  -3  17 0.11265 0.78920   2
   2  -3  17 18.2572 1.53384   1
   1   2 -17 0.05238 0.72313   2
   1   2 -17 3.09513 0.85441   1
  -1  -2  17 1.81347 0.94962   1
  -1  -2  17 0.28967 0.90234   2
   0   2 -17 0.06102 0.73688   2
   0   2 -17 0.20055 0.70270   1
   0  -2  17 -0.4044 0.85444   2
   0  -2  17 -0.2808 0.81168   1
  -1   2 -17 0.60358 0.67773   2
  -1   2 -17 -0.0928 0.68459   1
   1  -2  17 0.20639 0.82130   2
   1  -2  17 -0.5095 0.79749   1
  -2   2 -17 4.18263 0.78031   1
  -2   2 -17 -0.0907 0.69115   2
   2  -2  17 0.22264 0.77324   2
   2  -2  17 6.01713 0.99766   1
  -3   2 -17 0.23018 0.52184   1
   3  -2  17 -0.1290 0.65939   2
   3  -2  17 -0.2707 0.64254   1
   1   1 -17 -0.0788 0.67156   2
   1   1 -17 0.43213 0.70718   1
  -1  -1  17 -0.1308 0.82301   2
  -1  -1  17 -0.5548 0.95305   1
   0   1 -17 -0.0447 0.64355   2
   0   1 -17 6.07196 0.89978   1
   0  -1  17 8.14352 1.12992   1
   0  -1  17 0.10848 0.81730   2
  -1   1 -17 -0.1164 0.62867   2
  -1   1 -17 0.59422 0.63861   1
   1  -1  17 1.06278 0.72808   1
   1  -1  17 0.00905 0.81731   2
  -2   1 -17 -0.4474 0.65273   2
  -2   1 -17 0.37812 0.61864   1
   2  -1  17 0.50035 0.75542   1
   2  -1  17 0.45364 0.76207   2
   3  -1  17 2.11740 0.84049   1
   3  -1  17 0.39367 0.77545   2
  -2   0  17 0.39096 0.92676   2
  -2   0  17 6.23116 1.16867   1
   1   0 -17 0.12653 0.70123   2
   1   0 -17 6.42355 0.97895   1
  -1   0  17 9.89071 1.20758   1
  -1   0  17 0.37424 0.91806   2
   0   0 -17 -0.1706 0.64071   2
   0   0 -17 14.2531 1.22281   1
   0   0  17 -0.1593 0.78229   2
   0   0  17 17.9994 1.49839   1
  -1   0 -17 0.62638 0.62089   1
  -1   0 -17 -0.2685 0.65285   2
   1   0  17 0.63072 0.73110   1
   1   0  17 -0.5838 0.74791   2
  -2   0 -17 0.31414 0.48171   2
  -2   0 -17 0.32907 0.52911   1
   2   0  17 0.36262 0.81896   2
   2   0  17 0.50824 0.76240   1
   3   0  17 0.03535 0.86059   2
   3   0  17 28.8595 1.91082   1
  -2   1  17 9.43869 1.28081   1
   1  -1 -17 -0.1885 0.66340   2
   1  -1 -17 6.76547 0.87066   1
  -1   1  17 8.17538 1.14614   1
  -1   1  17 0.06248 0.85527   2
   0  -1 -17 -0.2055 0.61928   1
   0  -1 -17 -0.1389 0.59137   2
   0   1  17 0.34058 0.83151   1
   0   1  17 -0.3610 0.77114   2
  -1  -1 -17 0.26761 0.61604   1
  -1  -1 -17 0.40800 0.65928   2
   1   1  17 0.39791 0.84381   2
   1   1  17 0.38957 0.80705   1
   2   1  17 0.43455 0.87654   2
   2   1  17 13.1001 1.39279   1
   3   1  17 -0.0157 0.88814   1
   3   1  17 -0.1863 0.84864   2
  -2   2  17 -0.2126 0.91190   1
   1  -2 -17 0.35847 0.69506   2
   1  -2 -17 0.93787 0.72342   1
  -1   2  17 -0.3896 0.81811   2
  -1   2  17 0.29265 0.91761   1
   0  -2 -17 0.31655 0.68995   1
   0  -2 -17 0.15380 0.63633   2
   0   2  17 -0.1104 0.78318   2
   0   2  17 0.41768 0.80967   1
  -1  -2 -17 0.56733 0.56126   1
  -1  -2 -17 0.10096 0.51817   2
   1   2  17 0.42682 0.79590   2
   1   2  17 -0.2668 0.80682   1
   2   2  17 18.4953 1.53577   1
   2   2  17 0.46397 0.88697   2
   1  -3 -17 5.74569 0.92402   1
   1  -3 -17 -0.1236 0.68741   2
  -1   3  17 6.33631 1.08194   1
   0  -3 -17 4.57838 0.80437   1
   0  -3 -17 1.10909 0.64087   2
   0   3  17 7.01621 1.13096   1
   0   3  17 0.01174 0.79058   2
   1   3  17 0.17758 0.84647   1
   1   3  17 -0.0893 0.84338   2
   2   3  17 35.4809 2.14840   1
   1  -4 -17 0.64762 0.66061   2
   1  -4 -17 1.96973 0.73244   1
   0  -4 -17 3.32048 0.67674   1
   0  -4 -17 -0.2738 0.51042   2
   0   4  17 3.70918 0.99936   1
   0   4  17 0.21792 0.84073   2
   1   4  17 -0.2900 0.88597   2
   1   4  17 2.49917 0.98698   1
  -3  -4 -17 0.94096 1.27202   2
   0   5  17 1.39386 0.98380   1
   1   5  17 8.63791 1.21718   1
   1   5  17 -0.5395 0.93177   2
   0   2 -18 2.57828 1.27573   1
   0   2 -18 0.97079 0.96105   2
  -1   2 -18 -0.1161 0.68272   2
  -1   2 -18 -0.4455 0.67978   1
   1  -2  18 -0.0248 0.92871   2
   1  -2  18 -0.4747 0.83084   1
  -2   2 -18 -0.6374 0.58302   2
  -2   2 -18 0.65843 0.58920   1
   2  -2  18 -0.4876 0.67402   1
  -1  -1  18 0.12553 1.25191   2
   0   1 -18 -0.2533 0.66386   1
   0   1 -18 0.26620 0.68845   2
   0  -1  18 0.29094 0.92962   2
   0  -1  18 0.35849 0.88340   1
  -1   1 -18 -0.2233 0.72220   2
  -1   1 -18 1.37923 0.76337   1
   1  -1  18 1.96535 0.92293   1
   1  -1  18 0.56095 0.92291   2
  -2   1 -18 1.26587 0.63388   2
  -2   1 -18 0.79591 0.66517   1
   2  -1  18 -0.0882 0.73112   1
   2  -1  18 0.43939 0.77970   2
  -1   0  18 -0.2933 0.97776   2
  -1   0  18 0.01388 0.99677   1
   0   0 -18 -0.0605 0.69144   2
   0   0 -18 18.0692 1.43319   1
   0   0  18 21.2964 1.71705   1
   0   0  18 0.61214 0.92526   2
  -1   0 -18 0.16744 0.70521   1
  -1   0 -18 -0.1941 0.66021   2
   1   0  18 0.01192 0.81970   2
   1   0  18 0.29800 0.79490   1
  -2   0 -18 8.90712 1.18796   1
   2   0  18 0.13254 0.84393   2
   2   0  18 6.17668 1.12053   1
   1  -1 -18 0.01137 0.66109   2
   1  -1 -18 0.83575 0.70298   1
  -1   1  18 2.31118 1.04595   1
  -1   1  18 -0.9878 0.93309   2
   0  -1 -18 1.22866 0.73890   1
   0  -1 -18 0.10219 0.63618   2
   0   1  18 -0.4818 0.91946   1
  -1  -1 -18 -0.5692 0.60045   2
  -1  -1 -18 -0.0540 0.64775   1
   1   1  18 -0.3050 0.82495   2
   1   1  18 0.25374 0.84394   1
   2   1  18 0.84020 0.91396   2
   2   1  18 21.7952 1.68673   1
   1  -2 -18 4.91405 0.89541   1
   1  -2 -18 0.54140 0.69700   2
  -1   2  18 0.00232 0.95057   2
  -1   2  18 4.51606 1.07480   1
   0  -2 -18 3.49626 0.79315   1
   0  -2 -18 0.32199 0.69983   2
   0   2  18 4.30213 1.06776   1
   0   2  18 -0.3037 0.89675   2
   1   2  18 -0.1967 0.89191   2
   1   2  18 4.11584 1.06202   1
   2   2  18 0.29105 0.93019   2
   2   2  18 20.4154 1.65816   1
   0  -3 -18 2.07387 0.71627   1
   0  -3 -18 -0.1246 0.63078   2
   0   3  18 1.73890 0.96241   1
   0   3  18 0.37120 0.87901   2
   1   3  18 26.0898 1.89039   1
   2   3  18 0.52251 0.94512   1
   2   3  18 0.78696 0.99562   2
   0   4  18 0.04954 0.99706   1
   1   4  18 0.29044 0.93276   2
   1   4  18 -0.1840 0.95347   1
  -1   0 -19 0.43434 0.67316   2
  -1   0 -19 -0.0740 0.61624   1
   0   1  19 0.62900 1.30604   2
  -1  -1 -19 1.11544 0.61458   1
  -1  -1 -19 0.47483 0.58678   2
   1   2  19 -0.2807 1.12823   2
   0   0   0    0.00    0.00   0
;
_shelx_hkl_checksum              31584
_shelx_res_file
;
TITL jtm914_4_0m_a.res in P-1
    jtm914_5.res
    created by SHELXL-2018/1 at 10:01:34 on 27-Mar-2018
REM Old TITL jtm914_4_0m in P-1
REM SHELXT solution in P-1
REM R1 0.135,  Rweak 0.004,  Alpha 0.032,  Orientation as input
REM Formula found by SHELXT:  C12 N2 O3
CELL  0.71073   4.8082   8.2600  14.4135   84.072   81.473   85.140
ZERR    2.000   0.0018   0.0031   0.0057    0.007    0.005    0.005
LATT  1
SFAC C H N O
UNIT 24 28 4 6
TEMP -173
SIZE 0.127 0.144 0.185
L.S. 5
BOND $H
LIST 4
FMAP 2
PLAN 5
EQIV $1 -x, -y+1, -z
HTAB N1 O1_$1
HTAB N2 O2
EQIV $2 x+1, y, z
HTAB C8 O1_$2
EQIV $3 x-1, y, z
HTAB C9 O2_$3
EQIV $4 -x+1, -y, -z+1
HTAB C11 O2_$4
ACTA 51
EADP N2 N2A
EADP C8 C8A
EADP C9 C9A
EADP O2 O2A
EXYZ C9 C9A
SADI 0.002 C10 O2 C10 O2A
SADI 0.002 C1 N2 C1 N2A
SADI 0.002 N2 C8 N2A C8A
SADI 0.002 C8 C9 C8A C9A
CONF
OMIT -2 -2 -13
OMIT -1 -4 -13
WGHT    0.101800
BASF   0.03279
FVAR       0.60188   0.92966
O1    4   -0.016950    0.317308    0.083014    11.00000    0.03172    0.03173 =
         0.02741    0.00066   -0.01308   -0.00965
PART 1
O2    4    0.481542    0.128808    0.360657    21.00000    0.02605    0.03376 =
         0.03172    0.00214   -0.01335   -0.00773
PART 2
O2A   4    0.369709    0.165443    0.383579   -21.00000    0.02605    0.03376 =
         0.03172    0.00214   -0.01335   -0.00773
PART 0
O3    4    0.157352   -0.053672    0.365969    11.00000    0.02743    0.02730 =
         0.02640    0.00376   -0.01151   -0.00555
N1    3    0.216129    0.543358    0.087538    11.00000    0.02681    0.02697 =
         0.02184    0.00102   -0.01027   -0.00452
H1A   2    0.151315    0.588578    0.036699    11.00000    0.04177
PART 1
N2    3    0.344780    0.429013    0.260564    21.00000    0.03043    0.02634 =
         0.02224    0.00103   -0.01021   -0.00561
AFIX   3
H2A   2    0.434112    0.380595    0.308727    21.00000   -1.20000
AFIX   0
PART 2
N2A   3    0.454782    0.400042    0.235538   -21.00000    0.03043    0.02634 =
         0.02224    0.00103   -0.01021   -0.00561
AFIX   3
H2AA  2    0.529600    0.386739    0.290485   -21.00000   -1.20000
AFIX   0
PART 0
C1    1    0.471378    0.569548    0.216456    11.00000    0.02612    0.02391 =
         0.02691   -0.00187   -0.00756   -0.00220
C2    1    0.648426    0.654233    0.258333    11.00000    0.02961    0.02897 =
         0.02746   -0.00401   -0.01119   -0.00396
H2    2    0.706739    0.606974    0.317263    11.00000    0.02930
C3    1    0.747606    0.799971    0.214822    11.00000    0.02769    0.03016 =
         0.03562   -0.00960   -0.01021   -0.00400
H3    2    0.866559    0.855481    0.245786    11.00000    0.03231
C4    1    0.671207    0.861880    0.128726    11.00000    0.02992    0.02366 =
         0.03601   -0.00114   -0.00494   -0.00654
H4    2    0.743165    0.962191    0.100135    11.00000    0.03335
C5    1    0.496393    0.777535    0.085249    11.00000    0.02926    0.02831 =
         0.02734    0.00050   -0.00813   -0.00371
H5    2    0.445404    0.816195    0.025772    11.00000    0.03563
C6    1    0.396539    0.631214    0.128481    11.00000    0.02067    0.02398 =
         0.02675   -0.00334   -0.00631   -0.00255
C7    1    0.147143    0.391681    0.118999    11.00000    0.02336    0.02856 =
         0.02285   -0.00199   -0.00642   -0.00431
PART 1
C8    1    0.303035    0.308165    0.197995    21.00000    0.02432    0.02614 =
         0.02365   -0.00177   -0.00867   -0.00571
AFIX  13
H8    2    0.492195    0.263176    0.169224    21.00000   -1.20000
AFIX   0
C9    1    0.143410    0.168566    0.250147    21.00000    0.02586    0.02654 =
         0.02661    0.00077   -0.01028   -0.00565
AFIX  23
H9A   2   -0.049192    0.211036    0.274807    21.00000   -1.20000
H9B   2    0.125712    0.088460    0.205156    21.00000   -1.20000
AFIX   0
PART 2
C8A   1    0.181343    0.347944    0.223513   -21.00000    0.02432    0.02614 =
         0.02365   -0.00177   -0.00867   -0.00571
AFIX  13
H8A   2    0.031427    0.412289    0.262872   -21.00000   -1.20000
AFIX   0
C9A   1    0.143410    0.168566    0.250147   -21.00000    0.02586    0.02654 =
         0.02661    0.00077   -0.01028   -0.00565
AFIX  23
H9A1  2   -0.061579    0.155281    0.264919   -21.00000   -1.20000
H9A2  2    0.213338    0.110327    0.193641   -21.00000   -1.20000
AFIX   0
PART 0
C10   1    0.280354    0.082609    0.330623    11.00000    0.02320    0.02641 =
         0.02487   -0.00280   -0.00561   -0.00307
C11   1    0.276125   -0.143494    0.445566    11.00000    0.02842    0.02961 =
         0.02593    0.00157   -0.01207   -0.00176
H11A  2    0.480237   -0.166433    0.423821    11.00000    0.02838
H11B  2    0.250557   -0.071872    0.495715    11.00000    0.02090
C12   1    0.126359   -0.297513    0.469971    11.00000    0.03494    0.03376 =
         0.03533    0.00507   -0.01242   -0.00649
H12A  2    0.204994   -0.359804    0.522776    11.00000    0.04204
H12B  2    0.152572   -0.359114    0.415993    11.00000    0.04079
H12C  2   -0.079250   -0.270637    0.491474    11.00000    0.04803
HKLF 5
REM  jtm914_4_0m_a.res in P-1
REM R1 =  0.0613 for    4504 Fo > 4sig(Fo)  and  0.1185 for all    9489 data
REM    205 parameters refined using      4 restraints
END
WGHT      0.1018      0.0000
REM Highest difference peak  1.161,  deepest hole -0.823,  1-sigma level  0.217
Q1    1   0.2014 -0.0957  0.4024  11.00000  0.05    1.16
Q2    1   0.4129  0.6175  0.1859  11.00000  0.05    1.03
Q3    1   0.1916  0.1272  0.2959  11.00000  0.05    0.93
Q4    1  -0.0500  0.2982  0.1225  11.00000  0.05    0.93
Q5    1   0.2560 -0.0537  0.3173  11.00000  0.05    0.87
;
_shelx_res_checksum              78804
loop_
_space_group_symop_operation_xyz
'x, y, z'
'-x, -y, -z'
loop_
_atom_site_type_symbol
_atom_site_label
_atom_site_fract_x
_atom_site_fract_y
_atom_site_fract_z
_atom_site_U_iso_or_equiv
_atom_site_adp_type
_atom_site_calc_flag
_atom_site_occupancy
_atom_site_disorder_assembly
_atom_site_disorder_group
O O1 -0.0170(4) 0.3173(2) 0.08301(11) 0.0292(5) Uani d 1 . .
O O2 0.4815(5) 0.1288(3) 0.36066(16) 0.0296(6) Uani d 0.930(5) A 1
O O2A 0.370(7) 0.165(3) 0.3836(18) 0.0296(6) Uani d 0.070(5) A 2
O O3 0.1574(3) -0.0537(2) 0.36597(11) 0.0265(5) Uani d 1 . .
N N1 0.2161(4) 0.5434(3) 0.08754(15) 0.0246(5) Uani d 1 . .
H H1A 0.151(6) 0.589(3) 0.037(2) 0.042(8) Uiso d 1 . .
N N2 0.3448(6) 0.4290(3) 0.26056(15) 0.0257(7) Uani d 0.930(5) A 1
H H2A 0.434112 0.380595 0.308727 0.031 Uiso d 0.930(5) A 1
N N2A 0.455(6) 0.4000(8) 0.236(3) 0.0257(7) Uani d 0.070(5) A 2
H H2AA 0.529600 0.386739 0.290485 0.031 Uiso d 0.070(5) A 2
C C1 0.4714(5) 0.5695(3) 0.21646(17) 0.0253(6) Uani d 1 . .
C C2 0.6484(6) 0.6542(3) 0.25833(18) 0.0277(6) Uani d 1 . .
H H2 0.707(6) 0.607(3) 0.3173(19) 0.029(7) Uiso d 1 . .
C C3 0.7476(6) 0.8000(3) 0.21482(19) 0.0300(6) Uani d 1 . .
H H3 0.867(6) 0.855(3) 0.2458(19) 0.032(7) Uiso d 1 . .
C C4 0.6712(6) 0.8619(3) 0.12873(19) 0.0297(6) Uani d 1 . .
H H4 0.743(6) 0.962(3) 0.1001(18) 0.033(7) Uiso d 1 . .
C C5 0.4964(6) 0.7775(3) 0.08525(19) 0.0280(6) Uani d 1 . .
H H5 0.445(6) 0.816(3) 0.026(2) 0.036(8) Uiso d 1 . .
C C6 0.3965(5) 0.6312(3) 0.12848(17) 0.0234(6) Uani d 1 . .
C C7 0.1471(5) 0.3917(3) 0.11900(16) 0.0245(6) Uani d 1 . .
C C8 0.3030(7) 0.3082(3) 0.19800(18) 0.0240(7) Uani d 0.930(5) A 1
H H8 0.492195 0.263176 0.169224 0.029 Uiso calc 0.930(5) A 1
C C9 0.1434(5) 0.1686(3) 0.25015(17) 0.0257(6) Uani d 0.930(5) A 1
H H9A -0.049192 0.211036 0.274807 0.031 Uiso calc 0.930(5) A 1
H H9B 0.125712 0.088460 0.205156 0.031 Uiso calc 0.930(5) A 1
C C8A 0.181(6) 0.3479(12) 0.224(3) 0.0240(7) Uani d 0.070(5) A 2
H H8A 0.031427 0.412289 0.262872 0.029 Uiso calc 0.070(5) A 2
C C9A 0.1434(5) 0.1686(3) 0.25015(17) 0.0257(6) Uani d 0.070(5) A 2
H H9A1 -0.061579 0.155281 0.264919 0.031 Uiso calc 0.070(5) A 2
H H9A2 0.213338 0.110327 0.193641 0.031 Uiso calc 0.070(5) A 2
C C10 0.2804(5) 0.0826(3) 0.33062(17) 0.0245(6) Uani d 1 . .
C C11 0.2761(6) -0.1435(3) 0.44557(18) 0.0275(6) Uani d 1 . .
H H11A 0.480(6) -0.166(3) 0.4238(17) 0.028(7) Uiso d 1 . .
H H11B 0.251(5) -0.072(3) 0.4957(17) 0.021(6) Uiso d 1 . .
C C12 0.1264(7) -0.2975(4) 0.4700(2) 0.0343(7) Uani d 1 . .
H H12A 0.205(6) -0.360(3) 0.523(2) 0.042(8) Uiso d 1 . .
H H12B 0.153(6) -0.359(3) 0.416(2) 0.041(8) Uiso d 1 . .
H H12C -0.079(7) -0.271(3) 0.491(2) 0.048(9) Uiso d 1 . .
loop_
_atom_site_aniso_label
_atom_site_aniso_U_11
_atom_site_aniso_U_22
_atom_site_aniso_U_33
_atom_site_aniso_U_12
_atom_site_aniso_U_13
_atom_site_aniso_U_23
O1 0.0317(10) 0.0317(11) 0.0274(10) -0.0096(8) -0.0131(8) 0.0007(7)
O2 0.0261(12) 0.0338(12) 0.0317(12) -0.0077(10) -0.0134(10) 0.0021(9)
O2A 0.0261(12) 0.0338(12) 0.0317(12) -0.0077(10) -0.0134(10) 0.0021(9)
O3 0.0274(10) 0.0273(10) 0.0264(9) -0.0055(8) -0.0115(7) 0.0038(7)
N1 0.0268(12) 0.0270(12) 0.0218(11) -0.0045(9) -0.0103(9) 0.0010(9)
N2 0.0304(16) 0.0263(12) 0.0222(13) -0.0056(11) -0.0102(10) 0.0010(9)
N2A 0.0304(16) 0.0263(12) 0.0222(13) -0.0056(11) -0.0102(10) 0.0010(9)
C1 0.0261(13) 0.0239(14) 0.0269(13) -0.0022(10) -0.0076(10) -0.0019(10)
C2 0.0296(14) 0.0290(15) 0.0275(13) -0.0040(11) -0.0112(11) -0.0040(11)
C3 0.0277(14) 0.0302(15) 0.0356(15) -0.0040(11) -0.0102(11) -0.0096(11)
C4 0.0299(14) 0.0237(14) 0.0360(15) -0.0065(11) -0.0049(11) -0.0011(11)
C5 0.0293(14) 0.0283(15) 0.0273(13) -0.0037(11) -0.0081(11) 0.0005(11)
C6 0.0207(13) 0.0240(13) 0.0268(13) -0.0026(10) -0.0063(10) -0.0033(10)
C7 0.0234(13) 0.0286(14) 0.0228(12) -0.0043(10) -0.0064(10) -0.0020(10)
C8 0.0243(16) 0.0261(15) 0.0237(14) -0.0057(12) -0.0087(11) -0.0018(11)
C9 0.0259(13) 0.0265(14) 0.0266(13) -0.0056(11) -0.0103(10) 0.0008(10)
C8A 0.0243(16) 0.0261(15) 0.0237(14) -0.0057(12) -0.0087(11) -0.0018(11)
C9A 0.0259(13) 0.0265(14) 0.0266(13) -0.0056(11) -0.0103(10) 0.0008(10)
C10 0.0232(13) 0.0264(14) 0.0249(12) -0.0031(10) -0.0056(10) -0.0028(10)
C11 0.0284(15) 0.0296(15) 0.0259(13) -0.0018(11) -0.0121(11) 0.0016(11)
C12 0.0349(17) 0.0338(17) 0.0353(16) -0.0065(13) -0.0124(13) 0.0051(13)
loop_
_atom_type_symbol
_atom_type_description
_atom_type_scat_dispersion_real
_atom_type_scat_dispersion_imag
_atom_type_scat_source
C C 0.0033 0.0016 'International Tables Vol C Tables 4.2.6.8 and 6.1.1.4'
H H 0.0000 0.0000 'International Tables Vol C Tables 4.2.6.8 and 6.1.1.4'
N N 0.0061 0.0033 'International Tables Vol C Tables 4.2.6.8 and 6.1.1.4'
O O 0.0106 0.0060 'International Tables Vol C Tables 4.2.6.8 and 6.1.1.4'
loop_
_geom_angle_atom_site_label_1
_geom_angle_atom_site_label_2
_geom_angle_atom_site_label_3
_geom_angle
C10 O3 C11 115.31(18)
C7 N1 C6 124.1(2)
C7 N1 H1A 117.8(19)
C6 N1 H1A 118.0(19)
C1 N2 C8 115.6(2)
C1 N2 H2A 112.6
C8 N2 H2A 110.1
C1 N2A C8A 112.4(11)
C1 N2A H2AA 98.5
C8A N2A H2AA 125.0
C2 C1 C6 119.3(2)
C2 C1 N2 123.2(2)
C6 C1 N2 117.3(2)
C2 C1 N2A 121.8(13)
C6 C1 N2A 113.8(15)
C1 C2 C3 120.6(2)
C1 C2 H2 118.3(15)
C3 C2 H2 121.0(15)
C4 C3 C2 120.1(2)
C4 C3 H3 121.5(16)
C2 C3 H3 118.4(16)
C3 C4 C5 120.0(2)
C3 C4 H4 118.4(17)
C5 C4 H4 121.5(16)
C4 C5 C6 120.1(2)
C4 C5 H5 121.4(17)
C6 C5 H5 118.4(17)
C5 C6 C1 119.8(2)
C5 C6 N1 121.9(2)
C1 C6 N1 118.3(2)
O1 C7 N1 123.1(2)
O1 C7 C8 121.0(2)
N1 C7 C8 115.7(2)
O1 C7 C8A 119.4(6)
N1 C7 C8A 112.8(5)
N2 C8 C9 111.9(2)
N2 C8 C7 109.1(2)
C9 C8 C7 110.6(2)
N2 C8 H8 108.4
C9 C8 H8 108.4
C7 C8 H8 108.4
C10 C9 C8 113.8(2)
C10 C9 H9A 108.8
C8 C9 H9A 108.8
C10 C9 H9B 108.8
C8 C9 H9B 108.8
H9A C9 H9B 107.7
N2A C8A C9A 114.8(11)
N2A C8A C7 107(3)
C9A C8A C7 110(2)
N2A C8A H8A 108.4
C9A C8A H8A 108.4
C7 C8A H8A 108.4
C10 C9A C8A 119.1(12)
C10 C9A H9A1 107.5
C8A C9A H9A1 107.5
C10 C9A H9A2 107.5
C8A C9A H9A2 107.5
H9A1 C9A H9A2 107.0
O2 C10 O3 123.0(2)
O2A C10 O3 119.3(15)
O2A C10 C9A 118.3(15)
O3 C10 C9A 111.9(2)
O2 C10 C9 125.1(2)
O3 C10 C9 111.9(2)
O3 C11 C12 107.2(2)
O3 C11 H11A 106.5(14)
C12 C11 H11A 111.7(14)
O3 C11 H11B 106.9(15)
C12 C11 H11B 114.0(14)
H11A C11 H11B 110(2)
C11 C12 H12A 108.3(17)
C11 C12 H12B 109.2(17)
H12A C12 H12B 111(2)
C11 C12 H12C 110.0(16)
H12A C12 H12C 107(2)
H12B C12 H12C 111(3)
loop_
_geom_bond_atom_site_label_1
_geom_bond_atom_site_label_2
_geom_bond_distance
O1 C7 1.240(3)
O2 C10 1.221(3)
O2A C10 1.221(5)
O3 C10 1.335(3)
O3 C11 1.463(3)
N1 C7 1.339(3)
N1 C6 1.405(3)
N1 H1A 0.87(3)
N2 C1 1.405(3)
N2 C8 1.457(3)
N2 H2A 0.9101
N2A C1 1.405(5)
N2A C8A 1.457(5)
N2A H2AA 0.900
C1 C2 1.385(3)
C1 C6 1.403(3)
C2 C3 1.387(4)
C2 H2 0.97(3)
C3 C4 1.382(4)
C3 H3 0.95(3)
C4 C5 1.389(4)
C4 H4 0.95(3)
C5 C6 1.391(3)
C5 H5 0.94(3)
C7 C8 1.529(4)
C7 C8A 1.54(4)
C8 C9 1.511(3)
C8 H8 1.0000
C9 C10 1.503(3)
C9 H9A 0.9900
C9 H9B 0.9900
C8A C9A 1.511(5)
C8A H8A 1.0000
C9A C10 1.503(3)
C9A H9A1 0.9900
C9A H9A2 0.9900
C11 C12 1.499(4)
C11 H11A 0.99(3)
C11 H11B 0.97(2)
C12 H12A 0.98(3)
C12 H12B 0.96(3)
C12 H12C 1.00(3)
loop_
_geom_hbond_atom_site_label_D
_geom_hbond_atom_site_label_H
_geom_hbond_atom_site_label_A
_geom_hbond_site_symmetry_A
_geom_hbond_distance_DH
_geom_hbond_distance_HA
_geom_hbond_distance_DA
_geom_hbond_angle_DHA
_geom_hbond_publ_flag
N1 H1A O1 2_565 0.87(3) 1.99(4) 2.866(3) 177(3) yes
N2 H2A O2 . 0.91 2.14 2.816(3) 130 yes
C3 H3 O3 1_665 0.95(3) 2.59(3) 3.508(3) 165(2) yes
C8 H8 O1 1_655 1.00 2.55 3.443(4) 148 yes
C9 H9A O2 1_455 0.99 2.52 3.367(4) 144 yes
C11 H11B O2 2_656 0.97(2) 2.58(3) 3.199(3) 121.9(18) yes
loop_
_geom_torsion_atom_site_label_1
_geom_torsion_atom_site_label_2
_geom_torsion_atom_site_label_3
_geom_torsion_atom_site_label_4
_geom_torsion
C8 N2 C1 C2 -147.1(3)
C8 N2 C1 C6 37.4(4)
C8A N2A C1 C2 153(3)
C8A N2A C1 C6 -53(3)
C6 C1 C2 C3 1.1(4)
N2 C1 C2 C3 -174.4(2)
N2A C1 C2 C3 154.5(17)
C1 C2 C3 C4 -0.3(4)
C2 C3 C4 C5 -0.5(4)
C3 C4 C5 C6 0.4(4)
C4 C5 C6 C1 0.4(4)
C4 C5 C6 N1 179.1(2)
C2 C1 C6 C5 -1.1(4)
N2 C1 C6 C5 174.6(2)
N2A C1 C6 C5 -156.6(13)
C2 C1 C6 N1 -179.8(2)
N2 C1 C6 N1 -4.1(3)
N2A C1 C6 N1 24.7(14)
C7 N1 C6 C5 169.9(2)
C7 N1 C6 C1 -11.4(4)
C6 N1 C7 O1 178.5(2)
C6 N1 C7 C8 -6.4(3)
C6 N1 C7 C8A 23.1(14)
C1 N2 C8 C9 -175.0(2)
C1 N2 C8 C7 -52.3(4)
O1 C7 C8 N2 -148.2(2)
N1 C7 C8 N2 36.6(3)
O1 C7 C8 C9 -24.7(3)
N1 C7 C8 C9 160.1(2)
N2 C8 C9 C10 -56.8(3)
C7 C8 C9 C10 -178.6(2)
C1 N2A C8A C9A -176(2)
C1 N2A C8A C7 62(3)
O1 C7 C8A N2A 157.1(11)
N1 C7 C8A N2A -46.4(19)
O1 C7 C8A C9A 32(2)
N1 C7 C8A C9A -171.4(12)
N2A C8A C9A C10 34(4)
C7 C8A C9A C10 154.6(10)
C11 O3 C10 O2 1.4(4)
C11 O3 C10 O2A -35(2)
C11 O3 C10 C9A -179.2(2)
C11 O3 C10 C9 -179.2(2)
C8A C9A C10 O2A 14(2)
C8A C9A C10 O3 159.0(17)
C8 C9 C10 O2 8.6(4)
C8 C9 C10 O3 -170.8(2)
C10 O3 C11 C12 -175.7(2)

_cod_database_fobs_code 1549351
