#------------------------------------------------------------------------------
#$Date: 2019-01-12 02:21:20 +0200 (Sat, 12 Jan 2019) $
#$Revision: 213007 $
#$URL: file:///home/coder/svn-repositories/cod/cif/1/55/04/1550455.cif $
#------------------------------------------------------------------------------
#
# This file is available in the Crystallography Open Database (COD),
# http://www.crystallography.net/. The original data for this entry
# were provided by IUCr Journals, http://journals.iucr.org/.
#
# The file may be used within the scientific community so long as
# proper attribution is given to the journal article from which the
# data were obtained.
#
data_1550455
loop_
_publ_author_name
'Babor, Martin'
'Nievergelt, Philipp P.'
'\<Cejka, Jan'
'Zvon\'i\<cek, V\'it'
'Spingler, Bernhard'
_publ_section_title
;
 Microbatch under-oil salt screening of organic cations: single-crystal
 growth of active pharmaceutical ingredients
;
_journal_issue                   1
_journal_name_full               IUCrJ
_journal_page_first              145
_journal_page_last               151
_journal_paper_doi               10.1107/S2052252518017876
_journal_volume                  6
_journal_year                    2019
_chemical_absolute_configuration rmad
_chemical_formula_moiety         '2(C10 H16 N O), C4 H4 O5, H2 O'
_chemical_formula_sum            'C24 H38 N2 O8'
_chemical_formula_weight         482.56
_space_group_crystal_system      triclinic
_space_group_IT_number           1
_space_group_name_Hall           'P 1'
_space_group_name_H-M_alt        'P 1'
_symmetry_space_group_name_Hall  'P 1'
_symmetry_space_group_name_H-M   'P 1'
_atom_sites_solution_hydrogens   mixed
_audit_creation_date             2018-09-21
_audit_creation_method
;
Olex2 1.2
(compiled 2018.05.29 svn.r3508 for OlexSys, GUI svn.r5506)
;
_cell_angle_alpha                94.7215(8)
_cell_angle_beta                 96.6693(8)
_cell_angle_gamma                109.5246(11)
_cell_formula_units_Z            1
_cell_length_a                   5.82130(7)
_cell_length_b                   7.27088(8)
_cell_length_c                   15.90214(13)
_cell_measurement_reflns_used    16192
_cell_measurement_temperature    159.99(10)
_cell_measurement_theta_max      78.6150
_cell_measurement_theta_min      5.6250
_cell_volume                     624.781(12)
_computing_cell_refinement       'CrysAlisPro 1.171.40.16c (Rigaku OD, 2018)'
_computing_data_collection       'CrysAlisPro 1.171.40.16c (Rigaku OD, 2018)'
_computing_data_reduction        'CrysAlisPro 1.171.40.16c (Rigaku OD, 2018)'
_computing_molecular_graphics    'Olex2 (Dolomanov et al., 2009)'
_computing_publication_material  'Olex2 (Dolomanov et al., 2009)'
_computing_structure_refinement  'ShelXL (Sheldrick, 2015)'
_diffrn_ambient_environment      N~2~
_diffrn_ambient_temperature      159.99(10)
_diffrn_detector                 'CCD plate'
_diffrn_detector_type            'Pilatus 200K'
_diffrn_measured_fraction_theta_full 0.951
_diffrn_measured_fraction_theta_max 0.931
_diffrn_measurement_details
;
List of Runs (angles in degrees, time in seconds):

  # Type    Start    End  Width  t~exp~   \w     \q     \k     \f   Frames
--------------------------------------------------------------------------
  1  \w     35.00 123.00   0.50    0.60    --   50.46  57.00  30.00  176
  2  \w     92.00 125.00   0.50    2.40    --  102.00  48.00  42.46   66
  3  \w    134.00 160.00   0.50    2.40    --  107.75  45.00  60.00   52
  4  \w    141.00 175.00   0.50    2.40    --  107.75  45.00  90.00   68
  5  \w    146.00 172.00   0.50    2.40    --  107.75  45.00 150.00   52
  6  \w    146.00 178.00   0.50    2.40    --  107.75  45.00 120.00   64
  7  \w    123.00 159.00   0.50    2.40    --  107.75  15.00 120.00   72
  8  \w    116.00 151.00   0.50    2.40    --  107.75  30.00  90.00   70
  9  \w    114.00 178.00   0.50    2.40    --  107.75  30.00  30.00  128
 10  \w    152.00 178.00   0.50    2.40    --  107.75  58.00 -28.47   52
 11  \w    153.00 178.00   0.50    2.40    --  107.75  15.00 -60.00   50
 12  \w    153.00 178.00   0.50    2.40    --  107.75  45.00-120.00   50
 13  \w    138.00 164.00   0.50    2.40    --  107.75  45.00-150.00   52
 14  \w    110.00 162.00   0.50    2.40    --  107.75  30.00-120.00  104
 15  \w    108.00 150.00   0.50    2.40    --  107.75  15.00 -30.00   84
 16  \w     97.00 124.00   0.50    2.40    --  107.75  45.00  60.00   54
 17  \w     94.00 120.00   0.50    2.40    --  107.75  45.00  30.00   52
 18  \w     92.00 135.00   0.50    2.40    --  107.75  58.00 -28.47   86
 19  \w    100.00 125.00   0.50    2.40    --  107.75  15.00 -60.00   50
 20  \w     95.00 158.00   0.50    2.40    --  107.75  45.00   0.00  126
 21  \w     94.00 129.00   0.50    2.40    --  107.75  45.00  90.00   70
 22  \w    102.00 144.00   0.50    2.40    --  107.75  30.00 150.00   84
 23  \w     95.00 141.00   0.50    2.40    --  107.75  45.00 150.00   92
 24  \w     99.00 124.00   0.50    2.40    --  107.75  45.00 120.00   50
 25  \w     79.00 120.00   0.50    2.40    --  107.75  -6.00  54.81   82
 26  \w     84.00 111.00   0.50    2.40    --  107.75 -60.00  51.39   54
 27  \w     76.00 102.00   0.50    2.40    --  107.75 -59.00 129.58   52
 28  \w     41.00  94.00   0.50    2.40    --  107.75 -58.00  76.83  106
 29  \w     43.00  69.00   0.50    2.40    --  107.75 -57.00  89.40   52
 30  \w     39.00  86.00   0.50    2.40    --  107.75 -52.00 139.96   94
 31  \w     30.00  55.00   0.50    2.40    --  107.75 -30.00  60.00   50
 32  \w     38.00 104.00   0.50    2.40    --  107.75 -60.00  20.05  132
 33  \w     87.00 114.00   0.50    2.40    --  107.75 -15.00 -60.00   54
 34  \w     80.00 109.00   0.50    2.40    --  107.75 -60.00 -45.07   58
 35  \w     53.00  85.00   0.50    2.40    --   90.00 -60.00-151.75   64
 36  \w     73.00 123.00   0.50    2.40    --  107.75 -60.00-150.94  100
 37  \w     67.00  98.00   0.50    2.40    --  107.75 -58.00-179.05   62
 38  \w     51.00 102.00   0.50    2.40    --  107.75 -59.00 -78.83  102
 39  \w     37.00  63.00   0.50    2.40    --  107.75 -58.00-179.05   52
 40  \w     37.00  62.00   0.50    2.40    --  107.75 -60.00-150.94   50
 41  \w     32.00  65.00   0.50    2.40    --  107.75 -30.00-150.00   66
 42  \w     31.00  68.00   0.50    2.40    --  107.75 -30.00-120.00   74
 43  \w     33.00  68.00   0.50    2.40    --  107.75 -30.00-180.00   70
 44  \w     97.00 124.00   0.50    2.40    --  107.75  45.00-150.00   54
 45  \w     97.00 123.00   0.50    2.40    --  107.75  45.00 -90.00   52
 46  \w     94.00 122.00   0.50    2.40    --  107.75  45.00 -60.00   56
 47  \w     98.00 139.00   0.50    2.40    --  107.75  45.00-120.00   82
 48  \w     95.00 176.00   0.50    2.40    --  107.75  45.00-180.00  162
 49  \w     96.00 145.00   0.50    2.40    --  107.75  45.00 -30.00   98
 50  \w     66.00  97.00   0.50    2.40    --   82.00  60.00-104.77   62
 51  \w     35.00 123.00   0.50    0.60    --   50.46  57.00-120.00  176
 52  \w     35.00 123.00   0.50    0.60    --   50.46  57.00-180.00  176
 53  \w     35.00 122.00   0.50    0.60    --   50.46  60.00-109.26  174
 54  \w     33.00  70.00   0.50    2.40    --  107.75 -45.00 -30.00   74
 55  \w     37.00  63.00   0.50    2.40    --  107.75 -60.00  51.39   52
 56  \w     35.00  93.00   0.50    2.40    --  107.75 -57.00 104.89  116
 57  \w     36.00  73.00   0.50    2.40    --  107.75 -59.00 129.58   74
 58  \w     30.00  73.00   0.50    2.40    --  107.75  -6.00  54.81   86
 59  \w     38.00  84.00   0.50    2.40    --  107.75 -57.00 -33.73   92
 60  \w     36.00  66.00   0.50    2.40    --  107.75 -60.00 -45.07   60
 61  \w     -6.00  82.00   0.50    0.60    --   66.00 -60.00-120.29  176
 62  \w    -22.00  66.00   0.50    0.60    --   50.46 -57.00 120.00  176
 63  \w     35.00 123.00   0.50    0.60    --   50.46  57.00 150.00  176
 64  \w     10.00  98.00   0.50    0.60    --   26.00  59.00 164.77  176
 65  \w    -65.00 -20.00   0.50    2.40    --  -86.25  59.00  97.75   90
 66  \w   -103.00 -76.00   0.50    2.40    --  -86.25 -56.00 106.55   54
 67  \w    -98.00 -71.00   0.50    2.40    --  -86.25 -60.00 123.27   54
 68  \w    -97.00 -71.00   0.50    2.40    --  -86.25 -58.00  75.39   52
 69  \w    -96.00 -71.00   0.50    2.40    --  -86.25 -59.00  38.58   50
 70  \w    -98.00 -70.00   0.50    2.40    --  -82.00 -59.00 -12.71   56
 71  \w    -98.00 -73.00   0.50    2.40    --  -86.25 -60.00 -68.11   50
 72  \w    -95.00 -68.00   0.50    2.40    --  -82.00 -58.00 -85.23   54
 73  \w    -95.00 -67.00   0.50    2.40    --  -82.00 -57.00 -97.74   56
 74  \w    -89.00 -63.00   0.50    2.40    --  -78.00 -60.00-178.80   52
 75  \w    -99.00 -71.00   0.50    2.40    --  -86.25 -56.00-113.80   56
 76  \w   -102.00 -74.00   0.50    2.40    --  -86.25 -54.00-158.17   56
 77  \w   -114.00 -26.00   0.50    0.60    --  -42.00 -59.00 -88.70  176
 78  \w   -102.00 -70.00   0.50    2.40    --  -82.00 -59.00 -45.36   64
 79  \w    -98.00 -71.00   0.50    2.40    --  -86.25 -60.00  18.04   54
 80  \w   -105.00 -71.00   0.50    2.40    --  -86.25 -59.00  65.56   68
 81  \w    -99.00 -73.00   0.50    2.40    --  -86.25 -60.00 153.02   52
 82  \w   -102.00 -72.00   0.50    2.40    --  -86.25 -60.00 174.82   60
 83  \w   -128.00 -38.00   0.50    0.60    --  -50.46 -38.00  60.00  180
 84  \w   -118.00 -30.00   0.50    0.60    --  -46.00 -60.00  13.51  176
 85  \w   -122.00 -34.00   0.50    0.60    --  -50.00 -59.00-114.16  176
 86  \w   -126.00 -39.00   0.50    0.60    --  -54.00 -58.00  40.19  174
 87  \w   -131.00 -38.00   0.50    0.60    --  -50.46 -19.00 -60.00  186
 88  \w    -82.00 -57.00   0.50    2.40    --  -86.25  60.00-170.23   50
 89  \w   -126.00 -39.00   0.50    0.60    --  -54.00 -58.00-158.34  174
 90  \w   -142.00 -54.00   0.50    2.40    --  -70.00 -60.00 -16.61  176
 91  \w   -131.00 -38.00   0.50    0.60    --  -50.46 -19.00  90.00  186
 92  \w   -126.00-100.00   0.50    2.40    --  -86.25 -59.00  38.58   52
 93  \w   -126.00-100.00   0.50    2.40    --  -86.25 -58.00  75.39   52
 94  \w   -134.00 -46.00   0.50    0.60    --  -62.00 -60.00  72.08  176
 95  \w   -146.00 -58.00   0.50    2.40    --  -74.00 -59.00  23.87  176
 96  \w   -146.00 -58.00   0.50    2.40    --  -74.00 -60.00 -51.46  176
 97  \w   -152.00-125.00   0.50    2.40    --  -82.00 -57.00 -97.74   54
 98  \w   -150.00 -62.00   0.50    2.40    --  -78.00 -60.00 147.36  176
;
_diffrn_measurement_device       'four-circle diffractometer'
_diffrn_measurement_device_type  'XtaLAB Synergy, Dualflex, Pilatus 200K'
_diffrn_measurement_method       '\w scans'
_diffrn_orient_matrix_type
'CrysAlisPro convention (1999,Acta A55,543-557)'
_diffrn_orient_matrix_UB_11      -0.0265503000
_diffrn_orient_matrix_UB_12      -0.0106884000
_diffrn_orient_matrix_UB_13      -0.0979728000
_diffrn_orient_matrix_UB_21      0.0804748000
_diffrn_orient_matrix_UB_22      -0.1815815000
_diffrn_orient_matrix_UB_23      -0.0045260000
_diffrn_orient_matrix_UB_31      -0.2711991000
_diffrn_orient_matrix_UB_32      -0.1353257000
_diffrn_orient_matrix_UB_33      -0.0075118000
_diffrn_radiation_monochromator  mirror
_diffrn_radiation_probe          x-ray
_diffrn_radiation_type           CuK\a
_diffrn_radiation_wavelength     1.54184
_diffrn_reflns_av_R_equivalents  0.0318
_diffrn_reflns_av_unetI/netI     0.0233
_diffrn_reflns_Laue_measured_fraction_full 0.951
_diffrn_reflns_Laue_measured_fraction_max 0.931
_diffrn_reflns_limit_h_max       7
_diffrn_reflns_limit_h_min       -7
_diffrn_reflns_limit_k_max       9
_diffrn_reflns_limit_k_min       -9
_diffrn_reflns_limit_l_max       20
_diffrn_reflns_limit_l_min       -20
_diffrn_reflns_number            19924
_diffrn_reflns_point_group_measured_fraction_full 0.926
_diffrn_reflns_point_group_measured_fraction_max 0.888
_diffrn_reflns_theta_full        69.500
_diffrn_reflns_theta_max         78.859
_diffrn_reflns_theta_min         2.821
_diffrn_source                   'micro-focus sealed X-ray tube'
_diffrn_source_type              'PhotonJet (Cu) X-ray Source'
_exptl_absorpt_coefficient_mu    0.794
_exptl_absorpt_correction_T_max  1.000
_exptl_absorpt_correction_T_min  0.463
_exptl_absorpt_correction_type   gaussian
_exptl_absorpt_process_details
;
CrysAlisPro 1.171.40.16c (Rigaku Oxford Diffraction, 2018)
Numerical absorption correction based on gaussian integration over
   a multifaceted crystal model
Empirical absorption correction using spherical harmonics,
 implemented in SCALE3 ABSPACK scaling algorithm.
;
_exptl_crystal_colour            colourless
_exptl_crystal_colour_primary    colourless
_exptl_crystal_density_diffrn    1.283
_exptl_crystal_description       plate
_exptl_crystal_F_000             260
_exptl_crystal_size_max          0.3
_exptl_crystal_size_mid          0.21
_exptl_crystal_size_min          0.014
_refine_diff_density_max         0.155
_refine_diff_density_min         -0.182
_refine_diff_density_rms         0.031
_refine_ls_abs_structure_details
;
 Flack x determined using 2188 quotients [(I+)-(I-)]/[(I+)+(I-)]
 (Parsons, Flack and Wagner, Acta Cryst. B69 (2013) 249-259).
;
_refine_ls_abs_structure_Flack   0.00(6)
_refine_ls_extinction_method     none
_refine_ls_goodness_of_fit_ref   1.063
_refine_ls_hydrogen_treatment    mixed
_refine_ls_matrix_type           full
_refine_ls_number_parameters     322
_refine_ls_number_reflns         4803
_refine_ls_number_restraints     3
_refine_ls_restrained_S_all      1.063
_refine_ls_R_factor_all          0.0275
_refine_ls_R_factor_gt           0.0270
_refine_ls_shift/su_max          0.000
_refine_ls_shift/su_mean         0.000
_refine_ls_structure_factor_coef Fsqd
_refine_ls_weighting_details
'w=1/[\s^2^(Fo^2^)+(0.0470P)^2^+0.0580P] where P=(Fo^2^+2Fc^2^)/3'
_refine_ls_weighting_scheme      calc
_refine_ls_wR_factor_gt          0.0733
_refine_ls_wR_factor_ref         0.0735
_reflns_Friedel_coverage         0.907
_reflns_Friedel_fraction_full    0.901
_reflns_Friedel_fraction_max     0.845
_reflns_number_gt                4709
_reflns_number_total             4803
_reflns_threshold_expression     'I > 2\s(I)'
_cod_data_source_file            lt5016.cif
_cod_data_source_block           pn180914_uo_eph_1_180814_g4_2
_cod_database_code               1550455
_shelx_shelxl_version_number     2014/7
_chemical_oxdiff_formula         'C24 H38 N2 O8'
_shelx_space_group_comment
;
The symmetry employed for this shelxl refinement is uniquely defined
by the following loop, which should always be used as a source of
symmetry information in preference to the above space-group names.
They are only intended as comments.
;
_shelx_estimated_absorpt_t_max   0.989
_shelx_estimated_absorpt_t_min   0.797
_reflns_odcompleteness_completeness 92.40
_reflns_odcompleteness_iscentric 1
_reflns_odcompleteness_theta     79.66
_olex2_refinement_description
;
1. Fixed Uiso
 At 1.2 times of:
  All C(H) groups, All C(H,H) groups, All N(H,H) groups
 At 1.5 times of:
  All C(H,H,H) groups, All O(H) groups
2.a Ternary CH refined with riding coordinates:
 C1(H1C), C2(H2), C11(H11C), C12(H12), C22(H22)
2.b Secondary CH2 refined with riding coordinates:
 N1(H1A,H1B), N11(H11A,H11B), C23(H23A,H23B)
2.c Aromatic/amide H refined with riding coordinates:
 C6(H6), C7(H7), C8(H8), C9(H9), C10(H10), C16(H16), C17(H17), C18(H18),
 C19(H19), C20(H20)
2.d Idealised Me refined as rotating group:
 C3(H3A,H3B,H3C), C4(H4A,H4B,H4C), C13(H13A,H13B,H13C), C14(H14A,H14B,H14C)
2.e Idealised tetrahedral OH refined as rotating group:
 O1(H1), O11(H11), O23(H23)
;
_shelx_res_file
;
    pn180914_uo_eph_1_180814_g4_2.res created by SHELXL-2014/7

TITL pn180914_uo_eph_1_180814_g4_2_a.res in P1
REM Old TITL PN180914_UO_Eph_1_180814_G4_2 in P1
REM SHELXT solution in P1
REM R1 0.086, Rweak 0.041, Alpha 0.000, Orientation as input
REM Flack x = 0.015 ( 0.134 ) from Parsons' quotients
REM Formula found by SHELXT: C24 N3 O7
CELL 1.54184 5.821302 7.270884 15.902143 94.7215 96.6693 109.5246
ZERR 1 0.000072 0.000083 0.00013 0.0008 0.0008 0.0011
LATT -1
SFAC C H N O
UNIT 24 38 2 8

L.S. 4
PLAN  20
SIZE 0.014 0.21 0.3
TEMP -113
list 4
fmap 2
acta 139
REM <olex2.extras>
REM <HklSrc "%.\\PN180914_UO_Eph_1_180814_G4_2.hkl">
REM </olex2.extras>

WGHT    0.047000    0.058000
FVAR      16.55142
O1    4    0.352796    0.743675    0.711740    11.00000    0.03280    0.02298 =
         0.03523    0.00892    0.01836    0.01313
AFIX 147
H1    2    0.382821    0.642890    0.694603    11.00000   -1.50000
AFIX   0
O11   4    0.027258    0.278673    0.312831    11.00000    0.03401    0.02554 =
         0.02974    0.01100    0.01345    0.01293
AFIX 147
H11   2    0.032161    0.191030    0.343545    11.00000   -1.50000
AFIX   0
O21   4    0.418969    0.400409    0.666155    11.00000    0.03950    0.02785 =
         0.02467    0.00601    0.01005    0.01312
O22   4    0.349498    0.135934    0.571877    11.00000    0.03141    0.01847 =
         0.02932    0.00641    0.00811    0.00590
O23   4    0.591015    0.652037    0.553130    11.00000    0.01883    0.01627 =
         0.03157    0.00240    0.00422    0.00744
AFIX 147
H23   2    0.460689    0.678572    0.547744    11.00000   -1.50000
AFIX   0
O24   4    1.143353    0.638425    0.474093    11.00000    0.01996    0.03285 =
         0.03645    0.01005    0.00302    0.00810
O25   4    0.800459    0.605489    0.389072    11.00000    0.02509    0.02915 =
         0.02448    0.00871    0.00497    0.01144
O26   4    0.057949    0.021746    0.417624    11.00000    0.05796    0.02142 =
         0.04606    0.01141   -0.01620    0.00087
H26A  2    0.162858    0.052677    0.467469    11.00000    0.05026
H26B  2   -0.007875   -0.089684    0.408019    11.00000    0.05196
N1    3   -0.006761    0.928899    0.662869    11.00000    0.02098    0.01835 =
         0.02601    0.00573    0.00281    0.00579
AFIX  23
H1A   2    0.138601    0.981198    0.642941    11.00000   -1.20000
H1B   2   -0.100269    0.819286    0.626422    11.00000   -1.20000
AFIX   0
N11   3    0.385051    0.664918    0.333494    11.00000    0.02081    0.02095 =
         0.02841    0.00760    0.00543    0.00647
AFIX  23
H11A  2    0.262514    0.638372    0.366242    11.00000   -1.20000
H11B  2    0.509325    0.631489    0.360385    11.00000   -1.20000
AFIX   0
C1    1    0.119443    0.686865    0.738507    11.00000    0.02364    0.01695 =
         0.02197    0.00350    0.00479    0.00554
AFIX  13
H1C   2   -0.001839    0.590658    0.691904    11.00000   -1.20000
AFIX   0
C2    1    0.045038    0.869703    0.749499    11.00000    0.02795    0.01859 =
         0.02232    0.00502    0.00727    0.00931
AFIX  13
H2    2   -0.110542    0.833909    0.775144    11.00000   -1.20000
AFIX   0
C3    1    0.238537    1.041410    0.807090    11.00000    0.04179    0.01968 =
         0.02572   -0.00045    0.00205    0.00828
AFIX 137
H3A   2    0.386376    1.088459    0.779802    11.00000   -1.50000
H3B   2    0.280996    0.998702    0.861806    11.00000   -1.50000
H3C   2    0.173320    1.148063    0.816892    11.00000   -1.50000
AFIX   0
C4    1   -0.136415    1.074133    0.662289    11.00000    0.02876    0.02529 =
         0.05065    0.01514    0.00849    0.01294
AFIX 137
H4A   2   -0.183316    1.092664    0.603237    11.00000   -1.50000
H4B   2   -0.026514    1.200081    0.694069    11.00000   -1.50000
H4C   2   -0.284738    1.025233    0.689181    11.00000   -1.50000
AFIX   0
C5    1    0.109599    0.589089    0.819963    11.00000    0.02106    0.01573 =
         0.02165    0.00193    0.00519    0.00625
C6    1   -0.117860    0.474541    0.838630    11.00000    0.02359    0.02439 =
         0.02813    0.00573    0.00518    0.00819
AFIX  43
H6    2   -0.264328    0.460039    0.801302    11.00000   -1.20000
AFIX   0
C7    1   -0.132239    0.380835    0.911812    11.00000    0.03178    0.02695 =
         0.03211    0.00990    0.01267    0.00721
AFIX  43
H7    2   -0.288350    0.303150    0.924379    11.00000   -1.20000
AFIX   0
C8    1    0.081083    0.400811    0.966357    11.00000    0.04681    0.02394 =
         0.02302    0.00656    0.00823    0.01584
AFIX  43
H8    2    0.071524    0.337141    1.016329    11.00000   -1.20000
AFIX   0
C9    1    0.306960    0.513501    0.947679    11.00000    0.03658    0.02676 =
         0.02742    0.00119   -0.00238    0.01588
AFIX  43
H9    2    0.453220    0.526358    0.984762    11.00000   -1.20000
AFIX   0
C10   1    0.322818    0.608904    0.874791    11.00000    0.02290    0.02111 =
         0.02936    0.00225    0.00261    0.00631
AFIX  43
H10   2    0.479192    0.687285    0.862684    11.00000   -1.20000
AFIX   0
C11   1    0.228284    0.322695    0.267089    11.00000    0.02325    0.02422 =
         0.02301    0.00720    0.00338    0.01076
AFIX  13
H11C  2    0.373689    0.312890    0.304133    11.00000   -1.20000
AFIX   0
C12   1    0.288105    0.537528    0.249358    11.00000    0.02616    0.02301 =
         0.02352    0.00763    0.00638    0.00993
AFIX  13
H12   2    0.420982    0.569109    0.212651    11.00000   -1.20000
AFIX   0
C13   1    0.066635    0.575920    0.204372    11.00000    0.03543    0.02778 =
         0.02688    0.00845    0.00063    0.01479
AFIX 137
H13A  2   -0.057336    0.560859    0.242510    11.00000   -1.50000
H13B  2   -0.004526    0.481587    0.152484    11.00000   -1.50000
H13C  2    0.118997    0.710063    0.189122    11.00000   -1.50000
AFIX   0
C14   1    0.478492    0.879427    0.328944    11.00000    0.03864    0.02012 =
         0.04807    0.00861    0.00226    0.00497
AFIX 137
H14A  2    0.605397    0.909684    0.291654    11.00000   -1.50000
H14B  2    0.549664    0.950158    0.386292    11.00000   -1.50000
H14C  2    0.342234    0.920350    0.305878    11.00000   -1.50000
AFIX   0
C15   1    0.176791    0.183611    0.184652    11.00000    0.02487    0.02329 =
         0.02465    0.00698    0.00320    0.01185
C16   1    0.370313    0.179248    0.141146    11.00000    0.02499    0.03445 =
         0.03377    0.00186    0.00404    0.01282
AFIX  43
H16   2    0.533830    0.264103    0.162947    11.00000   -1.20000
AFIX   0
C17   1    0.325581    0.051581    0.066096    11.00000    0.04093    0.04316 =
         0.03432    0.00548    0.01170    0.02560
AFIX  43
H17   2    0.458559    0.051041    0.036760    11.00000   -1.20000
AFIX   0
C18   1    0.089939   -0.074052    0.034000    11.00000    0.05107    0.02864 =
         0.02892    0.00242    0.00152    0.02088
AFIX  43
H18   2    0.060107   -0.162209   -0.016848    11.00000   -1.20000
AFIX   0
C19   1   -0.102144   -0.070210    0.076637    11.00000    0.03633    0.02329 =
         0.03439    0.00180   -0.00300    0.00718
AFIX  43
H19   2   -0.265230   -0.155849    0.054768    11.00000   -1.20000
AFIX   0
C20   1   -0.059028    0.058107    0.151446    11.00000    0.02655    0.02495 =
         0.03201    0.00675    0.00455    0.00963
AFIX  43
H20   2   -0.193207    0.059392    0.179974    11.00000   -1.20000
AFIX   0
C21   1    0.424365    0.319828    0.594788    11.00000    0.01887    0.02019 =
         0.02271    0.00513    0.00452    0.00793
C22   1    0.534181    0.447673    0.526445    11.00000    0.02002    0.01522 =
         0.02204    0.00320    0.00253    0.00496
AFIX  13
H22   2    0.412213    0.407665    0.472668    11.00000   -1.20000
AFIX   0
C23   1    0.772179    0.418027    0.508043    11.00000    0.02389    0.02014 =
         0.02290    0.00550    0.00648    0.00987
AFIX  23
H23A  2    0.878957    0.429930    0.562884    11.00000   -1.20000
H23B  2    0.731238    0.283114    0.478631    11.00000   -1.20000
AFIX   0
C24   1    0.914709    0.564672    0.453320    11.00000    0.02015    0.01914 =
         0.02306    0.00254    0.00511    0.00901
HKLF 4

REM  pn180914_uo_eph_1_180814_g4_2_a.res in P1
REM R1 =  0.0270 for    4709 Fo > 4sig(Fo)  and  0.0275 for all    4803 data
REM    322 parameters refined using      3 restraints

END

WGHT      0.0470      0.0580

REM Highest difference peak  0.155,  deepest hole -0.182,  1-sigma level  0.031
Q1    1   0.1166  0.6357  0.7817  11.00000  0.05    0.16
Q2    1   0.1884  0.2451  0.2269  11.00000  0.05    0.14
Q3    1   0.3044  0.5413  0.9031  11.00000  0.05    0.13
Q4    1   0.4813  0.3878  0.5604  11.00000  0.05    0.12
Q5    1   0.8409  0.4930  0.4855  11.00000  0.05    0.12
Q6    1   0.6586  0.4350  0.5168  11.00000  0.05    0.11
Q7    1   0.2259  0.6330  0.8573  11.00000  0.05    0.11
Q8    1   0.0824  0.7735  0.7464  11.00000  0.05    0.11
Q9    1   0.1047  0.3448  0.3820  11.00000  0.05    0.11
Q10   1   0.1267  0.9544  0.7814  11.00000  0.05    0.10
Q11   1   1.1294  0.6909  0.5252  11.00000  0.05    0.10
Q12   1  -0.1603  0.0425  0.4453  11.00000  0.05    0.10
Q13   1  -0.0713 -0.0018  0.1124  11.00000  0.05    0.10
Q14   1   0.3560  0.1298  0.5223  11.00000  0.05    0.09
Q15   1   0.5155  0.6587  0.6215  11.00000  0.05    0.09
Q16   1   0.0874  0.4298  0.3774  11.00000  0.05    0.09
Q17   1   0.7193  0.4764  0.3584  11.00000  0.05    0.09
Q18   1   0.7850  0.5504  0.3373  11.00000  0.05    0.09
Q19   1   0.7268  0.6557  0.3152  11.00000  0.05    0.09
Q20   1   0.3570  0.0819  0.1147  11.00000  0.05    0.09
;
_shelx_res_checksum              2821
_shelx_hkl_file
;
  -7   2   1 2633.12 173.879  36
  -7   2   2 3898.83 214.974  36
  -7   2   3 12363.0 463.622  36
  -7   2   5 2583.26 161.970  37
  -7   2   6 7095.80 289.806  37
  -7   2   7 8656.52 328.564  37
  -7   3  -3 873.375 119.392  36
  -7   3  -2 13481.3 495.028  36
  -7   3  -1 7711.87 336.323  36
  -7   3   0 1302.07 164.556  36
  -7   3   1 4771.31 270.959  36
  -7   3   2 14559.2 563.380  36
  -7   3   3 5373.32 294.197  36
  -7   3   3 4631.79 257.880  35
  -7   3   4 428.022 136.852  37
  -7   3   4 442.148 131.218  35
  -7   3   4 142.239 159.574  36
  -7   3   5 4879.04 277.426  36
  -7   3   5 3920.58 237.206  37
  -7   3   6 16.3553 145.733  36
  -7   3   6 107.351 116.920  37
  -7   3   7 2704.51 189.285  37
  -7   3   7 3105.68 216.639  36
  -7   3   8 59.3650 106.423  36
  -7   3   8 59.7725 96.6275  37
  -7   4  -4 3124.86 157.799  36
  -7   4  -3 544.211 114.862  36
  -7   4  -2 6109.42 279.514  36
  -7   4  -1 2835.93 199.340  36
  -7   4   0 1263.38 168.279  36
  -7   4   1 3216.71 227.845  36
  -7   4   2 1164.87 147.317  35
  -7   4   2 1470.08 188.065  36
  -7   4   3 14202.8 529.500  36
  -7   4   3 11980.2 496.128  35
  -7   4   4 2426.28 189.579  35
  -7   4   4 2261.92 186.676  37
  -7   4   5 5119.88 284.111  36
  -7   4   5 4469.83 245.165  37
  -7   4   6 3422.04 207.138  37
  -7   4   6 3766.73 241.102  36
  -7   4   7 2739.79 203.470  36
  -7   5  -2 712.335 103.424  36
  -7   5  -1-34.9985 96.7210  36
  -7   5   0 3580.82 201.703  36
  -7   5   1 5394.94 260.785  36
  -7   5   2 380.231 128.779  36
  -7   5   3 213.754 126.270  36
  -7   5   4 5617.49 267.674  36
  -7   5   5 2512.80 171.197  36
  -6   0   8 4028.53 256.524  27
  -6   0   9 7999.35 373.583  27
  -6   0  10 6586.50 324.092  27
  -6   0  11 1048.90 150.933  27
  -6   1  -8 8089.25 321.001  38
  -6   1  -7 5645.76 279.231  38
  -6   1  -6 9209.21 401.096  38
  -6   1  -5 2739.56 209.462  36
  -6   1  -4 4213.96 269.410  36
  -6   1  -3 2697.66 235.790  36
  -6   1  -2 889.648 200.775  36
  -6   1  -1 1307.83 216.778  36
  -6   1   0 30610.5 1099.09  36
  -6   1   1 22040.9 850.330  37
  -6   1   1 23107.0 876.301  35
  -6   1   2 2368.90 249.419  35
  -6   1   2 2163.63 234.523  37
  -6   1   3 11948.2 545.968  37
  -6   1   3 12977.8 562.783  35
  -6   1   4 7152.43 405.717  37
  -6   1   4 7083.21 398.707  35
  -6   1   5 6208.09 382.895  37
  -6   1   5 5885.09 363.831  35
  -6   1   6 493.973 196.787  35
  -6   1   6 778.871 225.303  37
  -6   1   7 5473.76 344.981  35
  -6   1   7 5261.02 336.953  27
  -6   1   7 5821.14 372.266  37
  -6   1   8 13610.3 585.309  35
  -6   1   8 14211.8 619.264  37
  -6   1   8 13568.5 567.639  40
  -6   1   8 13406.2 586.244  27
  -6   1   9 15116.5 610.230  40
  -6   1   9 15607.6 645.724  27
  -6   1   9 15905.5 664.093  37
  -6   1  10 23873.3 857.193  37
  -6   1  10 20657.9 815.136  27
  -6   1  11 18754.0 697.167  37
  -6   1  11 16920.0 668.138  27
  -6   1  12 4471.78 263.418  37
  -6   1  13 140.131 102.919  37
  -6   2  -9 16048.7 562.977  38
  -6   2  -8 2833.53 213.870  38
  -6   2  -8 3189.24 201.524  36
  -6   2  -7 114.108 147.345  36
  -6   2  -7 142.638 165.926  38
  -6   2  -6 93.1548 163.415  36
  -6   2  -6 197.564 177.680  38
  -6   2  -5 273.492 179.646  38
  -6   2  -5 211.692 181.082  36
  -6   2  -4 7386.92 393.022  36
  -6   2  -4 6832.70 370.957  38
  -6   2  -3 16994.5 673.364  38
  -6   2  -3 15611.3 1042.71  61
  -6   2  -3 18139.3 715.044  36
  -6   2  -2 9065.10 476.564  36
  -6   2  -2 7718.28 725.222  61
  -6   2  -2 8562.61 415.679  38
  -6   2  -1 2181.99 295.227  36
  -6   2  -1 2370.93 264.567  35
  -6   2  -1 2512.25 501.143  61
  -6   2   0 18146.2 1175.05  61
  -6   2   0 21142.3 836.265  35
  -6   2   0 18382.7 794.479  37
  -6   2   1 9327.03 834.546  61
  -6   2   1 10443.8 521.058  35
  -6   2   1 9807.45 500.509  37
  -6   2   2 6284.24 406.013  35
  -6   2   2 6459.16 416.675  37
  -6   2   2 6955.89 734.270  61
  -6   2   3 14277.5 658.898  37
  -6   2   3 15070.3 668.017  35
  -6   2   3 13521.4 1016.56  61
  -6   2   4 3230.15 326.525  35
  -6   2   4 3073.43 323.867  37
  -6   2   5 2923.97 312.451  40
  -6   2   5 2706.13 324.720  37
  -6   2   5 2730.71 319.825  35
  -6   2   6 3070.06 329.869  37
  -6   2   6 3345.77 328.800  35
  -6   2   6 2923.20 302.291  40
  -6   2   7 3222.72 335.673  35
  -6   2   7 3639.66 316.750  40
  -6   2   7 3304.93 352.373  37
  -6   2   8 2998.24 329.569  37
  -6   2   8 3138.87 298.982  40
  -6   2   9 9249.27 479.345  40
  -6   2  10 5941.03 373.758  40
  -6   2  11 15325.9 616.255  40
  -6   2  12 5222.57 282.046  40
  -6   2  12 5486.00 314.853  37
  -6   2  13 14930.9 505.388  37
  -6   2  13 11770.0 452.326  40
  -6   3  -9 5751.60 270.324  38
  -6   3  -9 5793.29 270.108  36
  -6   3  -8 47.1251 134.949  36
  -6   3  -8 139.287 154.933  38
  -6   3  -7 10617.9 458.545  36
  -6   3  -7 10049.1 444.582  38
  -6   3  -6 15154.2 613.667  36
  -6   3  -6 14524.6 589.543  38
  -6   3  -5 5905.13 363.793  36
  -6   3  -4 6251.45 392.408  36
  -6   3  -4 5815.34 651.419  61
  -6   3  -3 31450.7 1676.18  61
  -6   3  -3 36717.6 1284.62  36
  -6   3  -2 37270.8 1366.65  35
  -6   3  -2 35485.7 1825.72  61
  -6   3  -1 7171.01 751.867  61
  -6   3  -1 8612.48 503.517  36
  -6   3  -1 7683.32 443.586  35
  -6   3  -1 7195.86 430.204  37
  -6   3   0 1575.98 270.721  35
  -6   3   0 1282.72 499.083  61
  -6   3   0 1572.39 256.221  37
  -6   3   1 8706.77 491.240  37
  -6   3   1 8996.89 496.120  35
  -6   3   2 12411.3 610.371  35
  -6   3   2 12131.5 605.358  37
  -6   3   2 10683.7 966.275  61
  -6   3   3 11193.7 579.177  35
  -6   3   3 10600.5 936.423  61
  -6   3   3 10437.2 563.660  37
  -6   3   4 5177.51 383.932  40
  -6   3   4 4154.73 381.520  37
  -6   3   4 3982.38 638.646  61
  -6   3   4 4762.41 396.175  35
  -6   3   5 34930.4 1810.83  61
  -6   3   5 39430.2 1351.92  35
  -6   3   5 36685.9 1326.99  37
  -6   3   5 37390.8 1317.62  40
  -6   3   6 7081.29 386.131  43
  -6   3   6 8292.99 502.180  37
  -6   3   6 8014.93 492.649  35
  -6   3   6 6995.99 778.701  61
  -6   3   6 7819.46 471.582  40
  -6   3   7 7406.67 459.052  40
  -6   3   7 8212.28 481.598  37
  -6   3   7 6589.47 373.081  43
  -6   3   8 8382.66 476.647  40
  -6   3   8 8941.35 498.034  37
  -6   3   8 7650.40 400.554  43
  -6   3   9 516.887 170.653  43
  -6   3   9 643.516 262.676  37
  -6   3   9 583.957 246.276  40
  -6   3  10 225.882 220.911  40
  -6   3  11 7846.11 407.669  40
  -6   3  12 7233.41 349.241  40
  -6   3  13 13445.4 498.663  40
  -6   3  13 14212.4 504.174  37
  -6   4  -9 5712.81 265.650  38
  -6   4  -8 316.268 143.153  38
  -6   4  -7 1615.85 194.101  38
  -6   4  -6 4572.02 264.909  42
  -6   4  -5 12292.0 508.701  42
  -6   4  -4 27112.9 969.800  42
  -6   4  -3 12587.2 536.921  42
  -6   4  -2-170.334 367.449  61
  -6   4  -2 259.090 170.041  42
  -6   4  -1 24686.9 947.369  37
  -6   4  -1 24010.5 1404.06  61
  -6   4  -1 23878.3 903.000  41
  -6   4  -1 25962.8 922.001  42
  -6   4   0 4773.74 314.620  42
  -6   4   0 4302.29 302.160  41
  -6   4   0 4635.81 356.965  37
  -6   4   0 4456.31 641.812  61
  -6   4   1 2786.60 301.334  37
  -6   4   1 2046.42 536.998  61
  -6   4   1 2363.25 250.926  41
  -6   4   2 10438.3 503.270  41
  -6   4   2 10358.5 936.221  61
  -6   4   2 10406.5 545.699  37
  -6   4   3 23651.6 1445.73  61
  -6   4   3 24578.2 934.382  41
  -6   4   4 5687.60 733.797  61
  -6   4   4 6855.32 398.657  41
  -6   4   5 2701.37 270.633  43
  -6   4   5 2523.51 274.573  41
  -6   4   5 2356.52 561.865  61
  -6   4   6 7575.98 828.213  61
  -6   4   6 8647.81 448.643  41
  -6   4   6 7799.29 427.146  43
  -6   4   7 4387.40 357.881  37
  -6   4   7 3817.12 306.804  43
  -6   4   7 4379.28 316.036  41
  -6   4   8 6116.79 364.283  43
  -6   4   8 6318.37 374.388  41
  -6   4   8 6824.98 420.436  37
  -6   4   9 4714.43 317.518  43
  -6   4   9 5434.27 362.231  37
  -6   4  10 4880.57 295.662  43
  -6   4  10 4785.50 312.824  37
  -6   4  11 310.558 146.516  37
  -6   4  11 222.348 131.368  43
  -6   4  12 2422.03 150.088  43
  -6   4  12 2873.10 162.355  37
  -6   5  -8 313.062 103.840  36
  -6   5  -7 4546.70 252.037  42
  -6   5  -7 4727.90 249.712  36
  -6   5  -6 2265.99 210.235  36
  -6   5  -6 2195.87 200.647  42
  -6   5  -5 27703.6 1000.15  36
  -6   5  -5 30068.3 1018.23  42
  -6   5  -4 6951.30 371.444  36
  -6   5  -4 7295.03 374.217  42
  -6   5  -3 4854.75 314.677  42
  -6   5  -3 5107.45 327.033  36
  -6   5  -2 18136.3 738.651  42
  -6   5  -2 19494.6 755.472  36
  -6   5  -1 6510.10 376.451  42
  -6   5  -1 5948.89 355.464  41
  -6   5  -1 6970.29 406.489  36
  -6   5  -1 6100.91 361.955  35
  -6   5   0 1507.95 278.477  36
  -6   5   0 1416.45 227.438  35
  -6   5   0 1555.11 229.608  41
  -6   5   0 1144.97 430.607  61
  -6   5   0 1414.38 236.831  42
  -6   5   1 1366.62 229.781  37
  -6   5   1 1329.39 229.374  41
  -6   5   1 1161.84 225.607  35
  -6   5   2 2624.49 277.677  41
  -6   5   2 2614.60 277.554  37
  -6   5   2 2559.15 271.846  35
  -6   5   3 2336.38 271.329  35
  -6   5   3 2323.49 275.380  41
  -6   5   3 2704.69 290.879  37
  -6   5   3 2114.22 506.319  61
  -6   5   4 16700.9 698.643  35
  -6   5   4 14914.2 672.663  37
  -6   5   4 17403.2 706.312  41
  -6   5   5 11538.8 535.676  41
  -6   5   5 9536.81 489.069  43
  -6   5   5 11001.5 529.432  35
  -6   5   5 10747.9 510.155  37
  -6   5   6 2027.56 237.704  43
  -6   5   6 2230.38 254.003  40
  -6   5   6 2096.69 246.656  37
  -6   5   6 2014.95 253.074  35
  -6   5   6 2003.12 255.694  41
  -6   5   7 571.344 202.813  35
  -6   5   7 537.892 192.276  43
  -6   5   7 792.910 209.343  40
  -6   5   7 475.226 199.358  37
  -6   5   7 265.917 196.748  41
  -6   5   8 8450.87 425.036  43
  -6   5   8 8346.31 405.339  37
  -6   5   8 9750.89 452.286  41
  -6   5   8 8667.89 443.170  35
  -6   5   8 8971.38 432.183  40
  -6   5   9 3699.69 256.030  41
  -6   5   9 2955.35 209.832  37
  -6   5   9 3664.63 255.013  43
  -6   5   9 3283.86 257.336  35
  -6   5   9 3775.80 254.204  40
  -6   5  10 3735.45 223.037  40
  -6   5  10 3755.03 222.563  41
  -6   5  10 3758.94 227.102  43
  -6   5  11 858.080 102.948  43
  -6   6  -7 8290.01 326.325  42
  -6   6  -6 5648.33 272.636  42
  -6   6  -5 2754.79 167.578  36
  -6   6  -5 3477.74 226.166  42
  -6   6  -4 23002.9 788.118  36
  -6   6  -4 23567.9 832.367  42
  -6   6  -3 9574.15 423.403  42
  -6   6  -3 8719.26 380.128  36
  -6   6  -2 16152.7 614.356  36
  -6   6  -2 17447.8 666.011  42
  -6   6  -1 867.511 172.721  41
  -6   6  -1 743.388 171.234  36
  -6   6  -1 759.621 199.544  42
  -6   6   0 2839.94 240.186  36
  -6   6   0 3526.51 282.950  42
  -6   6   0 2930.89 251.168  41
  -6   6   1 6593.22 357.766  41
  -6   6   1 6801.54 345.019  36
  -6   6   2 149.311 172.274  41
  -6   6   2 144.685 175.650  36
  -6   6   2 138.190 138.753  35
  -6   6   3 19729.8 757.548  41
  -6   6   3 21189.4 744.002  36
  -6   6   4 4497.41 261.964  35
  -6   6   4 4934.95 314.917  41
  -6   6   5 6332.95 359.507  41
  -6   6   6 13555.6 564.328  41
  -6   6   7 8072.25 388.955  41
  -6   6   8 2571.00 198.020  41
  -6   6   9 797.737 107.029  41
  -6   7  -5 255.513 73.5573  42
  -6   7  -4 12171.6 447.776  42
  -6   7  -3 2343.93 173.241  42
  -6   7  -2 4966.91 259.027  42
  -6   7  -1 337.760 137.152  42
  -6   7   0 690.515 153.740  42
  -6   7   1 763.346 137.371  41
  -6   7   1 806.482 165.614  42
  -6   7   2 3379.23 236.722  42
  -6   7   2 3327.16 214.402  41
  -6   7   3 3769.52 224.018  41
  -6   7   4 13035.8 493.669  41
  -6   7   5 14620.7 530.723  41
  -6   7   6 16803.1 574.837  41
  -5  -2   9 2572.23 222.602  27
  -5  -2  10 8810.83 407.861  27
  -5  -2  11 942.880 167.450  27
  -5  -2  12 704.941 149.286  27
  -5  -2  13 5126.04 246.347  27
  -5  -1  -9 1555.17 188.874  38
  -5  -1  -8 509.158 199.967  38
  -5  -1  -7 5305.31 342.273  38
  -5  -1  -6 3645.36 304.228  38
  -5  -1  -5 3602.94 308.966  38
  -5  -1   7 5966.16 368.373  27
  -5  -1   8 1146.95 233.932  27
  -5  -1   8 1387.67 271.399  56
  -5  -1   9 1525.69 267.149  27
  -5  -1   9 2019.25 301.426  56
  -5  -1   9 1966.93 251.460  30
  -5  -1  10 665.098 242.233  27
  -5  -1  10 340.208 215.639  30
  -5  -1  11 125.029 202.482  27
  -5  -1  11 421.600 184.786  39
  -5  -1  11 492.538 216.613  30
  -5  -1  12 4510.68 310.258  30
  -5  -1  12 3993.32 304.086  27
  -5  -1  13 1261.33 189.735  27
  -5  -1  13 1173.12 194.421  30
  -5  -1  14 12048.7 477.500  27
  -5  -1  14 11571.6 469.370  30
  -5  -1  15 1134.76 127.401  27
  -5  -1  15 995.307 119.303  30
  -5   0 -11 2817.56 204.882  38
  -5   0 -10 519.184 189.880  38
  -5   0  -9 5693.76 352.091  38
  -5   0  -9 5666.92 355.505  60
  -5   0  -8 4269.41 343.674  38
  -5   0  -8 4804.34 350.949  60
  -5   0  -7 3948.74 336.963  38
  -5   0  -7 3649.02 266.168  36
  -5   0  -7 3868.18 334.148  60
  -5   0  -6 7689.98 461.926  38
  -5   0  -6 7950.89 403.390  36
  -5   0  -6 8439.15 474.447  60
  -5   0  -5 3473.12 329.555  38
  -5   0  -5 3033.55 276.597  36
  -5   0  -4 5129.75 368.343  38
  -5   0  -4 4203.40 311.895  36
  -5   0  -3 18980.2 742.372  38
  -5   0  -3 15888.0 1113.11  61
  -5   0  -3 16672.0 707.353  36
  -5   0  -2 1613.21 245.536  36
  -5   0  -2 1484.28 446.488  61
  -5   0  -1 28708.9 1086.55  35
  -5   0  -1 31976.1 1122.15  36
  -5   0   0 1983.97 248.513  35
  -5   0   1 25246.7 959.596  35
  -5   0   2 48658.7 1671.28  35
  -5   0   3 26759.2 1048.05  37
  -5   0   3 28844.7 1059.31  35
  -5   0   4 3465.48 321.343  35
  -5   0   5 33841.9 1270.22  27
  -5   0   5 38401.6 1325.26  35
  -5   0   6 4656.64 352.383  27
  -5   0   6 4138.45 346.400  39
  -5   0   6 4391.14 343.874  30
  -5   0   7 827.275 266.430  30
  -5   0   7 624.985 242.376  27
  -5   0   7 622.226 238.439  39
  -5   0   8 11808.6 584.988  27
  -5   0   8 10568.5 560.647  30
  -5   0   8 10485.9 560.042  39
  -5   0   9 2144.60 312.785  30
  -5   0   9 1644.70 300.610  27
  -5   0   9 1865.98 288.118  39
  -5   0  10 14671.7 683.555  30
  -5   0  10 14387.5 669.782  39
  -5   0  10 13264.2 658.623  27
  -5   0  11 4801.48 379.832  39
  -5   0  11 4821.15 374.902  27
  -5   0  11 4810.44 400.682  30
  -5   0  12 10222.2 536.534  30
  -5   0  12 10508.5 529.178  27
  -5   0  12 11441.0 557.515  39
  -5   0  13 6629.09 380.642  27
  -5   0  13 6468.46 395.193  30
  -5   0  13 6332.19 387.657  39
  -5   0  14 4242.03 285.898  27
  -5   0  14 3868.25 271.797  39
  -5   0  14 3611.07 283.954  30
  -5   0  15 2159.13 187.731  39
  -5   0  15 2527.35 211.189  30
  -5   0  16 1732.04 119.803  27
  -5   1 -12 719.426 152.723  38
  -5   1 -12 570.551 136.414  60
  -5   1 -11 3534.08 263.489  60
  -5   1 -11 3470.70 262.661  38
  -5   1 -10 4419.36 323.751  38
  -5   1 -10 4503.86 320.302  60
  -5   1  -9 9172.33 448.260  36
  -5   1  -9 10028.1 487.679  38
  -5   1  -9 9061.26 444.200  59
  -5   1  -9 9666.43 483.816  60
  -5   1  -8 7771.00 444.039  38
  -5   1  -8 7174.21 411.065  36
  -5   1  -8 7472.03 433.899  60
  -5   1  -7 11799.4 559.729  36
  -5   1  -7 11424.3 563.989  38
  -5   1  -7 11782.2 569.545  60
  -5   1  -6 4848.45 360.510  36
  -5   1  -6 4326.26 650.093  61
  -5   1  -6 4978.93 372.912  60
  -5   1  -6 4382.79 358.723  38
  -5   1  -5 4885.82 364.820  36
  -5   1  -5 4724.34 369.173  38
  -5   1  -5 5340.29 377.838  60
  -5   1  -4 5452.88 396.044  36
  -5   1  -4 5076.57 686.260  61
  -5   1  -3 12369.1 615.714  36
  -5   1  -3 10933.6 962.686  61
  -5   1  -2 1968.75 257.436  37
  -5   1  -2 2295.56 339.608  36
  -5   1  -2 1803.89 535.273  61
  -5   1  -2 2194.70 289.906  35
  -5   1  -1 67334.5 2836.88  61
  -5   1  -1 68938.4 2264.23  35
  -5   1  -1 65531.4 2231.03  37
  -5   1   0 12647.3 614.986  35
  -5   1   0 11910.2 593.701  37
  -5   1   0 11955.8 1000.22  61
  -5   1   1 3268.99 337.312  37
  -5   1   1 3661.63 635.323  61
  -5   1   1 3783.81 353.899  35
  -5   1   2 87610.7 3006.77  40
  -5   1   2 97278.2 3058.01  35
  -5   1   2 92338.7 3636.55  61
  -5   1   2 93533.2 3040.98  37
  -5   1   3 10717.0 534.541  27
  -5   1   3 12466.6 994.750  61
  -5   1   3 11205.8 579.229  40
  -5   1   3 11476.7 612.599  35
  -5   1   4 24563.4 983.816  30
  -5   1   4 26894.7 1041.38  40
  -5   1   4 27865.7 1523.17  61
  -5   1   4 25624.2 985.540  27
  -5   1   5 27429.5 1106.31  39
  -5   1   5 29582.3 1130.74  40
  -5   1   5 28791.7 1084.82  27
  -5   1   5 28181.5 1089.65  30
  -5   1   6 18608.5 808.435  27
  -5   1   6 18209.1 807.733  30
  -5   1   6 19144.8 833.805  39
  -5   1   6 19433.3 847.658  40
  -5   1   7 2784.89 343.800  27
  -5   1   7 3114.87 354.093  39
  -5   1   7 2449.45 355.463  40
  -5   1   7 3030.23 365.118  30
  -5   1   8 15591.2 746.703  30
  -5   1   8 16206.1 775.779  40
  -5   1   8 16094.2 764.744  39
  -5   1   8 16317.2 753.921  27
  -5   1   9 2527.25 347.834  40
  -5   1   9 2559.05 348.277  39
  -5   1   9 2026.05 343.290  27
  -5   1   9 2594.16 353.988  30
  -5   1  10 4648.27 406.488  27
  -5   1  10 4757.31 442.410  30
  -5   1  10 4869.80 424.368  39
  -5   1  11 5866.44 448.321  30
  -5   1  11 6178.54 469.118  39
  -5   1  11 5620.32 423.989  27
  -5   1  12 4257.23 374.816  30
  -5   1  12 4008.03 380.687  39
  -5   1  12 4278.47 357.597  27
  -5   1  13 1116.14 264.453  30
  -5   1  13 930.073 257.303  39
  -5   1  14 8244.00 415.092  27
  -5   1  14 8742.76 440.235  30
  -5   1  14 8695.57 451.490  39
  -5   1  14 8553.27 428.070  40
  -5   1  15 2475.83 199.067  40
  -5   1  15 2596.18 204.108  27
  -5   1  15 2608.08 233.419  39
  -5   1  16 2924.43 186.572  39
  -5   2 -13 12149.5 437.370  60
  -5   2 -12 4386.08 261.679  60
  -5   2 -12 3723.77 220.553  59
  -5   2 -11 1842.93 197.013  59
  -5   2 -11 1772.95 225.309  60
  -5   2 -10 13016.7 561.597  36
  -5   2 -10 13821.2 572.679  38
  -5   2 -10 12038.2 526.100  59
  -5   2 -10 12462.8 560.527  60
  -5   2  -9 1574.74 264.036  38
  -5   2  -9 1661.52 263.807  60
  -5   2  -9 1796.13 273.595  36
  -5   2  -8 17839.9 726.982  60
  -5   2  -8 18326.6 762.595  36
  -5   2  -8 15821.5 715.218  38
  -5   2  -7 12518.2 1012.71  61
  -5   2  -7 12904.1 626.786  36
  -5   2  -6 10543.5 494.694  42
  -5   2  -6 9907.44 548.550  36
  -5   2  -5 15043.3 648.585  42
  -5   2  -5 16114.5 724.021  36
  -5   2  -4 22775.2 1436.43  61
  -5   2  -4 21122.5 927.052  35
  -5   2  -4 25352.5 979.123  36
  -5   2  -3 2418.37 326.021  35
  -5   2  -3 2039.80 350.734  36
  -5   2  -3 1873.47 274.681  37
  -5   2  -2 13951.5 669.724  37
  -5   2  -2 14621.5 1140.79  61
  -5   2  -2 14293.6 692.059  35
  -5   2  -1 15364.8 724.726  37
  -5   2  -1 16694.5 765.807  35
  -5   2  -1 16692.5 1226.29  61
  -5   2   0 146283. 4477.59  35
  -5   2   0 130765. 5105.64  61
  -5   2   0 135707. 4447.66  37
  -5   2   1 36637.0 1359.65  37
  -5   2   1 36531.1 1918.59  61
  -5   2   1 34025.6 1335.64  40
  -5   2   1 38051.4 1385.99  35
  -5   2   2 24382.6 1050.60  40
  -5   2   2 25469.3 1573.76  61
  -5   2   2 27839.4 1109.31  35
  -5   2   2 28326.9 1091.91  37
  -5   2   3 12534.8 639.936  40
  -5   2   3 11668.8 1054.65  61
  -5   2   3 11784.1 585.001  27
  -5   2   4 36208.4 1953.90  61
  -5   2   4 35914.8 1322.70  27
  -5   2   4 36673.0 1383.63  40
  -5   2   5 49038.7 1721.29  40
  -5   2   5 46656.1 1637.54  43
  -5   2   5 45958.6 2305.19  61
  -5   2   5 46594.1 1656.41  27
  -5   2   5 45980.4 1664.35  30
  -5   2   5 47117.7 1685.99  39
  -5   2   6 2427.76 339.994  39
  -5   2   6 2474.58 375.488  40
  -5   2   6 2264.14 294.994  43
  -5   2   6 2091.65 325.491  27
  -5   2   6 2949.52 646.226  61
  -5   2   6 2218.14 348.221  30
  -5   2   7 37662.5 1405.58  39
  -5   2   7 35776.8 1342.85  43
  -5   2   7 35626.2 1376.83  30
  -5   2   7 35812.3 1370.04  27
  -5   2   7 39074.8 2042.22  61
  -5   2   7 37325.6 1442.02  40
  -5   2   8 9800.33 1003.76  61
  -5   2   8 10113.4 594.814  27
  -5   2   8 11097.3 618.585  39
  -5   2   8 11193.2 610.129  30
  -5   2   8 10341.9 564.516  43
  -5   2   9 8387.27 539.856  27
  -5   2   9 8852.15 559.571  30
  -5   2   9 8716.72 550.067  39
  -5   2   9 7811.18 490.925  43
  -5   2  10 11673.5 599.295  43
  -5   2  10 11218.1 640.646  30
  -5   2  10 10457.5 601.157  27
  -5   2  10 11757.7 651.299  39
  -5   2  11 2336.31 372.076  39
  -5   2  11 2581.44 320.862  43
  -5   2  11 2338.52 347.190  30
  -5   2  12 1413.12 278.131  27
  -5   2  12 1516.97 268.335  43
  -5   2  12 1428.92 300.760  39
  -5   2  13 11245.9 539.628  43
  -5   2  13 11372.6 531.696  27
  -5   2  14 12885.4 531.070  27
  -5   2  14 12980.5 551.648  30
  -5   2  14 12053.2 531.816  43
  -5   2  15 1346.54 158.337  43
  -5   2  15 1805.94 211.149  40
  -5   2  16 7293.89 302.870  40
  -5   3 -13 1628.12 143.269  60
  -5   3 -12 368.063 154.194  38
  -5   3 -12 534.951 171.433  60
  -5   3 -12 365.516 130.812  59
  -5   3 -11 163.439 192.774  38
  -5   3 -11-26.9368 180.169  60
  -5   3 -11 160.131 182.000  36
  -5   3 -10 1241.62 228.317  36
  -5   3  -9 12265.5 576.674  36
  -5   3  -8 29334.3 1120.17  36
  -5   3  -8 30450.4 1093.64  42
  -5   3  -7 7973.75 460.295  42
  -5   3  -7 8651.99 502.144  36
  -5   3  -7 8858.77 870.035  61
  -5   3  -6 18129.7 779.895  42
  -5   3  -6 18681.0 816.776  36
  -5   3  -6 18857.2 738.378   4
  -5   3  -5 44010.2 1537.19  36
  -5   3  -5 41744.9 1427.19   4
  -5   3  -5 40254.2 1476.64  42
  -5   3  -4 9028.24 554.967  35
  -5   3  -4 8985.23 927.661  61
  -5   3  -4 10891.1 598.533  36
  -5   3  -4 9619.45 514.489  42
  -5   3  -3 22359.3 926.919  35
  -5   3  -3 20160.7 882.304  37
  -5   3  -3 19884.9 847.533  41
  -5   3  -3 21632.2 883.934  42
  -5   3  -3 22574.3 1462.57  61
  -5   3  -2 10325.2 532.110  41
  -5   3  -2 11423.8 618.656  35
  -5   3  -2 11270.1 569.743  42
  -5   3  -2 11275.6 1052.72  61
  -5   3  -2 11230.0 583.701  37
  -5   3  -1 19379.4 850.120  37
  -5   3  -1 20451.3 889.305  35
  -5   3  -1 19665.0 1414.27  61
  -5   3  -1 19834.5 821.673  41
  -5   3   0 4319.03 354.776  41
  -5   3   0 5144.57 792.038  61
  -5   3   0 4208.55 422.430  35
  -5   3   0 4372.01 393.645  37
  -5   3   1 2536.66 301.732  41
  -5   3   1 2633.14 379.120  35
  -5   3   1 2691.92 671.648  61
  -5   3   1 2591.95 288.735  43
  -5   3   1 2926.27 350.607  37
  -5   3   1 2260.28 337.089  40
  -5   3   2 26234.3 1079.09  40
  -5   3   2 26657.6 1690.99  61
  -5   3   2 26931.5 1096.01  37
  -5   3   2 25279.0 1022.09  43
  -5   3   2 28540.1 1079.57  41
  -5   3   3 41059.1 1495.80  37
  -5   3   3 42112.7 1477.47  41
  -5   3   3 39014.8 2116.70  61
  -5   3   3 37011.1 1417.57  43
  -5   3   3 37972.2 1470.95  40
  -5   3   4 22322.4 918.662  43
  -5   3   4 22325.6 1534.43  61
  -5   3   4 21171.1 956.446  40
  -5   3   5 5762.15 444.386  43
  -5   3   5 5288.83 828.175  61
  -5   3   5 6303.27 446.160  27
  -5   3   5 5972.17 486.513  40
  -5   3   6 4175.64 388.272  43
  -5   3   6 3688.37 432.413  40
  -5   3   6 3617.93 381.714  27
  -5   3   7 49236.6 1709.78  27
  -5   3   7 44839.8 1701.90  43
  -5   3   7 49058.9 2465.39  61
  -5   3   8 7627.14 526.360  30
  -5   3   8 7045.63 939.394  61
  -5   3   8 7923.75 531.316  27
  -5   3   8 7175.21 504.506  43
  -5   3   9 13769.6 1216.81  61
  -5   3   9 13695.7 712.102  39
  -5   3   9 14906.1 726.383  43
  -5   3  10 21396.1 1504.46  61
  -5   3  10 22028.0 941.292  39
  -5   3  10 19526.8 884.349  27
  -5   3  10 23027.0 953.643  43
  -5   3  11 7254.81 459.484  27
  -5   3  11 7991.97 498.850  39
  -5   3  11 7706.00 871.396  61
  -5   3  11 7848.69 520.064  43
  -5   3  12 674.246 253.575  39
  -5   3  12 511.281 248.756  43
  -5   3  13 2036.03 271.218  43
  -5   3  13 1823.09 255.990  39
  -5   3  14 7275.33 370.568  39
  -5   3  14 7636.04 392.537  43
  -5   3  15 1581.45 191.318  40
  -5   3  15 1696.59 166.383  43
  -5   4 -13 14585.9 502.966  60
  -5   4 -12 2364.25 178.735  38
  -5   4 -12 2207.25 191.908  60
  -5   4 -11 1396.78 189.204  36
  -5   4 -11 1260.18 193.412  38
  -5   4 -10 14645.9 587.843  36
  -5   4 -10 13334.1 565.728  38
  -5   4  -9 5447.89 361.356  42
  -5   4  -9 5474.41 352.758  36
  -5   4  -8 7748.58 408.160   4
  -5   4  -8 8214.76 457.224  36
  -5   4  -8 9106.06 475.044  42
  -5   4  -7 7459.06 446.797  42
  -5   4  -7 6788.21 427.807  36
  -5   4  -7 6344.71 372.438   4
  -5   4  -7 5673.38 712.916  61
  -5   4  -6 13570.3 584.820   4
  -5   4  -6 14643.0 657.237  42
  -5   4  -6 13745.7 647.522  36
  -5   4  -5 7873.55 408.318   4
  -5   4  -5 7882.22 483.805  42
  -5   4  -5 7341.71 820.873  61
  -5   4  -5 8152.19 498.646  36
  -5   4  -4 5830.76 427.355  42
  -5   4  -4 6651.36 450.995  36
  -5   4  -4 5790.37 758.896  61
  -5   4  -4 5288.93 387.118  41
  -5   4  -4 5599.96 407.901  35
  -5   4  -4 5912.42 345.082   4
  -5   4  -3 36119.3 1260.41  36
  -5   4  -3 30823.7 1196.07  35
  -5   4  -3 30102.8 1182.07  41
  -5   4  -3 34265.0 1242.56  42
  -5   4  -3 29503.2 1770.90  61
  -5   4  -3 32412.6 1120.94   4
  -5   4  -3 27478.2 1169.02  37
  -5   4  -2 6596.81 871.971  61
  -5   4  -2 7484.25 462.353  41
  -5   4  -2 6650.52 469.927  35
  -5   4  -1 16641.2 756.113  35
  -5   4  -1 15226.2 737.041  41
  -5   4   0 15180.9 714.665  41
  -5   4   0 13671.4 701.892  35
  -5   4   1 16058.8 728.183  41
  -5   4   1 14097.7 712.190  35
  -5   4   1 13366.6 1193.91  61
  -5   4   1 13784.5 678.343  40
  -5   4   1 12855.2 609.000   3
  -5   4   1 13477.5 656.619  43
  -5   4   2 8505.74 996.324  61
  -5   4   2 7883.64 499.323  37
  -5   4   2 6905.41 513.692  35
  -5   4   2 7377.02 472.119  43
  -5   4   2 7248.45 420.571   3
  -5   4   2 7508.48 515.137  41
  -5   4   2 6879.60 488.525  40
  -5   4   3 14971.7 738.930  37
  -5   4   3 14383.3 723.217  40
  -5   4   3 15151.1 649.935   3
  -5   4   3 13573.7 1238.59  61
  -5   4   3 14278.1 703.024  43
  -5   4   4 12688.0 659.612  37
  -5   4   4 11339.2 644.292  40
  -5   4   4 12277.4 564.186   3
  -5   4   4 11532.5 1137.59  61
  -5   4   4 12159.0 633.224  43
  -5   4   4 10904.1 573.309   9
  -5   4   5 4362.34 398.941  43
  -5   4   5 4069.76 345.149   9
  -5   4   5 4716.93 438.252  40
  -5   4   5 4077.22 776.841  61
  -5   4   6 24475.2 1038.37  40
  -5   4   6 22901.9 1003.83  43
  -5   4   6 25174.1 1680.73  61
  -5   4   6 23734.4 951.985   9
  -5   4   7 10689.4 1118.72  61
  -5   4   7 10831.2 649.235  40
  -5   4   7 11628.2 644.962  43
  -5   4   7 11308.1 574.371   9
  -5   4   8 2776.94 705.127  61
  -5   4   8 3163.96 401.219  40
  -5   4   8 3655.47 387.042  43
  -5   4   8 2931.59 317.834   9
  -5   4   9 25666.2 1050.07  43
  -5   4   9 25799.8 1682.42  61
  -5   4   9 24087.6 973.343   9
  -5   4  10 16548.6 718.228   9
  -5   4  10 16293.9 1293.19  61
  -5   4  10 17436.7 808.333  43
  -5   4  11 587.536 272.358  43
  -5   4  11 555.429 190.070   9
  -5   4  12 3441.63 322.746  43
  -5   4  12 2869.32 330.080  40
  -5   4  12 3014.34 240.633   9
  -5   4  13 1346.51 229.653  40
  -5   4  13 1237.35 218.241  43
  -5   4  14 114.058 144.555  43
  -5   4  14 194.002 149.052  40
  -5   4  15 1661.72 124.641  43
  -5   5 -12 1275.05 131.667  60
  -5   5 -11 4353.56 233.583  38
  -5   5 -10 1190.72 202.632  42
  -5   5 -10 976.220 167.902  36
  -5   5  -9 1156.71 187.834   4
  -5   5  -9 975.587 211.458  42
  -5   5  -9 1204.39 189.346  36
  -5   5  -8 3132.32 248.751   4
  -5   5  -8 3272.62 314.951  42
  -5   5  -8 3255.92 268.154  36
  -5   5  -7 5969.54 363.485  36
  -5   5  -7 6140.61 336.101   4
  -5   5  -7 5562.22 386.751  42
  -5   5  -6 1272.72 429.840  61
  -5   5  -6 921.955 233.985  36
  -5   5  -6 950.250 197.629   4
  -5   5  -6 853.756 253.808  42
  -5   5  -5 2388.77 327.396  42
  -5   5  -5 2914.62 259.430   4
  -5   5  -5 2549.25 284.133  36
  -5   5  -5 1833.57 468.948  61
  -5   5  -4 13016.3 635.428  41
  -5   5  -4 13624.1 594.164   4
  -5   5  -4 14315.3 1065.51  61
  -5   5  -4 14223.4 689.008  42
  -5   5  -4 14429.2 646.510  36
  -5   5  -3 22943.0 923.321  35
  -5   5  -3 25698.2 961.720  36
  -5   5  -3 23793.4 958.744  41
  -5   5  -3 23028.8 883.248   4
  -5   5  -3 20612.8 1369.20  61
  -5   5  -2 15530.1 1162.68  61
  -5   5  -2 14550.2 595.955   4
  -5   5  -2 13477.7 636.178  35
  -5   5  -2 14239.7 685.399  41
  -5   5  -2 16265.3 695.578  36
  -5   5  -2 11832.2 556.730   8
  -5   5  -1 5513.09 392.464  37
  -5   5  -1 5746.85 340.204   4
  -5   5  -1 5988.86 442.709  41
  -5   5  -1 5088.79 316.411   8
  -5   5  -1 5555.54 407.077  35
  -5   5  -1 5527.82 747.081  61
  -5   5  -1 4524.04 345.162   3
  -5   5   0 8806.08 499.247  35
  -5   5   0 7541.37 447.548   3
  -5   5   0 7323.28 872.092  61
  -5   5   0 8914.11 538.541  41
  -5   5   0 7824.50 471.512  37
  -5   5   1 14691.1 686.777   3
  -5   5   1 16784.5 778.368  41
  -5   5   1 14949.8 715.217  43
  -5   5   1 15298.3 710.348  37
  -5   5   1 16063.4 1250.42  61
  -5   5   1 16293.1 736.432  35
  -5   5   2 3360.79 329.306  40
  -5   5   2 3057.47 347.548  35
  -5   5   2 3353.77 338.442  37
  -5   5   2 2968.84 344.924  43
  -5   5   2 2823.54 384.271  41
  -5   5   2 2802.06 690.368  61
  -5   5   2 3152.29 308.285   3
  -5   5   3 16883.2 741.810  35
  -5   5   3 13809.6 707.264  43
  -5   5   3 16286.5 789.926  41
  -5   5   3 15807.4 691.530   3
  -5   5   3 15913.6 713.921  37
  -5   5   3 13047.0 669.187   9
  -5   5   3 13822.7 688.907  40
  -5   5   3 15386.4 1258.19  61
  -5   5   4 16132.0 734.366  37
  -5   5   4 16092.3 708.184   3
  -5   5   4 16013.1 733.860  40
  -5   5   4 15706.5 752.895  43
  -5   5   4 14737.7 702.460   9
  -5   5   5 5470.12 375.270   3
  -5   5   5 5197.71 418.650  40
  -5   5   5 5126.19 395.028   9
  -5   5   5 5920.42 424.790  37
  -5   5   5 5055.67 425.351  43
  -5   5   6 3088.34 331.817  37
  -5   5   6 3106.32 364.271  43
  -5   5   6 3355.64 351.856  40
  -5   5   6 3754.63 319.825   3
  -5   5   6 2942.69 324.423   9
  -5   5   7 1520.02 280.128   9
  -5   5   7 1432.16 304.395  40
  -5   5   7 881.467 545.178  61
  -5   5   7 1658.21 290.349  37
  -5   5   7 1344.46 310.717  43
  -5   5   7 1747.86 245.253   3
  -5   5   8 247.281 464.443  61
  -5   5   8 92.7466 237.738  37
  -5   5   8 245.734 264.302  43
  -5   5   8 116.259 242.122   9
  -5   5   8 362.414 252.202  40
  -5   5   9 3262.44 360.886  43
  -5   5   9 2698.19 286.036  37
  -5   5   9 2906.52 659.873  61
  -5   5   9 3268.88 323.331   9
  -5   5   9 3177.19 335.897  40
  -5   5  10 1825.93 259.070   9
  -5   5  10 1917.95 220.430  37
  -5   5  10 2007.47 284.573  40
  -5   5  10 2004.20 302.602  43
  -5   5  11 6898.97 411.226  43
  -5   5  11 6646.79 367.102   9
  -5   5  11 7139.53 391.506  40
  -5   5  12 774.557 171.252  40
  -5   5  12 842.640 156.785   9
  -5   5  13 5826.80 260.767  40
  -5   5  13 5884.71 246.607   9
  -5   6 -10 812.750 116.192  38
  -5   6  -9 5397.09 276.637   4
  -5   6  -8 3889.94 246.525   4
  -5   6  -7 7239.32 339.809  36
  -5   6  -7 8054.12 374.681   4
  -5   6  -7 8280.22 426.353  42
  -5   6  -6 6121.78 391.507  42
  -5   6  -6 6517.79 306.586   7
  -5   6  -6 6755.47 353.396   4
  -5   6  -6 6510.17 328.492  36
  -5   6  -5 2547.09 243.878   4
  -5   6  -5 2320.00 295.289  42
  -5   6  -5 1768.96 209.256  36
  -5   6  -5 2167.30 189.329   7
  -5   6  -4 13334.5 551.758   4
  -5   6  -4 11942.5 499.556   7
  -5   6  -4 13564.9 638.194  42
  -5   6  -4 12285.6 529.445  36
  -5   6  -3 5789.25 315.348   7
  -5   6  -3 6065.06 347.787  36
  -5   6  -3 6354.57 355.726   4
  -5   6  -2 10567.3 500.738   8
  -5   6  -2 12022.3 521.601   4
  -5   6  -2 10851.8 885.527  61
  -5   6  -2 11983.1 528.246  36
  -5   6  -1 6928.49 459.214  41
  -5   6  -1 6850.87 370.908  35
  -5   6  -1 6582.96 371.018   8
  -5   6  -1 7339.47 401.279  36
  -5   6  -1 6330.69 394.567   3
  -5   6  -1 5613.60 699.224  61
  -5   6   0 21194.4 835.684   8
  -5   6   0 22011.0 841.977  35
  -5   6   0 22701.0 936.201  41
  -5   6   0 24241.6 882.253  36
  -5   6   0 21966.2 1356.86  61
  -5   6   0 21472.6 880.230   3
  -5   6   1 2543.49 244.327   8
  -5   6   1 2247.62 273.384   3
  -5   6   1 2422.89 563.301  61
  -5   6   1 2853.02 350.901  41
  -5   6   1 2899.37 259.828  35
  -5   6   2 559.537 200.885  37
  -5   6   2 382.620 191.986  35
  -5   6   2 153.401 419.603  61
  -5   6   2 348.891 292.199  41
  -5   6   2 887.383 187.870   8
  -5   6   2 445.892 213.952   3
  -5   6   3 18729.2 813.456  41
  -5   6   3 14793.5 1164.19  61
  -5   6   3 15409.7 670.581  37
  -5   6   3 17120.0 730.137   3
  -5   6   3 16282.0 689.382  35
  -5   6   3 17314.0 674.560   8
  -5   6   4 3421.40 391.058  41
  -5   6   4 3066.82 268.915  37
  -5   6   4 3049.57 614.478  61
  -5   6   4 3490.98 308.299   3
  -5   6   4 3410.88 284.817  35
  -5   6   5 1640.06 231.484  35
  -5   6   5 1634.07 269.571   9
  -5   6   5 1186.25 497.060  61
  -5   6   5 1618.10 223.587  40
  -5   6   5 2002.37 229.638  37
  -5   6   5 1890.27 259.304   3
  -5   6   6 15806.2 657.534  35
  -5   6   6 14910.6 635.779  40
  -5   6   6 16023.8 695.538   9
  -5   6   6 15167.6 1177.52  61
  -5   6   6 17146.6 698.263   3
  -5   6   7 1461.55 207.859  40
  -5   6   7 1399.83 242.349   9
  -5   6   7 1308.35 215.577   3
  -5   6   7 1277.03 272.866  43
  -5   6   8 5556.33 366.176   9
  -5   6   8 5453.29 314.521  40
  -5   6   8 5269.80 315.676   3
  -5   6   9 21992.2 814.543  43
  -5   6   9 22338.5 804.339   9
  -5   6  10 206.615 161.174   9
  -5   6  10 491.596 164.644  43
  -5   6  11 1589.98 159.031   9
  -5   6  11 1601.25 165.165  43
  -5   6  12 305.100 99.0949  41
  -5   7  -9 4768.80 207.223   4
  -5   7  -8 8796.20 336.240   4
  -5   7  -8 7963.36 344.271  42
  -5   7  -7 7445.14 330.565   4
  -5   7  -7 8014.33 360.611  42
  -5   7  -6 7829.86 381.856  42
  -5   7  -6 8014.12 354.055   4
  -5   7  -5 742.068 161.362   4
  -5   7  -5 627.629 126.684   7
  -5   7  -5 749.897 196.649  42
  -5   7  -4 3249.99 237.385   4
  -5   7  -4 3451.58 213.164   7
  -5   7  -3 325.547 135.826   7
  -5   7  -3 501.483 172.567   4
  -5   7  -2 6385.30 313.602   7
  -5   7  -2 5655.79 312.788   8
  -5   7  -2 6397.97 333.817   4
  -5   7  -2 5978.93 348.557  41
  -5   7  -1 496.253 183.097  41
  -5   7  -1 640.201 156.210   8
  -5   7  -1 340.815 151.437   7
  -5   7   0 1149.61 179.640   8
  -5   7   0 939.348 197.164   3
  -5   7   0 1356.96 227.593  41
  -5   7   1 2164.87 237.041   3
  -5   7   1 1898.50 207.487   8
  -5   7   1 2042.70 259.858  41
  -5   7   2 536.510 203.775  41
  -5   7   2 568.660 159.547   8
  -5   7   2 552.710 196.279   3
  -5   7   3 5494.69 308.124   8
  -5   7   3 5937.03 349.491   3
  -5   7   3 5486.50 371.105  41
  -5   7   4 21412.3 835.307  41
  -5   7   4 20670.2 805.107   3
  -5   7   4 20837.6 760.580   8
  -5   7   5 6251.56 351.947   3
  -5   7   5 6031.32 386.409  41
  -5   7   6 19574.6 756.446   3
  -5   7   6 21106.8 801.371  41
  -5   7   7 4385.78 260.505   3
  -5   7   7 4869.64 319.824  41
  -5   7   8 1592.62 181.767  41
  -5   7   8 1319.58 129.605   3
  -5   7   9 16764.1 599.289  41
  -5   8  -5 6071.65 243.283   4
  -5   8  -4 8500.13 348.303  42
  -5   8  -4 9278.60 342.228   4
  -5   8  -3 11819.1 422.454   7
  -5   8  -3 12486.6 445.401   4
  -5   8  -3 11848.7 458.337  42
  -5   8  -2 492.992 114.902   4
  -5   8  -2 666.509 101.962   7
  -5   8  -2 471.971 138.792  42
  -5   8  -1 7281.19 340.488  42
  -5   8  -1 6603.92 279.719   7
  -5   8  -1 7128.80 294.790   4
  -5   8   0 840.347 113.247   7
  -5   8   0 882.394 113.118   8
  -5   8   0 922.490 120.234   4
  -5   8   0 913.031 173.080  42
  -5   8   1 13552.8 493.403  41
  -5   8   1 13854.8 495.628   8
  -5   8   2 3337.44 190.587  41
  -5   8   2 3612.29 186.130   8
  -5   8   3 11826.1 434.583  41
  -5   8   3 12030.8 455.010   3
  -5   8   4 554.903 111.716   3
  -5   8   5 2881.43 157.324   3
  -4  -4   9 23641.2 838.141  28
  -4  -4  10 959.741 176.207  56
  -4  -4  11 1007.80 169.347  56
  -4  -4  12 4357.93 235.959  56
  -4  -4  13 8957.10 341.637  56
  -4  -3  -9 952.847 160.720  34
  -4  -3  -8 889.411 189.326  34
  -4  -3  -7 5718.41 350.064  34
  -4  -3  -7 5451.20 331.775  59
  -4  -3  -6 522.673 222.145  59
  -4  -3  -6 796.093 226.473  34
  -4  -3  -6 600.440 235.901  38
  -4  -3  -5 12419.0 581.105  34
  -4  -3  -4 14809.8 652.143  34
  -4  -3   7 9664.60 483.374  28
  -4  -3   7 10791.0 501.753  56
  -4  -3   8 20330.0 789.691  28
  -4  -3   8 20075.8 794.481  57
  -4  -3   8 19647.9 766.967  26
  -4  -3   8 20869.5 801.929  56
  -4  -3   9 10622.9 511.040  57
  -4  -3   9 9128.20 459.192  26
  -4  -3   9 10106.9 498.217  56
  -4  -3   9 10005.3 492.071  28
  -4  -3  10 8688.82 472.341  88
  -4  -3  10 10239.6 497.415  56
  -4  -3  10 10517.7 474.162  26
  -4  -3  10 10643.5 511.192  28
  -4  -3  10 10019.0 499.407  57
  -4  -3  11 11912.4 550.914  57
  -4  -3  11 11748.2 519.653  30
  -4  -3  11 12747.1 559.888  56
  -4  -3  12 7156.36 371.555  30
  -4  -3  12 7966.16 414.082  57
  -4  -3  12 8349.21 422.616  56
  -4  -3  13 1134.54 177.767  30
  -4  -3  13 1285.46 219.946  56
  -4  -3  13 1267.53 207.878  57
  -4  -3  13 825.706 154.725  88
  -4  -3  14 680.621 182.428  56
  -4  -3  14 1009.38 149.805  30
  -4  -3  15 3124.51 178.239  27
  -4  -2 -12 5860.29 252.805  34
  -4  -2 -11 8619.54 384.084  59
  -4  -2 -11 9406.58 422.814  38
  -4  -2 -10 20533.5 767.678  59
  -4  -2 -10 20016.2 782.745  38
  -4  -2  -9 5389.01 364.576  59
  -4  -2  -9 5030.57 379.995  38
  -4  -2  -8 1462.53 277.715  59
  -4  -2  -8 1537.58 301.585  38
  -4  -2  -7 2090.97 328.428  38
  -4  -2  -7 1763.81 310.309  59
  -4  -2  -6 23564.6 967.861  59
  -4  -2  -6 24859.3 976.929  38
  -4  -2  -5 9949.53 550.684  59
  -4  -2  -5 11233.5 580.174  38
  -4  -2  -4 51295.5 1784.21  38
  -4  -2   6 24342.4 924.426  56
  -4  -2   6 24111.6 927.386  57
  -4  -2   7 33978.6 1228.72  57
  -4  -2   7 32269.3 1203.91  28
  -4  -2   7 34513.8 1233.34  56
  -4  -2   8 14982.2 689.886  28
  -4  -2   8 16188.7 691.034  30
  -4  -2   8 16546.0 728.807  57
  -4  -2   8 16980.2 723.439  56
  -4  -2   9 19811.3 799.675  26
  -4  -2   9 21004.3 843.340  28
  -4  -2   9 20244.3 831.082  30
  -4  -2   9 20456.7 844.212  56
  -4  -2   9 20019.8 857.968  57
  -4  -2  10 264.024 275.904  57
  -4  -2  10 391.817 270.309  28
  -4  -2  10 421.547 268.926  56
  -4  -2  10 529.185 254.989  30
  -4  -2  10 553.571 238.404  26
  -4  -2  11 6707.45 434.632  30
  -4  -2  11 6313.02 445.427  57
  -4  -2  11 6589.31 447.740  56
  -4  -2  12 9421.63 512.540  56
  -4  -2  12 8727.11 481.476  30
  -4  -2  12 8794.83 504.600  57
  -4  -2  13 2221.51 274.612  30
  -4  -2  13 2077.82 302.096  57
  -4  -2  13 1983.30 236.266  39
  -4  -2  13 1691.19 295.592  56
  -4  -2  14 1778.81 242.384  30
  -4  -2  14 1968.77 270.699  56
  -4  -2  14 1866.02 274.783  57
  -4  -2  15 3664.10 264.051  30
  -4  -2  15 3290.65 275.538  56
  -4  -2  16 2884.42 205.138  30
  -4  -1 -13 2620.43 215.163  38
  -4  -1 -13 2856.29 193.152  59
  -4  -1 -12 46.1424 178.396  59
  -4  -1 -12-50.5764 209.018  38
  -4  -1 -11 14963.2 654.213  38
  -4  -1 -11 15659.3 671.711  60
  -4  -1 -11 14610.0 636.392  59
  -4  -1 -10 1191.58 272.830  59
  -4  -1 -10 1559.50 302.456  38
  -4  -1 -10 1592.38 314.964  60
  -4  -1  -9 1671.83 309.773  38
  -4  -1  -9 1227.77 320.990  60
  -4  -1  -9 1959.03 312.313  59
  -4  -1  -8 5248.02 421.854  38
  -4  -1  -8 4494.19 400.909  59
  -4  -1  -8 5199.14 439.552  60
  -4  -1  -7 9782.06 553.714  59
  -4  -1  -7 8581.97 537.764  38
  -4  -1  -7 9058.42 563.723  60
  -4  -1  -6 5278.98 450.690  60
  -4  -1  -6 4274.63 402.031  59
  -4  -1  -6 4893.93 408.330  38
  -4  -1  -5 3516.40 400.755  60
  -4  -1  -5 3352.66 360.855  38
  -4  -1  -5 3042.39 354.558  59
  -4  -1  -4 14179.5 652.492  38
  -4  -1  -4 13843.9 690.882  60
  -4  -1  -3 37838.3 1353.54  38
  -4  -1  -2 11864.6 884.448  61
  -4  -1   5 49048.2 1671.54  57
  -4  -1   6 4765.08 368.179  57
  -4  -1   6 5613.80 382.338  56
  -4  -1   6 4450.89 343.118  30
  -4  -1   7 36952.3 1354.41  30
  -4  -1   7 36863.5 1368.01  39
  -4  -1   7 36224.7 1346.58  28
  -4  -1   7 39987.4 1385.86  56
  -4  -1   7 40205.5 1384.43  57
  -4  -1   8 19220.5 836.227  39
  -4  -1   8 19586.5 833.597  30
  -4  -1   8 21242.3 867.766  57
  -4  -1   8 18987.2 819.696  28
  -4  -1   8 19705.7 839.892  56
  -4  -1   9 1607.03 314.882  30
  -4  -1   9 1777.84 342.364  57
  -4  -1   9 1985.66 300.435  39
  -4  -1   9 1567.96 249.470  10
  -4  -1   9 1664.45 324.515  56
  -4  -1  10 809.231 302.617  30
  -4  -1  10 738.029 299.765  56
  -4  -1  10 940.526 237.053  10
  -4  -1  10 1055.80 318.056  57
  -4  -1  11 9414.52 565.520  30
  -4  -1  11 10094.5 540.851  10
  -4  -1  11 10184.8 586.079  56
  -4  -1  11 10739.7 587.124  57
  -4  -1  12 665.657 307.152  57
  -4  -1  12 330.612 223.867  10
  -4  -1  12 802.983 313.884  56
  -4  -1  12 493.996 285.584  30
  -4  -1  13 134.858 280.890  57
  -4  -1  13 356.077 299.188  56
  -4  -1  13 110.153 203.518  10
  -4  -1  13 392.217 271.779  30
  -4  -1  14 14935.0 673.826  30
  -4  -1  14 14670.1 639.882  10
  -4  -1  14 15450.2 682.920  56
  -4  -1  15 6576.92 400.240  30
  -4  -1  15 6904.09 399.791  39
  -4  -1  16 5514.46 319.883  30
  -4  -1  16 5318.35 306.701  39
  -4  -1  16 4714.38 289.884  27
  -4  -1  17 585.188 118.440  27
  -4  -1  17 524.355 126.028  39
  -4   0 -14 1488.05 177.096  38
  -4   0 -14 1435.14 158.321  59
  -4   0 -13 2252.92 243.555  59
  -4   0 -13 2454.72 258.141  60
  -4   0 -12 2001.17 285.511  60
  -4   0 -12 1602.05 261.368  59
  -4   0 -12 1641.24 215.978  54
  -4   0 -11 15050.4 634.467  54
  -4   0 -11 15181.1 679.215  59
  -4   0 -11 16120.6 711.353  60
  -4   0 -11 15460.9 690.076  38
  -4   0 -10 510.848 291.602  38
  -4   0 -10 431.475 226.457  54
  -4   0 -10 458.733 288.914  60
  -4   0 -10 451.551 220.718  36
  -4   0 -10 402.513 266.231  59
  -4   0  -9 13587.4 677.834  60
  -4   0  -9 12405.8 598.006  36
  -4   0  -9 13167.1 645.642  38
  -4   0  -9 13164.5 643.306  59
  -4   0  -8 19473.0 810.861  36
  -4   0  -8 20982.3 877.874  60
  -4   0  -8 19425.9 849.118  38
  -4   0  -7 4543.03 423.718  60
  -4   0  -7 5244.77 381.503  36
  -4   0  -7 4886.31 401.031  38
  -4   0  -6 37184.8 1320.96  60
  -4   0  -6 33810.5 1261.34  36
  -4   0  -6 34067.1 1848.18  61
  -4   0  -6 34842.0 1283.37  38
  -4   0  -5 10951.3 957.307  61
  -4   0  -5 11372.7 568.956  38
  -4   0  -5 11658.8 589.646  60
  -4   0  -5 11575.7 555.716  36
  -4   0  -4 5090.94 364.472  38
  -4   0  -4 5549.01 373.732  36
  -4   0  -4 5417.54 408.676  60
  -4   0  -4 4972.64 687.203  61
  -4   0  -3 5947.88 372.198  35
  -4   0  -3 6824.42 407.932  36
  -4   0  -3 7147.28 754.813  61
  -4   0  -2 934.467 419.213  61
  -4   0  -2 1257.19 260.401  36
  -4   0  -2 938.935 211.503  35
  -4   0  -1 16129.7 1078.35  61
  -4   0  -1 17303.5 707.477  35
  -4   0   0 77618.1 2501.70  35
  -4   0   0 72696.6 2954.48  61
  -4   0   1 20755.8 836.056  40
  -4   0   1 22282.1 1245.15  61
  -4   0   1 22781.7 862.126  35
  -4   0   2 53196.1 2184.96  61
  -4   0   2 49932.1 1716.59  39
  -4   0   2 51419.8 1729.85  40
  -4   0   3 9083.16 482.208  40
  -4   0   3 9181.84 469.295  39
  -4   0   3 10148.5 774.148  61
  -4   0   4 14904.9 644.816  30
  -4   0   4 15454.8 679.011  40
  -4   0   4 15617.0 669.876  39
  -4   0   5 13222.3 587.292  56
  -4   0   5 13210.9 598.524  57
  -4   0   5 12854.9 607.430  39
  -4   0   5 11823.9 575.710  30
  -4   0   6 53149.2 1808.69  57
  -4   0   6 51582.6 1796.64  30
  -4   0   6 51722.6 1823.06  39
  -4   0   6 54171.6 1803.54  56
  -4   0   7 53151.4 1775.93  57
  -4   0   7 52346.9 1777.11  56
  -4   0   7 49591.0 1753.17  30
  -4   0   7 49042.5 1753.24  10
  -4   0   7 49392.8 1774.93  39
  -4   0   8 34103.7 1239.40  57
  -4   0   8 31125.8 1210.89  56
  -4   0   8 30219.8 1193.91  10
  -4   0   8 31715.6 1207.93  30
  -4   0   9 20848.2 913.467  56
  -4   0   9 21386.2 932.123  57
  -4   0   9 22035.7 930.940  30
  -4   0   9 21232.9 904.637  10
  -4   0  10 14986.2 731.723  10
  -4   0  10 16566.7 758.483  56
  -4   0  10 14456.7 750.314  57
  -4   0  10 15481.2 767.170  30
  -4   0  11 3780.25 408.591  30
  -4   0  11 3629.44 415.552  56
  -4   0  11 4165.93 425.899  57
  -4   0  11 3735.04 391.021  10
  -4   0  12 31643.4 1236.33  10
  -4   0  12 31628.0 1221.66  56
  -4   0  12 30403.6 1216.42  30
  -4   0  13 2172.33 327.160  10
  -4   0  13 1586.67 331.223  30
  -4   0  13 1988.69 356.423  56
  -4   0  14 7437.62 484.843  30
  -4   0  14 8006.87 483.353  10
  -4   0  15 1138.07 243.527  10
  -4   0  15 1018.00 227.790  27
  -4   0  16 20165.1 752.533  27
  -4   0  16 20187.4 785.151  10
  -4   0  16 20800.2 808.881  39
  -4   0  16 20738.5 785.125  30
  -4   0  17 551.577 122.894  27
  -4   0  17 771.671 173.160  39
  -4   0  17 682.855 161.159  30
  -4   0  18 64.5696 85.8703  39
  -4   1 -15 448.681 121.906  59
  -4   1 -14 123.960 138.419  54
  -4   1 -14 200.354 170.472  59
  -4   1 -14 218.053 175.150  38
  -4   1 -13 10611.7 500.447  60
  -4   1 -13 10402.3 485.630  38
  -4   1 -13 10255.3 481.599  59
  -4   1 -13 8958.37 437.586  54
  -4   1 -12 141.605 252.849  38
  -4   1 -12 329.354 254.232  60
  -4   1 -11 4714.02 373.851  36
  -4   1 -11 4928.34 406.260  60
  -4   1 -10 1636.03 305.461  60
  -4   1 -10 1640.14 286.099  36
  -4   1 -10 1680.45 269.812   6
  -4   1  -9 9771.24 538.243  38
  -4   1  -9 9312.91 494.708   6
  -4   1  -9 10052.0 533.498  36
  -4   1  -8 31653.0 1224.24  38
  -4   1  -8 34750.9 1258.93  36
  -4   1  -7 14378.8 637.544  42
  -4   1  -7 13393.4 652.723  36
  -4   1  -7 12869.8 1097.04  61
  -4   1  -6 73320.3 3217.71  61
  -4   1  -6 80249.4 2643.16  36
  -4   1  -6 81080.5 2610.18  42
  -4   1  -5 48499.1 2310.03  61
  -4   1  -5 51591.5 1775.15  36
  -4   1  -4 14859.1 665.634  35
  -4   1  -4 13360.5 617.419  37
  -4   1  -4 16186.3 700.095  36
  -4   1  -4 14761.8 1100.93  61
  -4   1  -3 19607.8 1272.87  61
  -4   1  -3 19717.3 836.915  35
  -4   1  -3 19634.3 808.348  37
  -4   1  -2 20790.4 846.849  37
  -4   1  -2 21280.7 1312.24  61
  -4   1  -2 22853.7 887.249  35
  -4   1  -1 9575.60 500.644  35
  -4   1  -1 7942.94 794.935  61
  -4   1  -1 9266.77 487.629  37
  -4   1   0 32825.6 1227.14  40
  -4   1   0 33947.5 1238.46  37
  -4   1   0 35757.0 1264.04  35
  -4   1   0 32916.5 1684.83  61
  -4   1   1 14566.2 1047.96  61
  -4   1   1 15152.1 665.207  40
  -4   1   2 91791.1 3060.06  30
  -4   1   2 103723. 3132.57  40
  -4   1   2 97174.4 3100.93  39
  -4   1   2 93218.3 3053.62  27
  -4   1   2 107965. 3738.33  61
  -4   1   3 4772.89 368.023  40
  -4   1   3 4492.87 323.675  30
  -4   1   3 4353.73 309.581  27
  -4   1   3 4631.58 342.961  39
  -4   1   3 5026.21 672.143  61
  -4   1   4 45964.9 1546.31  56
  -4   1   4 45969.6 2106.22  61
  -4   1   4 45268.7 1544.27  27
  -4   1   4 43119.8 1545.41  30
  -4   1   4 45627.1 1581.95  39
  -4   1   5 10650.4 548.416  39
  -4   1   5 11057.2 932.460  61
  -4   1   5 10622.1 531.522  56
  -4   1   5 9901.35 528.572  30
  -4   1   6 14424.8 669.593  10
  -4   1   6 13060.8 1059.24  61
  -4   1   6 14709.2 676.559  30
  -4   1   6 15110.1 704.564  39
  -4   1   6 15448.1 689.063  56
  -4   1   7 2770.50 601.834  61
  -4   1   7 3796.20 362.420  30
  -4   1   7 3799.16 362.991  39
  -4   1   7 4149.33 404.548  56
  -4   1   7 3706.19 345.126  10
  -4   1   8 17065.9 779.970  56
  -4   1   8 17230.8 1215.81  61
  -4   1   8 15601.1 742.951  30
  -4   1   8 15347.3 740.495  10
  -4   1   9 43861.7 1631.05  56
  -4   1   9 44481.5 1637.97  10
  -4   1   9 46866.3 1656.81  30
  -4   1  10 40731.1 1499.46  10
  -4   1  10 37448.4 1477.82  30
  -4   1  10 39935.8 1479.11  56
  -4   1  11 22158.9 980.165  30
  -4   1  11 22704.8 1003.94  10
  -4   1  11 22993.4 995.030  56
  -4   1  12 47797.5 1764.52  10
  -4   1  13 13930.2 720.148  10
  -4   1  13 14540.7 674.153  27
  -4   1  14 7761.17 513.920  10
  -4   1  14 9118.60 479.140  27
  -4   1  14 8548.40 512.373  30
  -4   1  15 2258.44 250.743  27
  -4   1  15 2081.72 293.294  10
  -4   1  15 2348.16 290.915  30
  -4   1  16 10004.4 481.866  10
  -4   1  16 9428.27 447.542  30
  -4   1  16 8805.18 405.645  27
  -4   1  17 715.740 149.312  30
  -4   1  18 3775.84 192.113  39
  -4   2 -15 13649.0 488.595  60
  -4   2 -15 13107.8 481.950  59
  -4   2 -14 3952.23 265.262  38
  -4   2 -13 11173.5 516.246  38
  -4   2 -13 11458.6 500.321   6
  -4   2 -12 444.770 250.481  38
  -4   2 -12 60.4914 235.260  36
  -4   2 -12 407.954 251.088  60
  -4   2 -12 201.750 202.765   6
  -4   2 -11 4690.51 388.219  36
  -4   2 -11 4251.61 329.063   6
  -4   2 -11 4541.20 372.253  38
  -4   2 -10 7752.97 431.407   6
  -4   2 -10 8321.07 499.516  36
  -4   2  -9 7313.51 417.654   6
  -4   2  -9 8027.81 491.682  42
  -4   2  -9 7896.51 503.935  36
  -4   2  -8 378.123 216.771   4
  -4   2  -8 702.507 292.938  36
  -4   2  -8 553.755 215.007   6
  -4   2  -8 393.083 248.770  42
  -4   2  -7 24971.9 974.590  42
  -4   2  -7 23403.7 972.482  36
  -4   2  -7 23525.9 915.894   4
  -4   2  -6 36086.7 1311.73   4
  -4   2  -6 40925.5 1407.65  36
  -4   2  -6 38216.6 1361.69  42
  -4   2  -5 8342.96 427.505   4
  -4   2  -5 9220.21 442.681  98
  -4   2  -5 8569.39 472.934  42
  -4   2  -5 7924.91 862.758  61
  -4   2  -5 9253.30 531.309  36
  -4   2  -5 7486.80 483.068  35
  -4   2  -4 23409.2 1428.41  61
  -4   2  -4 19284.8 829.069  41
  -4   2  -4 26213.7 956.854  36
  -4   2  -4 23253.6 920.406  35
  -4   2  -4 21704.2 872.968  42
  -4   2  -4 21891.0 836.183  98
  -4   2  -4 22289.0 818.820   4
  -4   2  -4 20635.7 861.907  37
  -4   2  -3 30513.6 1134.24  37
  -4   2  -3 31697.7 1166.14  35
  -4   2  -3 28534.3 1095.61  41
  -4   2  -3 32406.4 1707.48  61
  -4   2  -3 31511.9 1135.21  42
  -4   2  -2 29947.0 1127.58  35
  -4   2  -2 28447.8 1096.59  37
  -4   2  -2 29541.3 1075.34  41
  -4   2  -2 28724.6 1615.26  61
  -4   2  -1 125579. 4560.25  61
  -4   2  -1 128711. 3944.54  37
  -4   2  -1 121149. 3927.68  40
  -4   2  -1 127290. 3916.28  41
  -4   2  -1 136758. 3980.37  35
  -4   2   0 155133. 4678.83  37
  -4   2   0 145795. 5294.50  61
  -4   2   0 147211. 4659.63  40
  -4   2   0 156488. 4654.17  41
  -4   2   1 16438.6 1180.62  61
  -4   2   1 16397.8 671.004  43
  -4   2   1 15272.6 651.047  27
  -4   2   1 16568.6 718.610  40
  -4   2   2 6340.41 381.193  27
  -4   2   2 6930.80 437.743  40
  -4   2   2 6771.96 392.432  43
  -4   2   2 6842.86 409.538  39
  -4   2   2 6805.00 399.917  30
  -4   2   3 2003.79 257.568  27
  -4   2   3 1936.06 261.082  30
  -4   2   3 2121.39 258.611  43
  -4   2   3 1915.12 263.148  39
  -4   2   3 2341.70 581.479  61
  -4   2   4 13569.0 623.070  43
  -4   2   4 13500.0 616.828  30
  -4   2   4 12968.5 624.122  39
  -4   2   4 14649.2 1115.89  61
  -4   2   4 13099.6 602.405  27
  -4   2   5 5104.06 387.763  39
  -4   2   5 5261.62 383.911  30
  -4   2   5 5359.21 377.498  27
  -4   2   5 6316.62 814.338  61
  -4   2   6 38850.7 2001.92  61
  -4   2   6 37410.8 1359.77  27
  -4   2   6 37075.8 1382.67  39
  -4   2   6 36997.7 1361.72  30
  -4   2   7 12281.2 1096.42  61
  -4   2   7 12222.3 620.486  27
  -4   2   7 11646.1 615.380  30
  -4   2   7 12124.1 621.866  10
  -4   2   8 1036.88 289.722  10
  -4   2   8 115.466 486.547  61
  -4   2   8 862.608 321.133  30
  -4   2   9 7400.57 508.935  10
  -4   2   9 7158.66 913.950  61
  -4   2  10 1590.98 624.754  61
  -4   2  10 1148.55 332.225  10
  -4   2  10 1145.39 311.670  27
  -4   2  11 62.4039 488.338  61
  -4   2  11 13.0015 260.767  27
  -4   2  11 198.737 306.408  30
  -4   2  12 13339.8 648.581  27
  -4   2  12 13238.9 674.556  30
  -4   2  13 31594.3 1181.54  27
  -4   2  13 31233.8 1209.02  30
  -4   2  13 33160.1 1272.00  39
  -4   2  14 6990.82 408.578  27
  -4   2  14 7616.38 452.203  30
  -4   2  14 7269.45 478.976  39
  -4   2  15 23944.3 879.982  30
  -4   2  15 25031.4 937.239  39
  -4   2  16 8620.54 390.182  30
  -4   2  16 9029.99 443.703  39
  -4   2  17 479.747 135.221  39
  -4   3 -15 7394.53 326.983  60
  -4   3 -14 19769.9 685.057   6
  -4   3 -14 17670.3 662.148  38
  -4   3 -13 4786.25 315.483  38
  -4   3 -13 4412.93 291.512   6
  -4   3 -12 10269.8 493.952  38
  -4   3 -12 10291.5 472.313   6
  -4   3 -11 4743.58 357.194  38
  -4   3 -11 4983.16 329.848   6
  -4   3 -10 3416.17 352.486  42
  -4   3 -10 2887.69 267.226   6
  -4   3 -10 2638.64 299.517   4
  -4   3  -9 10600.9 497.904   6
  -4   3  -9 10956.9 994.861  61
  -4   3  -9 10216.7 528.696   4
  -4   3  -9 12613.7 619.842  42
  -4   3  -8 23096.7 892.261   4
  -4   3  -8 23570.8 964.545  42
  -4   3  -8 21491.4 838.738   6
  -4   3  -8 21685.5 1419.89  61
  -4   3  -8 23823.7 882.714  98
  -4   3  -7 6205.75 383.469   4
  -4   3  -7 5378.75 764.451  61
  -4   3  -7 5871.97 433.275  42
  -4   3  -7 6286.34 393.261  98
  -4   3  -6 25181.6 958.199  98
  -4   3  -6 25523.5 1555.46  61
  -4   3  -6 24054.6 989.274  42
  -4   3  -6 23666.3 918.298   4
  -4   3  -5 2269.37 264.629   4
  -4   3  -5 3168.46 650.343  61
  -4   3  -5 2686.10 297.851  98
  -4   3  -5 1998.96 261.271  41
  -4   3  -5 2532.54 317.573  42
  -4   3  -4 26337.7 1010.66  41
  -4   3  -4 26800.0 996.404  98
  -4   3  -4 25828.4 954.366   4
  -4   3  -4 24735.6 996.639  37
  -4   3  -4 25690.5 1567.24  61
  -4   3  -3 56542.1 1909.38  98
  -4   3  -3 55527.0 1862.33   4
  -4   3  -3 56810.1 1929.76  37
  -4   3  -3 57947.4 1941.77  41
  -4   3  -2 19035.1 783.846  41
  -4   3  -2 18735.6 774.270  37
  -4   3  -2 16352.5 707.843   3
  -4   3  -2 18557.0 750.327  98
  -4   3  -1 1478.58 201.954   3
  -4   3  -1 1819.40 262.343  41
  -4   3  -1 1605.14 259.982  37
  -4   3  -1 1498.63 234.954  43
  -4   3  -1 1754.69 251.679  98
  -4   3  -1 1804.46 279.499  40
  -4   3   0 17880.0 781.653  43
  -4   3   0 19067.5 1327.77  61
  -4   3   0 21264.5 843.212  41
  -4   3   0 19679.9 762.631   3
  -4   3   0 17755.5 796.484  40
  -4   3   1 705.274 183.286   3
  -4   3   1 452.650 185.821   9
  -4   3   1 956.123 532.103  61
  -4   3   1 730.468 224.503  43
  -4   3   2 45376.9 1601.69  27
  -4   3   2 49685.8 1603.55   3
  -4   3   2 49711.0 2324.98  61
  -4   3   2 43238.8 1587.95   9
  -4   3   2 48141.4 1644.70  43
  -4   3   3 54485.4 1924.66   9
  -4   3   3 57971.1 1975.15  43
  -4   3   3 58291.3 1947.37  27
  -4   3   3 59379.8 2679.59  61
  -4   3   3 53416.9 1941.39  39
  -4   3   3 62957.2 1941.87   3
  -4   3   4 30746.8 1114.45  27
  -4   3   4 29603.7 1112.67  30
  -4   3   4 29046.8 1134.85  43
  -4   3   4 28662.3 1090.84   9
  -4   3   4 27748.5 1110.93  39
  -4   3   4 30501.3 1771.90  61
  -4   3   5 10684.0 805.872  94
  -4   3   5 11535.1 1088.39  61
  -4   3   5 10711.6 575.819  39
  -4   3   5 10774.7 549.844   9
  -4   3   5 11698.2 577.977  27
  -4   3   5 11348.7 585.497  30
  -4   3   5 11342.0 604.056  43
  -4   3   6 24698.8 968.538   9
  -4   3   6 23975.8 991.540  39
  -4   3   6 21714.0 1287.16  94
  -4   3   7 20627.4 907.031  39
  -4   3   7 21094.8 882.881   9
  -4   3   7 21411.4 910.934  27
  -4   3   7 23696.1 1581.92  61
  -4   3   8 2062.91 358.178  27
  -4   3   8 1888.03 305.183   9
  -4   3   8 1824.16 363.147  30
  -4   3   8 2003.51 335.219  10
  -4   3   8 1446.09 650.824  61
  -4   3   8 2006.05 325.700  39
  -4   3   9 37010.2 1456.99  10
  -4   3   9 39910.6 1492.60  39
  -4   3   9 39002.6 1456.06  27
  -4   3   9 37502.1 1436.58   9
  -4   3   9 39978.8 2277.69  61
  -4   3   9 41400.6 1496.53  30
  -4   3  10 1750.35 359.751  39
  -4   3  10 942.294 647.296  61
  -4   3  10 1727.27 320.445  27
  -4   3  10 1719.79 328.121   9
  -4   3  10 1949.28 348.931  10
  -4   3  10 1617.98 356.300  30
  -4   3  11 16735.5 778.913   9
  -4   3  11 16583.4 778.031  30
  -4   3  11 16631.7 752.151  27
  -4   3  11 15262.5 1358.71  61
  -4   3  11 15879.0 804.297  10
  -4   3  11 16899.3 815.199  39
  -4   3  12 13574.7 625.045  27
  -4   3  12 12161.6 664.170  10
  -4   3  12 13665.7 1252.25  61
  -4   3  12 13206.4 648.442  30
  -4   3  12 13460.2 680.267  39
  -4   3  12 12558.9 643.903   9
  -4   3  13 4772.10 752.941  61
  -4   3  13 6430.68 414.162  30
  -4   3  13 6414.45 380.099  27
  -4   3  13 5958.71 406.484   9
  -4   3  13 5717.28 431.973  10
  -4   3  13 5487.77 423.813  39
  -4   3  14 3370.22 312.184  39
  -4   3  14 3080.08 287.169   9
  -4   3  15 21808.9 815.882  39
  -4   3  16 7468.23 324.271  39
  -4   3  17 13554.4 510.415  43
  -4   4 -15 7114.98 296.400  60
  -4   4 -15 7381.86 285.815   6
  -4   4 -14 8041.92 352.693   6
  -4   4 -13 2077.51 205.226  38
  -4   4 -13 2078.01 208.419   6
  -4   4 -12 3901.47 271.839   6
  -4   4 -12 3653.53 278.810  38
  -4   4 -11 2122.66 265.222   4
  -4   4 -11 2638.71 321.590  42
  -4   4 -11 2109.93 272.827  36
  -4   4 -11 2139.95 233.010   6
  -4   4 -10 1070.40 243.344   4
  -4   4 -10 1522.96 302.820  42
  -4   4 -10 1281.31 253.502  36
  -4   4 -10 1570.64 213.980  98
  -4   4  -9 11979.9 549.451  98
  -4   4  -9 11162.1 500.071   7
  -4   4  -9 11499.1 614.387  42
  -4   4  -9 10900.7 567.286  36
  -4   4  -9 9682.25 893.009  61
  -4   4  -9 11402.9 540.856   4
  -4   4  -8 24417.8 1013.82  36
  -4   4  -8 28784.6 1037.86  98
  -4   4  -8 26416.6 1001.69   4
  -4   4  -8 23608.0 1448.30  61
  -4   4  -8 26410.0 960.579   7
  -4   4  -8 27434.1 1080.12  42
  -4   4  -7 14342.0 608.694   7
  -4   4  -7 14926.9 655.335   4
  -4   4  -7 12864.7 1065.98  61
  -4   4  -7 13532.1 661.613  36
  -4   4  -7 15254.9 724.485  42
  -4   4  -7 15598.4 698.998  98
  -4   4  -6 18603.1 775.284  36
  -4   4  -6 16952.6 728.790   4
  -4   4  -6 18115.0 784.204  98
  -4   4  -6 18366.2 824.546  42
  -4   4  -6 15800.6 1172.79  61
  -4   4  -6 16859.2 686.806   7
  -4   4  -5 19495.8 1310.55  61
  -4   4  -5 21362.6 886.299  42
  -4   4  -5 20099.2 817.918  36
  -4   4  -5 17653.1 715.084   7
  -4   4  -5 17668.2 780.696  35
  -4   4  -5 17327.4 793.419  41
  -4   4  -5 18830.3 806.645  98
  -4   4  -5 17944.2 754.480   4
  -4   4  -4 6403.57 360.895   7
  -4   4  -4 6272.48 797.289  61
  -4   4  -4 7397.13 469.830  36
  -4   4  -4 5658.41 363.596   8
  -4   4  -4 6576.60 440.626  98
  -4   4  -4 6518.99 435.579  41
  -4   4  -4 6042.37 410.130  35
  -4   4  -3 220.286 228.115  37
  -4   4  -3 230.953 174.553   8
  -4   4  -3 277.570 229.993  41
  -4   4  -3 356.298 453.150  61
  -4   4  -3 172.464 189.441   3
  -4   4  -3 163.801 249.659  98
  -4   4  -3 69.4729 217.258  35
  -4   4  -2 6339.32 417.131  37
  -4   4  -2 6613.29 427.211  98
  -4   4  -2 6022.92 397.428   3
  -4   4  -2 6181.48 426.245  35
  -4   4  -2 5974.15 361.909   8
  -4   4  -2 7158.61 464.908  41
  -4   4  -2 5678.29 786.622  61
  -4   4  -2 5987.14 657.361  91
  -4   4  -1 9526.60 959.663  61
  -4   4  -1 9209.47 513.149  35
  -4   4  -1 8422.08 488.296  37
  -4   4  -1 8571.64 444.699   8
  -4   4  -1 8997.54 496.599  98
  -4   4  -1 8521.68 492.342  43
  -4   4  -1 8117.49 480.099  40
  -4   4  -1 10466.0 556.859  41
  -4   4  -1 9379.51 492.787   3
  -4   4  -1 8079.89 721.550  91
  -4   4   0 46676.0 2261.76  61
  -4   4   0 39756.1 1892.44  91
  -4   4   0 44974.1 1569.77  43
  -4   4   0 44111.1 1546.57  98
  -4   4   0 46376.9 1570.00  37
  -4   4   0 47693.4 1599.15  35
  -4   4   0 43983.4 1555.09  40
  -4   4   0 45721.5 1517.52   8
  -4   4   0 47760.6 1566.83   3
  -4   4   0 40180.6 1472.71  21
  -4   4   0 39058.4 1518.80   9
  -4   4   1 24872.1 996.702  40
  -4   4   1 24451.2 1308.94  91
  -4   4   1 24978.7 1009.62  43
  -4   4   1 27618.6 1011.54   3
  -4   4   1 23078.5 967.543   9
  -4   4   1 25286.0 1591.24  61
  -4   4   1 26021.4 956.754   8
  -4   4   1 25372.5 1003.03  37
  -4   4   2 4255.30 358.698   9
  -4   4   2 5719.31 391.906   3
  -4   4   2 4853.70 388.538  40
  -4   4   2 5516.18 404.395  37
  -4   4   2 4407.28 375.883  43
  -4   4   3 16663.9 739.197  40
  -4   4   3 15034.0 728.868  43
  -4   4   3 14915.8 700.745   9
  -4   4   4 42450.7 1474.26  93
  -4   4   4 46860.7 1619.68  43
  -4   4   4 44561.9 1571.75   9
  -4   4   5 50413.3 1763.40   9
  -4   4   5 47332.4 1665.93  93
  -4   4   5 51426.3 1746.03  39
  -4   4   5 51898.0 1808.37  43
  -4   4   5 53318.0 2579.85  61
  -4   4   6 17590.4 833.750  43
  -4   4   6 16200.4 1077.13  94
  -4   4   6 17972.2 779.505  39
  -4   4   6 18076.0 1435.87  61
  -4   4   6 16619.4 723.125  93
  -4   4   6 14581.5 1022.94  83
  -4   4   6 18377.8 804.518   9
  -4   4   7 41060.3 1505.30   9
  -4   4   7 43372.2 2345.93  61
  -4   4   7 42834.6 1558.14  43
  -4   4   7 41922.3 1484.94  39
  -4   4   7 35657.1 1843.41  94
  -4   4   7 32336.2 1760.13  83
  -4   4   8 19770.0 1552.15  61
  -4   4   8 19764.9 847.948  39
  -4   4   8 16390.7 1157.93  94
  -4   4   8 18730.8 864.948   9
  -4   4   9 11921.6 625.608  39
  -4   4   9 11607.0 642.045   9
  -4   4   9 10719.4 1178.99  61
  -4   4  10 19353.2 1577.09  61
  -4   4  10 17882.4 811.342  39
  -4   4  10 17305.6 846.999   9
  -4   4  11 14459.9 708.149   9
  -4   4  11 13386.3 647.785  39
  -4   4  12 35031.2 1283.61   9
  -4   4  12 33193.5 1974.58  61
  -4   4  12 32885.3 1216.78  39
  -4   4  13 3790.14 278.274  39
  -4   4  13 3147.38 329.083   9
  -4   4  14 2798.79 269.618   9
  -4   4  15 90.7188 149.686   9
  -4   4  16 5307.55 268.478  43
  -4   5 -14 7694.64 308.011   6
  -4   5 -13 3407.73 220.522   6
  -4   5 -12 8071.81 349.713   6
  -4   5 -12 6574.86 322.357  38
  -4   5 -11 1510.23 220.570   4
  -4   5 -11 1455.65 195.777  98
  -4   5 -11 1363.90 240.482  42
  -4   5 -10 6760.15 384.261  36
  -4   5 -10 7395.00 376.895   7
  -4   5 -10 7094.06 404.230   4
  -4   5 -10 7365.77 404.270  98
  -4   5  -9 16551.2 709.816  36
  -4   5  -9 17750.4 703.023   7
  -4   5  -9 18145.8 740.506   4
  -4   5  -8 13337.0 606.462   4
  -4   5  -8 12733.0 584.165  36
  -4   5  -8 13213.3 632.522  98
  -4   5  -8 12254.7 565.413   7
  -4   5  -7 5266.95 365.727  36
  -4   5  -7 6211.67 396.783   4
  -4   5  -7 5504.03 351.837   7
  -4   5  -6 21006.8 821.467   7
  -4   5  -6 21144.0 855.417   4
  -4   5  -6 23386.0 921.626  98
  -4   5  -6 20548.8 834.768  36
  -4   5  -5 4727.18 353.174  36
  -4   5  -5 4564.03 334.503   7
  -4   5  -5 4393.59 338.552   8
  -4   5  -5 5108.78 412.614  98
  -4   5  -5 4781.41 303.245  24
  -4   5  -5 4805.87 648.805  61
  -4   5  -4 647.035 287.747  98
  -4   5  -4 986.834 224.796   8
  -4   5  -4 1166.81 217.320  35
  -4   5  -4 870.509 236.163   3
  -4   5  -4 1388.27 484.686  91
  -4   5  -4 1452.02 266.876  36
  -4   5  -4 422.656 437.717  61
  -4   5  -3 8689.78 841.228  91
  -4   5  -3 8683.34 878.903  61
  -4   5  -3 8039.92 483.138   3
  -4   5  -3 8408.83 519.088  98
  -4   5  -3 8261.25 461.868   8
  -4   5  -3 9021.03 491.741  36
  -4   5  -3 8247.51 454.279  35
  -4   5  -2 45787.0 2166.21  61
  -4   5  -2 40916.1 1479.55  21
  -4   5  -2 44763.3 1525.29   8
  -4   5  -2 42301.4 2033.20  91
  -4   5  -2 43404.2 1547.12   3
  -4   5  -2 44945.7 1511.60  35
  -4   5  -2 40371.7 1494.68  37
  -4   5  -1 37158.4 1302.64   8
  -4   5  -1 38631.8 1301.91  35
  -4   5  -1 33758.3 1772.16  91
  -4   5  -1 37019.9 1943.62  61
  -4   5  -1 34010.6 1278.88  37
  -4   5  -1 36347.8 1330.68   3
  -4   5  -1 32070.1 1248.85  21
  -4   5   0 390.524 496.676  61
  -4   5   0 167.643 213.616  37
  -4   5   0 201.540 212.757   8
  -4   5   0 400.440 250.958   9
  -4   5   0 69.0840 221.509  35
  -4   5   0 100.516 177.367  21
  -4   5   0 173.792 236.289   3
  -4   5   0 433.679 255.982  98
  -4   5   0 347.348 414.809  91
  -4   5   1 4907.82 648.328  91
  -4   5   1 4519.98 377.664   9
  -4   5   1 4179.52 322.112  21
  -4   5   1 4969.30 375.218  35
  -4   5   1 4400.42 752.230  61
  -4   5   1 4195.83 389.320   3
  -4   5   1 4605.21 362.227   8
  -4   5   1 4508.46 355.826  40
  -4   5   1 4661.54 362.199  37
  -4   5   2 526.040 269.810   9
  -4   5   2 164.272 229.534  37
  -4   5   2 490.300 193.842  21
  -4   5   2 173.380 221.587   8
  -4   5   2 303.110 234.409  40
  -4   5   3 10292.8 511.898  93
  -4   5   3 10217.7 584.481   9
  -4   5   3 11735.9 579.236  37
  -4   5   3 11856.4 1131.41  61
  -4   5   3 10685.9 565.463  40
  -4   5   3 10944.3 525.192  21
  -4   5   4 29496.4 1553.78  94
  -4   5   4 36225.9 1268.60  37
  -4   5   4 31988.8 1275.06   9
  -4   5   4 32755.9 1962.18  61
  -4   5   4 34564.1 1272.61  40
  -4   5   4 32601.1 1193.81  93
  -4   5   5 9227.75 540.304  40
  -4   5   5 9994.34 534.474  37
  -4   5   5 9249.32 588.351  43
  -4   5   5 9104.59 809.513  94
  -4   5   5 8557.18 487.723  93
  -4   5   5 8964.01 551.765   9
  -4   5   5 9100.71 1080.38  61
  -4   5   5 9280.73 795.162  83
  -4   5   6 17602.6 772.014  93
  -4   5   6 15517.6 1104.45  83
  -4   5   6 21406.9 840.432  37
  -4   5   6 18953.0 862.279   9
  -4   5   6 18851.8 1470.90  61
  -4   5   6 15390.4 1100.14  94
  -4   5   6 18953.4 850.589  40
  -4   5   6 19504.2 884.924  43
  -4   5   7 7560.81 791.213  83
  -4   5   7 8551.29 837.553  94
  -4   5   7 9068.52 582.946   9
  -4   5   7 9354.29 514.810  93
  -4   5   7 9358.82 1109.85  61
  -4   5   7 10429.1 550.331  37
  -4   5   7 9410.15 603.932  43
  -4   5   8 15210.2 743.537   9
  -4   5   8 15724.4 762.537  43
  -4   5   8 10372.4 929.535  83
  -4   5   8 12033.1 977.388  94
  -4   5   9 26927.6 1073.27   9
  -4   5   9 26065.0 1089.26  43
  -4   5  10 5091.64 455.871  43
  -4   5  10 4884.76 448.932   9
  -4   5  11 182.853 448.166  61
  -4   5  11 318.938 267.671   9
  -4   5  11 505.156 281.697  43
  -4   5  12 441.481 235.129   9
  -4   5  12 388.874 239.107  43
  -4   5  13 1625.10 229.372   9
  -4   5  13 1808.71 245.124  43
  -4   5  14 4106.34 256.003   9
  -4   5  14 4315.88 260.955  43
  -4   5  15 5566.81 238.476   9
  -4   6 -13 423.774 97.2633   6
  -4   6 -12 3467.98 202.915   6
  -4   6 -12 3652.73 227.769   4
  -4   6 -11 1919.54 212.898  42
  -4   6 -10 11785.0 499.618   7
  -4   6 -10 12555.3 534.096  98
  -4   6 -10 12350.8 543.132  42
  -4   6  -9 8622.27 445.575   4
  -4   6  -9 9302.16 473.147  98
  -4   6  -9 9143.03 482.651  42
  -4   6  -9 9984.32 440.729   7
  -4   6  -8 16128.8 686.751   4
  -4   6  -8 17678.4 731.699  98
  -4   6  -8 15754.4 710.814  42
  -4   6  -8 16406.1 662.865   7
  -4   6  -7 1807.75 294.758  42
  -4   6  -7 2136.32 285.060   4
  -4   6  -7 2084.57 301.473  98
  -4   6  -7 1963.96 241.199   7
  -4   6  -6 16206.2 677.655  24
  -4   6  -6 18416.5 752.984   4
  -4   6  -6 17649.2 792.158  42
  -4   6  -6 18268.9 782.164  98
  -4   6  -6 17608.8 715.693   7
  -4   6  -5 6264.55 350.224  24
  -4   6  -5 5788.50 396.132  41
  -4   6  -5 7196.29 499.734  42
  -4   6  -5 6416.28 397.702   7
  -4   6  -5 4977.47 704.562  91
  -4   6  -5 5697.53 379.158   8
  -4   6  -4 51871.6 1708.35  24
  -4   6  -4 55130.0 2428.65  91
  -4   6  -4 52654.7 1777.14   8
  -4   6  -4 50833.9 1793.60  41
  -4   6  -4 49248.7 1767.53   3
  -4   6  -3 15455.8 705.270   8
  -4   6  -3 15321.7 722.125  41
  -4   6  -3 14203.7 1109.03  91
  -4   6  -3 15952.3 728.841  98
  -4   6  -3 15912.5 634.407  24
  -4   6  -2 7145.96 783.427  91
  -4   6  -2 6260.53 428.485  98
  -4   6  -2 5510.24 668.809  61
  -4   6  -2 5864.62 387.869  21
  -4   6  -2 5976.75 421.079   8
  -4   6  -2 6267.12 438.006  41
  -4   6  -1 30261.7 1702.90  91
  -4   6  -1 30810.5 1686.72  61
  -4   6  -1 31319.6 1186.11  21
  -4   6  -1 32606.3 1226.64   8
  -4   6  -1 32150.5 1208.36  98
  -4   6  -1 34449.3 1269.58  41
  -4   6  -1 31890.1 1236.53   3
  -4   6   0 13668.0 649.187   8
  -4   6   0 11486.5 981.014  91
  -4   6   0 12081.4 592.749  21
  -4   6   0 12309.8 1019.02  61
  -4   6   0 12480.1 669.663  41
  -4   6   0 13062.5 658.612   3
  -4   6   1 25562.7 1566.92  61
  -4   6   1 29632.2 1115.64   3
  -4   6   1 27977.3 1074.91   8
  -4   6   1 22934.0 1454.99  91
  -4   6   1 25694.2 1027.19  21
  -4   6   1 29355.5 1137.27  41
  -4   6   1 24242.0 1041.81  43
  -4   6   2 637.499 266.161   8
  -4   6   2 781.922 501.539  61
  -4   6   2 1083.24 237.991  21
  -4   6   2 866.887 282.355  43
  -4   6   2 943.925 246.775  93
  -4   6   2 433.367 272.147   3
  -4   6   3 13024.8 644.625  43
  -4   6   3 11666.2 568.440  93
  -4   6   3 11479.8 1073.91  61
  -4   6   3 12618.6 594.927  21
  -4   6   4 3001.03 313.856  93
  -4   6   4 3051.84 293.356  21
  -4   6   4 2236.42 641.895  61
  -4   6   4 3413.57 361.280  43
  -4   6   5 57924.0 2762.79  61
  -4   6   5 63648.4 2001.92  21
  -4   6   5 52208.9 2379.90  94
  -4   6   5 56770.8 1965.17  93
  -4   6   5 58821.3 2051.78  43
  -4   6   6 35704.2 1311.47  93
  -4   6   6 33024.1 1712.64  94
  -4   6   6 37221.1 2065.74  61
  -4   6   7 5597.49 670.351  94
  -4   6   7 7823.77 932.104  61
  -4   6   7 6932.45 427.750  93
  -4   6   7 6809.98 482.329   9
  -4   6   7 7767.61 495.966  43
  -4   6   8 12341.9 1130.65  61
  -4   6   8 13822.3 669.546   9
  -4   6   8 13501.0 660.889  43
  -4   6   9 14466.5 688.197  43
  -4   6   9 15199.3 704.844   9
  -4   6  10 4010.02 318.144  43
  -4   6  10 3684.51 344.545   9
  -4   6  11 6968.43 368.635  43
  -4   6  11 6491.32 387.219   9
  -4   6  12 419.446 169.747   9
  -4   6  12 507.688 139.556  43
  -4   6  13 9079.27 370.720   9
  -4   7 -11 1748.58 142.890   4
  -4   7 -11 1857.27 127.603   6
  -4   7 -10 13061.4 487.285   7
  -4   7  -9 27190.0 911.798   7
  -4   7  -9 25931.5 913.791  42
  -4   7  -8 13292.1 559.571   4
  -4   7  -8 13925.7 553.510   7
  -4   7  -8 14122.6 566.966  42
  -4   7  -7 7221.69 388.530  42
  -4   7  -7 7187.26 367.077   7
  -4   7  -7 7198.32 381.151   4
  -4   7  -6 22217.8 795.746  24
  -4   7  -6 22640.6 846.032   4
  -4   7  -6 21175.7 856.969  98
  -4   7  -6 22606.2 828.954   7
  -4   7  -6 21598.8 850.043  42
  -4   7  -5 17559.6 686.663   7
  -4   7  -5 15952.3 698.040  98
  -4   7  -5 15631.9 675.358   8
  -4   7  -5 16531.5 642.375  24
  -4   7  -5 17844.3 729.730  42
  -4   7  -4 939.488 173.822  24
  -4   7  -4 1004.77 223.561  98
  -4   7  -4 1074.63 232.646   7
  -4   7  -4 1064.12 226.633   8
  -4   7  -4 1493.07 282.325  42
  -4   7  -3-113.494 151.921  24
  -4   7  -3 30.9235 190.015  98
  -4   7  -3-49.8789 180.285   3
  -4   7  -3-37.3603 179.328  41
  -4   7  -3 20.7493 202.727   8
  -4   7  -2 13937.1 559.113  24
  -4   7  -2 12915.2 613.892   3
  -4   7  -2 13749.1 614.992  41
  -4   7  -2 14592.4 642.831   8
  -4   7  -2 12926.4 596.780  21
  -4   7  -1 7380.90 416.852  21
  -4   7  -1 7280.96 432.857  41
  -4   7  -1 7372.55 443.356   8
  -4   7  -1 6688.77 437.783   3
  -4   7   0 5645.74 398.146   8
  -4   7   0 5437.99 384.798  41
  -4   7   0 5421.13 370.015  21
  -4   7   1 301.034 202.910  21
  -4   7   1 434.245 251.100   8
  -4   7   1 578.694 246.055  41
  -4   7   2 8768.00 467.065  21
  -4   7   2 7702.71 428.292  93
  -4   7   2 9824.45 515.405   8
  -4   7   2 9190.76 512.429  41
  -4   7   2 8551.48 510.186   3
  -4   7   3 55285.5 1826.77  41
  -4   7   3 55721.4 1822.54   8
  -4   7   3 52654.5 1758.88  21
  -4   7   3 53623.3 1838.58   3
  -4   7   4 3186.32 282.526  21
  -4   7   4 3092.49 323.230   8
  -4   7   4 3248.18 349.914   3
  -4   7   4 2744.89 326.600  41
  -4   7   4 3048.40 278.521  93
  -4   7   4 2805.72 297.619   9
  -4   7   5 13961.0 596.989  21
  -4   7   5 14621.0 674.125  41
  -4   7   5 14336.0 670.087   3
  -4   7   5 15492.8 660.985   8
  -4   7   5 12463.0 607.832   9
  -4   7   5 12260.7 572.298  93
  -4   7   6 3605.37 289.196  93
  -4   7   6 3952.44 319.541   9
  -4   7   6 4270.74 349.248   8
  -4   7   6 3579.23 268.403  21
  -4   7   6 3899.69 293.200  43
  -4   7   7 2732.64 248.008  43
  -4   7   7 3368.84 298.756   8
  -4   7   7 2845.63 290.073   9
  -4   7   8 624.505 184.513   8
  -4   7   8 542.789 216.317   9
  -4   7   9 44.4385 159.552   3
  -4   7   9 385.104 168.972   9
  -4   7   9 175.898 135.202   8
  -4   7  10 2038.95 181.164   9
  -4   7  10 1750.74 173.191  41
  -4   7  10 1773.73 170.424   3
  -4   7  11 2982.66 162.298   9
  -4   8  -8 1951.20 132.909   7
  -4   8  -7 18265.2 637.808   7
  -4   8  -6 27820.1 935.102   7
  -4   8  -6 28750.5 946.325   4
  -4   8  -6 26962.5 911.910  42
  -4   8  -5 18545.6 677.496  42
  -4   8  -5 19242.4 693.302   7
  -4   8  -5 20155.9 707.524   4
  -4   8  -4 5710.27 297.821  42
  -4   8  -4 6012.61 304.771   7
  -4   8  -4 5123.72 288.308   8
  -4   8  -3 4578.26 285.224   8
  -4   8  -3 5430.29 301.918   7
  -4   8  -3 5342.00 305.677  42
  -4   8  -2 3608.95 279.204  42
  -4   8  -2 3859.69 264.952   8
  -4   8  -1 2343.44 228.236   8
  -4   8  -1 2036.37 203.001   3
  -4   8   0 5397.56 277.441  41
  -4   8   0 5720.43 315.202  21
  -4   8   0 6060.44 330.036   3
  -4   8   0 6470.79 345.608   8
  -4   8   1 12136.7 481.109  41
  -4   8   1 12554.4 536.444   3
  -4   8   1 13119.6 546.100   8
  -4   8   1 12056.6 514.548  21
  -4   8   2 5529.80 324.338   3
  -4   8   2 4695.52 258.088  41
  -4   8   2 5325.59 320.427   8
  -4   8   2 5143.03 292.794  21
  -4   8   3 1396.41 177.836  21
  -4   8   3 1091.42 196.109   8
  -4   8   3 1166.52 148.967  41
  -4   8   4 8151.13 387.519   8
  -4   8   4 7272.17 346.406  21
  -4   8   5 9935.77 426.187   3
  -4   8   5 9716.20 419.883   8
  -4   8   6 5554.04 283.549   8
  -4   8   6 5518.22 302.906   3
  -4   8   7 4734.95 226.246   8
  -4   8   7 5347.73 255.807   3
  -4   9  -1 2562.31 137.368   7
  -4   9   0 636.190 76.1812   8
  -3  -6   4 7788.66 332.406  26
  -3  -6   5 3792.71 221.576  26
  -3  -6   6 2668.34 193.895  26
  -3  -6   7 907.372 146.912  26
  -3  -6   8 3934.53 203.223  28
  -3  -6   8 3822.28 210.056  26
  -3  -6   9 21289.0 734.238  26
  -3  -6   9 23018.1 733.667  28
  -3  -6  10 4430.71 196.541  26
  -3  -5  -8 826.825 109.947  34
  -3  -5  -7 17744.2 643.642  34
  -3  -5  -6 5480.26 315.106  34
  -3  -5  -5 537.117 199.909  34
  -3  -5  -4 1487.68 226.600  34
  -3  -5  -4 2004.97 217.848  32
  -3  -5  -3 10152.2 463.708  32
  -3  -5  -3 9255.79 464.452  34
  -3  -5  -2 7434.84 397.315  32
  -3  -5  -1 859.789 208.356  32
  -3  -5   0 2149.34 246.227  32
  -3  -5   1 43455.1 1486.93  32
  -3  -5   2 11251.2 518.339  32
  -3  -5   3 2858.89 258.776  32
  -3  -5   4 17586.2 658.921  28
  -3  -5   4 16508.3 677.974  32
  -3  -5   5 12439.4 547.599  32
  -3  -5   5 12076.9 553.343  88
  -3  -5   6 1909.79 211.380  32
  -3  -5   6 2040.16 222.673  29
  -3  -5   6 2435.46 245.827  28
  -3  -5   6 2163.77 225.643  88
  -3  -5   7 322.386 177.569  56
  -3  -5   7 158.336 200.872  26
  -3  -5   7 114.777 155.129  88
  -3  -5   7-74.8946 179.080  29
  -3  -5   7-13.9521 184.593  28
  -3  -5   8 5679.26 339.433  26
  -3  -5   8 5470.91 326.778  28
  -3  -5   8 5001.96 306.595  56
  -3  -5   8 5348.51 335.736  88
  -3  -5   9 5964.72 331.117  56
  -3  -5   9 6467.22 356.343  26
  -3  -5   9 5798.05 339.949  28
  -3  -5   9 6471.05 363.158  88
  -3  -5  10 2820.47 241.138  56
  -3  -5  10 3138.80 251.416  26
  -3  -5  10 2953.63 248.231  88
  -3  -5  10 2597.90 241.863  28
  -3  -5  11 1458.18 197.276  56
  -3  -5  11 1433.03 200.160  26
  -3  -5  11 1496.76 193.790  88
  -3  -5  11 1642.08 186.085  57
  -3  -5  11 1415.58 197.996  28
  -3  -5  12 6640.56 312.846  28
  -3  -5  12 5701.45 284.120  57
  -3  -5  12 5652.28 300.682  26
  -3  -5  12 5703.93 294.912  56
  -3  -5  13 3728.59 203.415  57
  -3  -5  13 3824.48 218.966  56
  -3  -5  14 768.793 103.459  56
  -3  -4 -11 1424.37 128.602  34
  -3  -4 -10 5207.74 293.742  34
  -3  -4  -9 7376.49 389.591  59
  -3  -4  -9 7098.25 393.878  34
  -3  -4  -8 186.034 213.282  34
  -3  -4  -8 111.286 238.796  59
  -3  -4  -7 11753.1 589.496  34
  -3  -4  -7 12333.7 546.421  32
  -3  -4  -7 11534.3 590.089  59
  -3  -4  -6 39456.1 1451.60  34
  -3  -4  -6 40102.9 1444.36  59
  -3  -4  -6 39345.2 1397.02  32
  -3  -4  -5 7407.51 438.473  32
  -3  -4  -5 6918.52 475.637  59
  -3  -4  -5 6609.78 471.583  34
  -3  -4  -4 11199.6 555.886  32
  -3  -4  -4 10544.3 580.490  34
  -3  -4  -4 10311.8 570.036  59
  -3  -4  -3 9326.28 500.748  32
  -3  -4  -3 8530.97 515.631  34
  -3  -4  -3 8579.50 513.238  59
  -3  -4  -2 1169.86 266.765  32
  -3  -4  -2 1332.95 215.655  65
  -3  -4  -2 1364.08 278.691  34
  -3  -4  -1 16027.3 717.915  32
  -3  -4   0 18168.7 771.794  32
  -3  -4   1 7208.40 437.231  32
  -3  -4   2 18238.2 747.507  88
  -3  -4   2 19789.3 791.154  32
  -3  -4   3 30122.2 1166.15  88
  -3  -4   3 34967.5 1196.23  32
  -3  -4   4 44548.3 1528.91  32
  -3  -4   4 43697.2 1544.09  88
  -3  -4   4 44017.1 1491.79  28
  -3  -4   5 32898.7 1173.96  29
  -3  -4   5 34297.4 1188.46  28
  -3  -4   5 33715.3 1202.86  32
  -3  -4   5 32825.3 1235.88  88
  -3  -4   6 22674.9 870.331  29
  -3  -4   6 23913.0 887.222  28
  -3  -4   6 21743.1 869.743  32
  -3  -4   6 23299.6 864.452  56
  -3  -4   6 22466.9 928.225  88
  -3  -4   7 4216.10 316.665  57
  -3  -4   7 4099.60 350.493  88
  -3  -4   7 4188.26 342.496  28
  -3  -4   7 3754.26 323.950  29
  -3  -4   7 3704.96 307.443  56
  -3  -4   7 3413.87 287.821  32
  -3  -4   8 6730.06 425.020  29
  -3  -4   8 7253.16 422.866  56
  -3  -4   8 7272.64 467.096  88
  -3  -4   8 8230.30 445.323  26
  -3  -4   8 7489.81 425.476  57
  -3  -4   8 7464.31 436.878  28
  -3  -4   9 38717.7 1378.60  56
  -3  -4   9 37564.2 1380.29  28
  -3  -4   9 39971.5 1390.02  57
  -3  -4   9 39605.7 1392.77  29
  -3  -4   9 42886.3 1405.20  26
  -3  -4  10-26.4175 234.246  28
  -3  -4  10 138.286 241.248  26
  -3  -4  10 367.013 234.417  56
  -3  -4  10 292.415 234.468  57
  -3  -4  11 19738.0 794.291  28
  -3  -4  11 20749.3 798.727  26
  -3  -4  11 21005.9 796.630  56
  -3  -4  11 19606.4 793.070  57
  -3  -4  11 19218.3 762.021  30
  -3  -4  12 597.611 220.608  56
  -3  -4  12 593.541 233.372  57
  -3  -4  12 427.641 212.692  26
  -3  -4  12 402.554 182.149  30
  -3  -4  12 934.124 242.556  28
  -3  -4  13 1735.15 244.904  28
  -3  -4  13 1297.35 227.679  57
  -3  -4  13 1107.04 195.734  30
  -3  -4  13 1413.30 231.507  56
  -3  -4  13 1555.62 241.335  26
  -3  -4  14 5240.36 290.994  30
  -3  -4  14 5420.17 316.415  56
  -3  -4  14 5026.24 308.812  57
  -3  -4  15 711.838 171.313  56
  -3  -4  15 423.182 154.184  57
  -3  -4  15 498.712 133.632  30
  -3  -4  16 5451.71 239.515  57
  -3  -3 -13 333.069 108.893  59
  -3  -3 -12 788.156 178.655  34
  -3  -3 -12 1010.23 159.806  54
  -3  -3 -12 780.620 184.517  59
  -3  -3 -11 1679.68 229.602  54
  -3  -3 -11 1653.04 253.778  59
  -3  -3 -10 25998.9 996.994  38
  -3  -3 -10 26171.0 991.081  59
  -3  -3 -10 24101.2 941.757  54
  -3  -3  -9 19391.5 825.164  38
  -3  -3  -9 18748.6 818.601  59
  -3  -3  -9 18428.0 754.509  32
  -3  -3  -9 17558.9 766.092  54
  -3  -3  -8 5816.91 408.158  32
  -3  -3  -8 5402.59 458.926  38
  -3  -3  -8 5860.63 467.448  59
  -3  -3  -8 5548.78 415.698  54
  -3  -3  -7 9699.86 602.762  59
  -3  -3  -7 10028.4 555.415  32
  -3  -3  -7 9712.51 586.644  38
  -3  -3  -7 9269.70 546.368  54
  -3  -3  -6 29071.3 1124.68  38
  -3  -3  -6 28736.0 1136.10  59
  -3  -3  -6 26690.1 1084.45  32
  -3  -3  -6 25586.1 1063.80  54
  -3  -3  -5 8151.73 506.858  32
  -3  -3  -5 9362.41 564.458  38
  -3  -3  -5 7666.03 546.583  59
  -3  -3  -4 14477.0 700.459  38
  -3  -3  -4 12997.3 684.678  59
  -3  -3  -3 29752.7 1149.71  59
  -3  -3  -3 29112.4 1085.02  65
  -3  -3  -2 2118.04 251.211  65
  -3  -3  -2 1714.82 305.060  59
  -3  -3  -1-34.2626 175.347  65
  -3  -3   2 45320.5 1549.93  88
  -3  -3   3 19768.1 795.385  88
  -3  -3   4 42590.5 1508.52  88
  -3  -3   4 42893.4 1448.84  28
  -3  -3   5 20434.5 794.511  29
  -3  -3   5 20818.1 797.359  56
  -3  -3   5 20720.3 800.638  28
  -3  -3   6 45297.1 1557.50  29
  -3  -3   6 46636.3 1555.80  57
  -3  -3   6 44619.3 1549.63  56
  -3  -3   6 46055.9 1564.91  28
  -3  -3   6 45934.3 2004.86  62
  -3  -3   7 3052.03 314.671  57
  -3  -3   7 3019.67 308.596  29
  -3  -3   7 2585.20 530.650  62
  -3  -3   7 2437.57 292.889  56
  -3  -3   7 2842.93 313.847  28
  -3  -3   8 85562.0 2799.86  57
  -3  -3   8 90620.7 2798.85  26
  -3  -3   8 83632.7 2779.92  56
  -3  -3   8 83596.1 3328.19  62
  -3  -3   8 85927.7 2789.98  28
  -3  -3   8 84865.0 2789.61  29
  -3  -3   9 5723.07 411.874  26
  -3  -3   9 5443.03 704.447  62
  -3  -3   9 5940.38 405.889  56
  -3  -3   9 5914.74 412.937  28
  -3  -3   9 5393.75 406.374  29
  -3  -3   9 5684.14 411.679  57
  -3  -3  10 19070.3 778.930  56
  -3  -3  10 17858.8 782.626  57
  -3  -3  10 18428.1 779.189  26
  -3  -3  10 17703.9 768.156  28
  -3  -3  10 17113.9 1178.03  62
  -3  -3  11 3020.34 335.375  57
  -3  -3  11 2768.74 563.371  62
  -3  -3  11 3613.27 346.758  56
  -3  -3  11 3358.56 352.013  28
  -3  -3  11 3041.75 334.135  26
  -3  -3  11 2930.02 319.404  30
  -3  -3  12 413.108 267.651  57
  -3  -3  12 416.027 256.164  26
  -3  -3  12 584.923 278.661  56
  -3  -3  12 473.958 237.860  30
  -3  -3  12 721.076 287.209  28
  -3  -3  13 16163.8 724.165  30
  -3  -3  13 17302.5 749.772  57
  -3  -3  13 18120.7 742.207  56
  -3  -3  13 18516.5 751.383  26
  -3  -3  13 16983.3 754.747  28
  -3  -3  14 6314.14 383.469  30
  -3  -3  14 5038.98 372.169  56
  -3  -3  14 5600.03 380.038  57
  -3  -3  15 1324.82 228.104  30
  -3  -3  16 5120.91 299.754  30
  -3  -3  16 5333.03 310.564  56
  -3  -3  17 6839.55 304.997  30
  -3  -2 -14 18284.8 652.997  54
  -3  -2 -14 18912.1 677.098  59
  -3  -2 -13 9139.29 455.398  59
  -3  -2 -13 9487.38 442.278  54
  -3  -2 -12 2485.44 323.578  38
  -3  -2 -12 1998.14 295.469  59
  -3  -2 -12 2570.92 290.070  54
  -3  -2 -11 3016.18 327.085  54
  -3  -2 -11 3175.26 383.014  38
  -3  -2 -11 3145.72 361.266  59
  -3  -2 -10 19116.0 841.200  38
  -3  -2 -10 19092.7 860.634  60
  -3  -2 -10 17707.5 799.949  54
  -3  -2 -10 18334.7 836.004  59
  -3  -2  -9 5096.72 453.211  38
  -3  -2  -9 5263.73 492.184  60
  -3  -2  -9 5378.11 459.279  59
  -3  -2  -9 5254.61 427.147  54
  -3  -2  -8 5604.15 475.702  38
  -3  -2  -8 6961.07 525.844  60
  -3  -2  -8 5783.82 496.532  59
  -3  -2  -8 5676.39 463.955  54
  -3  -2  -7 3638.22 440.563  60
  -3  -2  -7 3245.99 367.913  54
  -3  -2  -7 2986.57 395.917  38
  -3  -2  -7 3167.77 413.617  59
  -3  -2  -6 32858.0 1253.71  38
  -3  -2  -6 31204.0 1278.03  59
  -3  -2  -6 31413.0 1227.93  54
  -3  -2  -5 9457.34 543.785  38
  -3  -2  -5 10398.8 608.002  60
  -3  -2  -5 8941.72 557.519  59
  -3  -2  -4 19581.0 798.028  38
  -3  -2  -4 18442.7 830.663  60
  -3  -2  -3 32370.9 1219.78  60
  -3  -2  -3 30468.4 1194.29  59
  -3  -2  -3 32136.9 1194.03  38
  -3  -2  -3 34077.1 1166.99  65
  -3  -2  -2 65360.1 2130.14  65
  -3  -2  -2 64908.9 2183.61  60
  -3  -2  -1 2862.74 242.146  65
  -3  -2   3 25069.7 1170.56  62
  -3  -2   4 25470.1 1248.73  62
  -3  -2   5 2434.61 251.730  28
  -3  -2   5 2417.60 248.116  56
  -3  -2   5 2382.96 242.117  29
  -3  -2   5 2563.96 450.588  62
  -3  -2   5 2413.24 248.916  57
  -3  -2   6 11160.2 520.338  29
  -3  -2   6 10617.0 839.041  62
  -3  -2   6 12080.7 536.668  57
  -3  -2   6 11043.3 520.033  56
  -3  -2   6 11785.7 529.011  28
  -3  -2   7 6146.70 380.606  28
  -3  -2   7 5826.36 380.644  56
  -3  -2   7 5784.09 674.412  62
  -3  -2   7 6188.30 372.132  26
  -3  -2   7 6354.24 397.391  57
  -3  -2   7 5678.08 379.324  29
  -3  -2   8 17605.0 740.231  57
  -3  -2   8 16198.5 717.551  56
  -3  -2   8 17767.2 721.871  26
  -3  -2   8 16640.5 716.051  28
  -3  -2   8 16226.6 1105.94  62
  -3  -2   8 17904.9 733.879  29
  -3  -2   9 14361.0 671.560  28
  -3  -2   9 14695.7 1091.53  62
  -3  -2   9 15090.0 689.991  57
  -3  -2   9 16631.7 689.518  26
  -3  -2   9 15112.9 677.551  56
  -3  -2  10 49834.3 2309.94  62
  -3  -2  10 51100.7 1764.57  57
  -3  -2  10 50236.9 1745.57  28
  -3  -2  10 50754.6 1745.48  56
  -3  -2  10 50537.4 1740.67  26
  -3  -2  11 30992.6 1166.15  57
  -3  -2  11 31428.9 1147.20  56
  -3  -2  11 29021.3 1129.39  26
  -3  -2  11 29483.4 1654.90  62
  -3  -2  11 29306.0 1147.89  28
  -3  -2  12 13030.0 650.757  57
  -3  -2  12 12563.6 638.467  26
  -3  -2  12 13416.6 646.404  56
  -3  -2  12 13934.5 637.372  10
  -3  -2  12 12609.7 644.731  30
  -3  -2  12 14056.5 669.943  28
  -3  -2  13 7227.27 448.508  10
  -3  -2  13 8302.07 518.755  28
  -3  -2  13 8253.58 495.101  30
  -3  -2  14 28159.0 1089.85  30
  -3  -2  14 28420.7 1060.17  10
  -3  -2  15 11987.4 568.673  30
  -3  -2  15 11647.0 563.956  57
  -3  -2  15 10534.3 517.015  10
  -3  -2  15 12735.6 572.661  56
  -3  -2  16 20538.7 775.302  56
  -3  -2  16 18553.2 738.487  10
  -3  -2  16 20398.3 773.596  57
  -3  -2  16 20975.3 790.405  30
  -3  -2  17 9811.77 428.342  57
  -3  -2  18 532.228 131.267  30
  -3  -2  18 271.861 109.545  39
  -3  -2  18 523.863 92.8860  27
  -3  -1 -15 3628.29 236.508  54
  -3  -1 -14 4338.73 312.022  54
  -3  -1 -14 4406.87 331.894  59
  -3  -1 -14 4895.11 344.751  38
  -3  -1 -13 2851.04 334.406  38
  -3  -1 -13 2634.91 300.441  54
  -3  -1 -13 3161.19 333.452  59
  -3  -1 -12 11495.5 599.085  59
  -3  -1 -12 10790.6 566.248  54
  -3  -1 -11 1836.19 350.941  59
  -3  -1 -11 2484.39 342.447  54
  -3  -1 -11 1558.51 352.005  60
  -3  -1 -10 9012.30 568.324  60
  -3  -1 -10 8345.06 518.029  54
  -3  -1 -10 8532.80 546.166  38
  -3  -1 -10 7776.37 532.470  59
  -3  -1  -9 21622.4 865.849  36
  -3  -1  -9 20781.7 938.178  59
  -3  -1  -9 22109.7 934.541  38
  -3  -1  -9 23429.6 972.599  60
  -3  -1  -8 6209.42 488.472  60
  -3  -1  -8 4943.80 431.376  38
  -3  -1  -8 5314.64 360.512  36
  -3  -1  -7 27290.9 1056.43  38
  -3  -1  -7 28737.3 1094.44  60
  -3  -1  -7 25723.3 991.148  36
  -3  -1  -6 10625.8 558.884  38
  -3  -1  -6 11539.5 587.549  60
  -3  -1  -5 1693.84 292.634  60
  -3  -1  -5 1687.15 266.433  38
  -3  -1  -4 6808.45 418.054  60
  -3  -1  -4 7365.20 708.378  61
  -3  -1  -4 6534.05 390.669  38
  -3  -1  -3 31545.7 1514.80  61
  -3  -1  -3 32371.2 1142.75  38
  -3  -1  -3 32946.1 1172.75  60
  -3  -1  -2 16081.8 941.177  61
  -3  -1  -1 54936.6 2145.10  61
  -3  -1   0 28920.1 1303.42  61
  -3  -1   1 15853.1 858.898  61
  -3  -1   2 121418. 4056.19  62
  -3  -1   3 87654.9 3086.82  62
  -3  -1   4 62043.0 2355.60  62
  -3  -1   5 2030.49 236.827  56
  -3  -1   5 1930.20 417.926  62
  -3  -1   5 1883.48 221.697  57
  -3  -1   6 92614.0 3035.02  30
  -3  -1   6 94775.0 3033.25  56
  -3  -1   6 105674. 3576.34  62
  -3  -1   6 92737.2 3019.93  28
  -3  -1   6 101670. 3055.81  57
  -3  -1   7 40628.2 1427.82  28
  -3  -1   7 43522.7 1930.12  62
  -3  -1   7 43492.2 1469.48  57
  -3  -1   7 40448.6 1436.92  56
  -3  -1   7 43657.0 1432.53  26
  -3  -1   8 11222.2 896.555  62
  -3  -1   8 10237.1 499.818  10
  -3  -1   8 9939.15 497.791  28
  -3  -1   8 9762.03 514.859  57
  -3  -1   8 9739.38 478.244  26
  -3  -1   8 9758.39 495.187  56
  -3  -1   9 10549.5 903.541  62
  -3  -1   9 10494.9 540.317  57
  -3  -1   9 9986.08 525.433  10
  -3  -1   9 10638.3 535.953  56
  -3  -1   9 11177.7 541.453  28
  -3  -1   9 9867.80 506.432  26
  -3  -1  10 41570.9 1487.87  26
  -3  -1  10 43296.2 1508.66  28
  -3  -1  10 42406.5 1511.01  57
  -3  -1  10 43872.7 1507.96  56
  -3  -1  10 39048.1 2008.01  62
  -3  -1  10 42405.7 1529.49  10
  -3  -1  11 44882.2 1650.05  30
  -3  -1  11 47728.4 1664.77  28
  -3  -1  11 48201.2 1687.74  10
  -3  -1  11 43348.1 2177.52  62
  -3  -1  11 48570.6 1650.72  56
  -3  -1  11 45663.3 1637.32  26
  -3  -1  12 3881.09 379.336  10
  -3  -1  12 3810.21 382.258  30
  -3  -1  13 45483.8 1649.49  10
  -3  -1  13 46024.7 1620.85  57
  -3  -1  13 45001.6 2193.63  62
  -3  -1  13 44860.8 1631.89  30
  -3  -1  14 7580.14 482.908  57
  -3  -1  14 7051.44 479.319  10
  -3  -1  14 7834.16 490.265  56
  -3  -1  15 5980.08 425.596  56
  -3  -1  15 5590.25 413.863  10
  -3  -1  15 6268.06 415.490  57
  -3  -1  16 2423.85 286.593  10
  -3  -1  16 2480.81 299.534  30
  -3  -1  16 2529.15 291.471  56
  -3  -1  16 2415.08 280.618  57
  -3  -1  17 5955.16 356.577  10
  -3  -1  17 6474.57 364.086  30
  -3  -1  18 3775.19 235.092  10
  -3  -1  18 4066.28 237.093  30
  -3  -1  19 2935.81 168.362  39
  -3   0 -16 2107.53 195.113  54
  -3   0 -15 2837.14 280.499  60
  -3   0 -15 2989.05 253.226  54
  -3   0 -15 2646.96 258.966  38
  -3   0 -14 7438.97 435.740  38
  -3   0 -14 6989.36 430.021  59
  -3   0 -14 6960.95 410.351  54
  -3   0 -14 6744.72 437.193  60
  -3   0 -13 4616.27 396.676  59
  -3   0 -13 4974.77 400.885  38
  -3   0 -12 588.074 297.864  38
  -3   0 -12 651.395 278.419   6
  -3   0 -11 93247.6 2940.35   6
  -3   0 -11 85463.7 2928.79  38
  -3   0 -10 32369.0 1281.89  60
  -3   0 -10 33101.4 1257.84  36
  -3   0 -10 35824.2 1268.13   6
  -3   0  -9 18253.4 793.088  36
  -3   0  -9 19658.9 814.598   6
  -3   0  -8 352.939 230.438  36
  -3   0  -8 360.575 243.869   6
  -3   0  -8 210.490 247.518  38
  -3   0  -7 131.471 222.203   6
  -3   0  -7 159.698 208.452  36
  -3   0  -7 44.5608 460.678  61
  -3   0  -7 307.728 225.580  38
  -3   0  -6 16651.9 710.727  36
  -3   0  -6 19126.6 719.171  42
  -3   0  -6 18061.4 716.166   6
  -3   0  -5 143.888 371.939  61
  -3   0  -5 287.351 192.412  36
  -3   0  -4 2337.92 226.856  35
  -3   0  -4 1802.65 444.948  61
  -3   0  -3 23135.8 1253.15  61
  -3   0  -3 24592.9 892.257  35
  -3   0  -2 11197.6 802.535  61
  -3   0  -2 12524.3 523.619  35
  -3   0  -1 30439.2 1447.70  61
  -3   0  -1 32360.1 1114.95  35
  -3   0   0 51112.0 2035.37  61
  -3   0   1 14564.0 876.350  61
  -3   0   2 54283.5 2131.39  61
  -3   0   3 230170. 7648.74  62
  -3   0   3 248428. 7725.30  61
  -3   0   4 16017.1 934.535  62
  -3   0   4 16795.6 953.170  61
  -3   0   5 87840.0 3154.31  61
  -3   0   5 84690.3 3153.36  62
  -3   0   6 21872.0 1203.20  62
  -3   0   6 21017.4 810.071  57
  -3   0   6 22255.2 1162.11  61
  -3   0   7 124227. 3959.44  10
  -3   0   7 129946. 3962.19  57
  -3   0   7 124876. 3935.32  28
  -3   0   7 124681. 3937.62  56
  -3   0   7 130883. 4516.76  62
  -3   0   7 121831. 3943.66  30
  -3   0   8 52407.2 1782.11  57
  -3   0   8 52516.0 1744.64  26
  -3   0   8 51386.1 1787.96  10
  -3   0   8 51731.0 1765.62  56
  -3   0   8 53638.4 1774.27  28
  -3   0   8 52561.4 1789.69  30
  -3   0   8 51011.7 2262.05  62
  -3   0   9 2248.64 312.100  28
  -3   0   9 2170.56 291.221  56
  -3   0   9 1573.74 525.095  62
  -3   0   9 1978.18 277.197  10
  -3   0   9 2091.57 296.377  30
  -3   0  10 21136.8 868.443  10
  -3   0  10 18348.4 826.357  30
  -3   0  11 20484.6 886.358  10
  -3   0  11 18603.6 822.400  57
  -3   0  11 17504.9 1271.24  62
  -3   0  11 19151.4 825.609  20
  -3   0  12 19627.7 857.256  57
  -3   0  12 20421.1 866.864  20
  -3   0  12 19203.8 898.639  10
  -3   0  12 20573.8 865.117  56
  -3   0  13 38127.5 1417.05  20
  -3   0  13 39181.8 1435.05  30
  -3   0  13 40450.6 1421.35  57
  -3   0  13 41377.8 1437.12  56
  -3   0  13 36181.3 1388.01  25
  -3   0  13 36938.4 1463.36  10
  -3   0  14 27728.2 1114.84  20
  -3   0  14 28856.1 1138.05  30
  -3   0  14 26804.1 1095.51  25
  -3   0  14 30128.1 1181.68  10
  -3   0  14 30637.1 1127.33  57
  -3   0  14 31665.1 1146.41  56
  -3   0  15 815.131 268.942  10
  -3   0  15 1167.72 286.001  30
  -3   0  15 890.966 260.085  20
  -3   0  15 715.139 282.860  56
  -3   0  15 497.961 268.433  25
  -3   0  15 819.750 267.035  57
  -3   0  16 9376.80 469.542  20
  -3   0  16 8435.57 468.647  25
  -3   0  16 9161.28 516.715  10
  -3   0  16 8690.16 477.666  30
  -3   0  17 1727.74 179.084  27
  -3   0  17 1805.97 233.243  30
  -3   0  17 1688.32 254.532  10
  -3   0  18 1713.42 175.747  30
  -3   0  18 1452.90 206.411  10
  -3   0  19 368.486 107.426  10
  -3   1 -17 6775.83 286.105  59
  -3   1 -17 7045.55 292.846  54
  -3   1 -16 998.576 200.917  60
  -3   1 -16 1225.44 202.039  59
  -3   1 -16 1135.83 190.865  54
  -3   1 -15 5449.91 335.840  38
  -3   1 -15 4855.58 348.745  60
  -3   1 -14 15069.7 654.250  38
  -3   1 -14 14020.0 597.324   5
  -3   1 -14 16091.4 672.417   6
  -3   1 -14 15007.2 673.337  60
  -3   1 -13 15887.6 664.847   5
  -3   1 -13 15804.4 725.649  60
  -3   1 -13 17370.1 726.256   6
  -3   1 -13 16397.1 724.046  38
  -3   1 -12 28140.0 1044.05   5
  -3   1 -12 29835.9 1098.23   6
  -3   1 -12 28188.1 1098.77  38
  -3   1 -11 13334.8 669.839  38
  -3   1 -11 14949.6 669.544   6
  -3   1 -11 14865.5 699.299  36
  -3   1 -10 40977.6 1403.70   6
  -3   1 -10 36319.0 1392.80  38
  -3   1 -10 40454.6 1440.56  36
  -3   1  -9 2641.05 333.859  36
  -3   1  -9 3187.72 298.358   6
  -3   1  -9 3172.03 323.871  42
  -3   1  -8 22369.5 871.647  42
  -3   1  -8 21295.1 869.037  36
  -3   1  -8 20712.6 814.178   6
  -3   1  -8 20968.3 835.657   4
  -3   1  -7 6573.39 358.763   6
  -3   1  -7 6748.27 380.104   4
  -3   1  -7 6064.53 746.631  61
  -3   1  -7 7271.55 407.527  42
  -3   1  -7 6048.61 399.170  36
  -3   1  -6 87057.4 2754.69   4
  -3   1  -6 88820.0 2791.84  42
  -3   1  -6 81633.6 3311.86  61
  -3   1  -6 83672.4 2727.65   6
  -3   1  -6 88786.5 2804.82  36
  -3   1  -5 2564.09 517.831  61
  -3   1  -5 2504.06 216.491   4
  -3   1  -5 2603.88 254.061  35
  -3   1  -5 2888.31 274.817  36
  -3   1  -4 32981.7 1612.64  61
  -3   1  -4 32427.5 1121.34  98
  -3   1  -4 35070.7 1183.31  35
  -3   1  -3 1814.06 237.135  35
  -3   1  -3 1502.68 428.652  61
  -3   1  -3 1928.08 188.627  98
  -3   1  -2 148956. 5207.94  61
  -3   1  -2 148334. 4703.28  98
  -3   1  -2 161587. 4773.26  35
  -3   1  -1 29362.6 1422.79  61
  -3   1   0 31808.7 1497.32  61
  -3   1   1 168562. 5659.98  61
  -3   1   2 143121. 4890.65  61
  -3   1   3 76849.8 2904.42  61
  -3   1   4 58549.6 2355.02  61
  -3   1   5 9701.07 781.168  61
  -3   1   6 57522.9 2402.47  61
  -3   1   7 85790.2 2855.16  10
  -3   1   7 94195.8 2860.52  56
  -3   1   7 85914.4 2835.43  20
  -3   1   7 87641.3 2843.26  30
  -3   1   8 3141.47 297.971  10
  -3   1   8 3276.83 323.617  56
  -3   1   8 3337.77 308.520  20
  -3   1   9 1701.29 271.986  20
  -3   1   9 1425.31 269.121  10
  -3   1   9 1508.88 279.583  57
  -3   1  10 9214.14 527.093  20
  -3   1  10 8692.70 527.451  10
  -3   1  10 7732.35 489.707  30
  -3   1  10 8670.22 504.891  25
  -3   1  10 8383.67 506.334  57
  -3   1  11 24232.0 993.802  57
  -3   1  11 23530.4 1002.14  30
  -3   1  11 27525.4 1041.18  56
  -3   1  11 23449.7 1001.35  25
  -3   1  11 28336.1 1078.49  20
  -3   1  11 24664.6 1065.49  10
  -3   1  12 76211.4 2543.35  30
  -3   1  12 77300.0 2527.38  57
  -3   1  12 73933.5 2584.50  10
  -3   1  12 70452.3 2517.95  25
  -3   1  12 74285.6 2564.96  20
  -3   1  12 81420.2 2557.91  56
  -3   1  13 35969.6 1419.34  10
  -3   1  13 37225.9 1368.30  30
  -3   1  13 36155.1 1374.12  25
  -3   1  13 36645.0 1401.99  20
  -3   1  14 3828.18 420.701  10
  -3   1  14 4057.74 379.820  30
  -3   1  14 4324.60 420.405  25
  -3   1  14 3942.96 416.129  20
  -3   1  15 9430.15 513.632  30
  -3   1  15 9979.29 561.306  20
  -3   1  15 9179.11 537.198  25
  -3   1  15 9343.28 465.575  27
  -3   1  16 1988.31 201.588  27
  -3   1  16 1827.28 295.690  20
  -3   1  16 2170.83 319.831  25
  -3   1  16 2422.88 269.680  30
  -3   1  17 303.819 159.483  30
  -3   1  17-8.64431 207.385  20
  -3   1  18 1272.03 189.762  39
  -3   2 -17 479.647 126.082  59
  -3   2 -17 281.849 121.208  54
  -3   2 -16 9636.28 441.992  60
  -3   2 -16 10679.5 459.509   6
  -3   2 -15 3674.11 301.535  60
  -3   2 -15 3263.34 262.741  38
  -3   2 -15 3744.55 307.275   6
  -3   2 -14 28080.1 1042.67  60
  -3   2 -14 28135.5 1016.74  38
  -3   2 -14 26845.4 979.199   5
  -3   2 -14 28343.7 1032.88   6
  -3   2 -13 2459.96 298.882  38
  -3   2 -13 2255.38 292.743   6
  -3   2 -12 1625.18 245.462  22
  -3   2 -12 1800.24 290.809  38
  -3   2 -12 1589.90 254.890  23
  -3   2 -12 1534.08 277.430   6
  -3   2 -11 18397.3 725.648  22
  -3   2 -11 17688.9 740.524   6
  -3   2 -11 16653.4 745.425  38
  -3   2 -10 9648.05 483.654   6
  -3   2 -10 10089.0 515.455   4
  -3   2 -10 9681.55 551.558  42
  -3   2  -9 3114.76 644.765  61
  -3   2  -9 3399.55 335.479  42
  -3   2  -9 3068.34 295.104   4
  -3   2  -8 7368.42 793.137  61
  -3   2  -8 8403.11 434.318   4
  -3   2  -8 8558.19 486.452  42
  -3   2  -8 8833.50 422.694  98
  -3   2  -8 7517.55 389.660   7
  -3   2  -7 8664.99 395.858   7
  -3   2  -7 7791.64 820.031  61
  -3   2  -7 9612.89 446.021  98
  -3   2  -7 8191.73 428.743   4
  -3   2  -7 8067.24 462.410  42
  -3   2  -6 34592.5 1281.53  42
  -3   2  -6 37191.9 1249.63  98
  -3   2  -6 36300.4 1768.93  61
  -3   2  -6 35738.3 1239.78   4
  -3   2  -5 66602.1 2310.24  37
  -3   2  -5 75489.8 2367.83  42
  -3   2  -5 74667.7 2309.12   4
  -3   2  -5 76256.9 2318.22  98
  -3   2  -5 68116.3 2321.36  41
  -3   2  -5 69927.9 2341.52  35
  -3   2  -4 40450.4 1351.15  98
  -3   2  -4 39424.8 1382.26  35
  -3   2  -3 110065. 3508.16  98
  -3   2  -3 117359. 3555.56  35
  -3   2  -3 107350. 3741.22  91
  -3   2  -2 14927.8 1000.45  61
  -3   2  -2 14116.6 615.142  35
  -3   2  -2 13837.8 746.437  91
  -3   2  -2 14572.4 576.083  98
  -3   2  -1 36075.1 1422.13  91
  -3   2  -1 37127.6 1715.54  61
  -3   2  -1 36042.5 1220.39  98
  -3   2   0 63537.5 2007.22  98
  -3   2   0 63002.0 2515.58  61
  -3   2   0 59234.6 2199.89  91
  -3   2   1 146513. 4475.02  98
  -3   2   1 136060. 4675.91  91
  -3   2   1 153173. 5034.19  61
  -3   2   2 25303.2 1064.48  94
  -3   2   2 23136.0 1002.18  83
  -3   2   3 5292.46 489.810  94
  -3   2   3 5009.01 423.471  83
  -3   2   3 5841.37 675.038  61
  -3   2   3 5463.41 290.688  93
  -3   2   4 146920. 4940.43  83
  -3   2   4 147299. 4986.17  94
  -3   2   4 151847. 4668.17  93
  -3   2   5 75952.2 2827.21  83
  -3   2   5 81026.5 2538.44  93
  -3   2   5 81339.2 2899.20  94
  -3   2   6 43962.9 1856.51  86
  -3   2   6 47557.8 1536.07   2
  -3   2   6 45471.4 1892.56  94
  -3   2   6 45838.9 1568.87  20
  -3   2   6 40515.8 1810.65  83
  -3   2   7 50736.2 1715.68   9
  -3   2   7 50400.7 1700.57  25
  -3   2   7 53138.7 1731.99  30
  -3   2   7 49911.3 1686.95   2
  -3   2   7 49892.5 1725.88  20
  -3   2   7 49547.3 1726.07  10
  -3   2   7 49461.6 2078.65  86
  -3   2   7 47907.1 2081.20  94
  -3   2   8 40165.1 1442.35  10
  -3   2   8 39374.3 1439.15  20
  -3   2   8 46128.5 1988.96   1
  -3   2   8 42032.1 1449.49  30
  -3   2   8 35706.2 1783.81  94
  -3   2   8 41721.3 1428.38  25
  -3   2   8 39384.8 1377.11  92
  -3   2   8 39431.8 1420.43   9
  -3   2   8 38137.8 1794.13  86
  -3   2   9 36884.7 1857.00  86
  -3   2   9 40760.1 1470.84  30
  -3   2   9 40571.3 1473.54  10
  -3   2   9 40639.6 1474.74  20
  -3   2   9 36568.9 1854.79  94
  -3   2   9 44910.2 2036.42   1
  -3   2   9 41134.1 1454.37   9
  -3   2   9 38151.5 1396.57  92
  -3   2   9 41856.1 1456.26  25
  -3   2  10 25495.5 1061.74  30
  -3   2  10 25272.5 1491.54  86
  -3   2  10 27782.2 1104.57  25
  -3   2  10 29191.6 1130.41  20
  -3   2  10 24323.5 1016.94  92
  -3   2  10 29308.1 1122.40  10
  -3   2  10 26104.2 1042.62  27
  -3   2  10 28930.5 1627.42   1
  -3   2  10 29391.5 1105.64   9
  -3   2  11 83360.0 2812.99  30
  -3   2  11 82289.8 2788.90  92
  -3   2  11 84142.0 2792.41  27
  -3   2  11 85823.7 3474.47   1
  -3   2  11 86351.8 2861.25   9
  -3   2  11 86938.3 2855.59  25
  -3   2  11 77908.8 3371.35  86
  -3   2  11 86734.5 2882.63  10
  -3   2  11 89791.1 2897.11  20
  -3   2  12 6985.62 525.009  10
  -3   2  12 7965.49 518.413   9
  -3   2  12 7468.46 497.483  92
  -3   2  12 7972.27 569.725  20
  -3   2  12 7713.76 908.269  86
  -3   2  12 8166.08 501.798  30
  -3   2  12 7608.10 460.835  27
  -3   2  12 7720.79 541.840  25
  -3   2  13 7882.51 536.091  10
  -3   2  13 7063.11 507.847   9
  -3   2  13 8142.53 566.763  25
  -3   2  13 8525.87 501.111  30
  -3   2  13 7987.17 560.228  20
  -3   2  13 8382.90 456.340  27
  -3   2  14 414.654 239.020  30
  -3   2  14 592.265 347.345  20
  -3   2  14 134.069 192.644  27
  -3   2  14 342.127 336.779  25
  -3   2  14 277.067 274.605  10
  -3   2  14 362.349 258.545   9
  -3   2  15 23410.6 950.642  10
  -3   2  15 22466.1 861.966  30
  -3   2  15 23696.2 973.230  20
  -3   2  15 21302.4 900.032   9
  -3   2  16 3542.10 302.632   9
  -3   2  16 4244.89 338.667  10
  -3   2  16 3960.18 375.866  20
  -3   2  16 3694.52 251.992  30
  -3   2  17 1220.33 198.742  39
  -3   2  17 1650.14 225.341  10
  -3   2  17 1459.58 246.564  20
  -3   2  18 426.647 102.296  39
  -3   2  18 575.821 133.144  10
  -3   3 -17 7001.03 292.640  59
  -3   3 -16 7055.14 348.755  60
  -3   3 -16 8442.53 378.524   6
  -3   3 -15 1400.53 223.034  60
  -3   3 -15 1725.79 231.155   6
  -3   3 -14 11944.9 526.761  38
  -3   3 -14 13910.2 581.504   6
  -3   3 -13 869.191 243.476   6
  -3   3 -13 890.637 219.730  23
  -3   3 -13 893.226 215.812  22
  -3   3 -13 778.606 220.150  38
  -3   3 -12 27411.9 1051.36  38
  -3   3 -12 29089.7 1043.24  23
  -3   3 -12 28822.8 1063.00   6
  -3   3 -12 29506.6 1047.14  22
  -3   3 -12 29588.9 1114.55  36
  -3   3 -11 74101.1 2439.20  23
  -3   3 -11 77477.4 2516.84  36
  -3   3 -11 75811.5 2440.87  22
  -3   3 -10 13336.7 576.340  22
  -3   3 -10 14696.3 710.472  42
  -3   3 -10 13415.0 604.624   7
  -3   3 -10 13682.6 627.194   4
  -3   3 -10 15171.1 635.252  98
  -3   3 -10 14045.8 660.630  36
  -3   3  -9 60807.0 2079.77  22
  -3   3  -9 63900.3 2121.18   7
  -3   3  -9 58922.9 2692.45  61
  -3   3  -9 67230.8 2154.00   4
  -3   3  -9 68650.3 2164.04  98
  -3   3  -9 69318.1 2229.20  42
  -3   3  -9 62930.0 2170.57  36
  -3   3  -8 6672.38 411.935   4
  -3   3  -8 5965.36 697.276  61
  -3   3  -8 6759.94 383.333   7
  -3   3  -8 6807.95 450.774  42
  -3   3  -8 7650.83 433.398  98
  -3   3  -8 7100.28 429.676  36
  -3   3  -7 13006.0 557.872   7
  -3   3  -7 13103.9 581.292   4
  -3   3  -7 14439.6 620.714  98
  -3   3  -7 12243.2 597.808  36
  -3   3  -7 12285.2 974.997  61
  -3   3  -7 13982.9 651.821  42
  -3   3  -7 14715.7 992.277  91
  -3   3  -6 49891.5 1673.36  42
  -3   3  -6 44455.2 1604.99  41
  -3   3  -6 46471.9 1556.25  24
  -3   3  -6 46554.3 1618.55  36
  -3   3  -6 45363.9 2115.36  61
  -3   3  -6 47060.3 1593.87   4
  -3   3  -6 48661.3 2074.66  91
  -3   3  -6 46429.0 1566.37   7
  -3   3  -6 49888.1 1625.38  98
  -3   3  -5 68109.4 2343.33  35
  -3   3  -5 69432.9 2291.16  24
  -3   3  -5 75355.4 2317.96   7
  -3   3  -5 74063.4 2812.99  91
  -3   3  -5 78177.7 2380.90  36
  -3   3  -5 73552.6 2891.68  61
  -3   3  -5 66371.9 2313.13   8
  -3   3  -5 73678.4 2356.46  98
  -3   3  -5 74897.0 2370.79  41
  -3   3  -4 18213.9 719.761  41
  -3   3  -4 17586.0 698.489  98
  -3   3  -4 17653.7 1114.42  61
  -3   3  -4 16104.3 1014.89  91
  -3   3  -4 16127.7 660.017   8
  -3   3  -4 16705.4 677.331   3
  -3   3  -4 17330.8 698.033  35
  -3   3  -3 85535.2 3283.62  61
  -3   3  -3 84199.9 2740.37  98
  -3   3  -3 83483.1 3141.52  91
  -3   3  -3 87795.6 2755.96  35
  -3   3  -2 29310.8 1384.92  91
  -3   3  -2 29085.0 1043.73  98
  -3   3  -2 29374.6 1061.63  35
  -3   3  -2 28827.1 1510.16  61
  -3   3  -1 5249.52 562.077  91
  -3   3  -1 5729.34 673.407  61
  -3   3  -1 5225.00 330.754  98
  -3   3   0 32458.0 1110.75  98
  -3   3   0 31604.3 1421.65  91
  -3   3   0 29790.5 1251.23  83
  -3   3   1 39037.4 1521.36  94
  -3   3   1 37935.1 1655.92  91
  -3   3   1 39338.8 1507.90  83
  -3   3   2 17469.1 898.311  94
  -3   3   2 18513.8 984.393  91
  -3   3   2 18121.7 651.315  93
  -3   3   2 16357.0 863.208  83
  -3   3   3 12815.6 801.200  91
  -3   3   3 13417.1 519.676  93
  -3   3   3 14440.0 1041.03  61
  -3   3   3 13218.7 782.908  94
  -3   3   3 11634.6 494.511  80
  -3   3   3 13913.0 762.227  83
  -3   3   4 14698.8 1094.36  61
  -3   3   4 14493.7 580.634  93
  -3   3   4 14674.0 863.824  94
  -3   3   4 13447.5 804.762  83
  -3   3   5 37896.8 1293.88  30
  -3   3   5 32268.9 1529.13  83
  -3   3   5 35722.9 1588.11  94
  -3   3   5 36463.5 1283.29   2
  -3   3   5 36006.0 1286.47  39
  -3   3   5 39096.8 1298.28  27
  -3   3   5 34512.0 1271.59  10
  -3   3   5 36432.7 1244.86  93
  -3   3   5 35219.1 1285.94   9
  -3   3   6 8486.07 453.769  10
  -3   3   6 8363.61 428.860  93
  -3   3   6 8183.99 464.439   9
  -3   3   6 8037.83 448.782  39
  -3   3   6 7764.44 419.819  16
  -3   3   6 8832.66 471.322  30
  -3   3   6 9762.29 477.686  27
  -3   3   6 7624.04 689.042  83
  -3   3   6 7275.08 625.290  86
  -3   3   6 7944.68 708.597  94
  -3   3   6 8014.00 447.088   2
  -3   3   7 4607.43 691.168   1
  -3   3   7 4576.39 325.412  16
  -3   3   7 5142.27 381.868  30
  -3   3   7 5212.38 363.285   2
  -3   3   7 5500.71 390.476  27
  -3   3   7 4801.26 341.813  93
  -3   3   7 4483.98 589.519  94
  -3   3   7 4486.26 374.288   9
  -3   3   7 4743.29 354.284  10
  -3   3   7 4437.80 557.285  83
  -3   3   7 4982.65 572.917  86
  -3   3   8 17509.1 725.774  27
  -3   3   8 13455.6 962.660  86
  -3   3   8 15486.3 697.808   2
  -3   3   8 16811.7 1215.34   1
  -3   3   8 14485.4 689.411  10
  -3   3   8 14953.4 659.660  93
  -3   3   8 14321.7 627.809  92
  -3   3   8 15176.5 716.834   9
  -3   3   8 12832.9 953.991  83
  -3   3   8 16892.7 738.736  30
  -3   3   8 14571.3 1035.62  94
  -3   3   8 15024.1 732.111  20
  -3   3   9 77874.5 2626.17  10
  -3   3   9 81759.5 2612.62  27
  -3   3   9 80385.2 2661.14   9
  -3   3   9 67856.1 3018.69  83
  -3   3   9 78147.9 2653.32  20
  -3   3   9 73245.6 3062.23  94
  -3   3   9 81840.7 2638.81  30
  -3   3   9 91714.2 3480.32   1
  -3   3   9 73496.1 2538.30  92
  -3   3   9 73835.2 3052.81  86
  -3   3   9 82499.0 2629.51   2
  -3   3  10 8856.46 542.349  10
  -3   3  10 8351.66 484.523  27
  -3   3  10 8270.63 556.081   9
  -3   3  10 6864.75 791.372  94
  -3   3  10 7618.25 464.370  92
  -3   3  10 8194.98 507.389  30
  -3   3  10 10321.1 1019.08   1
  -3   3  10 7395.20 501.670   2
  -3   3  10 6934.84 796.181  86
  -3   3  10 8544.48 572.916  20
  -3   3  11 2835.49 335.005  30
  -3   3  11 2533.65 324.987  92
  -3   3  11 2399.92 628.646   1
  -3   3  11 2655.84 358.773  10
  -3   3  11 2109.33 549.244  86
  -3   3  11 2789.46 426.304  20
  -3   3  11 2489.77 390.018   9
  -3   3  11 2858.32 321.492  27
  -3   3  11 2561.64 341.483   2
  -3   3  11 2263.64 573.223  94
  -3   3  12 12344.9 688.178   9
  -3   3  12 12340.2 577.773  27
  -3   3  12 11514.0 615.528  92
  -3   3  12 13332.1 624.130  30
  -3   3  12 11302.6 1094.51   1
  -3   3  12 12073.7 645.248  10
  -3   3  12 11949.3 1043.65  86
  -3   3  12 12769.6 632.909   2
  -3   3  12 12205.7 707.344  20
  -3   3  13 9978.16 526.443   2
  -3   3  13 9478.80 552.398  10
  -3   3  13 10241.4 620.163  20
  -3   3  13 9696.41 587.542   9
  -3   3  13 9576.05 541.448  92
  -3   3  13 7806.79 887.428  86
  -3   3  13 9637.33 499.210  30
  -3   3  14 34062.9 1242.88  39
  -3   3  14 33626.7 1283.98   9
  -3   3  14 31562.2 1232.42  92
  -3   3  14 35132.4 1317.68  20
  -3   3  14 33568.8 1212.32   2
  -3   3  14 34324.2 1263.81  10
  -3   3  15 17713.5 725.728  10
  -3   3  15 16075.3 687.279  39
  -3   3  15 17512.0 753.941   9
  -3   3  15 17767.8 782.250  20
  -3   3  16 2161.26 251.356   9
  -3   3  16 2326.35 298.112  20
  -3   3  16 1976.34 217.416  10
  -3   3  17 5082.19 282.829   9
  -3   3  18 11477.8 427.896  43
  -3   4 -16 1795.62 158.427  60
  -3   4 -16 2061.77 192.872   6
  -3   4 -15 335.554 178.377   6
  -3   4 -14 1394.00 207.574  22
  -3   4 -14 1294.11 224.236   6
  -3   4 -14 1160.44 192.171  23
  -3   4 -13 9095.98 425.790  23
  -3   4 -13 9168.23 470.600   4
  -3   4 -13 8843.50 456.953   6
  -3   4 -13 9304.21 440.074  22
  -3   4 -12 2071.59 297.938  42
  -3   4 -12 2305.20 282.204   4
  -3   4 -12 1973.27 226.053  23
  -3   4 -12 2004.02 240.941  22
  -3   4 -12 2120.32 240.485  98
  -3   4 -11 6492.66 352.810  23
  -3   4 -11 6225.29 393.996  98
  -3   4 -11 5889.11 399.019  36
  -3   4 -11 6346.57 451.165  42
  -3   4 -11 5564.08 380.072   7
  -3   4 -11 5920.25 349.826  22
  -3   4 -10 42368.5 1528.15  36
  -3   4 -10 42287.8 1467.64  23
  -3   4 -10 47249.4 1574.48  98
  -3   4 -10 47676.0 1630.74  42
  -3   4 -10 42379.0 1479.59  22
  -3   4 -10 45129.2 1532.49   7
  -3   4  -9 29829.7 1192.68  42
  -3   4  -9 32786.5 1798.81  91
  -3   4  -9 31981.4 1138.00   7
  -3   4  -9 32920.4 1185.48  98
  -3   4  -9 30482.3 1135.71  36
  -3   4  -9 29762.3 1077.95  22
  -3   4  -8 70094.4 2286.97  42
  -3   4  -8 65485.7 2197.27   7
  -3   4  -8 64161.2 2155.45  22
  -3   4  -8 65076.8 2185.34  24
  -3   4  -8 60425.1 2631.77  61
  -3   4  -8 69212.8 2920.48  91
  -3   4  -8 68059.4 2227.20   4
  -3   4  -8 63665.7 2200.72  36
  -3   4  -7 4859.42 332.595   7
  -3   4  -7 4663.82 319.080  24
  -3   4  -7 4028.17 683.986  91
  -3   4  -7 4166.76 322.066  36
  -3   4  -7 4145.59 591.617  61
  -3   4  -7 4893.72 390.364  98
  -3   4  -6 3638.45 276.458  24
  -3   4  -6 4252.77 366.547  98
  -3   4  -6 4182.86 312.943   8
  -3   4  -6 4494.75 323.597   7
  -3   4  -6 4655.99 617.408  61
  -3   4  -6 3786.41 312.365  36
  -3   4  -6 3867.62 649.190  91
  -3   4  -5 956.821 399.540  61
  -3   4  -5 1118.26 187.971  24
  -3   4  -5 1082.81 182.059  66
  -3   4  -5 1010.62 480.462  91
  -3   4  -5 1521.26 224.832   8
  -3   4  -5 1303.41 261.934  98
  -3   4  -5 1407.14 231.325  36
  -3   4  -5 1271.20 221.038   3
  -3   4  -5 1131.33 199.267  35
  -3   4  -4 25415.2 935.380  98
  -3   4  -4 23781.2 862.974  66
  -3   4  -4 22475.9 876.928  35
  -3   4  -4 23572.7 1328.72  61
  -3   4  -4 24715.9 907.432  36
  -3   4  -4 23587.5 1361.45  91
  -3   4  -4 21239.8 868.602  21
  -3   4  -4 23475.9 862.886  24
  -3   4  -4 25545.6 920.038   8
  -3   4  -3 25415.7 1410.07  61
  -3   4  -3 23064.2 910.484  37
  -3   4  -3 23959.8 921.703  21
  -3   4  -3 26153.0 964.500  98
  -3   4  -3 24355.1 900.403  66
  -3   4  -3 25257.3 926.478  35
  -3   4  -3 25102.2 899.585  24
  -3   4  -3 26835.0 1428.92  91
  -3   4  -3 27527.4 961.980   8
  -3   4  -2 14979.8 659.473  37
  -3   4  -2 16412.5 1075.97  91
  -3   4  -2 17894.0 720.717   3
  -3   4  -2 17836.2 702.870   8
  -3   4  -2 17616.2 689.288  35
  -3   4  -2 18001.8 1145.90  61
  -3   4  -2 16676.4 925.832  83
  -3   4  -2 15935.6 672.099  21
  -3   4  -1 2246.62 228.848  21
  -3   4  -1 2385.49 245.566  37
  -3   4  -1 2381.66 514.376  91
  -3   4  -1 2509.05 254.797   8
  -3   4  -1 2136.54 516.089  61
  -3   4  -1 2307.10 252.225  35
  -3   4  -1 2625.01 404.106  83
  -3   4   0 50717.1 1845.41   9
  -3   4   0 60073.7 2457.70  61
  -3   4   0 57029.1 1848.39  98
  -3   4   0 58220.1 2331.20  91
  -3   4   0 53410.2 2062.36  94
  -3   4   0 56379.7 2159.20  83
  -3   4   0 56792.1 1840.33  21
  -3   4   1 47307.4 1917.90  83
  -3   4   1 48283.2 1606.99  98
  -3   4   1 45968.0 1546.62  68
  -3   4   1 47273.0 1626.81   9
  -3   4   1 50276.0 2227.58  61
  -3   4   1 50270.1 2085.79  91
  -3   4   1 47260.3 1638.45  43
  -3   4   1 46021.3 1865.08  94
  -3   4   1 47861.4 1600.60  21
  -3   4   2 19924.4 806.689  43
  -3   4   2 19381.5 756.455  21
  -3   4   2 18925.9 706.012  80
  -3   4   2 18567.8 1035.89  83
  -3   4   2 21120.2 1308.63  61
  -3   4   2 17816.8 996.328  94
  -3   4   2 19777.4 772.262  16
  -3   4   2 18966.7 1132.74  91
  -3   4   2 19383.9 787.139   9
  -3   4   2 18706.9 749.603  98
  -3   4   3 12063.7 897.590  91
  -3   4   3 12215.4 586.487   9
  -3   4   3 12462.0 518.000  80
  -3   4   3 12554.7 573.538  16
  -3   4   3 12649.2 559.187  21
  -3   4   3 12184.0 819.826  83
  -3   4   3 12038.0 594.494  43
  -3   4   3 12424.9 828.453  94
  -3   4   3 14165.0 1069.77  61
  -3   4   4 21361.2 1190.56  83
  -3   4   4 22467.0 881.092  39
  -3   4   4 23157.5 862.675  80
  -3   4   4 23830.0 956.023  43
  -3   4   4 23132.3 1231.53  94
  -3   4   4 23450.7 913.345  16
  -3   4   4 24321.6 1502.98  61
  -3   4   4 24456.2 877.778  93
  -3   4   4 23544.5 937.141   9
  -3   4   5 624.860 230.994   2
  -3   4   5 665.224 211.382  80
  -3   4   5 551.161 234.265   9
  -3   4   5 494.754 195.643  39
  -3   4   5 523.878 218.156  16
  -3   4   5 127.898 321.588  83
  -3   4   5 803.805 228.709  93
  -3   4   5 783.785 384.844  94
  -3   4   6 24260.9 1371.39  94
  -3   4   6 25524.8 1027.41   9
  -3   4   6 26265.4 1002.65  16
  -3   4   6 24392.3 1004.01   2
  -3   4   6 26248.1 967.839  93
  -3   4   6 22971.5 1306.08  83
  -3   4   6 25169.8 970.790  39
  -3   4   7 32553.9 1251.67  20
  -3   4   7 33859.6 1210.42  39
  -3   4   7 28461.1 1507.45  86
  -3   4   7 32680.6 1263.67   9
  -3   4   7 34150.2 1256.13   2
  -3   4   7 29815.7 1603.26  94
  -3   4   7 32303.3 1189.23  93
  -3   4   7 33442.9 1233.56  16
  -3   4   7 27070.0 1562.44  83
  -3   4   7 36231.3 1915.86   1
  -3   4   8 3963.20 365.091  16
  -3   4   8 4514.92 650.721  83
  -3   4   8 4396.43 353.633  39
  -3   4   8 4391.80 424.660  20
  -3   4   8 3042.64 703.788   1
  -3   4   8 4075.49 344.561  10
  -3   4   8 3156.73 602.669  94
  -3   4   8 4037.62 411.143   9
  -3   4   8 4412.36 402.897   2
  -3   4   8 3999.06 369.392  93
  -3   4   8 3930.75 595.285  86
  -3   4   9 33107.5 1938.96   1
  -3   4   9 27775.6 1081.15  92
  -3   4   9 29496.8 1144.25  10
  -3   4   9 25926.6 1540.27  94
  -3   4   9 27810.2 1109.20  93
  -3   4   9 31632.7 1221.63  20
  -3   4   9 30652.3 1180.81  16
  -3   4   9 31296.3 1232.54   9
  -3   4   9 31113.7 1159.31  39
  -3   4   9 26002.6 1546.65  83
  -3   4   9 31889.4 1222.14   2
  -3   4   9 27019.6 1525.78  86
  -3   4  10 35580.1 1878.22  83
  -3   4  10 39074.1 1450.73  10
  -3   4  10 42951.6 1556.15   9
  -3   4  10 43353.4 1538.96  20
  -3   4  10 40194.6 1431.20  39
  -3   4  10 35141.7 1848.99  86
  -3   4  10 39951.8 2207.58   1
  -3   4  10 38553.4 1440.67  16
  -3   4  10 34574.3 1876.21  94
  -3   4  10 35113.6 1369.16  92
  -3   4  10 41012.0 1491.10   2
  -3   4  11 2279.16 403.240  20
  -3   4  11 1482.23 585.580   1
  -3   4  11 2030.45 304.051  10
  -3   4  11 1554.86 514.745  86
  -3   4  11 2474.29 580.278  94
  -3   4  11 2755.89 359.312   2
  -3   4  11 1908.48 289.460  16
  -3   4  11 2018.89 299.696  92
  -3   4  11 1795.16 369.915   9
  -3   4  12 2025.98 377.334  20
  -3   4  12 2272.51 281.164  16
  -3   4  12 2108.68 301.109  92
  -3   4  12 2150.68 371.059   9
  -3   4  12 2560.98 338.117   2
  -3   4  12 2350.02 280.099  10
  -3   4  13 28945.9 1120.89  20
  -3   4  13 28224.2 1125.42   9
  -3   4  13 25690.6 1027.09  92
  -3   4  13 26672.8 1012.47  16
  -3   4  13 28800.3 1074.84   2
  -3   4  14 21386.9 893.615  20
  -3   4  14 20233.8 831.195  92
  -3   4  14 22970.9 908.857   9
  -3   4  14 21875.5 847.789   2
  -3   4  15 250.077 215.610   9
  -3   4  16 2603.23 226.533  43
  -3   4  16 2681.35 232.347   9
  -3   4  17 15813.5 549.784   9
  -3   5 -16 5650.45 245.064   6
  -3   5 -15 3165.07 202.238  22
  -3   5 -15 3006.28 211.469   6
  -3   5 -14 196.381 166.418   6
  -3   5 -14 71.2909 143.135  22
  -3   5 -13 2015.69 200.705  23
  -3   5 -13 2200.86 224.229  98
  -3   5 -13 2567.01 243.405   4
  -3   5 -13 2491.08 219.213  22
  -3   5 -12 13304.5 578.445  98
  -3   5 -12 12282.8 559.878   4
  -3   5 -12 12920.0 567.010   7
  -3   5 -12 12057.2 515.019  23
  -3   5 -12 12683.6 588.709  42
  -3   5 -12 12673.3 529.044  22
  -3   5 -11 23911.3 913.794  42
  -3   5 -11 22755.9 870.682   7
  -3   5 -11 21254.3 823.674  22
  -3   5 -11 21173.7 810.025  23
  -3   5 -11 23043.7 874.405   4
  -3   5 -11 23395.6 900.965  98
  -3   5 -10 1920.15 230.928  22
  -3   5 -10 2282.16 311.430  42
  -3   5 -10 1684.60 283.490   4
  -3   5 -10 1931.24 215.347  23
  -3   5 -10 1834.24 580.608  91
  -3   5 -10 1905.53 267.816   7
  -3   5 -10 2236.04 305.922  98
  -3   5 -10 1596.87 229.763  36
  -3   5  -9 10158.6 465.483  23
  -3   5  -9 11160.5 544.109   7
  -3   5  -9 10728.6 576.443  42
  -3   5  -9 10885.1 502.786  22
  -3   5  -9 10110.1 487.818  36
  -3   5  -9 12087.1 608.645  98
  -3   5  -9 10635.6 526.198  24
  -3   5  -9 10119.1 1046.38  91
  -3   5  -8 15664.3 714.575  98
  -3   5  -8 12506.4 567.208  36
  -3   5  -8 14266.2 631.140   7
  -3   5  -8 13085.1 604.202  24
  -3   5  -8 13513.3 670.719  42
  -3   5  -8 13964.3 1186.63  91
  -3   5  -8 12699.3 547.649  23
  -3   5  -7 117052. 3712.43  98
  -3   5  -7 123363. 3670.28   7
  -3   5  -7 115782. 3607.43  66
  -3   5  -7 106224. 3641.54   8
  -3   5  -7 118769. 3723.28  42
  -3   5  -7 118430. 4508.32  91
  -3   5  -7 106087. 3613.35  24
  -3   5  -6 6565.11 416.990  41
  -3   5  -6 6852.29 424.025   8
  -3   5  -6 7183.68 406.586  24
  -3   5  -6 7928.87 888.988  91
  -3   5  -6 7685.93 417.256  66
  -3   5  -6 6587.11 474.590  98
  -3   5  -5 69695.5 2357.70  21
  -3   5  -5 74547.7 3126.05  91
  -3   5  -5 74104.6 2347.10  24
  -3   5  -5 68717.4 2375.14  41
  -3   5  -5 76008.2 2401.45   8
  -3   5  -5 74064.9 2348.84  66
  -3   5  -5 65464.0 2724.07  61
  -3   5  -5 69314.2 2394.16  98
  -3   5  -5 68656.6 2370.85   3
  -3   5  -4 48067.8 2296.07  91
  -3   5  -4 46458.0 1618.03  66
  -3   5  -4 45101.3 1633.52  21
  -3   5  -4 48216.6 1621.49  24
  -3   5  -4 48787.6 1672.59  41
  -3   5  -4 46664.8 2051.91  61
  -3   5  -4 46109.2 1657.35   3
  -3   5  -4 50619.6 1680.61   8
  -3   5  -3 13898.4 637.484  21
  -3   5  -3 12622.4 565.929  35
  -3   5  -3 15290.5 675.883   8
  -3   5  -3 15706.9 1172.74  91
  -3   5  -3 13855.0 984.123  61
  -3   5  -3 14481.7 664.758  41
  -3   5  -3 14986.0 972.562  83
  -3   5  -3 14928.4 626.231  66
  -3   5  -3 14691.4 664.793  98
  -3   5  -3 13699.6 655.525   3
  -3   5  -2 23483.5 951.309   3
  -3   5  -2 22715.4 1329.86  61
  -3   5  -2 21445.3 846.515  35
  -3   5  -2 22716.2 920.007  98
  -3   5  -2 25413.5 958.827   8
  -3   5  -2 22971.3 912.521  21
  -3   5  -2 23605.7 1290.05  83
  -3   5  -2 25000.3 1469.56  91
  -3   5  -2 24220.7 955.611  41
  -3   5  -1 11038.9 478.137  68
  -3   5  -1 11905.2 951.984  61
  -3   5  -1 13308.4 618.146  41
  -3   5  -1 11037.5 539.727  21
  -3   5  -1 10832.0 540.302  98
  -3   5  -1 9327.96 526.689   9
  -3   5  -1 10443.8 491.739  37
  -3   5  -1 11766.3 576.797   8
  -3   5  -1 11125.9 968.480  91
  -3   5  -1 10025.5 837.870  83
  -3   5  -1 10919.0 493.995  35
  -3   5  -1 10574.1 537.147  43
  -3   5   0 59157.6 2568.04  91
  -3   5   0 59190.1 1979.52  98
  -3   5   0 63827.2 2629.46  61
  -3   5   0 55611.8 1992.78   9
  -3   5   0 54977.0 1987.09  43
  -3   5   0 59405.8 1930.58  68
  -3   5   0 60892.2 2458.47  83
  -3   5   0 59881.0 2325.41  94
  -3   5   0 61883.1 2007.45  21
  -3   5   0 60182.7 1949.14  35
  -3   5   1 51130.3 1666.93  35
  -3   5   1 47990.1 2025.75  94
  -3   5   1 49033.0 1620.27  80
  -3   5   1 47444.5 1702.89  43
  -3   5   1 48454.7 1633.60  68
  -3   5   1 51864.0 1712.11  21
  -3   5   1 49004.8 2239.52  91
  -3   5   1 50903.3 2326.96  61
  -3   5   1 47580.5 1657.76  98
  -3   5   1 46293.3 1696.66   9
  -3   5   1 48216.5 2114.06  83
  -3   5   2 20988.0 830.329  21
  -3   5   2 19399.3 1245.50  91
  -3   5   2 19030.6 749.484  80
  -3   5   2 18509.2 750.091  68
  -3   5   2 18890.5 822.627  43
  -3   5   2 19123.7 1305.97  61
  -3   5   2 19289.7 767.462  98
  -3   5   2 21866.2 1220.14  83
  -3   5   2 20387.1 828.011  16
  -3   5   2 19094.7 1121.63  94
  -3   5   2 19673.3 833.245   9
  -3   5   3 18846.7 747.317  80
  -3   5   3 17376.4 1169.97  91
  -3   5   3 18743.0 818.766   9
  -3   5   3 18033.1 1119.48  94
  -3   5   3 19845.1 815.169  21
  -3   5   3 18338.7 1154.13  83
  -3   5   3 18783.5 809.541  16
  -3   5   3 20213.9 1369.11  61
  -3   5   3 18722.5 822.242  43
  -3   5   4 26553.2 1405.19  83
  -3   5   4 24571.2 941.486  80
  -3   5   4 25435.1 1608.97  61
  -3   5   4 23323.1 1347.14  94
  -3   5   4 25941.6 1035.58  43
  -3   5   4 24752.8 1006.01  16
  -3   5   5 21263.2 936.467  43
  -3   5   5 21159.8 857.312  80
  -3   5   5 21787.6 1509.00  61
  -3   5   5 21311.2 916.880  16
  -3   5   5 22627.6 871.083  93
  -3   5   5 19787.5 1276.62  94
  -3   5   5 20907.1 1253.18  83
  -3   5   6 39938.3 1475.34  80
  -3   5   6 41982.4 1555.46   2
  -3   5   6 42091.8 1549.12  16
  -3   5   6 37846.9 1921.82  83
  -3   5   6 43952.7 1498.66  93
  -3   5   6 45188.6 1587.94  43
  -3   5   6 40308.4 2005.80  94
  -3   5   7 108111. 3544.29   2
  -3   5   7 111451. 3568.69  43
  -3   5   7 111901. 3534.50  16
  -3   5   7 105674. 3463.37  93
  -3   5   7 98728.0 3990.30  83
  -3   5   7 99334.0 4027.76  94
  -3   5   8 24123.1 1496.87  83
  -3   5   8 29059.8 1183.36  43
  -3   5   8 28845.9 1165.06   2
  -3   5   8 28840.9 1153.96  16
  -3   5   8 27460.0 1075.46  93
  -3   5   8 25622.9 1524.70  94
  -3   5   9 7428.22 806.120  83
  -3   5   9 9680.70 569.099  16
  -3   5   9 9705.64 609.981   2
  -3   5   9 8601.18 592.930  43
  -3   5   9 8383.16 513.987  93
  -3   5  10 8136.86 847.413  83
  -3   5  10 8556.00 859.908  94
  -3   5  10 11827.5 675.587   9
  -3   5  10 11954.6 643.142   2
  -3   5  10 10489.6 521.758  92
  -3   5  10 10023.1 544.786  93
  -3   5  10 10413.2 587.067  16
  -3   5  11 2881.74 359.234   2
  -3   5  11 2915.88 382.701  43
  -3   5  11 2965.75 295.151  92
  -3   5  11 1730.48 491.742  94
  -3   5  11 2779.72 319.656  16
  -3   5  11 3482.26 396.833   9
  -3   5  12 2813.73 285.942  92
  -3   5  12 2961.73 351.721   9
  -3   5  12 3333.29 307.380  16
  -3   5  12 3142.39 337.128   2
  -3   5  12 3373.53 349.148  43
  -3   5  13 1554.71 213.406  16
  -3   5  13 1650.90 284.581   9
  -3   5  13 1545.15 254.419  43
  -3   5  14 2102.96 218.206  43
  -3   5  14 2592.55 260.606   9
  -3   5  15 1660.26 192.292   9
  -3   6 -15 11506.9 402.488   6
  -3   6 -14 2050.50 172.992   6
  -3   6 -14 2169.69 160.130  22
  -3   6 -13 3490.39 217.175  22
  -3   6 -13 3336.38 222.212   4
  -3   6 -12 16454.3 633.780   4
  -3   6 -12 16509.8 664.300  98
  -3   6 -12 16284.6 602.759  23
  -3   6 -12 16731.0 622.893  22
  -3   6 -12 17092.7 651.764   7
  -3   6 -11 15.5482 162.536  42
  -3   6 -11 158.514 199.001  98
  -3   6 -11 72.3642 144.355  23
  -3   6 -11 75.9447 175.756   4
  -3   6 -11 32.0993 169.283  22
  -3   6 -11 71.1414 176.461   7
  -3   6 -10 9924.07 485.498   4
  -3   6 -10 9790.04 489.313   7
  -3   6 -10 10679.5 522.445  98
  -3   6 -10 9151.49 435.258  22
  -3   6 -10 9477.77 475.663  42
  -3   6 -10 8389.94 405.205  23
  -3   6  -9 3741.17 305.214  24
  -3   6  -9 3174.79 276.862  22
  -3   6  -9 3263.55 300.353  42
  -3   6  -9 3716.29 348.844  98
  -3   6  -9 3333.00 249.387  23
  -3   6  -9 3489.46 315.538   4
  -3   6  -9 3596.59 309.108   7
  -3   6  -8 2865.10 304.353   7
  -3   6  -8 2282.65 298.224   4
  -3   6  -8 2409.40 285.777  42
  -3   6  -8 1996.82 268.799  24
  -3   6  -8 2339.22 644.952  91
  -3   6  -8 2452.71 237.330  23
  -3   6  -8 2827.48 352.975  98
  -3   6  -7 53899.3 1863.91  42
  -3   6  -7 56198.2 1856.07   7
  -3   6  -7 51142.5 2557.51  91
  -3   6  -7 54715.6 1816.93  66
  -3   6  -7 51313.8 1811.40  24
  -3   6  -6 1000.00 288.188  42
  -3   6  -6 1146.05 246.073  66
  -3   6  -6 1048.03 300.229  98
  -3   6  -6 1013.58 547.566  91
  -3   6  -6 1095.89 237.358  24
  -3   6  -5 28506.4 1113.36  98
  -3   6  -5 29275.4 1746.38  91
  -3   6  -5 29711.2 1082.55  66
  -3   6  -5 25114.4 1034.48  41
  -3   6  -5 26744.0 1066.18  21
  -3   6  -5 27854.8 1063.10   3
  -3   6  -5 30682.7 1075.09  24
  -3   6  -4 13569.1 629.208  41
  -3   6  -4 13414.3 643.752   3
  -3   6  -4 13345.0 636.467  66
  -3   6  -4 13948.1 1179.35  91
  -3   6  -4 15039.7 679.987   8
  -3   6  -4 13257.3 668.293  98
  -3   6  -4 13462.4 643.212  21
  -3   6  -3 7030.44 455.631  98
  -3   6  -3 7432.62 889.007  91
  -3   6  -3 6543.12 731.092  83
  -3   6  -3 7623.02 481.789   8
  -3   6  -3 7293.30 440.004  41
  -3   6  -3 7331.37 463.071  21
  -3   6  -3 7415.54 460.020   3
  -3   6  -2 7783.54 476.516   3
  -3   6  -2 7299.91 450.100  41
  -3   6  -2 7603.38 871.467  91
  -3   6  -2 6529.62 445.407  21
  -3   6  -2 6876.67 443.551  98
  -3   6  -2 6960.81 752.386  83
  -3   6  -2 6309.62 374.165  68
  -3   6  -2 7719.71 485.023   8
  -3   6  -1 3225.91 340.785  41
  -3   6  -1 3644.22 669.056  91
  -3   6  -1 4012.25 381.551   8
  -3   6  -1 3345.62 284.143  68
  -3   6  -1 3663.35 354.836  21
  -3   6  -1 3655.22 330.184  98
  -3   6  -1 4166.22 386.206   3
  -3   6   0 7122.89 397.679  68
  -3   6   0 6369.16 750.598  83
  -3   6   0 7060.89 815.350  91
  -3   6   0 6292.14 423.588   9
  -3   6   0 6444.36 407.976  98
  -3   6   0 6488.43 716.745  61
  -3   6   0 7852.10 485.699  41
  -3   6   0 7423.65 708.472  94
  -3   6   0 7061.16 462.001  21
  -3   6   0 6753.59 385.786  80
  -3   6   1 592.418 201.933  98
  -3   6   1 705.824 217.862  68
  -3   6   1 812.306 221.219  80
  -3   6   1 693.634 244.057   9
  -3   6   1 655.155 432.577  61
  -3   6   1 742.509 226.940  43
  -3   6   1 610.640 458.896  83
  -3   6   1 764.110 255.271  21
  -3   6   1 443.012 454.960  91
  -3   6   1 571.795 430.552  94
  -3   6   2 9095.24 838.364  94
  -3   6   2 10237.5 527.782  43
  -3   6   2 9800.06 552.662  21
  -3   6   2 10532.9 890.785  83
  -3   6   2 8800.33 885.422  91
  -3   6   2 10848.6 936.581  61
  -3   6   2 8627.58 485.405  68
  -3   6   2 9002.59 483.504  80
  -3   6   2 9121.62 529.962   9
  -3   6   3 2759.95 330.357  21
  -3   6   3 2667.09 300.548  80
  -3   6   3 2043.95 573.754  61
  -3   6   3 2939.67 562.467  94
  -3   6   3 2282.30 335.260  16
  -3   6   3 2567.17 563.525  83
  -3   6   3 2523.43 332.297   9
  -3   6   3 2830.44 312.208  43
  -3   6   4 38069.7 1410.00  21
  -3   6   4 39683.3 1355.03  93
  -3   6   4 37956.5 1404.59  16
  -3   6   4 35436.7 1322.82  80
  -3   6   4 36547.0 1395.10   9
  -3   6   4 34414.9 1805.99  94
  -3   6   4 33600.0 1784.42  83
  -3   6   4 37985.1 1383.00  43
  -3   6   4 34347.1 1952.62  61
  -3   6   5 4765.26 672.348  94
  -3   6   5 4291.96 619.606  83
  -3   6   5 4272.99 382.513  93
  -3   6   5 4459.86 416.401  16
  -3   6   5 4696.18 397.823  43
  -3   6   5 5433.01 809.956  61
  -3   6   5 4044.74 364.247  80
  -3   6   5 5070.17 431.488   9
  -3   6   6 6708.90 799.573  94
  -3   6   6 9123.65 529.118  43
  -3   6   6 7713.57 951.903  61
  -3   6   6 9304.71 551.994  16
  -3   6   6 8991.25 513.114  93
  -3   6   6 8128.66 827.267  83
  -3   6   6 7775.35 480.586  80
  -3   6   6 8438.95 543.475   9
  -3   6   7 56821.1 2758.21  61
  -3   6   7 58953.2 2036.40   9
  -3   6   7 49392.1 2417.40  83
  -3   6   7 52183.6 2444.40  94
  -3   6   7 59097.4 2037.01  16
  -3   6   7 56514.6 1956.63  93
  -3   6   7 61562.1 2023.48  43
  -3   6   8 4843.52 431.874  16
  -3   6   8 5143.37 402.956  43
  -3   6   8 4322.29 789.565  61
  -3   6   8 4226.61 630.965  94
  -3   6   8 4671.78 423.845   9
  -3   6   8 3978.01 363.334  93
  -3   6   9 56738.8 1899.41   9
  -3   6   9 56385.4 1839.45  43
  -3   6   9 53128.8 2631.93  61
  -3   6   9 45892.8 2195.76  94
  -3   6   9 50986.4 1838.80  16
  -3   6   9 49628.6 1765.18  93
  -3   6  10 6908.40 438.136  16
  -3   6  10 6821.87 474.905   9
  -3   6  10 6999.68 871.768  61
  -3   6  10 7274.16 417.685  43
  -3   6  11 3790.47 309.641  16
  -3   6  11 3602.89 268.938  43
  -3   6  11 3883.36 337.208   9
  -3   6  12 1754.66 240.288   9
  -3   6  12 1480.51 202.751  16
  -3   6  13 1803.09 195.814   9
  -3   6  14 5597.94 243.471   9
  -3   7 -13 2444.36 144.623   6
  -3   7 -12 2074.43 142.810   4
  -3   7 -12 2107.62 155.710  22
  -3   7 -11 8878.32 364.502  22
  -3   7 -11 8631.71 364.792   4
  -3   7 -10 7443.94 354.689   4
  -3   7 -10 7069.78 338.450  22
  -3   7 -10 7670.38 367.165   7
  -3   7  -9 8938.20 408.009  22
  -3   7  -9 8165.70 379.127  42
  -3   7  -9 9364.86 422.428  24
  -3   7  -9 8902.40 423.914   4
  -3   7  -9 8571.16 424.814   7
  -3   7  -9 8666.06 453.931  98
  -3   7  -9 8808.18 372.376  23
  -3   7  -8 16146.8 642.240  42
  -3   7  -8 17054.5 720.414  98
  -3   7  -8 15919.0 659.278  24
  -3   7  -8 17488.5 679.783   4
  -3   7  -8 16250.5 613.395  23
  -3   7  -8 16462.7 668.780   7
  -3   7  -7 33590.9 1230.28  98
  -3   7  -7 32917.5 1169.93  42
  -3   7  -7 31230.2 1175.23   8
  -3   7  -7 33532.2 1182.49  24
  -3   7  -7 36560.1 1213.00   7
  -3   7  -6 24742.4 988.314  98
  -3   7  -6 27840.0 998.405   7
  -3   7  -6 24097.3 961.234   8
  -3   7  -6 25767.3 958.760  42
  -3   7  -6 25673.4 961.455  24
  -3   7  -5 25509.2 1033.53   8
  -3   7  -5 28821.3 1048.78  42
  -3   7  -5 28989.0 1034.62  24
  -3   7  -5 26144.3 1039.37  98
  -3   7  -4 10026.3 508.122   3
  -3   7  -4 11298.8 546.698  98
  -3   7  -4 10924.0 541.144  24
  -3   7  -3 6457.03 404.805  98
  -3   7  -3 6507.28 362.832  41
  -3   7  -3 6995.62 416.005   3
  -3   7  -3 5484.22 745.943  91
  -3   7  -3 6697.18 426.018  21
  -3   7  -2 2812.03 320.749  21
  -3   7  -2 3181.23 265.201  68
  -3   7  -2 2665.57 255.986  41
  -3   7  -2 2731.39 301.295   3
  -3   7  -2 2856.47 551.649  83
  -3   7  -2 3072.92 282.336  98
  -3   7  -2 2615.09 588.057  91
  -3   7  -1 14412.0 676.976  21
  -3   7  -1 14798.0 686.829   3
  -3   7  -1 13578.7 602.829  68
  -3   7  -1 14670.4 628.691  41
  -3   7  -1 14903.2 1063.08  83
  -3   7  -1 14714.5 704.046   8
  -3   7  -1 12873.4 592.023  98
  -3   7   0 25140.6 1007.21  68
  -3   7   0 28850.4 1113.47   3
  -3   7   0 30094.9 1132.76   8
  -3   7   0 28808.4 1091.75  21
  -3   7   0 29096.9 1054.57  41
  -3   7   0 27114.4 1510.63  83
  -3   7   0 25970.5 996.859  80
  -3   7   1 6335.14 458.729   8
  -3   7   1 5959.10 369.616  68
  -3   7   1 5826.88 433.170  21
  -3   7   1 6558.40 405.637  41
  -3   7   1 5375.91 359.525  80
  -3   7   1 4402.20 642.777  83
  -3   7   1 5544.78 664.504  94
  -3   7   2 1896.58 262.413   9
  -3   7   2 1947.30 258.995  80
  -3   7   2 2207.38 284.666  41
  -3   7   2 1672.62 468.679  94
  -3   7   2 1907.02 294.718  21
  -3   7   3 17527.3 786.056  21
  -3   7   3 18828.1 777.815  41
  -3   7   3 15823.2 700.382  80
  -3   7   3 15959.1 1094.75  94
  -3   7   3 16464.6 721.600   9
  -3   7   3 16961.0 726.031  93
  -3   7   4 3266.40 309.555   9
  -3   7   4 3004.97 346.759  21
  -3   7   4 2552.02 533.314  94
  -3   7   4 3517.45 330.182  93
  -3   7   4 3687.68 353.866  41
  -3   7   4 3080.47 301.691  80
  -3   7   5 5252.37 406.023  21
  -3   7   5 5452.91 384.847   9
  -3   7   5 4343.25 633.565  94
  -3   7   5 5068.92 376.459  93
  -3   7   5 4406.81 343.051  80
  -3   7   6 20934.6 833.443  93
  -3   7   6 21545.5 859.668   9
  -3   7   6 22461.8 895.399  21
  -3   7   7 19431.0 789.644  93
  -3   7   7 20381.8 831.586  21
  -3   7   7 21718.7 840.118   9
  -3   7   8 1392.72 252.718   9
  -3   7   8 1230.76 222.510  93
  -3   7   8 988.415 207.262  21
  -3   7   9 8287.20 417.658   9
  -3   7   9 7758.76 378.786  21
  -3   7  10 1355.76 181.030   9
  -3   7  11 4746.21 230.793   9
  -3   8 -10 3949.49 179.347  22
  -3   8 -10 4072.69 191.044   7
  -3   8  -9 7134.05 285.184  22
  -3   8  -9 6580.37 279.111   4
  -3   8  -9 7045.46 299.262   7
  -3   8  -8 541.997 126.352  22
  -3   8  -8 647.908 139.081   4
  -3   8  -7 2454.68 209.796   4
  -3   8  -7 2560.81 206.159  24
  -3   8  -6 3131.98 235.077  24
  -3   8  -5 15318.8 587.939  24
  -3   8  -5 14064.0 577.799   8
  -3   8  -4 16449.4 656.102   8
  -3   8  -4 16787.5 652.375  24
  -3   8  -3 3232.86 268.384   8
  -3   8  -3 3038.45 256.135  24
  -3   8  -2-9.28176 188.122   8
  -3   8  -2 188.886 145.963   3
  -3   8  -2 129.335 180.260  24
  -3   8  -1 6166.90 369.173  21
  -3   8  -1 6276.79 345.804   3
  -3   8   0 7499.15 392.902   3
  -3   8   0 6963.23 375.739  93
  -3   8   0 7000.67 406.395  21
  -3   8   1 3762.08 289.033  93
  -3   8   1 4249.38 304.742   3
  -3   8   1 3977.13 314.488  21
  -3   8   2 718.714 203.473   3
  -3   8   2 426.244 168.043  80
  -3   8   2 853.032 208.149  93
  -3   8   2 743.402 211.083  21
  -3   8   3 13985.9 602.733  21
  -3   8   3 13496.8 567.306  93
  -3   8   3 15361.9 638.979   8
  -3   8   3 15288.8 619.416   3
  -3   8   4 6430.06 370.844  21
  -3   8   4 5440.12 335.673  93
  -3   8   4 6629.49 395.567   8
  -3   8   4 6637.66 384.900   3
  -3   8   5 991.440 204.088  21
  -3   8   5 696.101 212.207   8
  -3   8   5 899.575 220.236   3
  -3   8   5 755.029 179.120  93
  -3   8   6 1069.95 210.498   3
  -3   8   6 994.270 209.598   8
  -3   8   6 1031.02 166.333  93
  -3   8   6 993.691 175.271  21
  -3   8   7 4136.43 263.359   8
  -3   8   7 3569.42 217.311  21
  -3   8   8 1349.64 143.611   8
  -3   9  -5 29076.2 926.396   7
  -3   9  -4 1818.08 121.423  24
  -3   9  -4 1677.70 127.783   4
  -3   9  -4 1712.13 125.339   7
  -3   9  -3 3618.62 176.967  24
  -3   9  -3 3392.30 185.863   7
  -3   9  -2 6456.93 271.982   7
  -3   9  -2 6031.97 250.981  24
  -3   9  -2 5735.76 251.357   8
  -3   9  -1 20927.3 710.226   8
  -3   9  -1 22366.6 725.580   7
  -3   9  -1 20303.4 694.851  24
  -3   9   0 1710.31 150.429   7
  -3   9   0 1306.81 130.388   8
  -3   9   1 4519.56 221.180   8
  -3   9   2 7687.20 302.537   8
  -3   9   2 7088.93 297.806  21
  -2  -7  -3 1965.92 135.311  32
  -2  -7  -2 5476.36 258.387  32
  -2  -7  -1 1244.75 150.110  32
  -2  -7   0 1516.15 169.161  32
  -2  -7   1 4381.00 250.425  32
  -2  -7   2 1296.22 167.004  32
  -2  -7   3 859.518 148.570  32
  -2  -7   4 1324.32 147.512  28
  -2  -7   4 1127.14 149.316  32
  -2  -7   5 1924.36 160.048  28
  -2  -7   5 1714.94 161.967  32
  -2  -7   6 2084.69 181.575  26
  -2  -7   6 2304.42 171.175  28
  -2  -7   7 15060.2 527.954  28
  -2  -7   7 14697.9 538.989  26
  -2  -7   8 11433.5 422.228  28
  -2  -7   8 11900.2 436.674  26
  -2  -7   9 16246.0 547.930  28
  -2  -7   9 16140.9 553.469  26
  -2  -6  -8 4839.44 211.625  32
  -2  -6  -7 5740.23 282.079  32
  -2  -6  -6 6119.69 324.910  32
  -2  -6  -6 5270.32 321.279  34
  -2  -6  -5 8917.08 437.412  32
  -2  -6  -5 8251.79 440.645  34
  -2  -6  -4 16669.7 646.417  65
  -2  -6  -4 16697.8 626.705  55
  -2  -6  -4 15560.5 691.357  34
  -2  -6  -3 18063.8 693.455  65
  -2  -6  -3 19664.0 705.490  55
  -2  -6  -3 19014.2 758.194  32
  -2  -6  -2 3689.32 272.423  55
  -2  -6  -2 3428.05 322.599  32
  -2  -6  -2 3325.95 251.147  65
  -2  -6  -1 6562.96 421.343  32
  -2  -6  -1 6426.22 345.935  65
  -2  -6  -1 6408.68 364.604  55
  -2  -6   0 3938.21 343.151  32
  -2  -6   0 3889.17 273.827  65
  -2  -6   0 3947.68 291.128  55
  -2  -6   1 11677.5 548.824  55
  -2  -6   1 13081.2 599.531  32
  -2  -6   1 13117.8 526.772  28
  -2  -6   2 7850.60 452.258  32
  -2  -6   2 7725.82 391.010  28
  -2  -6   3 9373.58 439.626  28
  -2  -6   3 9283.62 481.872  32
  -2  -6   3 8914.86 422.328  29
  -2  -6   4 20479.4 810.747  32
  -2  -6   4 20455.9 766.071  29
  -2  -6   4 20561.2 773.745  28
  -2  -6   5 7469.89 376.159  29
  -2  -6   5 6594.62 342.017  56
  -2  -6   5 6578.41 385.645  88
  -2  -6   5 6478.60 391.663  32
  -2  -6   5 6531.98 374.041  28
  -2  -6   6 9862.66 456.262  29
  -2  -6   6 10261.9 468.108  28
  -2  -6   6 9394.35 431.299  56
  -2  -6   6 10116.5 492.114  88
  -2  -6   6 9859.70 479.316  32
  -2  -6   7 2393.59 246.396  29
  -2  -6   7 1992.97 217.736  56
  -2  -6   7 2188.06 249.389  28
  -2  -6   7 1755.59 225.870  32
  -2  -6   7 2250.93 241.918  88
  -2  -6   8 5722.38 327.668  56
  -2  -6   8 6138.66 365.823  88
  -2  -6   8 6359.14 354.335  28
  -2  -6   8 5890.75 340.358  29
  -2  -6   9 3528.17 275.377  28
  -2  -6   9 3598.87 261.108  56
  -2  -6   9 4195.98 293.553  88
  -2  -6   9 4054.46 293.555  26
  -2  -6   9 3905.18 276.999  29
  -2  -6  10 14257.7 577.725  28
  -2  -6  10 14633.3 569.778  56
  -2  -6  10 15885.3 600.581  26
  -2  -6  10 14773.4 613.420  88
  -2  -6  10 14881.6 581.224  29
  -2  -6  10 14107.5 554.561  57
  -2  -6  11 13122.7 518.480  26
  -2  -6  11 12321.2 488.464  57
  -2  -6  11 13166.8 505.073  56
  -2  -6  11 13092.9 511.919  28
  -2  -6  11 12424.8 529.072  88
  -2  -6  12 4144.77 244.456  26
  -2  -6  12 4105.73 240.688  28
  -2  -6  12 3735.75 219.925  57
  -2  -6  12 3862.48 229.412  56
  -2  -6  13 10208.2 374.380  56
  -2  -6  13 9296.46 359.646  57
  -2  -5 -10 2674.90 231.587  34
  -2  -5 -10 2911.34 217.373  32
  -2  -5  -9 1849.86 235.611  32
  -2  -5  -9 1441.40 245.598  34
  -2  -5  -8 6156.42 412.781  34
  -2  -5  -8 6567.50 408.127  32
  -2  -5  -7 238.154 256.798  32
  -2  -5  -7 376.345 261.806  34
  -2  -5  -7 129.828 279.285  59
  -2  -5  -6 10345.0 585.116  34
  -2  -5  -6 9094.97 474.241  65
  -2  -5  -6 10086.2 581.835  59
  -2  -5  -6 10423.5 579.491  32
  -2  -5  -5 39384.2 1436.09  32
  -2  -5  -5 38179.7 1439.89  34
  -2  -5  -5 39431.3 1356.98  55
  -2  -5  -5 36254.8 1333.32  65
  -2  -5  -4 5825.18 384.436  65
  -2  -5  -4 7105.20 490.120  32
  -2  -5  -4 6612.53 414.406  55
  -2  -5  -4 6223.65 474.058  34
  -2  -5  -3 17106.1 819.813  34
  -2  -5  -3 17181.2 743.094  65
  -2  -5  -3 19439.3 778.129  55
  -2  -5  -3 18809.1 837.808  32
  -2  -5  -2 6100.79 454.995  32
  -2  -5  -2 5175.29 432.403  34
  -2  -5  -2 6095.23 402.916  55
  -2  -5  -2 5801.61 375.903  65
  -2  -5  -1 4378.18 398.178  32
  -2  -5  -1 3607.94 370.347  34
  -2  -5  -1 4074.52 349.761  55
  -2  -5  -1 3264.24 301.105  65
  -2  -5   0 31370.2 1241.25  34
  -2  -5   0 33456.8 1231.01  55
  -2  -5   0 32479.4 1184.13  65
  -2  -5   1 57485.8 1921.97  65
  -2  -5   1 61392.9 1937.69  28
  -2  -5   1 59317.0 1976.85  55
  -2  -5   1 59240.0 2016.20  32
  -2  -5   2 5478.52 389.437  55
  -2  -5   2 5562.28 373.330  88
  -2  -5   2 5928.26 380.184  28
  -2  -5   2 5770.82 430.660  32
  -2  -5   3 2943.92 299.336  55
  -2  -5   3 3046.40 336.968  32
  -2  -5   3 2906.99 304.145  28
  -2  -5   3 2672.85 294.141  88
  -2  -5   4 7135.97 477.659  32
  -2  -5   4 7738.01 462.587  88
  -2  -5   4 7173.71 398.943  56
  -2  -5   4 8189.20 450.256  28
  -2  -5   5 3275.22 307.591  29
  -2  -5   5 2954.95 282.932  56
  -2  -5   5 3784.78 347.459  88
  -2  -5   5 3350.09 333.707  32
  -2  -5   5 3480.65 322.023  28
  -2  -5   6 4547.80 371.733  32
  -2  -5   6 5153.93 402.221  88
  -2  -5   6 5003.31 362.123  29
  -2  -5   6 4577.80 332.622  56
  -2  -5   6 5299.87 372.765  28
  -2  -5   7 36473.5 1328.17  56
  -2  -5   7 38558.7 1351.13  28
  -2  -5   7 40849.0 1366.43  29
  -2  -5   7 38157.0 1437.16  88
  -2  -5   7 38262.5 1372.01  32
  -2  -5   8 24189.1 1007.52  88
  -2  -5   8 26056.4 939.247  29
  -2  -5   8 21813.8 1245.91  62
  -2  -5   8 25282.0 931.219  28
  -2  -5   8 22998.2 904.490  56
  -2  -5   8 22447.6 922.490  32
  -2  -5   9 4065.70 333.669  56
  -2  -5   9 4589.37 393.557  88
  -2  -5   9 3826.15 308.037  57
  -2  -5   9 4659.29 351.596  29
  -2  -5   9 4583.69 354.493  28
  -2  -5  10 2542.56 287.067  29
  -2  -5  10 2651.26 302.931  28
  -2  -5  10 2399.10 275.360  57
  -2  -5  10 2960.15 314.863  26
  -2  -5  10 2821.34 286.967  56
  -2  -5  10 2725.25 323.548  88
  -2  -5  11 6172.74 374.269  57
  -2  -5  11 6125.16 388.900  28
  -2  -5  11 6586.90 406.927  26
  -2  -5  11 6293.70 389.805  29
  -2  -5  11 5919.73 374.510  56
  -2  -5  11 6190.56 434.595  88
  -2  -5  12 1822.28 262.899  88
  -2  -5  12 1764.97 247.982  56
  -2  -5  12 2001.42 246.929  57
  -2  -5  12 1732.75 256.677  26
  -2  -5  13 467.479 198.875  57
  -2  -5  13 733.633 206.475  26
  -2  -5  13 1071.83 210.170  56
  -2  -5  13 764.822 188.816  88
  -2  -5  14 5081.59 281.538  30
  -2  -5  14 5184.60 303.117  57
  -2  -5  15 10194.9 397.381  56
  -2  -5  15 9054.58 378.681  30
  -2  -5  15 10066.8 401.530  57
  -2  -5  16 551.152 98.8329  57
  -2  -4 -13 1786.14 165.831  34
  -2  -4 -13 1523.67 138.057  32
  -2  -4 -12 8598.43 401.460  32
  -2  -4 -12 7753.47 405.032  34
  -2  -4 -12 8844.90 416.708  54
  -2  -4 -11 4621.28 362.156  59
  -2  -4 -11 4194.74 330.520  32
  -2  -4 -11 4060.85 341.044  54
  -2  -4 -10 2228.91 320.573  54
  -2  -4 -10 2174.42 323.097  34
  -2  -4 -10 2636.95 349.303  59
  -2  -4 -10 2302.28 323.526  32
  -2  -4  -9 2020.27 338.958  32
  -2  -4  -9 1534.39 334.334  34
  -2  -4  -9 1677.92 361.331  59
  -2  -4  -9 1815.12 342.344  54
  -2  -4  -8 6329.95 490.335  54
  -2  -4  -8 5832.49 502.375  59
  -2  -4  -8 6507.34 503.527  32
  -2  -4  -7 19322.8 920.501  38
  -2  -4  -7 19626.1 822.834  65
  -2  -4  -7 20657.4 934.109  32
  -2  -4  -7 20213.1 937.760  59
  -2  -4  -7 20388.4 904.849  54
  -2  -4  -6 4163.51 355.388  65
  -2  -4  -6 4250.58 467.598  59
  -2  -4  -6 5066.85 460.397  32
  -2  -4  -6 3799.46 428.630  54
  -2  -4  -6 5103.31 488.061  38
  -2  -4  -5 11151.0 557.547  65
  -2  -4  -5 10524.3 653.761  59
  -2  -4  -5 11206.7 673.030  38
  -2  -4  -5 9648.60 606.180  54
  -2  -4  -4 50911.9 1797.83  38
  -2  -4  -4 48303.2 1787.04  59
  -2  -4  -4 49534.1 1714.75  65
  -2  -4  -4 47025.2 1748.97  54
  -2  -4  -4 53381.3 1829.83  32
  -2  -4  -3 1636.40 343.381  38
  -2  -4  -3 926.500 324.939  34
  -2  -4  -3 1581.03 305.077  54
  -2  -4  -3 1395.20 245.380  65
  -2  -4  -3 1432.82 328.512  32
  -2  -4  -3 1126.14 334.039  59
  -2  -4  -2 22866.5 902.581  65
  -2  -4  -2 22946.4 985.449  59
  -2  -4  -2 25904.4 1018.95  32
  -2  -4  -2 23688.7 989.987  34
  -2  -4  -1 42852.1 1599.87  59
  -2  -4  -1 43157.7 1607.69  34
  -2  -4  -1 42816.6 1527.11  65
  -2  -4  -1 49253.8 1646.01  32
  -2  -4  -1 47492.6 1593.15  55
  -2  -4   0 4391.46 312.458  65
  -2  -4   0 4766.28 325.035  88
  -2  -4   0 4834.33 375.693  34
  -2  -4   0 4085.02 375.133  59
  -2  -4   0 5525.90 411.781  32
  -2  -4   0 4994.51 367.217  55
  -2  -4   1 17981.4 722.825  65
  -2  -4   1 18151.3 761.928  88
  -2  -4   1 19009.5 812.732  32
  -2  -4   1 18913.6 777.843  55
  -2  -4   2 16383.7 708.335  32
  -2  -4   2 15760.8 671.603  55
  -2  -4   3 7314.84 411.247  28
  -2  -4   3 6650.39 411.244  55
  -2  -4   3 7538.80 446.283  32
  -2  -4   3 6221.27 424.158  88
  -2  -4   4 17279.8 797.570  88
  -2  -4   4 18252.9 760.844  55
  -2  -4   4 20205.7 808.283  32
  -2  -4   4 19002.2 756.334  28
  -2  -4   4 18290.6 1006.09  62
  -2  -4   5 3362.50 490.813  62
  -2  -4   5 2959.60 299.664  28
  -2  -4   5 2787.02 309.382  32
  -2  -4   5 2653.61 271.335  56
  -2  -4   6 12181.8 566.007  56
  -2  -4   6 12224.5 871.269  62
  -2  -4   6 12788.4 583.029  29
  -2  -4   6 12469.2 601.123  32
  -2  -4   6 13788.4 595.651  28
  -2  -4   7 75902.0 2401.47  29
  -2  -4   7 68706.1 2371.09  56
  -2  -4   7 72912.2 2418.76  32
  -2  -4   7 76643.5 2398.65  28
  -2  -4   7 68431.7 2812.41  62
  -2  -4   8 30890.1 1143.79  28
  -2  -4   8 34065.0 1168.79  29
  -2  -4   8 30220.1 1146.79  32
  -2  -4   8 29898.1 1128.73  56
  -2  -4   8 30418.6 1553.17  62
  -2  -4   9 27558.1 1494.18  62
  -2  -4   9 26378.7 1058.11  32
  -2  -4   9 28925.6 1065.83  56
  -2  -4   9 29961.4 1086.61  28
  -2  -4   9 29677.4 1088.08  29
  -2  -4  10 52153.5 1833.85  56
  -2  -4  10 57317.7 1874.50  26
  -2  -4  10 51309.4 2311.31  62
  -2  -4  10 55077.9 1860.75  28
  -2  -4  10 54505.8 1851.57  29
  -2  -4  11 16450.2 1095.87  62
  -2  -4  11 16651.4 727.733  28
  -2  -4  11 17358.4 751.426  26
  -2  -4  11 16655.8 719.989  56
  -2  -4  11 17053.0 734.193  29
  -2  -4  12 12690.7 597.511  57
  -2  -4  12 13151.3 598.366  56
  -2  -4  12 12481.8 610.181  26
  -2  -4  13 232.208 234.339  57
  -2  -4  13 9.48598 243.798  26
  -2  -4  14-54.9363 224.416  56
  -2  -4  14 118.637 228.962  57
  -2  -4  14-123.676 225.505  28
  -2  -4  15 6851.44 372.468  56
  -2  -4  16 5265.45 306.576  30
  -2  -4  16 5600.47 313.111  57
  -2  -4  16 5897.59 306.023  56
  -2  -4  17 3530.23 211.533  30
  -2  -4  17 3171.56 200.497  57
  -2  -4  17 3369.62 192.606  56
  -2  -3 -15 10581.4 395.480  54
  -2  -3 -15 9577.37 378.288  59
  -2  -3 -14 3871.52 257.975  34
  -2  -3 -14 3670.58 268.073  59
  -2  -3 -14 3428.32 246.507  32
  -2  -3 -14 3787.06 277.838  54
  -2  -3 -13 11098.5 540.394  54
  -2  -3 -12 17096.7 759.955  54
  -2  -3 -11 16692.1 782.754  54
  -2  -3 -11 17122.8 812.603  38
  -2  -3 -10 7859.89 550.755  59
  -2  -3 -10 7176.47 519.756  54
  -2  -3 -10 7519.98 558.439  38
  -2  -3  -9 1373.65 382.177  38
  -2  -3  -9 1110.88 359.256  54
  -2  -3  -9 775.498 370.631  59
  -2  -3  -8 46168.9 1714.81  38
  -2  -3  -8 47402.1 1732.96  59
  -2  -3  -8 46492.6 1712.21  54
  -2  -3  -7 56523.4 2076.35  54
  -2  -3  -7 60274.2 2100.83  38
  -2  -3  -7 64050.7 2127.65  59
  -2  -3  -7 57810.3 2008.49  65
  -2  -3  -6 18867.9 828.300  38
  -2  -3  -6 17185.0 730.738  65
  -2  -3  -6 15554.2 800.301  59
  -2  -3  -6 18925.4 880.727  60
  -2  -3  -6 15894.9 780.283  54
  -2  -3  -5 6820.58 475.373  54
  -2  -3  -5 7618.76 513.479  38
  -2  -3  -5 8125.42 532.483  60
  -2  -3  -5 6902.76 512.070  59
  -2  -3  -5 7505.46 432.922  65
  -2  -3  -4 2921.83 286.939  65
  -2  -3  -4 3087.00 355.871  59
  -2  -3  -4 2815.46 325.461  54
  -2  -3  -4 3399.37 363.201  38
  -2  -3  -3 64543.2 2166.79  59
  -2  -3  -3 63338.1 2131.72  54
  -2  -3  -3 64544.5 2151.29  38
  -2  -3  -3 62856.2 2090.25  65
  -2  -3  -2 124850. 4089.81  65
  -2  -3  -2 131574. 4163.21  59
  -2  -3  -1 25413.4 931.231  88
  -2  -3  -1 24741.8 978.147  59
  -2  -3  -1 25065.7 922.226  65
  -2  -3   0 48917.9 1657.44  65
  -2  -3   0 54543.6 1745.19  32
  -2  -3   0 47451.9 1702.28  59
  -2  -3   0 53459.6 1709.24  55
  -2  -3   0 49814.9 1686.29  88
  -2  -3   1 4361.52 303.527  55
  -2  -3   1 4716.21 337.971  32
  -2  -3   1 4298.45 269.458  65
  -2  -3   1 3985.65 289.001  88
  -2  -3   2 14011.6 602.113  32
  -2  -3   2 13521.3 573.427  55
  -2  -3   2 13816.1 594.551  88
  -2  -3   3 6867.41 362.560  28
  -2  -3   3 5815.11 499.381  62
  -2  -3   3 6532.12 374.926  32
  -2  -3   3 6350.32 358.222  55
  -2  -3   4 24319.7 1198.81  62
  -2  -3   4 26653.9 941.304  28
  -2  -3   4 26739.9 972.018  32
  -2  -3   4 25134.0 938.527  55
  -2  -3   5 10843.0 765.254  62
  -2  -3   5 11691.8 536.155  32
  -2  -3   5 12391.4 529.934  28
  -2  -3   6 43080.4 1403.93  29
  -2  -3   6 39681.6 1410.43  32
  -2  -3   6 39699.8 1753.50  62
  -2  -3   6 42719.9 1401.10  28
  -2  -3   6 38977.7 1382.81  56
  -2  -3   7 56459.7 1748.56  29
  -2  -3   7 52951.8 1734.89  28
  -2  -3   7 50035.1 1744.29  32
  -2  -3   7 49775.3 2128.35  62
  -2  -3   7 49228.9 1718.89  56
  -2  -3   8 40213.3 1332.07  29
  -2  -3   8 38598.9 1320.19  28
  -2  -3   8 36187.6 1719.56  62
  -2  -3   8 35130.4 1309.89  32
  -2  -3   8 37031.7 1308.31  56
  -2  -3   9 32520.1 1201.08  56
  -2  -3   9 32173.7 1637.30  62
  -2  -3   9 35310.4 1225.09  28
  -2  -3   9 34035.1 1220.89  29
  -2  -3  10 46063.7 1592.08  28
  -2  -3  10 44951.5 2063.48  62
  -2  -3  10 44772.0 1584.75  29
  -2  -3  10 45269.5 1576.68  56
  -2  -3  10 47506.5 1602.90  26
  -2  -3  11 11527.1 954.979  62
  -2  -3  11 12203.4 609.660  26
  -2  -3  12 1919.99 306.597  57
  -2  -3  12 1887.77 316.821  26
  -2  -3  13 2184.83 304.168  56
  -2  -3  13 2619.42 535.526  62
  -2  -3  13 2035.15 311.062  28
  -2  -3  13 1805.42 318.385  26
  -2  -3  14 594.312 269.296  28
  -2  -3  14 770.542 258.774  56
  -2  -3  15 637.600 232.157  56
  -2  -3  15 854.909 256.974  57
  -2  -3  16 2487.50 271.568  30
  -2  -3  16 2714.53 263.425  56
  -2  -3  16 2777.36 269.293  57
  -2  -3  17 15841.9 609.929  57
  -2  -3  17 16122.3 600.901  56
  -2  -3  18 2918.23 201.547  30
  -2  -3  18 2459.72 168.410  57
  -2  -2 -16 6113.16 290.911  59
  -2  -2 -16 6702.35 314.866  54
  -2  -2 -15 8003.93 412.555  54
  -2  -2 -15 7832.74 407.329  59
  -2  -2 -14 25696.8 977.389  38
  -2  -2 -14 24459.5 954.825  59
  -2  -2 -14 24449.0 958.468  54
  -2  -2 -13 3732.74 379.811  54
  -2  -2 -13 3942.42 406.474  38
  -2  -2 -12 11823.5 600.799   5
  -2  -2 -12 10571.4 625.452  38
  -2  -2 -12 10762.7 620.747  60
  -2  -2 -12 10058.0 601.737  54
  -2  -2 -11 3859.07 400.369   5
  -2  -2 -11 3232.19 402.788  54
  -2  -2 -11 2587.30 414.633  60
  -2  -2 -10 62292.3 2240.04  54
  -2  -2 -10 68835.6 2252.01   5
  -2  -2 -10 65058.3 2264.26  59
  -2  -2  -9 3544.25 388.471   5
  -2  -2  -9 3758.92 419.076  59
  -2  -2  -9 3705.99 416.094  38
  -2  -2  -9 3294.07 392.957  54
  -2  -2  -8 19383.6 858.390   5
  -2  -2  -8 20167.0 871.590  38
  -2  -2  -8 20881.4 896.786  60
  -2  -2  -8 19074.1 859.250  54
  -2  -2  -8 18934.9 866.403  59
  -2  -2  -7 27641.3 1101.88  59
  -2  -2  -7 26556.1 1061.93   5
  -2  -2  -7 28706.7 1091.30  38
  -2  -2  -7 27426.1 1041.26  65
  -2  -2  -7 28348.9 1122.96  60
  -2  -2  -7 27507.6 1089.16  54
  -2  -2  -6 738.404 204.681  65
  -2  -2  -6 984.287 262.804  38
  -2  -2  -6 670.466 235.121   5
  -2  -2  -6 652.007 269.067  59
  -2  -2  -6 1066.07 292.841  60
  -2  -2  -6 547.769 243.970  54
  -2  -2  -5 8689.76 487.611  54
  -2  -2  -5 10908.4 543.105  60
  -2  -2  -5 9273.18 509.598  59
  -2  -2  -5 10009.3 473.408  65
  -2  -2  -5 10290.5 511.176  38
  -2  -2  -4 5489.82 361.019  38
  -2  -2  -4 5312.46 382.577  60
  -2  -2  -4 5099.67 365.944  59
  -2  -2  -4 5084.27 323.559  65
  -2  -2  -3 14633.5 585.909  65
  -2  -2  -2 10701.8 457.203  65
  -2  -2  -1 9622.91 420.358  65
  -2  -2  -1 10401.4 423.767  88
  -2  -2   0 123461. 3879.19  65
  -2  -2   0 128670. 3908.33  88
  -2  -2   1 44583.1 1593.29  62
  -2  -2   2 7019.39 467.739  62
  -2  -2   3 70020.1 2458.91  62
  -2  -2   4 73423.7 2632.88  62
  -2  -2   5 3652.24 466.821  62
  -2  -2   6 15602.6 897.037  62
  -2  -2   7 59088.3 1894.24  28
  -2  -2   7 57853.0 2266.80  62
  -2  -2   7 55211.3 1884.61  56
  -2  -2   7 60763.9 1905.75  29
  -2  -2   8 13227.4 551.268  29
  -2  -2   8 11824.1 534.588  56
  -2  -2   8 12518.0 544.809  28
  -2  -2   8 13536.6 884.122  62
  -2  -2   9 27272.3 1011.88  29
  -2  -2   9 28674.5 1433.42  62
  -2  -2   9 28739.4 1026.12  26
  -2  -2   9 28011.5 1012.50  56
  -2  -2   9 27486.5 1019.14  28
  -2  -2  10 34323.9 1315.35  28
  -2  -2  10 39689.8 1351.80  26
  -2  -2  10 37224.2 1777.95  62
  -2  -2  10 42229.4 1452.78  95
  -2  -2  11 79500.4 2519.85  95
  -2  -2  11 68594.7 2382.72  26
  -2  -2  12 30883.9 1627.97  62
  -2  -2  12 32970.8 1271.58  95
  -2  -2  12 30425.9 1145.81  57
  -2  -2  12 31461.2 1137.97  56
  -2  -2  12 29972.6 1151.94  26
  -2  -2  12 29515.3 1144.30  28
  -2  -2  13 3586.03 624.358  62
  -2  -2  13 3301.43 345.382  57
  -2  -2  13 3484.95 341.604  56
  -2  -2  13 3087.59 355.090  28
  -2  -2  13 3369.31 420.523  95
  -2  -2  13 2881.93 301.645  25
  -2  -2  13 2896.21 370.862  26
  -2  -2  14 27581.5 990.135  56
  -2  -2  14 26363.1 1454.82  62
  -2  -2  14 25262.8 991.476  57
  -2  -2  14 23642.9 953.429  25
  -2  -2  15 4397.11 361.058  57
  -2  -2  15 3807.30 334.408  25
  -2  -2  15 4683.41 356.411  56
  -2  -2  16 33885.8 1203.04  30
  -2  -2  16 33847.2 1175.90  57
  -2  -2  16 32995.5 1165.50  56
  -2  -2  16 31604.9 1166.63  25
  -2  -2  17 17308.7 674.255  30
  -2  -2  17 16290.0 637.348  57
  -2  -2  17 16045.0 627.594  56
  -2  -2  17 16566.9 673.749  10
  -2  -2  17 15519.5 641.807  25
  -2  -2  18 3149.16 239.003  30
  -2  -2  18 3089.51 236.187  10
  -2  -2  19 542.260 104.808  10
  -2  -2  19 514.133 106.810  30
  -2  -1 -17 4109.61 217.004  59
  -2  -1 -16 4158.69 313.181  54
  -2  -1 -16 4370.62 302.104  59
  -2  -1 -15 7452.72 448.156  54
  -2  -1 -15 8092.39 433.403   5
  -2  -1 -15 6763.27 432.188  59
  -2  -1 -15 8078.23 451.079  38
  -2  -1 -14 6586.86 422.668   5
  -2  -1 -14 6427.97 452.602  38
  -2  -1 -14 6706.68 456.425  60
  -2  -1 -14 6648.47 451.562  54
  -2  -1 -14 6020.35 443.051  59
  -2  -1 -13 4605.85 430.216  60
  -2  -1 -13 4513.10 426.194  38
  -2  -1 -13 5814.03 414.115   5
  -2  -1 -13 4622.52 420.083  59
  -2  -1 -12 11525.0 611.660   5
  -2  -1 -12 11463.5 637.729  38
  -2  -1 -12 12131.3 654.092  60
  -2  -1 -11 8362.73 515.359   5
  -2  -1 -11 8997.61 562.603  38
  -2  -1 -11 8537.51 564.665  60
  -2  -1 -11 9547.95 572.617   6
  -2  -1 -10 38093.1 1411.35   5
  -2  -1 -10 40920.8 1444.64   6
  -2  -1 -10 38734.1 1434.92  38
  -2  -1  -9 6380.30 448.780   6
  -2  -1  -9 6059.70 395.107  36
  -2  -1  -9 6413.54 421.218   5
  -2  -1  -8 61282.1 2059.95   6
  -2  -1  -8 61709.7 2046.15   5
  -2  -1  -8 60679.6 2024.45  36
  -2  -1  -7 5270.99 348.088   5
  -2  -1  -7 5021.34 315.167  36
  -2  -1  -7 4745.14 340.619  38
  -2  -1  -7 4995.46 362.403  60
  -2  -1  -7 5156.14 356.148   6
  -2  -1  -6 27844.5 1010.17  38
  -2  -1  -6 25987.8 1013.70  60
  -2  -1  -5 12232.7 526.520  65
  -2  -1  -4 82895.6 3103.97  61
  -2  -1  -4 87093.2 2722.79  65
  -2  -1  -3 60264.0 2355.55  61
  -2  -1  -3 66175.7 2068.63  65
  -2  -1  -2 302936. 8970.98  65
  -2  -1  -2 267135. 9234.86  61
  -2  -1  -1 31554.8 1022.15  65
  -2  -1  -1 28041.8 1246.71  61
  -2  -1   0 80296.3 2595.10  61
  -2  -1   0 72854.3 2459.39  62
  -2  -1   1 16192.6 721.213  62
  -2  -1   1 17443.0 773.688  61
  -2  -1   2 91321.8 3060.07  62
  -2  -1   2 95007.1 3067.49  61
  -2  -1   3 62551.2 2185.14  62
  -2  -1   4 84116.0 2889.21  62
  -2  -1   5 22270.2 799.848  95
  -2  -1   5 21753.2 1045.39  62
  -2  -1   6 32696.2 1453.90  62
  -2  -1   6 35178.7 1189.90  95
  -2  -1   7 14528.4 912.941  62
  -2  -1   7 15813.8 639.744  95
  -2  -1   8 74361.2 2833.73  62
  -2  -1   8 77917.8 2501.37  95
  -2  -1   9 29391.1 1093.96  95
  -2  -1   9 28190.2 1034.57  26
  -2  -1   9 27156.9 1030.38  28
  -2  -1  10 29350.3 1065.01  95
  -2  -1  10 26590.3 973.050  56
  -2  -1  10 24088.4 1346.53  62
  -2  -1  10 24574.6 973.768  57
  -2  -1  10 28584.1 1059.41  49
  -2  -1  10 26108.4 982.099  26
  -2  -1  11 135886. 4257.52  57
  -2  -1  11 140441. 4827.79  62
  -2  -1  11 140273. 4254.64  56
  -2  -1  11 139913. 4275.74  26
  -2  -1  11 144072. 4350.45  95
  -2  -1  12 68998.1 2370.17  95
  -2  -1  12 75036.4 2879.41  62
  -2  -1  12 70755.0 2295.28  57
  -2  -1  12 72793.4 2298.16  56
  -2  -1  12 71475.1 2320.37  28
  -2  -1  13 20905.0 911.051  95
  -2  -1  13 19501.9 1248.56  62
  -2  -1  13 20923.3 831.349  57
  -2  -1  13 20272.4 823.046  56
  -2  -1  13 18427.2 814.488  25
  -2  -1  14 21955.2 987.226  95
  -2  -1  14 22446.6 926.746  20
  -2  -1  14 21644.4 1333.44  62
  -2  -1  14 24484.7 930.856  57
  -2  -1  14 24976.7 928.234  56
  -2  -1  14 21793.0 922.276  25
  -2  -1  15 28597.8 1082.85  20
  -2  -1  15 29432.1 1068.78  57
  -2  -1  15 29202.4 1066.06  56
  -2  -1  15 27345.3 1139.46  95
  -2  -1  15 27502.5 1081.13  25
  -2  -1  15 28110.6 1087.89  30
  -2  -1  16 563.894 234.172  20
  -2  -1  16 867.856 248.951  30
  -2  -1  16 838.087 236.532  56
  -2  -1  16 639.963 277.276  95
  -2  -1  16 880.094 220.736  57
  -2  -1  16 444.090 281.486  25
  -2  -1  17 1804.41 248.195  30
  -2  -1  17 1532.43 204.622  57
  -2  -1  17 1617.81 276.097  25
  -2  -1  17 1405.59 274.939  95
  -2  -1  18 1693.95 231.257  10
  -2  -1  18 1712.59 201.829  30
  -2  -1  18 1608.97 240.922  25
  -2  -1  19 1788.12 184.203  10
  -2  -1  19 1494.57 182.003  25
  -2   0 -18 12409.3 457.591  54
  -2   0 -17 1137.88 192.702  59
  -2   0 -17 1593.91 191.865   5
  -2   0 -16 125.301 201.115   5
  -2   0 -16 109.517 211.755  60
  -2   0 -16 336.149 216.593  59
  -2   0 -16 68.1712 185.754  38
  -2   0 -15 6776.62 413.749   5
  -2   0 -15 6849.75 431.279  60
  -2   0 -15 6318.82 425.507  59
  -2   0 -15 7645.87 430.919  38
  -2   0 -14 11180.0 593.863  38
  -2   0 -14 11928.2 605.680  60
  -2   0 -14 11531.4 577.954   5
  -2   0 -14 12669.9 623.671   6
  -2   0 -13 35097.9 1303.45  38
  -2   0 -13 34916.1 1311.14   6
  -2   0 -13 33576.7 1276.04   5
  -2   0 -13 36573.3 1318.21  60
  -2   0 -12 16515.8 746.192  38
  -2   0 -12 15530.5 734.080  60
  -2   0 -12 16003.8 739.869   6
  -2   0 -11 48965.6 1702.26   6
  -2   0 -11 48967.8 1705.72  38
  -2   0 -10 46126.5 1653.25  38
  -2   0 -10 49998.3 1680.35  36
  -2   0 -10 47984.5 1656.85   6
  -2   0  -9 150831. 4782.82  36
  -2   0  -9 146916. 4759.70  38
  -2   0  -9 158834. 4778.66  23
  -2   0  -9 153141. 4760.71   6
  -2   0  -8 32473.5 1100.35  23
  -2   0  -8 32996.7 1092.43  22
  -2   0  -8 32627.7 1113.92  36
  -2   0  -8 30390.1 1087.72   6
  -2   0  -7 10132.8 836.675  61
  -2   0  -6 30754.1 1473.62  61
  -2   0  -5 14422.4 874.355  61
  -2   0  -4 191622. 5885.29  35
  -2   0  -4 194938. 6248.17  61
  -2   0  -3 46197.8 1811.83  61
  -2   0  -2 72843.0 2582.10  61
  -2   0  -1 80453.6 2777.71  61
  -2   0   0 208665. 6618.45  61
  -2   0   1 2290.31 297.801  62
  -2   0   1 2983.26 385.810  61
  -2   0   2 39606.4 1479.27  62
  -2   0   2 42630.6 1568.44  61
  -2   0   3 226660. 7174.47  61
  -2   0   3 227689. 7122.27  62
  -2   0   4 271325. 8152.69  62
  -2   0   4 254146. 7859.32  95
  -2   0   4 275965. 8187.90  61
  -2   0   5 184350. 5553.16  62
  -2   0   5 167440. 5198.28  95
  -2   0   6 36983.9 1425.99   1
  -2   0   6 36792.5 1217.55  95
  -2   0   6 35621.6 1525.08  62
  -2   0   7 56107.2 2188.70  84
  -2   0   7 59109.9 1858.81  95
  -2   0   7 57749.9 2101.63   1
  -2   0   7 61861.6 1884.39  92
  -2   0   8 16646.1 856.724   1
  -2   0   8 17117.5 679.006  92
  -2   0   8 16432.1 650.906  95
  -2   0   8 16421.2 1001.56  84
  -2   0   9 29417.9 1038.12  26
  -2   0   9 28240.6 1057.34  95
  -2   0   9 28828.3 1068.78  92
  -2   0   9 28067.7 1400.51  62
  -2   0   9 26927.1 1018.54  57
  -2   0   9 30109.1 1030.55  56
  -2   0   9 29255.3 1490.40  84
  -2   0  10 7041.01 442.664  95
  -2   0  10 7436.68 442.661  20
  -2   0  10 8058.61 790.266  84
  -2   0  10 7598.31 409.269  57
  -2   0  10 7589.36 415.347  56
  -2   0  10 8191.41 740.770  62
  -2   0  10 6955.23 410.330  25
  -2   0  11 5147.75 372.839  25
  -2   0  11 5133.05 400.478  20
  -2   0  11 6035.60 681.084  62
  -2   0  11 5787.77 371.167  57
  -2   0  11 6080.53 385.981  56
  -2   0  11 4951.23 396.895  95
  -2   0  11 6099.36 731.008  84
  -2   0  12 15103.0 706.452  25
  -2   0  12 17082.0 1222.38  84
  -2   0  12 15087.2 729.983  95
  -2   0  12 16190.8 1106.85  62
  -2   0  12 16450.5 697.322  56
  -2   0  12 16420.2 694.649  57
  -2   0  12 15743.6 733.862  20
  -2   0  13 6057.05 457.533  20
  -2   0  13 6504.78 474.333  95
  -2   0  13 7034.65 447.333  30
  -2   0  13 7110.53 430.642  57
  -2   0  13 7282.05 452.719  56
  -2   0  13 7010.55 484.730  25
  -2   0  14 48400.4 1703.25  30
  -2   0  14 45483.4 1738.08  95
  -2   0  14 50396.2 1751.64  20
  -2   0  14 48838.9 1672.30  57
  -2   0  14 49370.0 1685.13  56
  -2   0  14 49990.3 1732.55  25
  -2   0  15 26802.1 1034.09  20
  -2   0  15 23445.7 930.813  57
  -2   0  15 25416.3 959.841  56
  -2   0  15 25827.5 1027.17  25
  -2   0  15 21968.3 1005.42  95
  -2   0  15 26817.9 987.357  30
  -2   0  16 56953.6 1922.72  30
  -2   0  16 60046.0 1984.63  20
  -2   0  16 59355.9 1982.25  25
  -2   0  16 53800.6 1972.89  95
  -2   0  17 2723.91 309.873  20
  -2   0  17 2267.27 302.248  95
  -2   0  17 3022.89 342.757  25
  -2   0  17 2948.52 255.811  30
  -2   0  18 5049.06 362.306  25
  -2   0  18 5476.11 354.001  10
  -2   0  18 5290.31 337.142  20
  -2   0  19 4925.55 268.866  20
  -2   0  19 5201.00 299.669  25
  -2   1 -18 1390.06 151.097   5
  -2   1 -18 1214.44 170.265  54
  -2   1 -17 3283.00 256.754  59
  -2   1 -17 3555.73 265.089   5
  -2   1 -16 8540.98 434.049   5
  -2   1 -16 8013.51 425.270  60
  -2   1 -15 3241.20 310.858   5
  -2   1 -15 3319.56 320.251  60
  -2   1 -15 3331.60 297.895  38
  -2   1 -14 2258.56 331.192   6
  -2   1 -14 2652.55 324.289  60
  -2   1 -14 2561.97 307.183  38
  -2   1 -13 8507.61 502.726  23
  -2   1 -13 8139.98 480.636  38
  -2   1 -13 8862.47 513.585   6
  -2   1 -12 42814.4 1501.40   6
  -2   1 -12 40409.1 1488.19  38
  -2   1 -12 43606.2 1504.54  22
  -2   1 -12 43311.8 1503.51  23
  -2   1 -11 34748.6 1216.58  22
  -2   1 -11 34987.2 1265.57  36
  -2   1 -11 32518.5 1212.73  38
  -2   1 -11 34351.4 1221.37  23
  -2   1 -11 32124.7 1206.70   6
  -2   1 -10 1443.23 222.737  22
  -2   1 -10 1300.87 235.271   6
  -2   1 -10 1383.09 240.768  38
  -2   1 -10 1154.45 227.067  23
  -2   1 -10 1298.04 261.068  36
  -2   1  -9 23494.5 864.772  22
  -2   1  -9 25801.2 1301.95  63
  -2   1  -9 23461.9 917.126  36
  -2   1  -9 24971.6 933.841  42
  -2   1  -9 23232.5 872.885  23
  -2   1  -8 15975.3 645.214  42
  -2   1  -8 14395.7 580.947   7
  -2   1  -8 15095.5 633.846  36
  -2   1  -8 15698.4 924.378  63
  -2   1  -8 14395.2 592.287   4
  -2   1  -8 14851.3 1026.34  61
  -2   1  -7 8727.11 628.194  63
  -2   1  -7 7653.87 597.619  91
  -2   1  -6 8907.60 381.570  98
  -2   1  -6 9076.92 605.388  63
  -2   1  -6 8656.51 588.640  91
  -2   1  -5 88802.4 2708.36  98
  -2   1  -5 94577.4 2983.66  63
  -2   1  -5 87954.8 2956.77  91
  -2   1  -4 46278.4 1488.59  98
  -2   1  -4 46509.2 1686.87  91
  -2   1  -4 47584.3 1686.05  63
  -2   1  -4 46659.7 1518.82  35
  -2   1  -3 220167. 6754.27  91
  -2   1  -3 215600. 6580.54  98
  -2   1  -3 227696. 6985.98  61
  -2   1  -3 210900. 6710.88  63
  -2   1  -2 339047. 10217.6  98
  -2   1  -2 327098. 10293.0  63
  -2   1  -2 345523. 10362.8  91
  -2   1  -2 345333. 10590.8  61
  -2   1  -1 153636. 4740.20  98
  -2   1  -1 152078. 4861.55  91
  -2   1  -1 156262. 4718.94  83
  -2   1  -1 166999. 5099.78  61
  -2   1   0 16063.2 674.482  91
  -2   1   0 15811.1 586.924  83
  -2   1   0 15968.8 616.782  94
  -2   1   0 16936.1 571.804  98
  -2   1   1 159299. 5021.69  83
  -2   1   1 166408. 4959.64  98
  -2   1   1 161738. 5056.50  94
  -2   1   1 172630. 5299.77  61
  -2   1   1 154455. 5067.97  91
  -2   1   2 414995. 12840.2  86
  -2   1   2 408240. 12867.1  83
  -2   1   2 428635. 12913.4  94
  -2   1   3 156532. 5044.22  64
  -2   1   3 173968. 5126.30  86
  -2   1   3 168161. 5176.10  94
  -2   1   3 156891. 5127.90  83
  -2   1   4 114105. 3966.34  83
  -2   1   4 122172. 3913.66  64
  -2   1   4 120253. 3999.30  94
  -2   1   4 134836. 4088.85   1
  -2   1   4 119730. 3867.02  84
  -2   1   4 131917. 4002.68  86
  -2   1   5 1111.31 340.764  86
  -2   1   5 1539.64 342.858  94
  -2   1   5 1495.01 359.899   1
  -2   1   5 1787.83 175.467  95
  -2   1   5 1597.94 185.910  93
  -2   1   5 1475.72 321.228  83
  -2   1   5 1122.30 272.766  84
  -2   1   6 15751.9 886.322   1
  -2   1   6 15349.2 885.954  86
  -2   1   6 14377.4 831.101  83
  -2   1   6 14348.0 856.290  94
  -2   1   6 16244.6 809.818  84
  -2   1   6 16814.2 601.275  95
  -2   1   6 16324.7 608.908  92
  -2   1   7-25.6536 325.414   1
  -2   1   7-69.5895 345.734  94
  -2   1   7 279.760 406.697  62
  -2   1   7 62.4072 187.300  92
  -2   1   7 75.3515 374.358  86
  -2   1   7 188.695 170.490  95
  -2   1   7 65.9667 297.074  84
  -2   1   8 73042.0 2833.21  94
  -2   1   8 74597.0 2898.29  86
  -2   1   8 75750.6 2476.12  92
  -2   1   8 78937.6 2474.34  95
  -2   1   8 76507.0 2836.37  84
  -2   1   8 83013.5 2969.24  62
  -2   1   8 80755.2 2911.30   1
  -2   1   9 35547.0 1596.61   1
  -2   1   9 30088.9 1473.04  84
  -2   1   9 30201.5 1120.19  92
  -2   1   9 29867.8 1492.23  94
  -2   1   9 35867.7 1153.47  56
  -2   1   9 30784.7 1135.78  25
  -2   1   9 29680.1 1114.73  30
  -2   1   9 30558.4 1115.34  95
  -2   1   9 29171.9 1545.05  86
  -2   1   9 32942.6 1167.76  20
  -2   1  10 25393.9 1431.54  86
  -2   1  10 26325.6 1016.09  20
  -2   1  10 24457.2 960.627  17
  -2   1  10 27090.0 960.242  57
  -2   1  10 28844.0 990.259  56
  -2   1  10 24358.4 977.635  25
  -2   1  10 23227.4 1317.22  84
  -2   1  10 24865.3 976.137  92
  -2   1  10 24485.5 956.008  95
  -2   1  10 26545.9 1405.01   1
  -2   1  10 24494.7 959.951  30
  -2   1  11 51996.3 2430.63  86
  -2   1  11 54483.2 1901.08  20
  -2   1  11 53769.3 1844.55  30
  -2   1  11 55028.9 1877.77  25
  -2   1  11 51348.4 1842.22  17
  -2   1  11 57008.5 1840.07  57
  -2   1  11 61340.9 1874.84  56
  -2   1  11 54980.2 1876.72  92
  -2   1  11 53341.4 2343.21   1
  -2   1  11 49458.6 2310.90  84
  -2   1  11 45078.1 2117.44  87
  -2   1  11 54639.5 1859.88  95
  -2   1  12 34801.0 1318.52  92
  -2   1  12 34516.7 1792.47  84
  -2   1  12 34558.0 1323.07  25
  -2   1  12 34176.7 1338.12  20
  -2   1  12 29176.6 1564.97  87
  -2   1  12 33082.8 1277.20  17
  -2   1  12 34181.9 1294.44  95
  -2   1  12 36877.0 1268.04  57
  -2   1  12 39039.2 1303.85  56
  -2   1  12 32375.1 1854.28  86
  -2   1  12 36483.6 1285.04  30
  -2   1  13 83976.6 3610.77  86
  -2   1  13 87993.1 2920.79  20
  -2   1  13 89723.6 2822.10  57
  -2   1  13 89025.5 2901.07  92
  -2   1  13 80633.7 2842.33  17
  -2   1  13 89156.2 2849.47  30
  -2   1  13 84848.0 2871.76  95
  -2   1  13 89045.4 2907.06  25
  -2   1  14 6481.66 521.039  25
  -2   1  14 5753.41 486.144  92
  -2   1  14 7602.65 518.680  20
  -2   1  14 6345.07 441.359  17
  -2   1  14 5928.16 462.556  95
  -2   1  14 6548.01 424.514  30
  -2   1  15 10396.3 619.541  20
  -2   1  15 9627.44 565.053   9
  -2   1  15 10354.2 541.595  17
  -2   1  15 9929.11 566.968  95
  -2   1  15 10799.5 519.163  30
  -2   1  15 11469.6 637.149  25
  -2   1  16 6101.75 459.463  20
  -2   1  16 5609.31 398.771   9
  -2   1  16 4931.33 399.710  95
  -2   1  16 5626.36 335.304  30
  -2   1  16 5867.02 468.916  25
  -2   1  17 3540.86 318.283  10
  -2   1  17 2843.17 336.905  20
  -2   1  17 2565.80 273.790   9
  -2   1  17 2303.14 285.312  95
  -2   1  17 2534.47 346.162  25
  -2   1  18 16683.0 676.416  10
  -2   1  18 18419.6 698.929  20
  -2   1  18 18078.1 706.796  25
  -2   1  19 3136.47 211.722  10
  -2   1  19 3101.02 228.755  20
  -2   2 -18 8712.40 343.712   5
  -2   2 -18 7204.13 306.064  59
  -2   2 -17 18167.2 682.445   5
  -2   2 -16 23814.1 873.342  60
  -2   2 -15 11301.8 548.731  60
  -2   2 -15 12775.3 582.328  23
  -2   2 -14 34663.9 1252.03  23
  -2   2 -14 34143.1 1252.84  22
  -2   2 -13 17431.1 747.096  38
  -2   2 -13 18264.3 779.094   6
  -2   2 -13 19955.4 788.260  22
  -2   2 -13 19258.4 783.022  23
  -2   2 -12 11884.9 591.653   6
  -2   2 -12 12902.4 972.728  63
  -2   2 -12 13804.5 611.049  23
  -2   2 -12 14721.2 643.151   4
  -2   2 -12 13660.1 609.018  22
  -2   2 -12 13901.1 661.234  36
  -2   2 -12 12476.4 590.196  38
  -2   2 -11 43116.1 1455.41  23
  -2   2 -11 43209.5 1453.18  22
  -2   2 -11 40537.1 1500.41  36
  -2   2 -11 42378.1 1991.69  91
  -2   2 -11 42997.8 1476.19   4
  -2   2 -11 38821.0 1884.94  63
  -2   2 -10 15565.5 682.661  36
  -2   2 -10 15107.3 987.148  63
  -2   2 -10 14989.2 650.468   4
  -2   2 -10 17302.3 655.660  98
  -2   2 -10 14997.4 1077.92  91
  -2   2 -10 14704.4 624.280  23
  -2   2 -10 15560.0 630.407  22
  -2   2 -10 16265.9 653.286   7
  -2   2  -9 218.015 167.716  98
  -2   2  -9 76.1054 198.942  36
  -2   2  -9 213.820 158.843   7
  -2   2  -9 127.984 165.942  23
  -2   2  -9 276.647 392.181  91
  -2   2  -9 29.0239 296.683  63
  -2   2  -9 178.321 152.228  22
  -2   2  -8 14847.7 975.828  91
  -2   2  -8 14302.2 571.857   7
  -2   2  -8 13253.9 538.831  22
  -2   2  -8 13874.0 545.174  23
  -2   2  -8 12049.9 903.552  61
  -2   2  -8 13450.2 592.173  36
  -2   2  -8 15695.4 599.196  98
  -2   2  -8 14656.5 834.830  63
  -2   2  -7 5845.91 634.171  91
  -2   2  -7 4432.87 537.240  61
  -2   2  -7 5832.60 446.989  64
  -2   2  -7 6364.47 346.359  98
  -2   2  -7 5857.46 502.155  63
  -2   2  -6 6378.66 600.941  91
  -2   2  -6 6224.11 339.200  98
  -2   2  -6 5966.91 422.375  64
  -2   2  -6 6348.75 473.603  63
  -2   2  -6 6796.12 622.160  61
  -2   2  -5 107947. 3278.99  98
  -2   2  -5 107976. 3399.10  64
  -2   2  -5 108253. 3463.97  63
  -2   2  -5 104480. 3664.19  61
  -2   2  -5 111673. 3664.87  91
  -2   2  -5 98094.7 3271.88  35
  -2   2  -4 193603. 6008.88  91
  -2   2  -4 181222. 5634.93  67
  -2   2  -4 185162. 5668.66  35
  -2   2  -4 183210. 5809.03  63
  -2   2  -4 187262. 6051.47  61
  -2   2  -4 185497. 5662.07  98
  -2   2  -4 187968. 5740.15  64
  -2   2  -3 336391. 10206.1  98
  -2   2  -3 337467. 10241.3  64
  -2   2  -3 337205. 10321.4  63
  -2   2  -3 332279. 10508.5  91
  -2   2  -3 351658. 10603.2  61
  -2   2  -3 328272. 10365.3  83
  -2   2  -2 19647.0 953.642  91
  -2   2  -2 20017.8 710.854  98
  -2   2  -2 19880.5 770.880  63
  -2   2  -2 21087.6 1038.46  61
  -2   2  -2 20771.8 702.211  64
  -2   2  -2 20252.4 836.334  83
  -2   2  -1 87795.9 2915.23  91
  -2   2  -1 87038.1 2612.83  64
  -2   2  -1 83135.9 2678.42  63
  -2   2  -1 85660.2 2654.65  98
  -2   2  -1 81944.5 2717.12  94
  -2   2  -1 84099.5 2782.68  83
  -2   2   0 39038.1 1213.28  63
  -2   2   0 36842.6 1160.09  64
  -2   2   0 35857.6 1163.21  64
  -2   2   0 38123.3 1317.82  94
  -2   2   0 39817.5 1220.35  98
  -2   2   0 38729.5 1454.99  91
  -2   2   0 37572.0 1350.14  83
  -2   2   1 112475. 3401.33  64
  -2   2   1 107306. 3403.55  63
  -2   2   1 111975. 3472.12  86
  -2   2   1 111330. 3553.95  94
  -2   2   1 114498. 3671.90  91
  -2   2   1 111264. 3572.29  83
  -2   2   2 67300.6 2178.00  84
  -2   2   2 68801.9 2217.23  64
  -2   2   2 69178.9 2296.79  86
  -2   2   2 71289.4 2184.19  98
  -2   2   2 70667.3 2358.66  94
  -2   2   2 71269.1 2363.75  83
  -2   2   2 74383.7 2445.56  91
  -2   2   3 96420.2 3195.79   1
  -2   2   3 94986.8 2832.46  93
  -2   2   3 91677.1 3039.18  83
  -2   2   3 92839.6 3061.05  94
  -2   2   3 88178.2 3080.47  91
  -2   2   3 90645.5 3008.33  86
  -2   2   3 85446.1 2886.41  84
  -2   2   4 26227.1 1113.26  83
  -2   2   4 24125.7 985.709  84
  -2   2   4 25768.5 887.567  80
  -2   2   4 25132.5 1089.39  86
  -2   2   4 28021.4 1247.89   1
  -2   2   4 26703.7 1138.88  94
  -2   2   4 28185.1 894.864  93
  -2   2   5 21082.6 983.001  83
  -2   2   5 20931.2 724.102  69
  -2   2   5 22255.1 739.885  93
  -2   2   5 19159.2 873.745  84
  -2   2   5 19909.7 969.471  86
  -2   2   5 22298.0 1108.21   1
  -2   2   5 20023.7 1008.15  94
  -2   2   5 19606.5 704.373  95
  -2   2   5 19975.1 727.884  80
  -2   2   6 15375.7 887.656  86
  -2   2   6 17197.9 625.202  93
  -2   2   6 16502.0 897.858  83
  -2   2   6 15927.3 615.804  69
  -2   2   6 15810.6 601.856  95
  -2   2   6 16158.9 910.228  94
  -2   2   6 18557.8 1026.28   1
  -2   2   6 15682.1 802.751  84
  -2   2   7 10658.0 767.644  86
  -2   2   7 11595.3 782.587  83
  -2   2   7 11294.9 490.256  93
  -2   2   7 11602.0 498.397  69
  -2   2   7 11715.8 763.349  94
  -2   2   7 11558.6 479.282  95
  -2   2   7 11363.1 712.125  84
  -2   2   7 11730.9 858.367   1
  -2   2   8 11638.8 557.048  25
  -2   2   8 11063.7 804.963  83
  -2   2   8 11391.9 498.364  79
  -2   2   8 11387.9 549.445  20
  -2   2   8 13390.3 966.742   1
  -2   2   8 11847.6 531.853   2
  -2   2   8 11242.3 499.801  95
  -2   2   8 11526.0 841.000  86
  -2   2   8 11861.6 818.487  94
  -2   2   8 10257.9 740.305  84
  -2   2   9 3962.54 308.412  95
  -2   2   9 3180.91 494.145  84
  -2   2   9 4260.87 314.796  79
  -2   2   9 3981.91 574.135  83
  -2   2   9 4098.07 360.923  20
  -2   2   9 4056.11 332.650   2
  -2   2   9 4464.42 669.473   1
  -2   2   9 3365.08 561.791  86
  -2   2   9 3880.91 347.778  17
  -2   2   9 4286.59 324.695  30
  -2   2   9 4788.57 399.784  25
  -2   2  10 23527.8 1388.80  86
  -2   2  10 23871.7 1314.31  84
  -2   2  10 24617.6 1008.80  20
  -2   2  10 24955.3 933.607  79
  -2   2  10 23706.3 953.186   2
  -2   2  10 23942.2 928.222  95
  -2   2  10 26592.2 1512.97   1
  -2   2  10 24589.8 979.931  17
  -2   2  10 25243.6 924.784  27
  -2   2  10 23788.9 937.780  30
  -2   2  10 23058.3 933.253  92
  -2   2  10 24960.3 1006.28  25
  -2   2  11 84238.6 3331.91  94
  -2   2  11 79346.4 2803.98   2
  -2   2  11 82282.6 2791.10  95
  -2   2  11 86220.7 2866.79  20
  -2   2  11 82893.3 2830.69  17
  -2   2  11 89454.7 3520.44   1
  -2   2  11 91408.0 2806.56  30
  -2   2  11 89661.1 2807.59  79
  -2   2  11 86580.4 2811.71  92
  -2   2  11 83508.0 3417.33  86
  -2   2  11 80525.5 3284.23  84
  -2   2  11 90327.4 2872.80  25
  -2   2  12 7997.65 563.546  25
  -2   2  12 7693.80 541.394  20
  -2   2  12 7770.28 866.941   1
  -2   2  12 8040.25 483.605   2
  -2   2  12 7890.10 486.247  95
  -2   2  12 7382.03 509.779  17
  -2   2  12 8992.23 477.826  30
  -2   2  12 8666.79 938.457  86
  -2   2  12 8089.80 512.474  92
  -2   2  13 298.201 314.501  92
  -2   2  13 213.857 530.704  86
  -2   2  13 704.219 372.153  25
  -2   2  13 335.754 322.874  20
  -2   2  13 252.905 300.497   9
  -2   2  13 632.491 274.882  95
  -2   2  13 611.128 250.272   2
  -2   2  13 620.236 304.938  17
  -2   2  13 546.563 467.987   1
  -2   2  13 448.037 365.615  87
  -2   2  14 2538.80 450.765  25
  -2   2  14 2845.42 310.386   2
  -2   2  14 2534.23 408.266  20
  -2   2  14 2743.17 375.330   9
  -2   2  14 2446.12 355.741  17
  -2   2  14 1688.96 477.931  87
  -2   2  14 2368.66 330.464  95
  -2   2  14 3069.62 389.314  92
  -2   2  15 1393.03 309.852   9
  -2   2  15 744.423 265.754  10
  -2   2  15 809.209 289.181  17
  -2   2  15 810.721 342.341  20
  -2   2  15 634.406 310.498  92
  -2   2  15 611.199 250.717  95
  -2   2  15 487.439 504.172  86
  -2   2  15 1078.47 365.631  25
  -2   2  16 11842.6 563.588  10
  -2   2  16 11503.9 617.024  20
  -2   2  16 11203.7 554.593  17
  -2   2  16 11512.4 584.417   9
  -2   2  16 9530.50 532.540  95
  -2   2  16 11618.3 628.376  25
  -2   2  17 379.431 258.980  20
  -2   2  17 411.787 188.871  10
  -2   2  17 415.203 218.464   9
  -2   2  18 4119.79 247.738  10
  -2   2  18 4967.01 313.932  20
  -2   2  18 4386.42 274.457   9
  -2   2  19 2025.50 174.097  20
  -2   3 -18 3563.06 198.429   5
  -2   3 -18 3714.97 221.019   6
  -2   3 -17 216.778 180.821   6
  -2   3 -16 1807.01 246.842  23
  -2   3 -16 1465.90 199.466  60
  -2   3 -15 6732.66 408.717  22
  -2   3 -15 6252.70 385.789  23
  -2   3 -14 17000.0 717.860  22
  -2   3 -14 17045.3 715.607  23
  -2   3 -13 975.164 210.021  98
  -2   3 -13 830.986 241.162  22
  -2   3 -13 582.451 227.890  23
  -2   3 -13 805.847 238.600   4
  -2   3 -13 446.881 365.119  63
  -2   3 -12 8897.38 461.351  22
  -2   3 -12 8697.70 455.404  23
  -2   3 -12 9034.09 476.440   4
  -2   3 -12 6892.65 706.864  63
  -2   3 -12 8695.31 463.041  98
  -2   3 -12 7812.54 859.566  91
  -2   3 -12 8116.00 471.956   7
  -2   3 -11 67457.2 2153.28   7
  -2   3 -11 62211.9 2807.63  91
  -2   3 -11 62251.4 2111.19  22
  -2   3 -11 60205.6 2559.71  63
  -2   3 -11 63872.9 2141.51   4
  -2   3 -11 61464.2 2154.09  36
  -2   3 -11 67561.2 2163.55  98
  -2   3 -11 62868.3 2113.86  23
  -2   3 -11 71636.1 2218.70  42
  -2   3 -10 17326.1 702.199  23
  -2   3 -10 19229.7 768.349  98
  -2   3 -10 17691.4 745.348  36
  -2   3 -10 21356.5 1367.17  91
  -2   3 -10 17438.2 1042.14  63
  -2   3 -10 18086.1 743.783   4
  -2   3 -10 18433.8 743.800   7
  -2   3 -10 17951.1 711.209  22
  -2   3 -10 18381.0 792.405  42
  -2   3  -9 4798.56 308.357  22
  -2   3  -9 5107.39 365.968  42
  -2   3  -9 4773.38 337.677  36
  -2   3  -9 4941.38 526.462  63
  -2   3  -9 5138.34 343.405   4
  -2   3  -9 5108.03 333.916   7
  -2   3  -9 5455.04 361.793  98
  -2   3  -9 4783.16 299.804  23
  -2   3  -9 5178.54 742.435  91
  -2   3  -8 63239.4 1929.74  67
  -2   3  -8 58683.7 2250.82  63
  -2   3  -8 58234.0 1983.77  42
  -2   3  -8 54090.9 1935.89  36
  -2   3  -8 53305.7 2295.60  61
  -2   3  -8 58459.4 1944.28   4
  -2   3  -8 68098.1 2002.24  98
  -2   3  -8 59230.1 1938.31  24
  -2   3  -8 59665.2 2561.88  91
  -2   3  -8 57245.1 1936.22   7
  -2   3  -8 57808.5 1908.54  23
  -2   3  -7 3899.06 309.451  98
  -2   3  -7 3338.32 589.785  91
  -2   3  -7 4694.04 326.713  42
  -2   3  -7 2900.62 454.288  61
  -2   3  -7 3350.95 244.629  24
  -2   3  -7 4511.29 274.022  67
  -2   3  -7 3633.57 267.035   7
  -2   3  -7 3452.75 410.327  63
  -2   3  -6 10867.5 443.069  66
  -2   3  -6 10377.6 489.721  98
  -2   3  -6 11684.7 884.035  91
  -2   3  -6 9795.55 570.852  64
  -2   3  -6 9041.54 695.968  61
  -2   3  -6 9945.74 641.886  63
  -2   3  -6 10386.7 455.127  67
  -2   3  -5 28344.6 1202.30  63
  -2   3  -5 29792.1 993.217  66
  -2   3  -5 30278.2 1147.87  64
  -2   3  -5 26202.6 986.499  35
  -2   3  -5 29083.1 1331.98  61
  -2   3  -5 30911.5 1489.89  91
  -2   3  -5 28964.7 1003.77  67
  -2   3  -5 30997.9 1040.29  98
  -2   3  -4 102485. 3362.39  61
  -2   3  -4 101714. 3329.88  83
  -2   3  -4 97691.8 3420.94  91
  -2   3  -4 93264.4 2935.37  66
  -2   3  -4 93069.2 3142.73  63
  -2   3  -4 90234.9 3065.74  64
  -2   3  -4 90455.7 2938.24  35
  -2   3  -4 95450.5 2947.73  67
  -2   3  -4 95253.8 2969.97  98
  -2   3  -3 25471.7 865.886  67
  -2   3  -3 24014.8 853.380  66
  -2   3  -3 26054.9 891.456  98
  -2   3  -3 25688.9 1160.66  83
  -2   3  -3 23887.0 1011.78  94
  -2   3  -3 22925.5 953.769  64
  -2   3  -3 23288.6 1014.22  63
  -2   3  -3 26211.5 1220.57  61
  -2   3  -3 25649.7 1251.33  91
  -2   3  -3 25010.9 863.439  35
  -2   3  -2 27055.0 1089.23  63
  -2   3  -2 27852.6 952.424  67
  -2   3  -2 27764.5 945.523  66
  -2   3  -2 28952.5 1343.00  91
  -2   3  -2 26150.0 1041.04  64
  -2   3  -2 31030.9 1349.67  61
  -2   3  -2 30546.0 1250.75  83
  -2   3  -2 27343.4 1120.87  94
  -2   3  -1 22875.2 956.414  63
  -2   3  -1 23640.7 817.714  66
  -2   3  -1 23152.2 931.636  64
  -2   3  -1 25903.1 1213.37  61
  -2   3  -1 23758.9 1082.06  83
  -2   3  -1 25085.9 1182.60  91
  -2   3  -1 23663.4 1008.47  94
  -2   3   0 182068. 5744.90  94
  -2   3   0 169214. 5675.95  64
  -2   3   0 191021. 5936.26  91
  -2   3   0 182369. 5503.78  68
  -2   3   0 179868. 5518.16  66
  -2   3   0 183236. 5677.97  86
  -2   3   0 164566. 5669.82  63
  -2   3   0 190140. 5977.28  61
  -2   3   0 190529. 5834.59  83
  -2   3   0 181607. 5531.07  98
  -2   3   1 214168. 6510.32  80
  -2   3   1 217507. 6535.99  98
  -2   3   1 216455. 6700.53  86
  -2   3   1 213001. 6516.15  68
  -2   3   1 212546. 6772.00  94
  -2   3   1 218791. 6985.07  61
  -2   3   1 217535. 6833.45  83
  -2   3   1 216548. 6918.29  91
  -2   3   1 209082. 6525.38  66
  -2   3   2 104669. 3269.27  80
  -2   3   2 106606. 3285.41  98
  -2   3   2 106613. 3549.86  94
  -2   3   2 106876. 3658.08  91
  -2   3   2 108169. 3598.38  83
  -2   3   2 103853. 3474.53  86
  -2   3   2 105930. 3274.29  68
  -2   3   3 3799.97 238.246  80
  -2   3   3 3852.55 239.316  98
  -2   3   3 4289.26 473.531  83
  -2   3   3 3642.51 230.588  68
  -2   3   3 3542.52 331.948  84
  -2   3   3 4200.49 510.217  91
  -2   3   3 3804.12 439.796  94
  -2   3   3 3811.14 413.446  86
  -2   3   4 78433.2 2436.41  80
  -2   3   4 78851.6 2616.75  84
  -2   3   4 69763.7 2775.82  91
  -2   3   4 76451.0 2436.23  68
  -2   3   4 76781.6 2771.69  83
  -2   3   4 82125.5 2941.18   1
  -2   3   4 78480.8 2761.22  94
  -2   3   4 77370.8 2713.58  86
  -2   3   5 24008.4 895.170   2
  -2   3   5 23830.7 855.638  69
  -2   3   5 24660.2 841.516  95
  -2   3   5 24082.2 1060.06  84
  -2   3   5 24091.0 1142.29  86
  -2   3   5 24977.2 1324.32   1
  -2   3   5 24465.9 858.363  80
  -2   3   5 23492.8 1165.35  83
  -2   3   5 24346.8 1179.60  94
  -2   3   6 90791.9 2910.59  95
  -2   3   6 93463.9 2931.68  80
  -2   3   6 93255.0 3328.19  94
  -2   3   6 88184.3 3194.73  84
  -2   3   6 92654.9 2970.34   2
  -2   3   6 91225.4 2926.24  69
  -2   3   6 98368.7 2936.99  93
  -2   3   6 87736.4 3305.99  83
  -2   3   6 87412.8 3299.75  86
  -2   3   7 23026.9 1177.42  84
  -2   3   7 28780.7 1503.90   1
  -2   3   7 26177.2 975.541  20
  -2   3   7 26374.4 936.429  93
  -2   3   7 26398.6 1346.12  94
  -2   3   7 24075.4 1269.54  83
  -2   3   7 25142.7 968.361   2
  -2   3   7 24955.7 910.654  95
  -2   3   7 25688.8 973.010  17
  -2   3   7 25970.4 991.799   9
  -2   3   7 23936.8 1285.47  86
  -2   3   7 24844.9 926.729  80
  -2   3   7 27048.3 998.491  25
  -2   3   7 24361.4 922.036  69
  -2   3   8 13184.1 582.068  79
  -2   3   8 13395.2 878.148  84
  -2   3   8 13365.2 950.208  86
  -2   3   8 14502.7 624.088  10
  -2   3   8 13723.5 653.081  20
  -2   3   8 12983.9 947.471  94
  -2   3   8 15353.8 669.795   2
  -2   3   8 14629.0 974.732  83
  -2   3   8 14041.9 668.041   9
  -2   3   8 15083.1 693.250  25
  -2   3   8 14738.5 675.900  17
  -2   3   8 13536.5 587.967  95
  -2   3   8 13565.5 606.531  69
  -2   3   9 40144.6 2068.64   1
  -2   3   9 32721.9 1664.22  84
  -2   3   9 36529.4 1322.83  79
  -2   3   9 42045.9 1462.24  25
  -2   3   9 40123.6 1433.23  20
  -2   3   9 37139.4 1348.14  69
  -2   3   9 39030.9 1437.55   9
  -2   3   9 39493.4 1426.34  17
  -2   3   9 39912.5 1383.49  10
  -2   3   9 35888.9 1326.29  95
  -2   3   9 35491.4 1771.59  83
  -2   3   9 35481.1 1786.28  86
  -2   3   9 38894.0 1420.41   2
  -2   3  10 2972.05 320.623  95
  -2   3  10 3334.53 317.926  79
  -2   3  10 3335.19 340.265  10
  -2   3  10 3229.43 357.211   2
  -2   3  10 3657.39 408.835   9
  -2   3  10 3469.11 397.012  17
  -2   3  10 3484.80 460.329  25
  -2   3  10 3234.04 613.205  86
  -2   3  10 3413.25 335.744  93
  -2   3  10 4902.33 766.367   1
  -2   3  10 2197.92 546.177  83
  -2   3  10 3304.41 411.423  20
  -2   3  11 10474.5 974.276  86
  -2   3  11 12019.0 613.137  92
  -2   3  11 11915.6 591.901  79
  -2   3  11 11701.0 609.416  10
  -2   3  11 12346.1 683.194  20
  -2   3  11 11519.2 590.453  95
  -2   3  11 11848.9 640.385   2
  -2   3  11 11960.2 662.132  17
  -2   3  11 11063.7 954.080  94
  -2   3  11 12509.0 686.975   9
  -2   3  11 13088.3 1162.54   1
  -2   3  11 13291.3 738.219  25
  -2   3  12 20352.0 875.041  10
  -2   3  12 20907.7 867.580  79
  -2   3  12 20858.7 949.991  20
  -2   3  12 20986.7 914.538   2
  -2   3  12 20991.4 954.575   9
  -2   3  12 20361.3 927.461  17
  -2   3  12 19344.9 852.416  95
  -2   3  12 19503.9 868.696  92
  -2   3  12 21443.6 1488.46   1
  -2   3  12 20711.1 1324.03  94
  -2   3  12 21130.1 1396.55  86
  -2   3  12 22379.2 987.512  25
  -2   3  13 11012.9 586.797  95
  -2   3  13 11676.8 595.142  10
  -2   3  13 11499.4 1104.76   1
  -2   3  13 11827.4 619.438   2
  -2   3  13 10690.4 1029.45  86
  -2   3  13 11165.1 673.717   9
  -2   3  13 11391.3 668.523  20
  -2   3  13 10947.5 657.598  17
  -2   3  13 13031.9 718.337  25
  -2   3  13 11623.8 621.249  92
  -2   3  14 1880.36 295.271  95
  -2   3  14 2527.37 289.811  10
  -2   3  14 2102.25 315.892   2
  -2   3  14 1919.21 353.751   9
  -2   3  14 2137.28 373.487  17
  -2   3  14 1289.13 527.521  86
  -2   3  14 1631.43 322.552  92
  -2   3  14 2259.31 382.022  20
  -2   3  15 2835.82 273.520  10
  -2   3  15 2436.36 286.951   2
  -2   3  15 2680.94 369.513  20
  -2   3  15 2234.01 352.141   9
  -2   3  15 2317.79 350.627  17
  -2   3  15 2399.33 285.207  95
  -2   3  15 2327.12 322.756  92
  -2   3  16 6620.97 427.603  20
  -2   3  16 5874.82 351.371   2
  -2   3  16 6383.27 413.765   9
  -2   3  16 5934.31 395.727  92
  -2   3  16 5503.56 313.971  10
  -2   3  17 10259.2 470.955  20
  -2   3  17 8890.82 454.164   9
  -2   3  18 2711.99 191.775   9
  -2   4 -17 3997.81 242.331   6
  -2   4 -16 3691.65 270.031   6
  -2   4 -16 3694.49 281.828  22
  -2   4 -16 3460.68 263.033  23
  -2   4 -15 14271.7 599.260  23
  -2   4 -15 14301.4 609.343  22
  -2   4 -14 10098.7 481.484  23
  -2   4 -14 10370.3 492.030  22
  -2   4 -14 8993.85 466.121  98
  -2   4 -13 5160.06 349.433  23
  -2   4 -13 5071.97 346.485   4
  -2   4 -13 3985.17 553.229  63
  -2   4 -13 3869.51 691.436  91
  -2   4 -13 4961.47 359.272  98
  -2   4 -13 5514.30 357.320  22
  -2   4 -12 10329.6 550.435  42
  -2   4 -12 10936.9 552.822  98
  -2   4 -12 10693.2 539.287   7
  -2   4 -12 9484.73 807.376  63
  -2   4 -12 10939.2 512.022  22
  -2   4 -12 10596.6 518.097   4
  -2   4 -12 11183.5 1049.24  91
  -2   4 -12 9653.02 496.764  23
  -2   4 -11 2244.72 272.679  22
  -2   4 -11 1815.98 277.670  42
  -2   4 -11 2093.92 256.342  23
  -2   4 -11 1895.86 432.287  63
  -2   4 -11 2420.26 285.562   4
  -2   4 -11 2187.89 301.912  98
  -2   4 -11 1069.49 592.979  91
  -2   4 -11 2289.45 277.282   7
  -2   4 -10 73719.0 2377.08  67
  -2   4 -10 76106.0 3334.42  91
  -2   4 -10 74788.7 2446.88  42
  -2   4 -10 78334.7 2461.11  98
  -2   4 -10 66924.7 2363.44  36
  -2   4 -10 67361.2 2778.37  63
  -2   4 -10 75272.0 2415.74   4
  -2   4 -10 72311.4 2381.11  22
  -2   4 -10 74656.3 2403.47  24
  -2   4 -10 70772.8 2361.06  23
  -2   4 -10 74822.5 2414.61   7
  -2   4  -9 13718.1 650.034  98
  -2   4  -9 12525.0 607.482  42
  -2   4  -9 12309.4 551.996  36
  -2   4  -9 12106.7 841.979  63
  -2   4  -9 13019.4 596.813   4
  -2   4  -9 12585.5 589.079   7
  -2   4  -9 12337.3 583.186  24
  -2   4  -9 12577.6 1145.49  91
  -2   4  -9 13380.1 579.876  67
  -2   4  -8 74241.4 2288.63  98
  -2   4  -8 66170.4 2239.39  42
  -2   4  -8 70121.7 2212.81  67
  -2   4  -8 69681.6 2190.62  66
  -2   4  -8 62981.9 2161.19  36
  -2   4  -8 64867.5 2565.27  63
  -2   4  -8 61927.4 2190.31   8
  -2   4  -8 65917.7 2933.77  91
  -2   4  -8 67866.5 2211.40   7
  -2   4  -8 66880.1 2198.76  24
  -2   4  -7 84600.9 2657.55  42
  -2   4  -7 79908.1 2595.24  24
  -2   4  -7 84140.4 2629.16   7
  -2   4  -7 76453.0 2604.35   8
  -2   4  -7 85454.4 2627.39  67
  -2   4  -7 84024.3 2604.81  66
  -2   4  -7 75541.7 2921.79  63
  -2   4  -7 74198.4 3287.47  91
  -2   4  -7 81566.1 2649.60  98
  -2   4  -6 6932.33 417.815  98
  -2   4  -6 6852.78 373.701  24
  -2   4  -6 7073.12 377.679  21
  -2   4  -6 6010.90 361.326  41
  -2   4  -6 5963.87 348.676   3
  -2   4  -6 7276.58 795.746  91
  -2   4  -6 6938.09 373.131  66
  -2   4  -6 7279.11 391.176  67
  -2   4  -6 7099.76 575.326  63
  -2   4  -6 6871.61 721.443  83
  -2   4  -6 5501.89 508.865  61
  -2   4  -5 22926.3 897.631  98
  -2   4  -5 24923.3 1323.41  83
  -2   4  -5 23018.1 873.104  41
  -2   4  -5 23686.8 877.766  67
  -2   4  -5 24060.9 871.225  66
  -2   4  -5 24102.4 1412.08  91
  -2   4  -5 22537.9 1108.98  63
  -2   4  -5 22474.3 1104.33  61
  -2   4  -5 23259.7 877.188   3
  -2   4  -4 99904.8 3031.32  67
  -2   4  -4 100145. 3339.02  94
  -2   4  -4 95315.4 3239.66  64
  -2   4  -4 107331. 3690.00  91
  -2   4  -4 100442. 3326.78  63
  -2   4  -4 96849.5 3353.81  61
  -2   4  -4 99373.1 3023.04  66
  -2   4  -4 106569. 3562.19  83
  -2   4  -3 87671.3 2768.58  98
  -2   4  -3 90048.5 3339.29  91
  -2   4  -3 84011.0 2746.86  66
  -2   4  -3 86668.1 2980.51  64
  -2   4  -3 87111.7 3058.78  94
  -2   4  -3 88894.2 3124.26  61
  -2   4  -3 85426.1 2754.53  67
  -2   4  -3 87831.2 3220.82  83
  -2   4  -3 88372.0 3033.87  63
  -2   4  -2 41947.8 1387.15  98
  -2   4  -2 40580.3 1768.72  83
  -2   4  -2 40985.8 1378.79  67
  -2   4  -2 39631.7 1373.54  66
  -2   4  -2 43986.9 1897.99  91
  -2   4  -2 40026.3 1591.93  64
  -2   4  -2 40628.0 1626.31  63
  -2   4  -2 40342.0 1661.93  94
  -2   4  -2 40450.3 1733.27  61
  -2   4  -1 9204.16 425.965  98
  -2   4  -1 9982.23 672.633  94
  -2   4  -1 9002.72 423.304  66
  -2   4  -1 8569.37 593.721  63
  -2   4  -1 8985.75 786.228  91
  -2   4  -1 10216.2 749.929  61
  -2   4  -1 9353.99 737.262  83
  -2   4  -1 8040.97 577.643  64
  -2   4   0 36669.6 1225.75  68
  -2   4   0 35597.5 1238.43  66
  -2   4   0 34581.1 1661.61  91
  -2   4   0 36745.0 1235.14  98
  -2   4   0 35550.2 1503.04  64
  -2   4   0 37231.2 1553.98  94
  -2   4   0 36775.6 1652.43  61
  -2   4   0 37561.0 1510.34  86
  -2   4   0 37320.5 1635.06  83
  -2   4   1 72752.4 2310.93  98
  -2   4   1 72277.5 2790.63  61
  -2   4   1 70436.3 2314.91  66
  -2   4   1 76182.6 2687.82  94
  -2   4   1 74031.7 2610.54  86
  -2   4   1 75310.2 2753.61  83
  -2   4   1 68521.7 2333.44   2
  -2   4   1 75077.9 2313.42  68
  -2   4   1 75630.5 2820.25  91
  -2   4   2 37516.6 1574.12  94
  -2   4   2 35388.9 1496.96  86
  -2   4   2 35138.1 1637.05  91
  -2   4   2 34831.9 1199.55  98
  -2   4   2 36658.0 1215.40  68
  -2   4   2 37263.9 1616.29  83
  -2   4   2 34649.9 1241.98   2
  -2   4   2 35955.2 1208.82  80
  -2   4   3 64568.0 2026.32  80
  -2   4   3 65403.6 2032.20  68
  -2   4   3 56921.5 2420.50  91
  -2   4   3 64403.9 2366.53  86
  -2   4   3 65530.9 2303.60  84
  -2   4   3 65551.6 2431.73  94
  -2   4   3 59939.9 2060.83   2
  -2   4   3 59784.9 1999.99  98
  -2   4   3 64611.3 2552.70   1
  -2   4   3 63432.4 2451.72  83
  -2   4   4 126076. 4324.89  86
  -2   4   4 129809. 3946.52  80
  -2   4   4 134625. 4577.38   1
  -2   4   4 128501. 3944.62  68
  -2   4   4 122611. 3991.91   9
  -2   4   4 122412. 4358.60  94
  -2   4   4 128980. 4414.46  83
  -2   4   4 127524. 4232.17  84
  -2   4   4 120763. 3987.95  16
  -2   4   5 12964.4 554.664  80
  -2   4   5 12498.3 578.291  20
  -2   4   5 12242.5 537.110  68
  -2   4   5 12456.0 595.897   9
  -2   4   5 12415.2 896.686  83
  -2   4   5 12644.5 996.091   1
  -2   4   5 13053.0 777.647  84
  -2   4   5 13518.7 867.092  86
  -2   4   5 13941.9 916.525  94
  -2   4   6 26524.4 986.580  80
  -2   4   6 25971.0 1391.28  83
  -2   4   6 27200.7 1045.26   2
  -2   4   6 27075.2 1029.26  20
  -2   4   6 26369.5 1390.09  94
  -2   4   6 28038.2 993.790  69
  -2   4   6 25381.1 1029.68  17
  -2   4   6 27360.3 972.685  95
  -2   4   6 26781.3 1386.11  86
  -2   4   6 26985.0 1049.47   9
  -2   4   7 10910.4 528.259  95
  -2   4   7 11887.4 562.068  69
  -2   4   7 11666.5 557.887  80
  -2   4   7 12146.9 611.120   2
  -2   4   7 11884.8 937.899  86
  -2   4   7 11910.5 593.093  20
  -2   4   7 11415.0 611.546   9
  -2   4   7 12140.5 911.553  83
  -2   4   7 12009.1 909.383  94
  -2   4   8 53509.2 1820.45  80
  -2   4   8 49830.8 2302.44  94
  -2   4   8 56335.0 1878.87  20
  -2   4   8 57713.1 1918.25   2
  -2   4   8 59682.2 2695.31   1
  -2   4   8 52754.4 1818.71  69
  -2   4   8 49783.0 2316.49  86
  -2   4   8 50210.5 1789.53  95
  -2   4   8 53201.3 2319.99  83
  -2   4   9 23664.5 1623.08   1
  -2   4   9 21443.3 873.688  95
  -2   4   9 23717.1 976.101  20
  -2   4   9 23426.2 995.513   2
  -2   4   9 21550.0 903.525  69
  -2   4   9 19358.6 1312.32  83
  -2   4   9 22333.3 889.280  93
  -2   4   9 20340.7 1316.90  86
  -2   4   9 21639.5 861.308  79
  -2   4  10 13202.3 707.393  20
  -2   4  10 12493.0 684.175   2
  -2   4  10 10852.6 966.758  94
  -2   4  10 11354.7 627.194  69
  -2   4  10 14876.1 1253.24   1
  -2   4  10 12638.1 701.281  17
  -2   4  10 12486.0 603.577  95
  -2   4  10 12033.7 588.583  79
  -2   4  10 11714.4 600.967  93
  -2   4  10 11880.3 1033.48  86
  -2   4  11 3057.69 600.577  83
  -2   4  11 4687.58 431.367   2
  -2   4  11 3254.82 718.888   1
  -2   4  11 3541.34 429.436  20
  -2   4  11 4134.35 470.392  17
  -2   4  11 2586.74 593.555  94
  -2   4  11 3931.36 356.072  93
  -2   4  11 4173.63 358.824  79
  -2   4  11 3205.53 671.650  86
  -2   4  11 3702.50 355.923  95
  -2   4  12 13004.2 678.220   2
  -2   4  12 13734.0 1196.11   1
  -2   4  12 13970.0 691.526  20
  -2   4  12 10482.0 999.747  86
  -2   4  12 11258.1 961.211  94
  -2   4  12 11656.9 603.155  95
  -2   4  12 12507.5 694.122  17
  -2   4  12 13193.7 639.405  92
  -2   4  12 11794.8 598.110  79
  -2   4  13 2716.89 366.763  20
  -2   4  13 1889.51 360.990   9
  -2   4  13 1808.37 525.669  94
  -2   4  13 2229.57 285.584  95
  -2   4  13 2250.93 329.291  92
  -2   4  13 2839.34 354.308   2
  -2   4  14 25995.8 984.159  20
  -2   4  14 26109.2 1015.42   9
  -2   4  14 21885.6 911.616  95
  -2   4  14 23785.7 932.216  16
  -2   4  14 26549.7 981.855   2
  -2   4  14 22881.8 936.873  92
  -2   4  15 14463.2 607.670   2
  -2   4  15 14821.7 625.157  20
  -2   4  15 13315.2 599.565  92
  -2   4  15 14273.1 636.561   9
  -2   4  16 5717.58 339.811   9
  -2   4  16 4830.06 312.906  92
  -2   4  16 5531.61 300.704   2
  -2   4  17 1598.10 163.443   9
  -2   5 -17 9280.82 341.316   6
  -2   5 -16 5497.50 286.607   6
  -2   5 -16 6058.64 304.260  22
  -2   5 -16 5878.80 292.684  23
  -2   5 -15 4081.84 279.394  22
  -2   5 -15 4358.71 274.811  23
  -2   5 -15 4041.66 266.993   6
  -2   5 -14 2989.60 261.258  23
  -2   5 -14 3308.90 270.118  22
  -2   5 -14 3085.92 264.579  98
  -2   5 -13 2877.07 285.463  98
  -2   5 -13 3158.14 269.894  23
  -2   5 -13 2784.58 241.873   4
  -2   5 -13 2742.98 279.551  22
  -2   5 -12 4514.37 358.417  98
  -2   5 -12 4172.56 315.688  23
  -2   5 -12 4012.65 302.873   4
  -2   5 -12 3968.31 315.118  22
  -2   5 -11 7610.26 435.576  22
  -2   5 -11 7512.87 429.126  42
  -2   5 -11 7774.17 425.692  23
  -2   5 -11 6915.34 928.705  91
  -2   5 -11 8448.38 498.797  98
  -2   5 -11 8090.62 431.008  67
  -2   5 -11 6747.27 662.560  63
  -2   5 -11 8378.00 445.161   4
  -2   5 -10 3231.89 329.470  24
  -2   5 -10 3368.61 308.605   4
  -2   5 -10 2898.69 297.375  42
  -2   5 -10 3799.06 313.909  67
  -2   5 -10 3221.39 281.770  66
  -2   5 -10 3454.77 505.185  63
  -2   5 -10 3561.47 364.852  98
  -2   5 -10 3277.36 805.056  91
  -2   5  -9 4988.20 734.829  83
  -2   5  -9 4668.60 412.109  98
  -2   5  -9 3273.35 500.961  63
  -2   5  -9 3092.27 789.836  91
  -2   5  -9 4220.92 340.730  24
  -2   5  -9 4663.80 364.785  67
  -2   5  -9 3918.90 325.754  42
  -2   5  -9 4219.96 334.334  66
  -2   5  -8 78312.3 2458.02  66
  -2   5  -8 76910.0 2518.66  98
  -2   5  -8 72885.7 3147.49  83
  -2   5  -8 79005.6 2481.28  67
  -2   5  -8 71297.4 2441.05  42
  -2   5  -8 76731.0 2456.19  24
  -2   5  -8 66989.1 2423.50   8
  -2   5  -8 68263.1 2831.07  63
  -2   5  -8 74140.0 3299.29  91
  -2   5  -7 111623. 3535.40  24
  -2   5  -7 105922. 3529.59   8
  -2   5  -7 111046. 4254.78  83
  -2   5  -7 108690. 3545.06  42
  -2   5  -7 113566. 3564.73  67
  -2   5  -7 114459. 3550.85  66
  -2   5  -7 101680. 3901.73  63
  -2   5  -7 115164. 4438.22  91
  -2   5  -6 44329.5 1441.11   8
  -2   5  -6 42925.9 2047.59  83
  -2   5  -6 39482.2 1406.12  21
  -2   5  -6 37424.1 1372.86   3
  -2   5  -6 43266.1 1428.11  66
  -2   5  -6 42292.9 1431.92  67
  -2   5  -6 40982.5 1768.95  63
  -2   5  -6 34063.7 1345.50  41
  -2   5  -6 42405.4 2162.12  91
  -2   5  -5 66794.3 2734.83  83
  -2   5  -5 61112.1 2066.12  66
  -2   5  -5 62906.2 2078.68  21
  -2   5  -5 64057.6 2093.58  98
  -2   5  -5 56040.5 2021.46  41
  -2   5  -5 61423.2 2073.97  67
  -2   5  -5 60430.2 2418.34  63
  -2   5  -5 66410.0 2103.58   8
  -2   5  -5 62715.7 2472.24  94
  -2   5  -5 63123.8 2808.31  91
  -2   5  -5 61954.8 2059.18   3
  -2   5  -4 71441.8 2807.69  94
  -2   5  -4 74675.2 3027.31  83
  -2   5  -4 73545.9 2412.49  98
  -2   5  -4 71332.4 2413.39  21
  -2   5  -4 70002.7 2376.17  41
  -2   5  -4 70559.5 2399.12  66
  -2   5  -4 72452.4 2408.40  67
  -2   5  -4 75119.9 2789.10  63
  -2   5  -4 79773.1 2453.78   8
  -2   5  -4 70190.5 3052.79  91
  -2   5  -4 76281.6 2420.97   3
  -2   5  -3 18276.8 741.361  41
  -2   5  -3 18668.9 760.463  98
  -2   5  -3 19106.3 791.241   8
  -2   5  -3 17538.1 1172.29  83
  -2   5  -3 19497.0 1057.23  63
  -2   5  -3 17717.5 1258.87  91
  -2   5  -3 20633.7 1120.90  94
  -2   5  -3 19270.9 781.897   3
  -2   5  -3 17603.6 753.971  67
  -2   5  -3 18098.1 755.169  66
  -2   5  -2 37821.3 1748.46  94
  -2   5  -2 34433.7 1320.09   9
  -2   5  -2 39058.9 1358.93  66
  -2   5  -2 42645.4 1380.45  41
  -2   5  -2 39068.8 1351.11  98
  -2   5  -2 39585.8 1717.95  63
  -2   5  -2 40224.0 1880.49  83
  -2   5  -2 41384.1 1950.65  91
  -2   5  -1 7968.85 778.437  83
  -2   5  -1 8692.87 459.769  21
  -2   5  -1 8262.41 413.141  98
  -2   5  -1 7729.33 722.298  94
  -2   5  -1 7600.79 427.376  66
  -2   5  -1 8227.85 681.331  63
  -2   5  -1 7849.73 667.866  61
  -2   5  -1 8654.58 707.074  86
  -2   5  -1 8037.34 416.780   9
  -2   5  -1 7207.61 392.311  43
  -2   5  -1 7459.15 791.064  91
  -2   5   0 4056.28 289.585  43
  -2   5   0 3996.25 319.077  16
  -2   5   0 4549.77 308.370  68
  -2   5   0 4546.87 322.498   9
  -2   5   0 4297.13 586.980  94
  -2   5   0 4464.96 547.099  61
  -2   5   0 5482.70 671.773  83
  -2   5   0 5071.27 562.042  86
  -2   5   0 4488.36 301.792  98
  -2   5   1 71916.1 2244.44  68
  -2   5   1 67530.0 2208.59  98
  -2   5   1 67025.9 2257.81   9
  -2   5   1 74506.7 2755.77  94
  -2   5   1 68756.0 2753.37  61
  -2   5   1 69839.4 2778.12  83
  -2   5   1 66510.3 2272.36  16
  -2   5   1 74925.0 2699.02  86
  -2   5   1 66079.4 2237.86  43
  -2   5   2 27312.8 981.555  68
  -2   5   2 26762.8 992.734  43
  -2   5   2 26839.2 1012.43   9
  -2   5   2 26872.9 1354.22  86
  -2   5   2 28347.5 1428.91  94
  -2   5   2 26740.2 1441.97  61
  -2   5   2 25491.8 1011.30  16
  -2   5   2 26833.8 1463.52  83
  -2   5   2 24328.8 921.618  98
  -2   5   2 26938.3 977.388  80
  -2   5   2 26829.7 1011.54   2
  -2   5   3 1063.84 482.542  83
  -2   5   3 1383.63 244.266  80
  -2   5   3 1455.85 235.945  43
  -2   5   3 1283.89 409.331  86
  -2   5   3 1564.81 450.377  91
  -2   5   3 1201.77 475.640  94
  -2   5   3 1462.99 235.249  68
  -2   5   3 1478.51 257.983   2
  -2   5   3 1184.59 249.292   9
  -2   5   4 46023.3 2037.07  94
  -2   5   4 47642.0 1564.01  80
  -2   5   4 42950.7 1966.22  86
  -2   5   4 44162.6 1551.73  68
  -2   5   4 44451.5 1604.50   9
  -2   5   4 46922.0 2187.91   1
  -2   5   4 47088.2 1599.48  43
  -2   5   4 45182.8 2066.75  83
  -2   5   4 43080.3 1598.47   2
  -2   5   5 48076.3 2189.66  83
  -2   5   5 51913.7 1743.77  43
  -2   5   5 48831.6 1747.17   2
  -2   5   5 50140.8 2165.85  86
  -2   5   5 47152.6 1676.56  68
  -2   5   5 48701.6 1745.86   9
  -2   5   5 48420.6 2184.39  94
  -2   5   5 49044.2 1754.27  16
  -2   5   5 54856.8 2422.86   1
  -2   5   5 49812.2 1687.53  80
  -2   5   6 118540. 4510.82  83
  -2   5   6 118445. 4501.38  86
  -2   5   6 121829. 4031.26   2
  -2   5   6 129647. 3973.82  69
  -2   5   6 124623. 4044.27   9
  -2   5   6 130266. 4043.50  43
  -2   5   6 123803. 4046.47  16
  -2   5   6 128132. 4815.42   1
  -2   5   6 125053. 3945.06  95
  -2   5   6 120114. 4540.11  94
  -2   5   6 123436. 3962.20  80
  -2   5   7 3586.28 639.109  94
  -2   5   7 4044.93 366.132  80
  -2   5   7 3644.82 731.549   1
  -2   5   7 3777.66 650.174  86
  -2   5   7 4059.55 403.657   9
  -2   5   7 3678.34 363.253  69
  -2   5   7 3454.75 396.009  16
  -2   5   7 4110.30 380.139  43
  -2   5   7 3395.76 605.684  83
  -2   5   7 3188.22 323.030  95
  -2   5   8 46772.6 2272.81  86
  -2   5   8 48054.9 1732.13  80
  -2   5   8 54973.1 1849.57   9
  -2   5   8 52701.1 1856.34  16
  -2   5   8 56336.6 2664.80   1
  -2   5   8 46088.6 1701.76  95
  -2   5   8 49963.6 1734.94  69
  -2   5   9 18276.4 827.386  69
  -2   5   9 18766.5 802.238  95
  -2   5   9 20325.9 835.251  93
  -2   5   9 18651.1 915.830   2
  -2   5   9 21663.7 888.734  20
  -2   5   9 20178.6 1516.40   1
  -2   5   9 21720.0 963.638   9
  -2   5   9 18407.9 1253.16  86
  -2   5   9 17714.1 901.313  16
  -2   5  10 27298.4 1056.37  69
  -2   5  10 24803.8 1460.73  83
  -2   5  10 25771.3 1540.02  86
  -2   5  10 25101.5 1012.06  95
  -2   5  10 25841.1 1701.61   1
  -2   5  10 29597.0 1170.90   9
  -2   5  10 26749.4 1123.58   2
  -2   5  10 25508.6 1101.23  16
  -2   5  10 26501.5 1022.66  93
  -2   5  10 29079.3 1097.78  20
  -2   5  10 22553.5 1434.10  94
  -2   5  11 3551.31 642.957  86
  -2   5  11 4719.46 361.794  93
  -2   5  11 5478.64 475.025   9
  -2   5  11 6185.31 474.207   2
  -2   5  11 5611.43 435.131  16
  -2   5  11 4639.26 361.591  95
  -2   5  11 4392.99 639.886  94
  -2   5  12 3164.63 302.618  43
  -2   5  12 3076.73 356.414   2
  -2   5  12 2213.47 477.880  94
  -2   5  12 2737.44 368.985   9
  -2   5  12 2552.81 317.877  16
  -2   5  12 2694.08 302.095  92
  -2   5  13 5918.11 411.613   2
  -2   5  13 5364.88 369.383  92
  -2   5  13 6560.47 435.729   9
  -2   5  13 6366.04 399.319  16
  -2   5  14 3890.96 308.259   9
  -2   5  14 3546.86 269.262  16
  -2   5  14 3278.64 272.350  92
  -2   5  14 3396.94 294.456   2
  -2   5  15 940.762 171.284   9
  -2   5  15 663.503 126.920  16
  -2   6 -16 16127.4 541.562  22
  -2   6 -15 2997.88 191.818  23
  -2   6 -15 2832.12 195.496  22
  -2   6 -15 3063.11 189.292   6
  -2   6 -14 574.694 150.420  23
  -2   6 -14 493.119 158.961  22
  -2   6 -13 9317.24 412.585  22
  -2   6 -13 8012.10 361.847   4
  -2   6 -13 9290.30 440.930  98
  -2   6 -13 9250.57 407.999  23
  -2   6 -12 4881.77 314.789  22
  -2   6 -12 4394.14 271.215   4
  -2   6 -12 4635.15 337.493  98
  -2   6 -12 5023.48 313.087   7
  -2   6 -12 4923.80 305.977  23
  -2   6 -11 10718.8 485.480  66
  -2   6 -11 11041.4 520.719  22
  -2   6 -11 12061.1 575.186  98
  -2   6 -11 11351.8 498.765   4
  -2   6 -11 11243.6 505.004  23
  -2   6 -11 10632.2 515.968   7
  -2   6 -10 29842.7 1077.74  66
  -2   6 -10 29793.4 1086.04   7
  -2   6 -10 28914.5 1067.92   4
  -2   6  -9 9093.55 487.540   7
  -2   6  -9 8706.01 1016.08  91
  -2   6  -9 9559.12 515.129  67
  -2   6  -9 9546.84 490.146  66
  -2   6  -9 9530.84 491.075   4
  -2   6  -9 9381.06 502.796  24
  -2   6  -8 21304.5 1400.71  83
  -2   6  -8 16628.9 731.624  42
  -2   6  -8 19247.6 793.238   7
  -2   6  -8 20904.6 841.534  67
  -2   6  -8 21212.0 827.902  66
  -2   6  -8 15984.7 744.727   8
  -2   6  -8 20405.7 855.264  98
  -2   6  -8 20188.1 804.517  24
  -2   6  -8 18555.5 1437.41  91
  -2   6  -7 28330.8 1063.08  24
  -2   6  -7 25263.3 1582.83  83
  -2   6  -7 25012.3 994.955  42
  -2   6  -7 29226.3 1795.93  91
  -2   6  -7 27764.1 1084.02  67
  -2   6  -7 28053.2 1073.92  66
  -2   6  -7 28915.5 1065.77   7
  -2   6  -7 25835.1 1373.34  63
  -2   6  -7 25646.3 1021.92   8
  -2   6  -7 26333.3 1075.73  98
  -2   6  -6 54809.4 1886.01  98
  -2   6  -6 57444.5 1853.02  42
  -2   6  -6 55383.1 2550.36  83
  -2   6  -6 53758.1 1852.09  21
  -2   6  -6 55485.3 1886.75  67
  -2   6  -6 55609.1 1880.01  66
  -2   6  -6 47859.2 1781.82   3
  -2   6  -6 52533.2 2251.45  63
  -2   6  -6 57027.0 1871.21   8
  -2   6  -6 53092.1 2633.99  91
  -2   6  -5 53876.8 1921.21   3
  -2   6  -5 57548.3 2654.95  83
  -2   6  -5 59338.1 1980.00  21
  -2   6  -5 56760.9 2382.70  63
  -2   6  -5 59562.4 1990.37   8
  -2   6  -5 58548.1 1980.46  66
  -2   6  -5 57986.3 1980.36  98
  -2   6  -5 59659.4 2464.30  94
  -2   6  -4 25931.0 1022.71  21
  -2   6  -4 25932.1 1022.73  66
  -2   6  -4 24714.0 1347.73  63
  -2   6  -4 28405.7 1052.79   8
  -2   6  -4 24280.3 985.277   3
  -2   6  -4 28909.4 1480.80  94
  -2   6  -4 24856.9 1002.26  98
  -2   6  -4 26532.6 1595.50  83
  -2   6  -3 12647.7 909.770  63
  -2   6  -3 12162.9 623.910  21
  -2   6  -3 11950.4 1043.37  83
  -2   6  -3 12740.5 596.451  98
  -2   6  -3 13834.6 1007.85  94
  -2   6  -3 12151.6 618.029  66
  -2   6  -3 12351.6 632.248   8
  -2   6  -3 12916.9 610.343   3
  -2   6  -2 20236.0 858.014  66
  -2   6  -2 21660.9 848.220  68
  -2   6  -2 20347.3 825.157  98
  -2   6  -2 20445.3 1202.17  63
  -2   6  -2 21733.8 1305.24  94
  -2   6  -2 21098.0 1372.46  83
  -2   6  -2 20258.0 1387.61  91
  -2   6  -1 27754.6 1061.55  98
  -2   6  -1 30258.8 1532.52  63
  -2   6  -1 29974.2 1585.52  94
  -2   6  -1 31416.8 1683.32  83
  -2   6  -1 30361.9 1531.97  86
  -2   6  -1 30321.3 1108.45  68
  -2   6  -1 29494.8 1674.30  91
  -2   6   0 18151.3 1251.44  91
  -2   6   0 18873.0 1259.47  83
  -2   6   0 17572.6 1122.27  86
  -2   6   0 16493.8 1157.90  94
  -2   6   0 17094.6 690.384  98
  -2   6   0 15728.7 710.275   9
  -2   6   0 18980.0 764.410  68
  -2   6   0 19699.6 822.069  21
  -2   6   1 16791.9 721.224  80
  -2   6   1 16248.0 1129.45  94
  -2   6   1 15617.4 1150.26  83
  -2   6   1 15705.1 694.987   9
  -2   6   1 17317.0 720.653  68
  -2   6   1 15657.6 1141.13  91
  -2   6   1 16228.3 1087.03  86
  -2   6   1 16254.8 735.271  16
  -2   6   2 23553.7 904.746  80
  -2   6   2 22106.7 1363.95  94
  -2   6   2 22038.8 896.609   9
  -2   6   2 23598.9 904.306  68
  -2   6   2 21744.5 925.971  16
  -2   6   2 19250.5 1284.91  91
  -2   6   2 23356.4 1331.20  86
  -2   6   2 21720.0 1385.13  83
  -2   6   3 3051.73 577.263  83
  -2   6   3 4104.03 358.771  80
  -2   6   3 4095.32 346.896   9
  -2   6   3 3924.60 344.251  68
  -2   6   3 4167.89 377.729  16
  -2   6   3 3885.61 658.179  94
  -2   6   3 4209.00 620.733  86
  -2   6   4 12145.5 994.422  94
  -2   6   4 12293.2 1012.34  83
  -2   6   4 11982.6 650.310  16
  -2   6   4 11138.9 573.643  68
  -2   6   4 12466.8 621.187   9
  -2   6   4 9923.74 942.603  61
  -2   6   4 12714.0 606.372  80
  -2   6   4 12617.7 973.349  86
  -2   6   5 38477.3 1385.79  80
  -2   6   5 33054.7 1844.38  83
  -2   6   5 40710.4 1436.37   9
  -2   6   5 35299.1 1939.49  61
  -2   6   5 37389.8 1348.46  95
  -2   6   5 39419.7 1893.19  86
  -2   6   5 37212.9 1885.49  94
  -2   6   5 40277.8 1445.44   2
  -2   6   6 20449.5 865.915  80
  -2   6   6 21693.0 922.608   2
  -2   6   6 21648.4 872.893  69
  -2   6   6 22071.4 920.582   9
  -2   6   6 19150.4 1276.07  86
  -2   6   6 20603.3 840.617  95
  -2   6   6 19083.3 1267.77  94
  -2   6   7 4402.66 413.643   2
  -2   6   7 3537.30 369.466  80
  -2   6   7 4074.01 370.692  69
  -2   6   7 4241.39 395.417   9
  -2   6   7 4022.18 667.482  86
  -2   6   7 3506.58 611.763  94
  -2   6   8 26341.6 1535.49  86
  -2   6   8 28866.9 1097.86  93
  -2   6   8 26600.1 1088.50  80
  -2   6   8 32174.7 1223.29  16
  -2   6   8 27352.2 1096.08  69
  -2   6   8 32921.5 1200.52   9
  -2   6   8 31234.9 1205.29   2
  -2   6   9 15420.5 693.058  69
  -2   6   9 17660.1 799.356   9
  -2   6   9 16758.3 783.103  16
  -2   6   9 15499.4 677.062  93
  -2   6   9 17071.4 780.582   2
  -2   6  10 2561.79 332.925   2
  -2   6  10 2134.29 316.403  16
  -2   6  10 2405.29 267.126  93
  -2   6  11 13048.9 599.750  16
  -2   6  11 11716.6 541.828  92
  -2   6  11 12716.8 593.251   9
  -2   6  12 264.027 185.516   9
  -2   6  12 486.212 194.033  16
  -2   6  12 210.738 171.900  92
  -2   6  13 753.181 158.902   9
  -2   6  13 525.485 154.322  16
  -2   6  14 4128.68 192.143  16
  -2   7 -14 8255.46 309.100  22
  -2   7 -13 694.967 124.259  23
  -2   7 -13 686.080 128.725  22
  -2   7 -12 10850.4 430.264  22
  -2   7 -12 10647.2 422.281  23
  -2   7 -12 10415.1 422.645   7
  -2   7 -11 3555.82 241.083  23
  -2   7 -11 3901.56 229.238  66
  -2   7 -11 3559.25 201.866   4
  -2   7 -11 3757.55 242.636   7
  -2   7 -11 3722.91 249.235  22
  -2   7 -11 3724.47 276.561  98
  -2   7 -10 12050.9 504.425  66
  -2   7 -10 11888.9 482.375   4
  -2   7 -10 11553.8 512.268  22
  -2   7 -10 11892.0 552.686  98
  -2   7 -10 12040.7 507.759   7
  -2   7 -10 12046.2 499.031  23
  -2   7  -9 41352.0 1450.06   7
  -2   7  -9 45750.2 1480.57  66
  -2   7  -9 42243.1 1437.97   4
  -2   7  -9 43889.2 1527.30  98
  -2   7  -8 18133.3 729.045   7
  -2   7  -8 19730.5 767.071  66
  -2   7  -8 17123.7 763.218  98
  -2   7  -8 18361.5 748.890  24
  -2   7  -7 2609.03 292.389  24
  -2   7  -7 2710.96 297.180  66
  -2   7  -7 2432.79 237.918   8
  -2   7  -7 2292.73 279.326  98
  -2   7  -7 2574.00 279.122   7
  -2   7  -6 1876.84 237.639  21
  -2   7  -6 1679.47 245.908  68
  -2   7  -6 1576.34 278.204  66
  -2   7  -6 1780.93 261.429  98
  -2   7  -6 1336.62 228.967   8
  -2   7  -6 1890.37 295.095  24
  -2   7  -5 1375.73 580.340  91
  -2   7  -5 1277.50 246.035  98
  -2   7  -5 1263.30 231.686  21
  -2   7  -5 1404.31 243.298  68
  -2   7  -5 1316.25 268.608  66
  -2   7  -5 1104.33 240.908   8
  -2   7  -5 1089.12 509.721  83
  -2   7  -4 20192.6 854.341  21
  -2   7  -4 22556.8 876.674  66
  -2   7  -4 19675.7 817.209  98
  -2   7  -4 18729.1 783.336   3
  -2   7  -4 23107.4 877.662   8
  -2   7  -4 21324.4 1247.64  94
  -2   7  -4 21367.3 1384.71  83
  -2   7  -4 21029.7 1415.37  91
  -2   7  -4 21949.7 844.222  68
  -2   7  -3 2129.17 544.509  94
  -2   7  -3 2655.26 586.588  83
  -2   7  -3 2332.67 244.540  98
  -2   7  -3 2615.01 306.458  21
  -2   7  -3 2938.02 297.839  68
  -2   7  -3 2116.06 244.451   3
  -2   7  -3 2762.24 319.112  66
  -2   7  -3 2681.66 310.914   8
  -2   7  -3 2255.35 581.361  91
  -2   7  -2 64173.4 2235.24  68
  -2   7  -2 66078.7 2279.47  21
  -2   7  -2 71999.6 2303.61   8
  -2   7  -2 65207.7 2766.80  94
  -2   7  -2 69644.1 2944.61  83
  -2   7  -2 68224.0 2247.10   3
  -2   7  -2 63815.0 2871.31  91
  -2   7  -1 54032.7 2514.70  83
  -2   7  -1 59922.9 1981.55   8
  -2   7  -1 55619.4 1901.71  68
  -2   7  -1 56330.6 2445.04  94
  -2   7  -1 54771.2 1889.52  80
  -2   7  -1 55829.3 1928.21   3
  -2   7  -1 50435.4 2451.28  91
  -2   7   0 4883.88 364.153  80
  -2   7   0 4898.06 365.864  68
  -2   7   0 4145.39 651.858  91
  -2   7   0 5535.82 721.471  94
  -2   7   0 3383.24 619.373  83
  -2   7   1 5031.68 648.159  91
  -2   7   1 5800.69 403.656  80
  -2   7   1 6187.14 751.376  83
  -2   7   1 6468.73 417.998  68
  -2   7   1 5359.07 693.197  94
  -2   7   2 8063.10 822.530  83
  -2   7   2 9263.35 502.926  80
  -2   7   2 10298.6 578.978  21
  -2   7   2 8586.88 488.425  68
  -2   7   2 10356.7 886.321  94
  -2   7   3 10225.0 586.617  21
  -2   7   3 9922.63 468.464   9
  -2   7   3 8604.95 485.839  68
  -2   7   3 9448.92 523.442  16
  -2   7   3 9029.15 489.054  80
  -2   7   3 7916.41 800.975  94
  -2   7   3 6931.09 770.197  83
  -2   7   4 3645.99 313.301  69
  -2   7   4 3870.86 354.384  16
  -2   7   4 2878.49 558.223  94
  -2   7   4 3158.52 317.406  80
  -2   7   4 3618.43 298.171   9
  -2   7   5 3201.99 306.101  80
  -2   7   5 3035.45 283.954   9
  -2   7   5 3068.01 303.894  69
  -2   7   5 2917.43 322.073  93
  -2   7   5 2949.67 547.745  94
  -2   7   5 3107.93 331.914  16
  -2   7   6 12318.0 596.045  80
  -2   7   6 12933.3 588.157  69
  -2   7   6 14210.7 604.563   9
  -2   7   6 12092.9 928.843  94
  -2   7   6 14078.1 662.612  16
  -2   7   7 28817.3 1106.99  69
  -2   7   7 28575.1 1112.80  80
  -2   7   7 35733.5 1155.98   9
  -2   7   7 34598.7 1222.88  16
  -2   7   8 7554.60 384.834   9
  -2   7   8 6455.71 367.492  69
  -2   7   8 6474.72 365.927  93
  -2   7   9 592.090 167.831  93
  -2   7   9 549.601 157.574   9
  -2   7  10 321.910 149.415  21
  -2   7  11 265.497 96.3714  21
  -2   7  11 302.891 128.901  16
  -2   8 -11 5392.26 210.496  23
  -2   8 -11 5119.44 217.929  22
  -2   8 -10 3005.61 162.270   7
  -2   8 -10 3155.30 183.310  22
  -2   8 -10 3039.91 173.151  23
  -2   8  -9 8904.20 355.359   7
  -2   8  -9 8868.61 362.531  23
  -2   8  -9 9234.83 375.633  22
  -2   8  -8 5437.41 275.523   7
  -2   8  -8 5846.28 263.029   4
  -2   8  -7 7588.16 346.682   7
  -2   8  -7 7533.25 343.420   4
  -2   8  -7 7539.07 370.797  24
  -2   8  -6 7382.62 354.693   7
  -2   8  -6 6865.44 373.240  24
  -2   8  -5 1095.62 166.438   8
  -2   8  -5 1215.12 178.422  68
  -2   8  -5 1113.90 212.992  24
  -2   8  -5 1256.70 190.173   7
  -2   8  -4 4134.95 278.829  21
  -2   8  -4 3953.65 274.626  68
  -2   8  -4 3826.63 263.707   8
  -2   8  -3 6973.72 370.574  80
  -2   8  -3 7871.25 394.088   8
  -2   8  -3 7542.79 395.926  21
  -2   8  -3 7114.88 379.142  68
  -2   8  -2 4437.16 299.827  80
  -2   8  -2 4671.95 323.935  21
  -2   8  -2 4348.13 305.021  68
  -2   8  -2 5161.35 329.479   8
  -2   8  -1 1860.78 230.737  80
  -2   8  -1 2070.21 251.711  21
  -2   8  -1 1829.09 228.562  68
  -2   8  -1 1711.37 187.746   3
  -2   8  -1 1602.39 231.736   8
  -2   8   0 1813.86 252.679   8
  -2   8   0 1531.89 220.823  80
  -2   8   0 1923.09 260.210  21
  -2   8   0 1607.91 217.315  68
  -2   8   0 1674.21 198.167   3
  -2   8   1 819.003 197.502  80
  -2   8   1 826.682 192.383  68
  -2   8   1 874.037 234.486   8
  -2   8   1 900.467 186.764   3
  -2   8   2 16956.3 689.191   8
  -2   8   2 16188.1 637.072   3
  -2   8   3 13908.0 598.023  93
  -2   8   3 14858.5 652.555  21
  -2   8   3 12736.7 581.210  80
  -2   8   3 16580.2 676.487   8
  -2   8   3 16175.6 634.598   3
  -2   8   4 5242.70 314.967  80
  -2   8   4 5637.08 372.416  21
  -2   8   4 5401.93 321.221  93
  -2   8   5 2678.54 227.313  80
  -2   8   5 3342.85 294.317  21
  -2   8   6 14627.5 577.458  21
  -2   8   6 12629.5 514.121  93
  -2   8   7 8004.91 371.640  21
  -2   8   8 573.044 106.865   3
  -2   8   8 575.813 108.194  21
  -2   8   8 640.253 133.893   8
  -2   9  -6 1295.70 104.395  22
  -2   9  -5 10345.6 381.701  24
  -2   9  -4 7709.84 311.593  24
  -2   9  -3 3323.86 192.485  24
  -2   9  -2 3926.15 215.702  24
  -2   9  -1 5501.07 261.573  24
  -2   9   0 3267.86 180.491  21
  -2   9   0 3429.48 206.555  24
  -2   9   1 13460.3 503.608  21
  -2   9   1 15273.1 523.938  24
  -2   9   2 193.520 92.8303  24
  -2   9   2 205.089 86.9448  21
  -1  -8  -1 1970.19 130.747  32
  -1  -8   0 8268.86 323.843  32
  -1  -8   1 490.437 105.307  32
  -1  -8   2 12100.2 463.349  32
  -1  -8   2 13358.7 442.145  28
  -1  -8   3 3423.68 190.605  32
  -1  -8   3 3884.40 183.848  28
  -1  -8   4 1405.81 127.288  28
  -1  -8   5 910.684 113.154  28
  -1  -8   6 6950.44 272.081  28
  -1  -8   7 988.721 94.0003  28
  -1  -7  -7 6054.94 269.623  32
  -1  -7  -6 7328.69 340.937  32
  -1  -7  -6 6741.71 286.754  55
  -1  -7  -5 487.696 126.325  65
  -1  -7  -5 537.720 183.045  32
  -1  -7  -5 630.069 151.215  55
  -1  -7  -4 4865.03 283.129  55
  -1  -7  -4 4037.70 252.734  65
  -1  -7  -4 4486.12 311.089  32
  -1  -7  -3 1490.97 184.853  65
  -1  -7  -3 1848.95 216.255  55
  -1  -7  -3 1337.79 235.842  32
  -1  -7  -2 26405.3 950.851  65
  -1  -7  -2 26610.8 993.343  32
  -1  -7  -2 27094.7 965.436  55
  -1  -7  -1 1356.06 250.702  32
  -1  -7  -1 1557.74 226.688  55
  -1  -7  -1 1372.45 197.979  65
  -1  -7  -1 1594.04 212.006  28
  -1  -7   0 3763.27 286.512  55
  -1  -7   0 3203.34 251.116  65
  -1  -7   0 3299.02 305.633  32
  -1  -7   0 3013.79 265.297  28
  -1  -7   1 7982.74 402.140  28
  -1  -7   1 7685.72 405.262  55
  -1  -7   1 7345.25 379.349  65
  -1  -7   1 8111.12 441.138  32
  -1  -7   2 562.178 217.915  32
  -1  -7   2 774.846 200.856  55
  -1  -7   2 987.121 224.508  28
  -1  -7   2 1086.14 183.331  65
  -1  -7   3 3206.23 293.565  32
  -1  -7   3 3434.21 281.753  28
  -1  -7   4 9256.36 458.410  32
  -1  -7   4 8835.04 398.464  56
  -1  -7   4 9366.79 439.335  28
  -1  -7   5 40556.1 1310.73  28
  -1  -7   5 37768.8 1326.32  32
  -1  -7   5 36424.2 1270.90  56
  -1  -7   5 39814.1 1302.09  29
  -1  -7   6 364.411 166.890  56
  -1  -7   6 329.859 183.856  29
  -1  -7   6 253.473 188.883  28
  -1  -7   6 351.327 186.121  32
  -1  -7   7 10268.5 443.756  28
  -1  -7   7 9343.77 438.300  32
  -1  -7   7 8963.02 413.123  56
  -1  -7   7 10324.9 445.177  29
  -1  -7   8 4515.54 279.651  29
  -1  -7   8 4101.04 261.414  56
  -1  -7   8 4569.55 286.413  28
  -1  -7   9 17521.1 638.890  29
  -1  -7   9 17972.3 645.669  26
  -1  -7   9 16216.3 622.899  56
  -1  -7  10 15860.6 581.298  29
  -1  -7  10 15156.1 557.166  57
  -1  -7  10 15479.1 574.328  56
  -1  -7  10 17178.6 594.060  26
  -1  -7  11 3854.04 213.199  28
  -1  -7  11 3988.66 217.319  26
  -1  -7  11 3784.25 199.192  57
  -1  -7  11 4013.05 218.475  56
  -1  -7  12 18579.6 597.531  28
  -1  -7  12 17461.5 597.919  56
  -1  -7  12 17262.5 594.276  26
  -1  -6 -10 4850.87 270.906  32
  -1  -6  -9 1934.55 225.041  32
  -1  -6  -8 5201.41 313.070  55
  -1  -6  -8 5828.91 375.652  32
  -1  -6  -7 9982.79 475.709  65
  -1  -6  -7 10956.7 556.892  34
  -1  -6  -7 10312.3 567.504  32
  -1  -6  -7 10992.2 509.899  55
  -1  -6  -6 8688.32 447.707  65
  -1  -6  -6 9283.61 545.967  34
  -1  -6  -6 9803.44 545.713  32
  -1  -6  -5 6258.47 384.962  65
  -1  -6  -5 6214.87 475.498  34
  -1  -6  -5 6777.81 487.343  32
  -1  -6  -4 7635.57 526.586  32
  -1  -6  -4 7675.07 431.909  65
  -1  -6  -4 7492.75 521.231  34
  -1  -6  -4 8365.54 506.363  55
  -1  -6  -3 6486.00 414.842  65
  -1  -6  -3 7989.97 520.457  32
  -1  -6  -3 7389.29 481.600  55
  -1  -6  -3 7894.80 512.069  34
  -1  -6  -2 1484.66 293.596  55
  -1  -6  -2 1493.14 250.012  65
  -1  -6  -2 1358.83 316.533  34
  -1  -6  -2 1257.06 321.662  32
  -1  -6  -1 24274.7 927.314  65
  -1  -6  -1 25419.9 1013.33  32
  -1  -6  -1 24044.1 980.597  55
  -1  -6   0 45043.8 1621.55  65
  -1  -6   0 49449.5 1715.82  32
  -1  -6   0 48073.8 1679.69  55
  -1  -6   1 2498.95 289.640  65
  -1  -6   1 2668.50 362.350  32
  -1  -6   1 2943.82 342.146  55
  -1  -6   2 18354.8 767.523  65
  -1  -6   2 17876.3 792.494  55
  -1  -6   2 19619.0 835.910  32
  -1  -6   3 13301.6 639.122  32
  -1  -6   3 12256.2 541.548  31
  -1  -6   3 11191.1 591.615  55
  -1  -6   3 12965.9 585.511  65
  -1  -6   3 11697.2 595.616  88
  -1  -6   4 12191.7 565.131  65
  -1  -6   4 12631.7 616.027  32
  -1  -6   4 11836.1 527.556  31
  -1  -6   4 11719.0 594.612  88
  -1  -6   4 10715.1 562.769  55
  -1  -6   5 51056.0 1795.61  32
  -1  -6   5 49884.9 1714.64  31
  -1  -6   5 55082.9 1774.18  28
  -1  -6   5 50837.0 1807.41  88
  -1  -6   6 23332.4 883.324  31
  -1  -6   6 24708.9 930.859  28
  -1  -6   6 23541.6 951.655  32
  -1  -6   6 23590.5 972.911  88
  -1  -6   7 15938.2 708.518  32
  -1  -6   7 15976.5 656.077  31
  -1  -6   7 16859.4 702.768  28
  -1  -6   8 27480.0 1000.87  28
  -1  -6   8 27122.7 989.471  56
  -1  -6   8 24637.3 1007.50  32
  -1  -6   8 28138.4 1005.65  29
  -1  -6   9 2808.11 284.617  56
  -1  -6   9 2903.51 296.461  29
  -1  -6  10 279.189 212.321  56
  -1  -6  10 337.087 222.354  29
  -1  -6  10 352.485 222.264  26
  -1  -6  10 343.325 210.962  88
  -1  -6  11 298.451 189.738  88
  -1  -6  11 117.259 218.853  26
  -1  -6  11 284.226 203.543  56
  -1  -6  11 280.700 202.754  28
  -1  -6  12 3316.02 269.457  88
  -1  -6  12 3542.59 266.899  29
  -1  -6  12 3607.89 262.738  28
  -1  -6  12 3828.41 277.097  26
  -1  -6  13 8750.14 422.560  88
  -1  -6  13 9868.71 417.459  57
  -1  -6  13 10030.8 413.420  28
  -1  -6  13 9534.78 419.101  26
  -1  -6  14 10251.5 419.670  57
  -1  -6  14 10275.3 413.097  56
  -1  -6  14 11220.2 414.803  28
  -1  -6  15 2562.27 159.392  57
  -1  -6  15 2869.32 149.803  56
  -1  -5 -13 1668.82 162.560  32
  -1  -5 -12 4753.29 288.663  34
  -1  -5 -12 5890.35 329.565  32
  -1  -5 -11 4398.52 322.951  34
  -1  -5 -11 4568.19 350.011  32
  -1  -5 -10 7653.70 466.359  59
  -1  -5 -10 7641.80 493.830  32
  -1  -5 -10 7407.55 456.433  34
  -1  -5  -9 3293.53 414.024  32
  -1  -5  -9 3061.99 380.541  54
  -1  -5  -8 530.191 324.400  32
  -1  -5  -8 324.388 336.361  54
  -1  -5  -7 3882.59 456.864  59
  -1  -5  -7 3564.21 442.062  54
  -1  -5  -7 3148.57 436.057  32
  -1  -5  -7 2735.91 313.219  65
  -1  -5  -7 3787.82 437.089  34
  -1  -5  -6 10789.8 564.347  65
  -1  -5  -6 11627.8 693.535  34
  -1  -5  -6 11895.8 680.803  59
  -1  -5  -6 11278.7 679.463  32
  -1  -5  -6 9770.51 628.589  54
  -1  -5  -5 8307.95 601.945  34
  -1  -5  -5 8461.69 483.324  65
  -1  -5  -5 8036.82 592.238  59
  -1  -5  -5 8905.19 593.007  32
  -1  -5  -4 23737.2 944.341  65
  -1  -5  -4 24348.2 1060.75  34
  -1  -5  -4 23518.7 1033.80  59
  -1  -5  -4 25029.3 1073.86  32
  -1  -5  -3 81778.4 2730.43  65
  -1  -5  -3 82296.6 2834.78  34
  -1  -5  -3 80465.4 2816.63  59
  -1  -5  -2 8232.11 466.643  65
  -1  -5  -2 7270.98 539.635  34
  -1  -5  -1 13809.6 712.709  34
  -1  -5  -1 13665.1 640.763  65
  -1  -5  -1 15050.5 731.696  32
  -1  -5   0 15502.3 672.635  65
  -1  -5   0 15867.0 742.956  32
  -1  -5   1 22285.7 949.664  88
  -1  -5   1 24994.6 992.739  55
  -1  -5   1 24946.3 1015.50  32
  -1  -5   1 22296.0 980.624  34
  -1  -5   2 23464.5 933.559  55
  -1  -5   2 20767.0 905.774  34
  -1  -5   2 24561.8 962.749  32
  -1  -5   2 21945.0 835.263  12
  -1  -5   2 22375.2 918.009  88
  -1  -5   3 7552.33 650.704  62
  -1  -5   3 8739.31 505.359  32
  -1  -5   3 8471.26 480.561  55
  -1  -5   3 7790.53 483.714  88
  -1  -5   3 7595.00 398.322  12
  -1  -5   4 8742.27 721.543  62
  -1  -5   4 10108.1 556.443  88
  -1  -5   4 10955.3 570.233  32
  -1  -5   4 9792.05 467.035  12
  -1  -5   4 10838.8 502.221  31
  -1  -5   4 9635.54 524.827  55
  -1  -5   5 71701.1 2933.78  62
  -1  -5   5 82197.4 2633.19  32
  -1  -5   5 81727.7 2564.90  31
  -1  -5   5 76544.9 2538.54  12
  -1  -5   5 78029.0 2590.65  55
  -1  -5   5 80635.1 2661.12  88
  -1  -5   6 38329.6 1395.62  32
  -1  -5   6 39690.9 1367.64  28
  -1  -5   6 39737.9 1442.25  88
  -1  -5   6 36433.3 1324.13  31
  -1  -5   6 34708.2 1694.31  62
  -1  -5   7 79320.1 2491.21  28
  -1  -5   7 70624.6 2906.91  62
  -1  -5   7 74155.7 2510.06  32
  -1  -5   7 74911.2 2460.88  31
  -1  -5   8 15494.9 1015.49  62
  -1  -5   8 14138.7 664.798  32
  -1  -5   8 14522.2 632.387  31
  -1  -5   9 19091.9 823.739  32
  -1  -5   9 19589.2 1178.46  62
  -1  -5   9 20549.9 819.425  29
  -1  -5  10 225.757 243.379  28
  -1  -5  10 156.718 248.785  56
  -1  -5  10 531.820 383.838  62
  -1  -5  11 1361.41 416.685  62
  -1  -5  11 1800.61 291.498  26
  -1  -5  11 1467.49 274.874  29
  -1  -5  11 1197.02 266.666  28
  -1  -5  12 12206.4 571.984  28
  -1  -5  12 12095.7 567.615  29
  -1  -5  12 13732.1 604.279  26
  -1  -5  13 9678.49 472.275  56
  -1  -5  13 10041.3 478.151  29
  -1  -5  13 9884.34 491.543  26
  -1  -5  13 9667.02 469.477  28
  -1  -5  14 16460.2 631.781  28
  -1  -5  14 15379.4 639.105  26
  -1  -5  14 15368.3 620.704  56
  -1  -5  15 370.355 168.684  56
  -1  -5  16 15129.7 538.287  56
  -1  -5  16 15025.6 557.067  57
  -1  -5  17 10772.2 396.745  30
  -1  -5  17 10803.6 383.330  57
  -1  -4 -15 262.125 115.318  32
  -1  -4 -14-151.469 130.761  34
  -1  -4 -14 240.426 162.120  59
  -1  -4 -13 15227.5 640.033  34
  -1  -4 -13 16150.6 612.987  48
  -1  -4 -13 14765.2 645.770  59
  -1  -4 -12 8253.41 471.081  34
  -1  -4 -12 7278.47 468.231  59
  -1  -4 -12 8050.15 445.933  48
  -1  -4 -12 8141.59 500.391  54
  -1  -4 -11 7724.02 528.045  54
  -1  -4 -11 8197.02 523.521  59
  -1  -4 -11 8152.41 486.369  48
  -1  -4 -11 7130.13 489.314  34
  -1  -4 -10 37553.8 1424.51  59
  -1  -4 -10 37470.1 1383.43  48
  -1  -4 -10 36469.8 1422.95  54
  -1  -4  -9 22981.4 974.225  48
  -1  -4  -9 22690.8 1015.34  54
  -1  -4  -8 37191.8 1473.95  54
  -1  -4  -8 39147.7 1507.90  38
  -1  -4  -8 37383.0 1433.27  48
  -1  -4  -7 74660.4 2538.46  54
  -1  -4  -7 73586.5 2451.97  65
  -1  -4  -7 71109.7 2488.90  48
  -1  -4  -7 76636.5 2584.20  38
  -1  -4  -6 11802.8 683.882  38
  -1  -4  -6 9548.62 527.767  65
  -1  -4  -6 10443.7 630.506  59
  -1  -4  -6 9948.86 610.620  54
  -1  -4  -6 10960.5 605.355  48
  -1  -4  -5 32077.3 1207.48  65
  -1  -4  -5 32808.4 1297.55  59
  -1  -4  -5 34644.0 1299.23  54
  -1  -4  -5 31879.1 1254.16  48
  -1  -4  -4 16577.8 683.454  97
  -1  -4  -4 17438.8 803.999  38
  -1  -4  -4 15265.4 683.934  65
  -1  -4  -4 15893.2 732.764  48
  -1  -4  -4 16447.8 776.381  59
  -1  -4  -4 17093.1 770.550  54
  -1  -4  -3 7278.41 415.070  65
  -1  -4  -3 8173.29 521.020  38
  -1  -4  -3 7814.19 505.259  59
  -1  -4  -3 7278.54 474.173  54
  -1  -4  -3 8201.67 422.534  97
  -1  -4  -3 7614.60 471.127  48
  -1  -4  -2 3027.97 279.120  65
  -1  -4  -2 3083.99 336.658  34
  -1  -4  -2 2595.54 325.730  59
  -1  -4  -2 2972.45 330.080  54
  -1  -4  -2 3298.88 358.621  32
  -1  -4  -1 106652. 3211.13  65
  -1  -4  -1 97116.9 3254.61  34
  -1  -4  -1 98720.8 3246.31  59
  -1  -4  -1 104617. 3283.21  32
  -1  -4  -1 95379.3 3194.64  88
  -1  -4   0 15639.4 672.564  88
  -1  -4   0 16284.0 717.721  34
  -1  -4   0 16019.8 716.141  59
  -1  -4   0 17686.9 738.730  32
  -1  -4   1 78835.2 2819.30  62
  -1  -4   1 79355.1 2613.11  88
  -1  -4   1 76468.3 2616.42  34
  -1  -4   1 86672.1 2656.98  32
  -1  -4   2 21659.2 882.781  34
  -1  -4   2 22455.0 1103.29  62
  -1  -4   2 23610.3 914.761  32
  -1  -4   2 24391.7 902.887  55
  -1  -4   2 22511.0 895.244  88
  -1  -4   3 31662.6 1097.24  12
  -1  -4   3 29970.0 1393.71  62
  -1  -4   3 31831.6 1175.57  88
  -1  -4   3 32821.3 1181.52  32
  -1  -4   3 32309.2 1157.29  55
  -1  -4   4 106680. 3485.70  96
  -1  -4   4 116137. 3547.70  55
  -1  -4   4 105819. 3864.58  62
  -1  -4   4 114836. 3569.78  32
  -1  -4   4 112687. 3494.73  12
  -1  -4   5 26311.3 950.692  12
  -1  -4   5 25885.0 1291.12  62
  -1  -4   5 27016.9 1014.94  32
  -1  -4   5 27613.1 971.215  31
  -1  -4   5 25912.1 982.510  55
  -1  -4   6 36058.2 1316.40  55
  -1  -4   6 37032.8 1686.50  62
  -1  -4   6 38137.5 1359.82  32
  -1  -4   6 38937.7 1314.72  31
  -1  -4   6 40481.5 1339.85  28
  -1  -4   6 37113.3 1295.85  12
  -1  -4   7 12509.4 608.306  32
  -1  -4   7 13590.0 575.937  31
  -1  -4   7 13701.6 592.840  28
  -1  -4   7 12666.5 889.636  62
  -1  -4   8 15453.6 1006.32  62
  -1  -4   8 15279.3 636.715  31
  -1  -4   8 14221.1 652.426  32
  -1  -4   9 35140.9 1250.69  28
  -1  -4   9 33954.7 1673.33  62
  -1  -4   9 32260.9 1259.18  32
  -1  -4   9 35720.1 1257.02  31
  -1  -4  10 11157.2 913.013  62
  -1  -4  10 12569.8 590.084  29
  -1  -4  10 11562.3 572.133  28
  -1  -4  10 13323.4 652.094  90
  -1  -4  11 33226.6 1200.23  11
  -1  -4  11 36208.7 1317.91  90
  -1  -4  11 34938.3 1240.79  29
  -1  -4  11 33025.4 1212.07  58
  -1  -4  11 32720.3 1222.05  56
  -1  -4  11 35365.4 1245.06  28
  -1  -4  11 34560.7 1251.09  26
  -1  -4  12 676.875 243.526  29
  -1  -4  12 895.404 242.811  11
  -1  -4  12 637.844 255.077  28
  -1  -4  12 659.757 244.121  56
  -1  -4  12 744.153 421.108  62
  -1  -4  12 666.274 256.270  58
  -1  -4  12 1054.75 277.939  26
  -1  -4  13 1945.85 280.493  11
  -1  -4  13 2605.06 502.844  62
  -1  -4  13 2421.62 315.953  58
  -1  -4  13 2188.23 290.842  56
  -1  -4  13 2236.23 279.293  29
  -1  -4  13 2033.90 279.162  28
  -1  -4  13 2360.40 312.732  26
  -1  -4  14 481.766 254.106  26
  -1  -4  14 436.239 228.356  28
  -1  -4  14 417.491 230.129  56
  -1  -4  15 1790.89 217.196  25
  -1  -4  15 2189.77 257.979  28
  -1  -4  15 2055.56 248.505  57
  -1  -4  15 2290.18 243.333  56
  -1  -4  16 6612.54 358.567  57
  -1  -4  16 7483.88 346.542  56
  -1  -4  16 6298.47 334.113  25
  -1  -4  17 5883.49 287.233  57
  -1  -4  17 5073.93 247.811  56
  -1  -4  18 642.066 123.309  30
  -1  -3 -16 2767.05 223.774  54
  -1  -3 -15 3681.32 248.147  34
  -1  -3 -15 3939.68 278.686  59
  -1  -3 -14 3890.55 320.057  48
  -1  -3 -14 3613.00 307.447  34
  -1  -3 -14 4312.29 346.492  59
  -1  -3 -13 4580.81 406.446  59
  -1  -3 -13 5090.33 386.445  48
  -1  -3 -12 1794.44 337.166  48
  -1  -3 -12 2070.61 400.798  38
  -1  -3 -12 1934.62 351.773  59
  -1  -3 -11 3293.58 457.179  38
  -1  -3 -11 3264.23 406.990  59
  -1  -3 -11 3256.98 391.638  48
  -1  -3 -11 2422.62 394.514  54
  -1  -3 -10 12143.9 680.218   5
  -1  -3 -10 12120.3 682.384  59
  -1  -3 -10 11708.7 675.450  54
  -1  -3 -10 12350.8 660.344  48
  -1  -3  -9 2525.55 382.548  48
  -1  -3  -9 2548.72 396.433   5
  -1  -3  -9 2058.62 298.229  65
  -1  -3  -9 2435.11 399.004  54
  -1  -3  -9 2513.24 377.804  59
  -1  -3  -8 83774.3 2852.66   5
  -1  -3  -8 84323.2 2862.15  54
  -1  -3  -8 90314.3 2892.39  38
  -1  -3  -8 84282.7 2873.72  60
  -1  -3  -8 84951.1 2825.73  48
  -1  -3  -7 23861.1 980.887   5
  -1  -3  -7 22650.7 952.915  48
  -1  -3  -7 22364.9 975.761  54
  -1  -3  -6 55625.6 1874.59  65
  -1  -3  -6 53253.9 1926.85  54
  -1  -3  -6 58815.3 1893.82  97
  -1  -3  -6 54552.3 1908.26  48
  -1  -3  -6 54356.8 1950.63  59
  -1  -3  -5 15659.8 724.884  54
  -1  -3  -5 17163.6 688.029  97
  -1  -3  -5 16700.2 675.004  65
  -1  -3  -5 17175.5 777.812  60
  -1  -3  -5 16522.2 745.250  59
  -1  -3  -5 16188.7 710.524  48
  -1  -3  -4 19710.1 826.331  54
  -1  -3  -4 22953.9 880.287  38
  -1  -3  -4 20130.9 788.761  65
  -1  -3  -4 22744.0 885.858  60
  -1  -3  -4 19798.2 839.091  59
  -1  -3  -4 21825.1 795.944  97
  -1  -3  -3 47526.0 1551.57  97
  -1  -3  -3 46527.6 1565.92  65
  -1  -3  -2 117576. 3499.39  65
  -1  -3  -2 113945. 3469.61  97
  -1  -3  -1 59486.8 1931.96  88
  -1  -3   0 41491.1 1542.11  62
  -1  -3   0 42681.9 1421.98  88
  -1  -3   1 20015.2 899.370  62
  -1  -3   1 19652.0 748.675  88
  -1  -3   2 74073.4 2544.52  62
  -1  -3   2 72275.7 2292.39  96
  -1  -3   3 33702.7 1117.47  96
  -1  -3   3 33142.0 1385.31  62
  -1  -3   4 22498.5 1083.67  62
  -1  -3   4 23311.4 804.060  96
  -1  -3   5 13912.9 596.918  90
  -1  -3   5 14445.9 841.872  62
  -1  -3   6 33091.0 1164.15  90
  -1  -3   6 31262.9 1427.06  62
  -1  -3   7 2528.33 439.519  62
  -1  -3   7 1789.49 219.856  32
  -1  -3   7 2279.59 269.103  90
  -1  -3   7 2070.57 206.720  31
  -1  -3   8 1226.87 387.274  62
  -1  -3   8 1817.36 249.261  90
  -1  -3   8 936.358 195.647  32
  -1  -3   8 1152.54 193.722  31
  -1  -3   8 1377.61 218.562  28
  -1  -3   9 7523.99 375.621  11
  -1  -3   9 7829.46 405.822  29
  -1  -3   9 6677.84 669.394  62
  -1  -3   9 7373.84 384.285  58
  -1  -3   9 8685.26 472.914  90
  -1  -3   9 7432.97 398.957  28
  -1  -3  10 22999.3 888.690  26
  -1  -3  10 22957.7 863.567  11
  -1  -3  10 23370.9 878.017  56
  -1  -3  10 23940.0 884.728  29
  -1  -3  10 22664.9 870.524  58
  -1  -3  10 23202.3 879.532  28
  -1  -3  10 24255.0 949.665  90
  -1  -3  11 68406.5 2320.07  29
  -1  -3  11 72376.0 2823.32  62
  -1  -3  11 70386.8 2334.59  58
  -1  -3  11 72879.0 2339.04  15
  -1  -3  11 68946.3 2311.40  56
  -1  -3  11 70525.1 2325.96  11
  -1  -3  11 70379.0 2322.04  28
  -1  -3  11 72985.2 2349.44  26
  -1  -3  11 75633.5 2410.74  90
  -1  -3  11 72031.4 2365.30  49
  -1  -3  12 11451.0 562.749  11
  -1  -3  12 11074.7 537.727  29
  -1  -3  12 10534.7 532.800  28
  -1  -3  12 11429.0 584.506  18
  -1  -3  12 12543.3 588.324  58
  -1  -3  12 11201.4 573.316  15
  -1  -3  12 10862.8 527.692  56
  -1  -3  12 11631.0 897.889  62
  -1  -3  12 10358.1 548.375  26
  -1  -3  12 11006.7 581.212  90
  -1  -3  12 11755.9 593.085  49
  -1  -3  13 3926.26 370.059  11
  -1  -3  13 3033.82 320.333  28
  -1  -3  13 3628.04 368.972  18
  -1  -3  13 3697.48 563.283  62
  -1  -3  13 3822.89 394.416  58
  -1  -3  13 3721.78 371.250  15
  -1  -3  13 3500.32 311.579  56
  -1  -3  13 3032.25 337.640  26
  -1  -3  13 3391.00 372.154  49
  -1  -3  14 5994.74 378.546  56
  -1  -3  14 5998.02 399.403  28
  -1  -3  14 6721.54 469.065  49
  -1  -3  15 2709.81 348.362  49
  -1  -3  15 2910.42 287.000  57
  -1  -3  15 2488.27 268.257  56
  -1  -3  16 10050.6 461.754  57
  -1  -3  16 9391.24 432.981  56
  -1  -3  16 8922.97 462.228  25
  -1  -3  17 2542.83 220.915  57
  -1  -3  17 2326.01 252.147  25
  -1  -3  18 13428.8 524.721  25
  -1  -3  18 12813.7 514.805  30
  -1  -3  19 35109.9 1120.24  25
  -1  -2 -17 9001.55 402.125  54
  -1  -2 -16 8117.37 405.814  59
  -1  -2 -16 8812.62 451.286  54
  -1  -2 -15 10110.7 535.552   5
  -1  -2 -15 9193.79 493.581  59
  -1  -2 -15 10048.2 488.107  48
  -1  -2 -15 9766.96 526.495  54
  -1  -2 -14 12279.8 632.040   5
  -1  -2 -14 12335.5 653.498  38
  -1  -2 -14 11937.5 616.018  59
  -1  -2 -14 12620.2 602.867  48
  -1  -2 -13 2589.21 354.064  48
  -1  -2 -13 3087.43 371.645  59
  -1  -2 -13 3093.50 380.597   5
  -1  -2 -13 3050.26 382.998  60
  -1  -2 -13 2932.40 407.743  38
  -1  -2 -12 2250.55 390.421  38
  -1  -2 -12 1556.73 352.920   5
  -1  -2 -12 1100.60 328.523  48
  -1  -2 -12 1442.72 340.471  60
  -1  -2 -12 1170.11 326.150  59
  -1  -2 -11 906.099 355.473  38
  -1  -2 -11 650.930 310.369   5
  -1  -2 -11 906.274 331.544  60
  -1  -2 -11 1050.20 315.539  59
  -1  -2 -11 859.465 309.256  48
  -1  -2 -10 12066.5 619.380  48
  -1  -2 -10 11533.4 610.995   5
  -1  -2 -10 12022.0 662.421  38
  -1  -2 -10 12702.2 664.958  60
  -1  -2 -10 11102.9 615.755  59
  -1  -2  -9 3200.66 302.931  65
  -1  -2  -9 2672.86 361.798  38
  -1  -2  -9 3286.32 368.545  60
  -1  -2  -9 2746.01 343.405  59
  -1  -2  -9 3088.89 347.276  48
  -1  -2  -9 3034.56 343.699   5
  -1  -2  -8 3442.09 337.974   5
  -1  -2  -8 2993.15 280.540  65
  -1  -2  -8 3285.31 335.963  60
  -1  -2  -8 3010.61 329.066  59
  -1  -2  -8 2888.33 329.434  48
  -1  -2  -7 164249. 5355.27   5
  -1  -2  -7 179748. 5402.57  60
  -1  -2  -7 179146. 5757.04  89
  -1  -2  -6 13513.0 574.117  97
  -1  -2  -5 76189.3 2475.64  65
  -1  -2  -5 80363.1 2494.91  97
  -1  -2  -4 41697.8 1390.51  65
  -1  -2  -4 43127.8 1400.55  97
  -1  -2  -3 42377.3 1407.99  65
  -1  -2  -3 44105.4 1411.41  97
  -1  -2  -2 43525.7 1400.91  65
  -1  -2  -2 41872.0 1390.25  88
  -1  -2  -2 44025.1 1394.53  97
  -1  -2  -1 70144.9 2102.55  65
  -1  -2  -1 61408.4 2142.18  62
  -1  -2   0 36978.5 1303.08  62
  -1  -2   1 9593.11 511.070  62
  -1  -2   2 44957.7 1430.40  96
  -1  -2   2 46654.8 1627.96  62
  -1  -2   3 185322. 6036.96  62
  -1  -2   3 191500. 5803.70  96
  -1  -2   3 192106. 5952.48  87
  -1  -2   3 191673. 5839.84  90
  -1  -2   4 263667. 8308.10  87
  -1  -2   4 269233. 8391.75  62
  -1  -2   4 269830. 8162.98  90
  -1  -2   5 336718. 10222.4  90
  -1  -2   5 329155. 10465.5  62
  -1  -2   5 340550. 10248.5  95
  -1  -2   5 333319. 10409.7  87
  -1  -2   6 59145.3 1902.25  90
  -1  -2   6 60036.1 1934.34  95
  -1  -2   6 55527.1 2149.80  62
  -1  -2   6 59425.5 2130.08  87
  -1  -2   7 18856.1 1001.32  62
  -1  -2   7 20151.5 800.182  95
  -1  -2   7 20487.0 761.942  90
  -1  -2   7 21641.7 1011.85  87
  -1  -2   8 39034.4 1326.69  90
  -1  -2   8 39185.4 1371.63  95
  -1  -2   8 36241.0 1606.40  87
  -1  -2   9 6526.36 350.313  11
  -1  -2   9 6561.65 607.465  62
  -1  -2   9 6774.33 382.025  90
  -1  -2   9 7715.58 457.904  95
  -1  -2   9 6156.74 342.746  56
  -1  -2   9 6940.32 634.777  87
  -1  -2   9 7269.55 360.942  28
  -1  -2   9 7078.32 356.679  29
  -1  -2  10 14137.4 606.317  26
  -1  -2  10 13942.1 602.760  58
  -1  -2  10 14460.6 632.263  18
  -1  -2  10 13938.5 592.492  11
  -1  -2  10 14075.7 907.236  62
  -1  -2  10 13548.8 580.305  28
  -1  -2  10 15071.6 613.941  15
  -1  -2  10 13650.7 572.974  56
  -1  -2  10 14780.5 698.210  95
  -1  -2  10 14543.0 637.352  90
  -1  -2  10 15052.5 638.101  49
  -1  -2  10 13923.3 584.486  29
  -1  -2  10 14912.1 973.763  87
  -1  -2  11 5816.62 377.087  11
  -1  -2  11 5303.74 361.709  26
  -1  -2  11 6567.75 640.651  62
  -1  -2  11 5672.54 350.475  28
  -1  -2  11 5134.46 395.304  18
  -1  -2  11 6150.28 398.027  58
  -1  -2  11 5985.92 396.141  15
  -1  -2  11 5552.79 340.399  56
  -1  -2  11 6013.12 355.033  29
  -1  -2  11 5856.93 391.092  90
  -1  -2  11 5472.31 460.089  95
  -1  -2  11 6045.16 410.854  49
  -1  -2  11 5279.00 647.770  87
  -1  -2  12 4799.47 395.545  11
  -1  -2  12 4488.58 454.778  95
  -1  -2  12 4695.90 397.241  18
  -1  -2  12 4119.12 567.575  62
  -1  -2  12 4586.82 401.349  58
  -1  -2  12 4269.15 338.136  28
  -1  -2  12 4779.15 398.548  15
  -1  -2  12 4346.68 315.683  56
  -1  -2  12 4304.97 350.062  26
  -1  -2  12 4289.08 405.326  49
  -1  -2  13 430.681 310.720  15
  -1  -2  13 547.071 228.008  56
  -1  -2  13 386.796 290.894  18
  -1  -2  13 757.028 416.398  62
  -1  -2  13 387.292 347.747  95
  -1  -2  13 544.837 309.453  49
  -1  -2  13 315.829 244.464  28
  -1  -2  13 437.979 290.531  11
  -1  -2  14 8903.14 598.019  95
  -1  -2  14 7497.82 727.791  62
  -1  -2  14 8294.80 461.927  57
  -1  -2  14 8802.31 450.804  56
  -1  -2  14 9972.22 584.904  49
  -1  -2  14 8748.23 554.073  18
  -1  -2  15 7325.71 524.435  49
  -1  -2  15 7403.71 506.690  18
  -1  -2  15 7253.18 405.211  57
  -1  -2  15 6707.66 385.451  56
  -1  -2  15 6415.03 438.061  25
  -1  -2  15 7014.28 518.658  95
  -1  -2  16 44143.1 1508.33  49
  -1  -2  16 40497.0 1507.40  95
  -1  -2  16 40942.4 1373.09  57
  -1  -2  16 38645.2 1347.46  56
  -1  -2  16 39774.0 1421.44  25
  -1  -2  17 7341.69 427.447  25
  -1  -2  17 7191.14 464.702  95
  -1  -2  18 9311.64 410.423  30
  -1  -2  18 9659.65 460.155  25
  -1  -2  19 10634.5 450.151  25
  -1  -1 -18 2752.09 209.370  54
  -1  -1 -17 7711.97 385.797  59
  -1  -1 -17 8925.36 443.603  54
  -1  -1 -16 8189.61 454.931   5
  -1  -1 -16 6828.85 438.830  54
  -1  -1 -16 7195.26 413.669  59
  -1  -1 -16 7145.18 404.811  48
  -1  -1 -15 19308.7 801.292   5
  -1  -1 -15 17828.1 773.112  38
  -1  -1 -15 17755.8 759.920  48
  -1  -1 -15 18051.0 768.661  60
  -1  -1 -15 18485.5 781.176  59
  -1  -1 -14 25282.3 980.788  48
  -1  -1 -14 25709.3 1004.15   5
  -1  -1 -14 24902.2 1001.88  38
  -1  -1 -14 25512.1 1003.33  60
  -1  -1 -14 22708.4 977.821  59
  -1  -1 -13 28985.6 1106.22  48
  -1  -1 -13 29545.6 1144.51  38
  -1  -1 -13 28232.5 1110.56   5
  -1  -1 -13 27532.6 1115.19  60
  -1  -1 -12 18408.8 799.997  38
  -1  -1 -12 16826.6 754.367  48
  -1  -1 -12 16346.5 756.458   5
  -1  -1 -12 17003.9 774.289  60
  -1  -1 -11 2661.91 340.350  38
  -1  -1 -11 2440.58 330.070  60
  -1  -1 -11 2156.68 302.221  48
  -1  -1 -11 1693.97 539.702  89
  -1  -1 -10 104491. 3314.76  48
  -1  -1 -10 112675. 3907.08  89
  -1  -1 -10 106418. 3351.23  38
  -1  -1 -10 114086. 3952.94  52
  -1  -1  -9 25918.2 977.339   6
  -1  -1  -9 28281.2 1398.78  89
  -1  -1  -9 26500.7 999.913  38
  -1  -1  -9 25078.8 988.196  60
  -1  -1  -9 26637.7 968.120  48
  -1  -1  -8 1239.83 413.043  89
  -1  -1  -8 1009.43 209.853   6
  -1  -1  -8 1352.80 406.854  52
  -1  -1  -7 28045.0 1010.87  65
  -1  -1  -7 32021.4 1392.15  89
  -1  -1  -7 31849.2 1414.80  52
  -1  -1  -6 61493.8 2251.08  89
  -1  -1  -6 58189.0 2247.80  52
  -1  -1  -5 3222.27 417.531  89
  -1  -1  -5 3148.71 415.492  52
  -1  -1  -5 3162.76 254.815  97
  -1  -1  -4 247873. 7888.50  65
  -1  -1  -4 275052. 7908.44  97
  -1  -1  -4 259084. 8109.99  89
  -1  -1  -3 61508.0 2268.95  61
  -1  -1  -3 65510.8 2034.37  97
  -1  -1  -2 225908. 7060.10  61
  -1  -1  -1 341516. 10586.8  62
  -1  -1  -1 379048. 10748.0  61
  -1  -1   0 46909.8 1567.23  62
  -1  -1   0 51293.2 1628.25  61
  -1  -1   1 93414.3 2953.15  62
  -1  -1   2 238538. 7446.00  62
  -1  -1   2 243419. 7347.62  87
  -1  -1   3 104718. 3290.05  87
  -1  -1   3 102206. 3367.86  62
  -1  -1   3 104450. 3223.24  90
  -1  -1   3 107997. 3241.76  95
  -1  -1   4 222289. 7114.67  62
  -1  -1   4 227231. 6942.14  90
  -1  -1   4 232645. 6961.49  95
  -1  -1   4 230913. 7060.41  87
  -1  -1   5 461230. 13562.8  95
  -1  -1   5 417602. 13738.3  62
  -1  -1   5 441643. 13579.9   1
  -1  -1   5 452773. 13539.1  90
  -1  -1   5 442788. 13703.2  87
  -1  -1   6 167999. 5252.99  84
  -1  -1   6 160634. 4872.24  95
  -1  -1   6 158725. 4844.61  90
  -1  -1   6 153819. 5055.00  87
  -1  -1   6 153603. 4920.91   1
  -1  -1   7 19842.0 1083.47  84
  -1  -1   7 19484.8 931.324  87
  -1  -1   7 18937.5 690.546  90
  -1  -1   7 19093.3 726.345  95
  -1  -1   8 204912. 6737.43  62
  -1  -1   8 208385. 6463.16  90
  -1  -1   8 220849. 7035.30  84
  -1  -1   8 202518. 6807.27  87
  -1  -1   8 217452. 6505.86  95
  -1  -1   9 13191.9 991.815  84
  -1  -1   9 11962.6 516.403  90
  -1  -1   9 11755.4 760.867  62
  -1  -1   9 10706.9 764.798  87
  -1  -1   9 12088.4 575.866  95
  -1  -1  10 14248.6 1085.93  84
  -1  -1  10 14317.4 637.052  49
  -1  -1  10 13041.1 612.244  18
  -1  -1  10 14538.9 871.019  62
  -1  -1  10 15635.8 635.948  58
  -1  -1  10 16021.2 637.800  15
  -1  -1  10 14095.4 921.234  87
  -1  -1  10 15275.4 617.598  11
  -1  -1  10 13965.9 654.068  95
  -1  -1  10 13925.8 581.783  28
  -1  -1  10 13631.2 592.165  26
  -1  -1  10 13831.5 598.707  90
  -1  -1  11 45285.0 1623.45  20
  -1  -1  11 46058.4 1954.54  62
  -1  -1  11 47870.6 1661.66  49
  -1  -1  11 46395.1 1656.34  18
  -1  -1  11 51612.5 1674.46  58
  -1  -1  11 52268.3 1668.06  15
  -1  -1  11 47406.4 1581.23  56
  -1  -1  11 45430.1 1669.14  95
  -1  -1  11 45430.6 1614.56  90
  -1  -1  11 47294.4 1603.79  28
  -1  -1  11 46792.5 2269.23  84
  -1  -1  11 44604.5 2063.17  87
  -1  -1  11 48927.2 1626.15  26
  -1  -1  11 50668.0 1645.85  11
  -1  -1  12 22032.3 870.155  11
  -1  -1  12 21712.4 827.013  28
  -1  -1  12 19148.8 826.671  20
  -1  -1  12 20257.0 1138.48  62
  -1  -1  12 20865.8 872.499  18
  -1  -1  12 22554.0 897.560  15
  -1  -1  12 18873.8 773.971  57
  -1  -1  12 20548.8 780.576  56
  -1  -1  12 19708.7 1397.65  84
  -1  -1  12 19310.8 1232.89  87
  -1  -1  12 21863.8 887.318  49
  -1  -1  12 18766.9 878.807  95
  -1  -1  13 6080.96 857.186  84
  -1  -1  13 4584.87 426.769  18
  -1  -1  13 5081.49 449.937  95
  -1  -1  13 5753.52 692.781  87
  -1  -1  13 4984.35 404.957  20
  -1  -1  13 4916.90 596.305  62
  -1  -1  13 5185.96 342.919  57
  -1  -1  13 5073.46 341.328  56
  -1  -1  13 5170.94 460.389  49
  -1  -1  14 16239.2 785.760  49
  -1  -1  14 14212.7 694.932  20
  -1  -1  14 15638.9 757.693  18
  -1  -1  14 13035.0 929.210  62
  -1  -1  14 14180.7 672.557  25
  -1  -1  14 14426.4 623.136  57
  -1  -1  14 14677.9 617.817  56
  -1  -1  14 15505.1 759.501  95
  -1  -1  15 55503.8 1826.07  49
  -1  -1  15 50040.4 1745.52  20
  -1  -1  15 55444.6 1817.65  18
  -1  -1  15 45816.8 1638.92  57
  -1  -1  15 47677.2 1785.72  95
  -1  -1  15 47753.4 1718.98  25
  -1  -1  16 26851.3 1123.37  95
  -1  -1  16 29315.2 1094.31  20
  -1  -1  16 28027.6 1086.06  25
  -1  -1  17 5387.30 425.949  95
  -1  -1  17 5869.04 341.875  30
  -1  -1  17 6662.97 411.408  20
  -1  -1  17 6367.15 438.418  25
  -1  -1  18 10416.6 483.360  20
  -1  -1  18 10295.3 512.306  25
  -1  -1  18 9458.18 510.257  95
  -1  -1  19 1042.55 167.452  20
  -1  -1  19 1141.75 215.607  25
  -1  -1  20 630.394 109.042  10
  -1  -1  20 700.317 130.727  25
  -1   0 -19 337.680 135.075   5
  -1   0 -18 4790.01 294.141  54
  -1   0 -18 5027.38 314.636   5
  -1   0 -17 9277.12 463.665   5
  -1   0 -17 8198.50 409.696  59
  -1   0 -17 8465.20 418.674  48
  -1   0 -16 2141.06 279.553  48
  -1   0 -16 2100.15 265.916  59
  -1   0 -16 2152.35 307.716   5
  -1   0 -15 23936.3 954.411   5
  -1   0 -15 25877.0 988.376   6
  -1   0 -15 22858.3 929.819  60
  -1   0 -15 24476.0 938.930  48
  -1   0 -14 6032.89 439.914   6
  -1   0 -14 5815.91 411.430  38
  -1   0 -14 6177.22 419.808  60
  -1   0 -14 6290.66 423.063  48
  -1   0 -13 82514.4 2622.32   6
  -1   0 -13 78552.0 2593.50  48
  -1   0 -13 72900.0 2592.29  60
  -1   0 -13 80861.8 2616.48  38
  -1   0 -13 82956.0 2647.92  23
  -1   0 -13 80116.5 3169.13  52
  -1   0 -12 14761.6 1006.47  52
  -1   0 -12 12049.5 607.282  60
  -1   0 -12 13853.8 640.243  23
  -1   0 -12 13057.8 603.080  48
  -1   0 -12 13135.9 1063.40  89
  -1   0 -12 13339.8 626.167  38
  -1   0 -11 22548.3 884.041  48
  -1   0 -11 24310.9 920.022  23
  -1   0 -11 23829.7 916.567  22
  -1   0 -11 23952.4 916.853  38
  -1   0 -11 22696.1 1275.65  52
  -1   0 -11 22680.8 1386.35  89
  -1   0 -10 5207.42 348.203  38
  -1   0 -10 6087.03 353.335  22
  -1   0 -10 4952.17 320.643  48
  -1   0 -10 5499.55 660.313  89
  -1   0 -10 5214.47 569.207  52
  -1   0 -10 5117.16 339.758  23
  -1   0  -9 70660.0 2667.18  89
  -1   0  -9 67949.4 2190.38  36
  -1   0  -9 65006.7 2156.44  23
  -1   0  -9 70518.4 2630.45  63
  -1   0  -9 71897.7 2556.43  52
  -1   0  -9 64997.9 2152.40  22
  -1   0  -8 42460.1 1670.09  52
  -1   0  -8 39447.8 1340.23  82
  -1   0  -8 41928.1 1739.22  63
  -1   0  -8 42387.3 1773.34  89
  -1   0  -7 98806.9 3380.54  52
  -1   0  -7 103633. 3522.35  89
  -1   0  -7 103255. 3458.84  63
  -1   0  -7 98585.1 3106.51  82
  -1   0  -6 75973.4 2624.44  52
  -1   0  -6 76188.3 2682.53  63
  -1   0  -6 76307.3 2731.26  89
  -1   0  -5 146614. 4679.86  63
  -1   0  -5 141376. 4718.61  61
  -1   0  -5 143937. 4606.11  52
  -1   0  -5 144870. 4696.72  89
  -1   0  -4 41909.6 1505.18  63
  -1   0  -4 39124.6 1534.44  61
  -1   0  -4 42634.6 1537.24  89
  -1   0  -4 40641.0 1438.89  52
  -1   0  -3 253871. 7949.23  63
  -1   0  -3 252150. 7907.80  52
  -1   0  -3 273268. 8013.31  89
  -1   0  -2 406095. 12360.3  52
  -1   0  -2 409550. 12395.9  63
  -1   0  -1 149903. 4567.34  91
  -1   0  -1 154078. 4726.91  61
  -1   0   0 854653. 25758.9  62
  -1   0   1 125481. 3884.09  62
  -1   0   2 41745.4 1342.72  94
  -1   0   2 37627.7 1312.32  64
  -1   0   2 40275.4 1340.68  86
  -1   0   2 38688.5 1317.19   1
  -1   0   3 194486. 5861.90  86
  -1   0   3 194660. 5858.91  94
  -1   0   3 181501. 5805.42   1
  -1   0   3 188721. 5839.07  64
  -1   0   3 185709. 5829.79  84
  -1   0   4 539066. 15849.6  86
  -1   0   4 521346. 15819.8  84
  -1   0   4 499710. 15765.1   1
  -1   0   4 508661. 15817.5  64
  -1   0   4 534710. 15834.6  94
  -1   0   5 153105. 4798.10  86
  -1   0   5 144868. 4689.38   1
  -1   0   5 152146. 4539.44  95
  -1   0   5 148452. 4768.09  84
  -1   0   5 136184. 4718.92  94
  -1   0   6 56220.1 2004.20   1
  -1   0   6 59152.4 1823.13  95
  -1   0   6 55000.4 2106.05  86
  -1   0   6 55949.8 2010.46  62
  -1   0   6 58441.4 2127.46  84
  -1   0   6 56560.4 1813.82  92
  -1   0   6 56295.4 1785.38  90
  -1   0   7 5702.83 579.319  86
  -1   0   7 5848.71 291.711  70
  -1   0   7 5214.88 472.833   1
  -1   0   7 6087.25 481.963  62
  -1   0   7 6157.31 574.600  84
  -1   0   7 5824.98 331.203  95
  -1   0   7 5369.58 315.069  92
  -1   0   7 5630.34 282.525  90
  -1   0   7 6345.57 338.766  79
  -1   0   8 96695.3 3256.81   1
  -1   0   8 90422.6 2919.59  70
  -1   0   8 97705.2 3209.14  62
  -1   0   8 93531.1 3360.61  84
  -1   0   8 95791.6 2948.02  92
  -1   0   8 92855.0 3353.86  86
  -1   0   8 94894.0 2949.01  95
  -1   0   8 90979.0 2910.30  90
  -1   0   9 17147.6 698.392  92
  -1   0   9 15730.7 911.064  87
  -1   0   9 17583.0 958.006   1
  -1   0   9 17648.3 656.459  90
  -1   0   9 17447.4 664.565  70
  -1   0   9 17162.2 1086.03  86
  -1   0   9 17538.2 929.681  62
  -1   0   9 18476.5 1085.14  84
  -1   0   9 16981.6 700.695  95
  -1   0  10 10641.4 768.065   1
  -1   0  10 11149.7 490.560  70
  -1   0  10 9278.22 500.720  20
  -1   0  10 10815.0 874.975  84
  -1   0  10 9144.41 724.552  87
  -1   0  10 11159.2 752.474  62
  -1   0  10 11416.4 532.734  95
  -1   0  10 11331.6 911.232  86
  -1   0  10 10877.0 480.037  90
  -1   0  10 11567.5 533.350  92
  -1   0  11 40953.8 2059.66  84
  -1   0  11 43996.9 1502.89  70
  -1   0  11 39068.9 1890.72  87
  -1   0  11 41237.0 1527.36  20
  -1   0  11 45410.8 1863.99  62
  -1   0  11 44451.2 1470.46  57
  -1   0  11 47402.6 1486.73  56
  -1   0  11 42589.1 1546.96  95
  -1   0  11 43786.7 2088.75  86
  -1   0  11 44883.9 1549.02  92
  -1   0  11 44640.2 1924.58   1
  -1   0  12 4197.50 734.558  84
  -1   0  12 4665.06 790.662  86
  -1   0  12 4702.02 338.589  70
  -1   0  12 4710.71 394.855  20
  -1   0  12 4340.91 402.987  92
  -1   0  12 4318.21 533.770  62
  -1   0  12 4777.89 321.349  56
  -1   0  12 4378.51 391.880  95
  -1   0  12 3617.28 575.993  87
  -1   0  12 4464.67 362.621  25
  -1   0  13 23363.3 956.111  95
  -1   0  13 22034.6 935.454  20
  -1   0  13 21939.1 953.877  92
  -1   0  13 19945.4 1324.85  87
  -1   0  13 21867.8 1486.84  84
  -1   0  13 22235.7 916.186  25
  -1   0  14 10355.3 944.468  87
  -1   0  14 10570.8 607.048  20
  -1   0  14 9804.16 537.961  17
  -1   0  14 9536.86 1028.95  84
  -1   0  14 9968.86 592.735  95
  -1   0  14 10349.6 583.789  25
  -1   0  15 3767.94 735.563  84
  -1   0  15 3645.23 299.873  30
  -1   0  15 3779.86 419.225  25
  -1   0  15 4487.00 420.628  20
  -1   0  15 3122.19 627.030  87
  -1   0  15 3557.24 337.605  17
  -1   0  15 3901.95 414.456  95
  -1   0  16 3010.73 387.233  25
  -1   0  16 3557.39 382.509  20
  -1   0  16 3843.85 391.089  95
  -1   0  17 5062.18 403.440  20
  -1   0  17 5506.84 424.692  25
  -1   0  17 4998.06 409.178  95
  -1   0  18 18589.8 757.958   9
  -1   0  18 18642.1 799.666  95
  -1   0  18 20935.2 809.974  25
  -1   0  19 2050.77 205.193  10
  -1   0  19 2275.06 227.281  20
  -1   0  19 1866.36 240.798  25
  -1   0  20 5036.27 222.366  10
  -1   1 -19 1043.11 166.068   5
  -1   1 -19 789.977 122.867  54
  -1   1 -18 7396.04 388.820   5
  -1   1 -17 10496.8 474.253  48
  -1   1 -17 10998.0 510.919   5
  -1   1 -17 11077.4 518.906   6
  -1   1 -16 2822.65 322.276   6
  -1   1 -16 2937.51 294.341  48
  -1   1 -15 12587.7 579.938  48
  -1   1 -15 12596.6 609.717   6
  -1   1 -15 12866.5 631.187  23
  -1   1 -15 11339.6 549.922  60
  -1   1 -14 14084.5 652.170   6
  -1   1 -14 14791.5 680.193  22
  -1   1 -14 14165.7 668.303  23
  -1   1 -14 13297.2 623.087  48
  -1   1 -14 12571.6 603.771  60
  -1   1 -13 17139.6 733.046  48
  -1   1 -13 17697.3 752.540   6
  -1   1 -13 19179.4 783.072  22
  -1   1 -13 16600.6 1136.16  91
  -1   1 -13 17184.6 1205.17  63
  -1   1 -13 17693.7 1104.27  52
  -1   1 -13 18730.4 767.062  23
  -1   1 -12 25331.5 1469.91  89
  -1   1 -12 20312.2 1270.88  91
  -1   1 -12 21361.7 850.333   6
  -1   1 -12 22752.2 868.157  23
  -1   1 -12 22240.7 1311.31  63
  -1   1 -12 22573.1 867.978  22
  -1   1 -12 20987.8 835.760  48
  -1   1 -12 22410.0 1222.68  52
  -1   1 -11 52651.1 1778.83  48
  -1   1 -11 55462.9 1805.97  23
  -1   1 -11 55906.2 1809.60  22
  -1   1 -11 56020.6 2208.05  52
  -1   1 -11 58010.1 2452.00  89
  -1   1 -11 51295.9 1782.54  38
  -1   1 -11 56457.5 2315.13  63
  -1   1 -11 55057.9 1784.92  81
  -1   1 -10 17514.1 667.031  98
  -1   1 -10 18081.6 1160.40  89
  -1   1 -10 18242.3 677.813  81
  -1   1 -10 17141.4 687.330   4
  -1   1 -10 18178.7 1043.30  63
  -1   1 -10 18958.8 988.495  52
  -1   1 -10 17220.3 678.926  22
  -1   1 -10 17838.7 686.095  23
  -1   1  -9 63814.7 2025.12  81
  -1   1  -9 63218.9 2053.05  82
  -1   1  -9 62284.5 2019.95  98
  -1   1  -9 62967.8 2318.48  52
  -1   1  -9 61537.5 2374.62  64
  -1   1  -9 62450.1 2394.50  63
  -1   1  -9 67164.1 2575.98  89
  -1   1  -8 328701. 10001.0  81
  -1   1  -8 328305. 10323.5  64
  -1   1  -8 321715. 10330.4  63
  -1   1  -8 327907. 9998.90  98
  -1   1  -8 326459. 10262.8  52
  -1   1  -8 328296. 10023.2  82
  -1   1  -8 364249. 10556.9  89
  -1   1  -7 113757. 3783.11  89
  -1   1  -7 105922. 3313.93  81
  -1   1  -7 104831. 3553.57  64
  -1   1  -7 105257. 3588.19  63
  -1   1  -7 102099. 3678.44  61
  -1   1  -7 109335. 3339.43  82
  -1   1  -7 107451. 3315.49  98
  -1   1  -7 105219. 3512.51  52
  -1   1  -6 81271.1 2555.82  82
  -1   1  -6 82189.4 2702.41  52
  -1   1  -6 83049.1 2545.83  98
  -1   1  -6 85300.5 2752.97  64
  -1   1  -6 79786.5 2758.07  63
  -1   1  -6 74127.8 2812.43  61
  -1   1  -6 80590.8 2893.57  89
  -1   1  -5 186719. 5640.24  52
  -1   1  -5 176074. 5507.82  98
  -1   1  -5 187640. 5681.39  64
  -1   1  -5 188237. 5711.65  63
  -1   1  -5 173088. 5761.20  61
  -1   1  -5 184521. 5810.13  89
  -1   1  -4 172838. 5351.05  64
  -1   1  -4 171666. 5381.59  63
  -1   1  -4 165529. 5442.91  61
  -1   1  -4 174378. 5318.11  52
  -1   1  -3 338552. 10521.7  52
  -1   1  -3 357655. 10628.3  91
  -1   1  -3 345719. 10582.3  63
  -1   1  -3 355533. 10558.0  64
  -1   1  -3 338112. 10655.4  61
  -1   1  -2 999999. 29522.3  91
  -1   1  -2 978523. 29426.2  64
  -1   1  -2 987569. 29454.0  63
  -1   1  -2 959401. 29405.6  52
  -1   1  -1 15152.1 512.679  64
  -1   1  -1 14537.3 537.541  63
  -1   1  -1 14672.2 620.721  91
  -1   1   0 71292.6 2183.72  83
  -1   1   0 64320.6 2123.15  63
  -1   1   0 69956.3 2122.97  86
  -1   1   0 68864.3 2156.46  94
  -1   1   0 72875.3 2233.11  91
  -1   1   1 390635. 11921.4  94
  -1   1   1 390253. 11931.7  83
  -1   1   1 394716. 11867.4  64
  -1   1   1 385048. 11891.1  86
  -1   1   1 411586. 11974.7  91
  -1   1   2 184005. 5698.19  86
  -1   1   2 190582. 5721.48  83
  -1   1   2 183034. 5665.42  64
  -1   1   2 183830. 5659.04  84
  -1   1   2 185265. 5717.08  94
  -1   1   2 187748. 5741.73  91
  -1   1   3 706681. 21252.4   1
  -1   1   3 704218. 21196.2  83
  -1   1   3 681579. 21164.6  84
  -1   1   3 696665. 21165.8  64
  -1   1   3 696109. 21203.5  86
  -1   1   3 719258. 21203.8  94
  -1   1   4 25647.0 1029.70  84
  -1   1   4 27796.3 1055.53  83
  -1   1   4 28815.2 1066.84  94
  -1   1   4 26928.2 1067.26  86
  -1   1   4 27368.7 1103.31   1
  -1   1   4 26299.0 886.192  95
  -1   1   4 27992.7 1026.91  64
  -1   1   5 260921. 7798.55  83
  -1   1   5 243517. 7803.75  86
  -1   1   5 238326. 7573.40  95
  -1   1   5 265451. 7880.75   1
  -1   1   5 228264. 7768.44  84
  -1   1   6 59262.8 2230.46  84
  -1   1   6 63188.8 2247.51  83
  -1   1   6 63250.0 1993.39  69
  -1   1   6 67810.1 2327.72   1
  -1   1   6 60606.6 1988.71  95
  -1   1   6 62999.9 1979.23  93
  -1   1   6 60371.5 2248.78  86
  -1   1   7 56706.5 2189.82  86
  -1   1   7 57336.0 1874.26  95
  -1   1   7 59142.8 1877.28  69
  -1   1   7 63540.7 2290.66   1
  -1   1   7 59020.4 1854.49  93
  -1   1   7 56592.2 1870.83  79
  -1   1   7 54635.0 2110.74  94
  -1   1   7 56582.9 2170.57  84
  -1   1   8 149149. 4858.62  86
  -1   1   8 137389. 4418.00  90
  -1   1   8 143001. 4453.74  79
  -1   1   8 157680. 4951.90   1
  -1   1   8 142642. 4458.56  95
  -1   1   8 143930. 4763.09  94
  -1   1   8 138616. 4831.53  84
  -1   1   9 37698.4 1269.91  79
  -1   1   9 35251.6 1215.79  90
  -1   1   9 38456.8 1732.62   1
  -1   1   9 40050.7 1685.61  86
  -1   1   9 35048.2 1652.85  84
  -1   1   9 34987.9 1259.59  95
  -1   1   9 37163.8 1573.69  94
  -1   1  10 81277.8 3092.99  86
  -1   1  10 80612.6 2591.58  92
  -1   1  10 82491.3 2612.44  79
  -1   1  10 80342.5 2602.05  95
  -1   1  10 75220.2 2605.16  20
  -1   1  10 82446.7 2617.12  18
  -1   1  10 82438.3 3126.37  84
  -1   1  10 81613.2 2996.73  94
  -1   1  10 76726.5 2552.32  90
  -1   1  10 81192.9 3131.65   1
  -1   1  10 86526.8 2639.00  49
  -1   1  10 77714.6 2598.27  25
  -1   1  11 8918.74 871.625  86
  -1   1  11 9518.62 522.053  79
  -1   1  11 9596.85 849.875   1
  -1   1  11 8845.41 856.909  84
  -1   1  11 9761.52 511.960  95
  -1   1  11 8569.43 440.775  70
  -1   1  11 8948.06 519.890  20
  -1   1  11 9162.12 517.886  18
  -1   1  11 9326.34 508.787  92
  -1   1  11 8460.40 503.398  25
  -1   1  11 9125.24 525.389  49
  -1   1  12 4593.17 620.153  87
  -1   1  12 4479.94 716.416  84
  -1   1  12 4941.10 692.297   1
  -1   1  12 5242.43 434.975  79
  -1   1  12 4296.63 412.595  20
  -1   1  12 5138.17 412.957  18
  -1   1  12 5001.68 445.249  49
  -1   1  12 4382.51 402.748  95
  -1   1  12 4550.99 399.049  92
  -1   1  12 4848.34 735.889  86
  -1   1  12 4578.04 413.595  25
  -1   1  13 58311.5 2540.24   1
  -1   1  13 46901.9 2488.39  84
  -1   1  13 54621.3 1957.28  20
  -1   1  13 60413.1 1967.26  18
  -1   1  13 52002.2 1923.03  95
  -1   1  13 47572.8 2379.46  87
  -1   1  13 60134.7 1980.14  49
  -1   1  13 55713.3 1933.03  92
  -1   1  13 54252.2 1937.38  25
  -1   1  14 2078.09 628.045  84
  -1   1  14 2753.04 393.314  20
  -1   1  14 3039.43 367.659  17
  -1   1  14 3311.26 390.001  95
  -1   1  14 3333.27 425.986  25
  -1   1  14 2903.42 579.716  87
  -1   1  15 1962.88 550.882  87
  -1   1  15 2658.85 385.766  20
  -1   1  15 2507.62 337.477  17
  -1   1  15 2501.34 361.247  95
  -1   1  16 3298.87 388.856  20
  -1   1  16 3376.28 340.928  17
  -1   1  16 3687.02 370.573  95
  -1   1  17 14041.4 641.676  20
  -1   1  17 11913.8 607.556  95
  -1   1  17 12625.9 581.502  17
  -1   1  18 6838.72 402.717  20
  -1   1  18 6308.17 368.554   9
  -1   1  18 6138.26 340.597  17
  -1   1  19 451.529 116.743  10
  -1   1  19 317.012 170.404  20
  -1   1  19 469.406 143.795   9
  -1   2 -19 9777.33 398.413   5
  -1   2 -18 5034.29 301.454   6
  -1   2 -17 1492.22 221.730  48
  -1   2 -17 1509.89 241.256   6
  -1   2 -17 1425.55 271.198  23
  -1   2 -16 20364.7 813.712  23
  -1   2 -16 19765.5 787.234   6
  -1   2 -16 18528.2 754.691  48
  -1   2 -15 11601.0 540.902  48
  -1   2 -15 12153.2 565.570   6
  -1   2 -15 10547.9 931.752  63
  -1   2 -15 12472.9 598.174  22
  -1   2 -15 11075.8 581.729  23
  -1   2 -14 31172.2 1155.22  48
  -1   2 -14 33823.1 1209.74  22
  -1   2 -14 32647.9 1710.16  63
  -1   2 -14 31790.6 1176.51   6
  -1   2 -14 33206.5 1195.96  23
  -1   2 -13 28848.7 1079.97  48
  -1   2 -13 31831.5 1720.30  91
  -1   2 -13 29237.0 1458.04  52
  -1   2 -13 29757.1 1090.01  98
  -1   2 -13 27856.6 1565.19  63
  -1   2 -13 31681.3 1125.45  22
  -1   2 -13 30942.3 1116.00  23
  -1   2 -13 30294.4 1107.74  81
  -1   2 -12 32421.1 1541.20  52
  -1   2 -12 32939.8 1192.97  23
  -1   2 -12 34003.2 1207.15  81
  -1   2 -12 34228.5 1199.34   4
  -1   2 -12 33092.1 1664.62  63
  -1   2 -12 34575.3 1200.76  98
  -1   2 -12 33307.3 1196.84  22
  -1   2 -12 29756.5 1720.35  91
  -1   2 -11 26748.2 966.154  22
  -1   2 -11 25551.4 965.483  23
  -1   2 -11 24947.1 1317.29  64
  -1   2 -11 25056.3 975.784   7
  -1   2 -11 26537.0 965.688   4
  -1   2 -11 27080.4 1378.03  63
  -1   2 -11 28199.1 985.652  98
  -1   2 -11 26889.3 1286.45  52
  -1   2 -11 25348.3 1498.72  91
  -1   2 -11 27928.2 993.542  81
  -1   2 -11 27106.6 1565.11  89
  -1   2 -10 10534.0 472.379  23
  -1   2 -10 11120.0 522.925  42
  -1   2 -10 11236.1 501.730  98
  -1   2 -10 10700.4 487.010   7
  -1   2 -10 11226.8 506.164  81
  -1   2 -10 10950.1 516.886  36
  -1   2 -10 10851.6 735.602  64
  -1   2 -10 10237.8 764.699  63
  -1   2 -10 10414.6 467.100   4
  -1   2 -10 10349.0 694.892  52
  -1   2 -10 10436.7 889.988  91
  -1   2 -10 11831.1 950.379  89
  -1   2 -10 10431.1 471.523  22
  -1   2  -9 64613.0 2203.37  23
  -1   2  -9 71717.1 2267.66  82
  -1   2  -9 67386.0 2210.10  22
  -1   2  -9 72720.4 2249.17  81
  -1   2  -9 68499.4 2540.45  64
  -1   2  -9 72052.8 2592.98  63
  -1   2  -9 74497.2 2835.52  91
  -1   2  -9 65984.6 2222.77   7
  -1   2  -9 70307.5 2499.34  52
  -1   2  -9 78485.4 2851.98  89
  -1   2  -9 74022.0 2253.74  98
  -1   2  -8 114563. 3936.05  89
  -1   2  -8 107853. 3398.56  82
  -1   2  -8 110808. 3385.77  98
  -1   2  -8 102279. 3633.41  64
  -1   2  -8 103489. 3681.31  63
  -1   2  -8 104285. 3596.98  52
  -1   2  -8 104489. 3894.60  91
  -1   2  -8 108488. 3378.20  81
  -1   2  -7 25854.9 913.344  81
  -1   2  -7 24513.7 1098.52  64
  -1   2  -7 25081.2 1152.15  63
  -1   2  -7 22603.2 1118.23  61
  -1   2  -7 26247.9 924.689  82
  -1   2  -7 27068.5 916.052  98
  -1   2  -7 26630.9 1093.88  52
  -1   2  -7 22781.9 1244.43  91
  -1   2  -7 24563.1 1272.72  89
  -1   2  -6 65954.7 2048.00  81
  -1   2  -6 65382.5 2392.92  89
  -1   2  -6 63468.4 2231.23  64
  -1   2  -6 56841.4 2237.46  61
  -1   2  -6 66499.6 2055.27  98
  -1   2  -6 62620.2 2271.26  63
  -1   2  -6 63255.5 2419.40  91
  -1   2  -6 62340.0 2203.23  52
  -1   2  -5 46395.2 1517.86  81
  -1   2  -5 49873.8 1700.69  64
  -1   2  -5 46132.9 1718.40  63
  -1   2  -5 44526.1 1705.64  61
  -1   2  -5 47660.9 1524.32  98
  -1   2  -5 48891.9 1679.34  52
  -1   2  -5 47388.9 1843.92  91
  -1   2  -4 299797. 9127.07  91
  -1   2  -4 291803. 8815.20  98
  -1   2  -4 290203. 8973.57  64
  -1   2  -4 288380. 9006.85  63
  -1   2  -4 283651. 9000.72  61
  -1   2  -4 289525. 8956.62  52
  -1   2  -3 207265. 6323.90  98
  -1   2  -3 207697. 6471.81  64
  -1   2  -3 205872. 6494.15  63
  -1   2  -3 204439. 6507.48  61
  -1   2  -3 219838. 6611.71  91
  -1   2  -2 232634. 7052.37  64
  -1   2  -2 232674. 7103.62  61
  -1   2  -2 220015. 7060.87  63
  -1   2  -2 224473. 7152.69  91
  -1   2  -1 230123. 7022.86  83
  -1   2  -1 223013. 6957.73  64
  -1   2  -1 218592. 7035.15  91
  -1   2  -1 226366. 7011.31  61
  -1   2   0 498586. 15167.8  83
  -1   2   0 488906. 15163.7   1
  -1   2   0 498772. 15193.1  91
  -1   2   0 498807. 15128.4  94
  -1   2   1 473065. 14591.9  94
  -1   2   1 480785. 14651.9  91
  -1   2   1 481877. 14625.6  83
  -1   2   2 88635.4 2916.92  83
  -1   2   2 87919.0 2890.34  94
  -1   2   2 85551.9 2928.97  91
  -1   2   2 89163.1 2881.42  86
  -1   2   3 599183. 18440.9  83
  -1   2   3 610851. 18396.8  84
  -1   2   3 598062. 18421.1  94
  -1   2   3 608249. 18420.7  86
  -1   2   4 39027.9 1518.63  86
  -1   2   4 41024.9 1502.25  84
  -1   2   4 40728.7 1526.02  94
  -1   2   4 41365.9 1543.30  83
  -1   2   4 42756.5 1628.76   1
  -1   2   5 528.582 314.560  84
  -1   2   5 615.115 300.196  86
  -1   2   5 716.169 330.622   1
  -1   2   5 714.350 321.221  83
  -1   2   6 128130. 4333.34  86
  -1   2   6 127988. 4307.89  84
  -1   2   6 126950. 4010.34  95
  -1   2   6 136553. 4479.82   1
  -1   2   6 128080. 4012.36  69
  -1   2   6 133583. 4000.95  93
  -1   2   7 32410.0 1459.79  84
  -1   2   7 35278.8 1636.47   1
  -1   2   7 32677.1 1152.96  69
  -1   2   7 33948.4 1503.34  86
  -1   2   7 32233.0 1151.07  95
  -1   2   7 33441.1 1445.20  94
  -1   2   7 36141.7 1142.54  93
  -1   2   8 16896.9 1011.55  86
  -1   2   8 17108.9 671.561  69
  -1   2   8 14977.2 959.826  84
  -1   2   8 15721.1 659.327  95
  -1   2   8 17058.6 646.127  93
  -1   2   8 18037.2 1113.19   1
  -1   2   8 17123.8 943.377  94
  -1   2   9 3866.03 540.621  83
  -1   2   9 3958.84 315.859  79
  -1   2   9 5021.65 665.758   1
  -1   2   9 4104.41 341.747  20
  -1   2   9 4005.45 322.918  69
  -1   2   9 4086.35 594.213  86
  -1   2   9 3792.15 553.065  84
  -1   2   9 4154.88 316.662  95
  -1   2   9 4029.58 505.669  94
  -1   2   9 4246.83 293.959  93
  -1   2  10 40055.9 1423.26  79
  -1   2  10 37758.5 1882.49  84
  -1   2  10 42250.1 2028.14   1
  -1   2  10 43107.5 1443.44  69
  -1   2  10 42328.8 1389.02  93
  -1   2  10 39107.5 1452.80  20
  -1   2  10 43154.0 1938.62  86
  -1   2  10 41589.2 1443.95  18
  -1   2  10 40081.3 1426.05  95
  -1   2  10 39396.7 1790.44  94
  -1   2  10 38314.0 1370.09  90
  -1   2  11 304.883 457.794  86
  -1   2  11 134.590 431.401  84
  -1   2  11 167.154 252.664  95
  -1   2  11-22.2780 267.457  79
  -1   2  11 138.661 272.472  20
  -1   2  11 308.560 464.712   1
  -1   2  11 451.740 404.793  94
  -1   2  12 1213.08 577.865  86
  -1   2  12 299.617 467.871  84
  -1   2  12 483.416 305.193  92
  -1   2  12 847.719 307.826  79
  -1   2  12 687.357 324.647  20
  -1   2  12 345.061 275.701  95
  -1   2  12 677.042 305.207  17
  -1   2  12 494.910 500.859   1
  -1   2  12 799.405 451.559  94
  -1   2  13 2719.05 654.207  86
  -1   2  13 2545.48 377.875  79
  -1   2  13 3034.59 661.421   1
  -1   2  13 2120.03 365.140  17
  -1   2  13 1939.93 522.931  87
  -1   2  13 1943.72 352.224  92
  -1   2  13 1287.32 570.753  84
  -1   2  13 2474.14 350.747  95
  -1   2  14 8872.15 974.433  84
  -1   2  14 10878.2 604.090  92
  -1   2  14 10842.0 614.080  17
  -1   2  14 9589.75 991.190   1
  -1   2  14 10194.1 582.353  95
  -1   2  14 7907.56 851.879  87
  -1   2  15 22132.6 909.266   2
  -1   2  15 22944.8 944.169  17
  -1   2  15 21380.8 923.378  95
  -1   2  16 4327.12 339.170   2
  -1   2  16 5173.35 407.910   9
  -1   2  16 5469.40 407.582  17
  -1   2  16 4769.84 383.295  95
  -1   2  16 5350.73 451.150  25
  -1   2  17 970.289 228.508  95
  -1   2  17 1175.92 183.237  10
  -1   2  17 1189.88 202.192   2
  -1   2  17 1316.55 258.965   9
  -1   2  17 1711.42 266.602  17
  -1   2  18 2813.49 247.366   9
  -1   2  19 538.266 126.858  20
  -1   2  19 301.859 106.250   9
  -1   3 -19 3221.33 185.231   5
  -1   3 -18 2422.12 202.072   6
  -1   3 -17 1160.59 202.258  48
  -1   3 -17 1085.30 226.572  23
  -1   3 -17 1054.48 214.543   6
  -1   3 -16 3056.08 274.272  48
  -1   3 -16 3016.19 278.449   6
  -1   3 -16 3640.17 325.016  22
  -1   3 -16 3506.14 319.623  23
  -1   3 -15 13473.3 609.877  23
  -1   3 -15 12483.9 563.977  48
  -1   3 -15 12876.2 577.386   6
  -1   3 -15 13321.7 613.006  22
  -1   3 -15 12656.0 566.410  98
  -1   3 -14 498.017 250.117  23
  -1   3 -14 361.207 243.411  22
  -1   3 -14 318.806 210.853  98
  -1   3 -14 605.556 379.354  63
  -1   3 -14 216.389 451.602  91
  -1   3 -13 12549.1 574.153  23
  -1   3 -13 11256.2 570.295  98
  -1   3 -13 12317.3 567.493  22
  -1   3 -13 11029.1 529.281   4
  -1   3 -13 11311.6 917.994  63
  -1   3 -13 11604.3 1086.33  91
  -1   3 -13 12234.5 593.331  81
  -1   3 -12 37376.4 2025.58  91
  -1   3 -12 37986.2 1690.03  52
  -1   3 -12 38066.4 1370.01  98
  -1   3 -12 40272.9 1384.87  81
  -1   3 -12 35670.3 1780.65  63
  -1   3 -12 36568.1 1345.98   7
  -1   3 -12 38075.2 1333.62  22
  -1   3 -12 38900.6 1333.58  23
  -1   3 -12 37246.1 1316.29   4
  -1   3 -11 5214.31 350.433  23
  -1   3 -11 5897.08 359.404  22
  -1   3 -11 5586.27 378.619  42
  -1   3 -11 5768.40 342.814  67
  -1   3 -11 5150.32 565.872  64
  -1   3 -11 4905.56 591.417  63
  -1   3 -11 5438.89 331.336   4
  -1   3 -11 5852.71 393.243  98
  -1   3 -11 6053.05 566.405  52
  -1   3 -11 5486.85 791.322  91
  -1   3 -11 5125.66 355.553   7
  -1   3 -11 6101.90 400.922  81
  -1   3 -10 3973.40 290.693  23
  -1   3 -10 4272.93 341.062  81
  -1   3 -10 3678.09 290.566  22
  -1   3 -10 4049.68 301.791  42
  -1   3 -10 3818.48 470.236  64
  -1   3 -10 3639.63 515.343  63
  -1   3 -10 3942.25 285.385   4
  -1   3 -10 4263.05 337.562  98
  -1   3 -10 3445.56 289.296   7
  -1   3 -10 4604.77 771.608  91
  -1   3 -10 4381.03 473.079  52
  -1   3 -10 3891.19 285.721  24
  -1   3  -9 751.519 228.028  81
  -1   3  -9 559.998 182.139  42
  -1   3  -9 722.088 180.377  24
  -1   3  -9 514.881 289.682  52
  -1   3  -9 382.069 344.131  63
  -1   3  -9 602.601 183.727  36
  -1   3  -9 725.361 176.575   4
  -1   3  -9 489.372 262.704  64
  -1   3  -9 719.416 220.157  98
  -1   3  -9 283.529 469.273  91
  -1   3  -9 640.789 185.912   7
  -1   3  -8 2939.33 608.911  91
  -1   3  -8 2823.18 282.146  81
  -1   3  -8 2666.45 236.079   7
  -1   3  -8 2762.43 238.164  24
  -1   3  -8 2302.95 357.876  64
  -1   3  -8 2494.99 435.064  63
  -1   3  -8 2952.85 278.085  98
  -1   3  -8 2437.05 368.849  52
  -1   3  -7 69534.0 2215.07  81
  -1   3  -7 65243.9 2460.12  64
  -1   3  -7 66890.1 2504.48  63
  -1   3  -7 60598.4 2358.51  61
  -1   3  -7 73817.3 2231.13  98
  -1   3  -7 67366.7 2447.44  52
  -1   3  -7 61794.1 2701.77  91
  -1   3  -6 58156.3 2119.97  63
  -1   3  -6 56759.4 1822.69  98
  -1   3  -6 59635.1 2090.77  64
  -1   3  -6 60021.3 2086.78  52
  -1   3  -6 53050.8 2307.22  91
  -1   3  -5 300887. 8744.27  64
  -1   3  -5 297832. 8768.64  63
  -1   3  -5 258671. 8560.69  61
  -1   3  -5 269202. 8433.97  98
  -1   3  -5 295029. 8945.66  91
  -1   3  -4 43235.4 1600.37  64
  -1   3  -4 42224.3 1617.10  63
  -1   3  -4 37423.9 1452.64  61
  -1   3  -4 40183.9 1331.32  81
  -1   3  -4 41791.0 1750.69  91
  -1   3  -3 297420. 9104.43  81
  -1   3  -3 298621. 9521.46  91
  -1   3  -3 294685. 9109.25  67
  -1   3  -3 318176. 9412.03  64
  -1   3  -3 304806. 9410.97  63
  -1   3  -3 293084. 9276.62  61
  -1   3  -3 304659. 9112.78  98
  -1   3  -2 65259.5 2308.36  64
  -1   3  -2 63413.4 2222.99  61
  -1   3  -2 62402.1 2376.43  91
  -1   3  -2 64675.8 2029.29  98
  -1   3  -1 31477.3 1308.69  83
  -1   3  -1 29950.9 965.240  98
  -1   3  -1 29564.7 1190.51  61
  -1   3  -1 27475.9 963.440  67
  -1   3   0 148101. 4615.93  67
  -1   3   0 155253. 4891.92   1
  -1   3   0 149771. 4609.23  98
  -1   3   0 158603. 4923.15  94
  -1   3   0 157023. 4964.47  83
  -1   3   1 163979. 5360.72   1
  -1   3   1 172349. 5408.83  83
  -1   3   1 164422. 5056.34  67
  -1   3   1 165287. 5063.04  66
  -1   3   1 164659. 5045.96  98
  -1   3   1 172729. 5367.47  94
  -1   3   2 25541.8 1204.66  91
  -1   3   2 29118.1 1210.55  94
  -1   3   2 27748.8 918.159  66
  -1   3   2 26725.7 894.725  98
  -1   3   2 28685.6 1239.86  83
  -1   3   2 28888.8 1230.46   1
  -1   3   2 27870.5 1215.20  86
  -1   3   3 381428. 11268.0   1
  -1   3   3 373822. 11222.8  83
  -1   3   3 382031. 11187.4  94
  -1   3   3 384584. 11199.4  86
  -1   3   3 359874. 10839.7  66
  -1   3   3 338149. 10810.6  98
  -1   3   3 369812. 10855.7  68
  -1   3   3 365622. 11182.8  91
  -1   3   4 141010. 4242.27  80
  -1   3   4 134814. 4546.34  84
  -1   3   4 132963. 4554.11  94
  -1   3   4 138941. 4671.06   1
  -1   3   4 138009. 4571.94  86
  -1   3   4 129278. 4531.83  91
  -1   3   5 217975. 6910.74  86
  -1   3   5 212700. 6519.19  68
  -1   3   5 210932. 6864.58  84
  -1   3   6 73270.2 2631.25  84
  -1   3   6 72359.6 2675.17  86
  -1   3   6 69281.8 2240.46  68
  -1   3   7 18676.0 1107.14  83
  -1   3   7 21075.7 1119.77  94
  -1   3   7 21727.6 1185.69  86
  -1   3   7 21621.6 822.789  69
  -1   3   7 21333.3 857.239  17
  -1   3   7 21223.7 1152.44  84
  -1   3   7 21018.0 824.876  95
  -1   3   7 22907.2 809.930  93
  -1   3   7 23736.2 897.863  25
  -1   3   8 33794.1 1697.87  86
  -1   3   8 32990.2 1652.10  84
  -1   3   8 35670.1 1844.14   1
  -1   3   8 32613.1 1624.42  83
  -1   3   8 35356.4 1633.69  94
  -1   3   8 34974.9 1232.25  80
  -1   3   8 35035.6 1282.22  20
  -1   3   8 34716.7 1255.05  69
  -1   3   8 36539.6 1225.12  93
  -1   3   8 33947.7 1251.39  95
  -1   3   8 38821.3 1340.60  25
  -1   3   9 7043.23 769.864  86
  -1   3   9 7999.27 896.518   1
  -1   3   9 6549.07 698.519  83
  -1   3   9 7605.89 429.516  80
  -1   3   9 6911.81 468.612  20
  -1   3   9 8002.73 464.877  69
  -1   3   9 8025.84 766.550  84
  -1   3   9 7972.94 744.263  94
  -1   3   9 7448.69 456.753  95
  -1   3   9 7768.65 424.149  93
  -1   3   9 8602.41 574.851  25
  -1   3  10 11223.5 1060.97   1
  -1   3  10 10789.3 926.333  84
  -1   3  10 9416.45 854.124  83
  -1   3  10 10938.4 564.284  79
  -1   3  10 11452.6 975.965  86
  -1   3  10 10410.8 857.625  94
  -1   3  10 10258.8 589.407  20
  -1   3  10 10592.9 560.748  95
  -1   3  10 10921.8 570.459  69
  -1   3  10 10146.3 596.530  17
  -1   3  10 10770.2 519.639  93
  -1   3  10 12019.1 674.129  25
  -1   3  11 4615.98 727.057  84
  -1   3  11 5567.27 441.519  79
  -1   3  11 4483.55 727.655  86
  -1   3  11 5528.84 453.204  20
  -1   3  11 5533.15 443.830  69
  -1   3  11 6304.04 526.374  25
  -1   3  11 5793.13 838.764   1
  -1   3  11 5685.79 462.480  17
  -1   3  11 4681.50 628.347  94
  -1   3  11 5326.67 426.068  95
  -1   3  12 16419.2 1271.34  86
  -1   3  12 19030.6 828.653  79
  -1   3  12 18454.0 842.109  20
  -1   3  12 17850.2 853.389  17
  -1   3  12 18093.1 811.007  95
  -1   3  12 16680.9 1141.56  94
  -1   3  12 18807.4 910.373  25
  -1   3  12 17393.3 1350.21   1
  -1   3  12 16634.0 1256.72  84
  -1   3  13 5687.41 822.221  86
  -1   3  13 7418.19 501.245  79
  -1   3  13 5507.12 799.816  84
  -1   3  13 7434.81 521.688  20
  -1   3  13 6481.43 861.496   1
  -1   3  13 6849.02 492.442   2
  -1   3  13 6984.90 522.352  17
  -1   3  13 8227.32 591.234  25
  -1   3  13 5893.70 457.873  95
  -1   3  13 5715.05 677.519  94
  -1   3  13 7143.89 486.367  92
  -1   3  14 20654.8 881.382  79
  -1   3  14 20394.5 878.453  20
  -1   3  14 19913.7 871.089   2
  -1   3  14 19072.8 879.581  17
  -1   3  14 19570.0 856.968  92
  -1   3  14 19212.2 851.668  95
  -1   3  15 16171.3 734.109  95
  -1   3  15 17916.7 768.470  20
  -1   3  15 16821.8 735.980   2
  -1   3  15 16471.2 760.968  17
  -1   3  15 16609.5 743.937  92
  -1   3  16 2500.03 264.198  95
  -1   3  16 2736.85 301.444  20
  -1   3  16 2267.97 298.050   9
  -1   3  16 2707.91 313.805  17
  -1   3  16 2669.07 271.459   2
  -1   3  17 2430.20 215.295   2
  -1   3  17 2926.75 248.129  20
  -1   3  17 2454.76 246.422   9
  -1   3  18 5209.60 236.683  20
  -1   3  18 4955.83 255.403   9
  -1   4 -18 690.697 149.861  23
  -1   4 -17 5962.98 299.977   6
  -1   4 -17 5946.46 295.815  48
  -1   4 -17 6103.89 338.248  23
  -1   4 -16 17218.3 661.984  48
  -1   4 -16 17857.2 668.685   6
  -1   4 -16 16802.3 672.295  98
  -1   4 -16 18357.7 707.350  23
  -1   4 -15 5735.54 376.230  23
  -1   4 -15 6239.51 368.364  98
  -1   4 -14 1714.08 264.781  23
  -1   4 -14 1541.69 256.487  98
  -1   4 -13 4357.82 797.588  91
  -1   4 -13 4720.84 357.657  23
  -1   4 -13 4736.61 354.150  22
  -1   4 -13 4512.16 298.428   4
  -1   4 -13 4911.99 634.752  63
  -1   4 -13 4757.68 319.331  67
  -1   4 -13 5099.69 355.194   7
  -1   4 -13 4856.21 385.156  98
  -1   4 -12 4865.02 365.507  23
  -1   4 -12 4566.14 346.052   7
  -1   4 -12 4910.56 408.607  81
  -1   4 -12 4171.60 341.011  22
  -1   4 -12 4764.77 334.874  67
  -1   4 -12 3482.29 562.687  63
  -1   4 -12 4471.83 301.190   4
  -1   4 -12 4450.05 384.626  98
  -1   4 -12 3946.54 800.199  91
  -1   4 -11 9745.61 545.924  81
  -1   4 -11 9574.69 494.509  22
  -1   4 -11 8359.89 459.164  42
  -1   4 -11 9832.49 493.079  67
  -1   4 -11 8746.61 796.782  63
  -1   4 -11 9662.08 1085.82  91
  -1   4 -11 9689.65 495.313  24
  -1   4 -11 9573.44 458.158   4
  -1   4 -11 8796.42 523.000  98
  -1   4 -11 8975.90 728.214  52
  -1   4 -11 8676.07 478.733   7
  -1   4 -11 9808.33 500.835  23
  -1   4 -10 23053.7 926.725  81
  -1   4 -10 21862.5 849.606  42
  -1   4 -10 23077.8 924.607  98
  -1   4 -10 22508.2 883.035  67
  -1   4 -10 21019.5 1212.27  64
  -1   4 -10 24129.0 1641.68  91
  -1   4 -10 22821.0 1303.36  63
  -1   4 -10 21879.3 841.727   4
  -1   4 -10 22414.2 870.834  24
  -1   4 -10 23705.5 1229.37  52
  -1   4 -10 20813.7 858.862   7
  -1   4  -9 92403.4 2894.28  24
  -1   4  -9 84083.8 2866.64  42
  -1   4  -9 86568.1 2926.44  81
  -1   4  -9 95735.9 2950.42  98
  -1   4  -9 95075.0 2918.32  67
  -1   4  -9 87545.7 3323.96  64
  -1   4  -9 89279.6 3377.07  63
  -1   4  -9 89303.0 3278.23  52
  -1   4  -9 93582.5 3791.84  91
  -1   4  -9 87502.0 2877.29   7
  -1   4  -8 31933.4 1124.00  24
  -1   4  -8 28406.5 1081.24  42
  -1   4  -8 31487.6 1115.59   7
  -1   4  -8 33131.8 1178.73  98
  -1   4  -8 32610.1 1147.71  67
  -1   4  -8 32261.9 1479.16  64
  -1   4  -8 31905.2 1537.20  63
  -1   4  -8 28786.1 1084.10   8
  -1   4  -8 31536.7 1454.48  52
  -1   4  -8 31601.9 1782.37  91
  -1   4  -7 87888.6 3007.13  81
  -1   4  -7 92192.0 2974.79  21
  -1   4  -7 93323.5 3740.03  91
  -1   4  -7 99533.6 3034.89  67
  -1   4  -7 96688.2 3408.17  64
  -1   4  -7 101130. 3490.64  63
  -1   4  -7 91873.1 2982.27   8
  -1   4  -7 100771. 3415.31  52
  -1   4  -6 85961.4 2812.89  67
  -1   4  -6 94873.8 3231.16  64
  -1   4  -6 92651.1 3256.59  63
  -1   4  -6 87360.3 2797.71   8
  -1   4  -6 89099.5 3481.48  91
  -1   4  -6 85385.6 2804.26  81
  -1   4  -5 22230.3 851.311  98
  -1   4  -5 22788.9 849.296  67
  -1   4  -5 21703.5 839.621  81
  -1   4  -5 23540.2 1171.06  64
  -1   4  -5 23848.5 1206.78  63
  -1   4  -4 269515. 8161.76  98
  -1   4  -4 259716. 8160.53  67
  -1   4  -4 279218. 8600.30  64
  -1   4  -4 269383. 8616.99  63
  -1   4  -3 25931.6 937.455  98
  -1   4  -3 26006.1 1276.33  64
  -1   4  -3 28076.4 1324.63  63
  -1   4  -3 28443.9 1430.03  83
  -1   4  -2 5102.74 305.510  67
  -1   4  -2 5369.00 549.758  64
  -1   4  -2 5618.19 653.879  83
  -1   4  -2 5095.42 293.699  98
  -1   4  -2 5358.38 639.193  91
  -1   4  -1 122778. 4204.31  83
  -1   4  -1 119773. 3717.59  67
  -1   4  -1 118410. 3701.69  98
  -1   4  -1 116965. 3955.78  61
  -1   4  -1 129322. 4181.50  94
  -1   4  -1 114027. 4169.99  91
  -1   4   0 25832.8 1271.15  83
  -1   4   0 23568.0 839.363  67
  -1   4   0 24431.7 852.978  66
  -1   4   0 22925.0 816.955  98
  -1   4   0 25030.8 1219.85  94
  -1   4   0 22031.3 1212.65  91
  -1   4   1 68567.4 2140.12  66
  -1   4   1 63685.5 2543.29  91
  -1   4   1 71903.9 2572.42  94
  -1   4   1 71122.1 2518.79   1
  -1   4   1 64245.2 2097.41  98
  -1   4   1 69381.1 2590.78  83
  -1   4   2 23358.5 1189.09   1
  -1   4   2 25700.5 1272.66  83
  -1   4   2 26197.5 1260.60  86
  -1   4   2 23465.2 850.138  66
  -1   4   2 26241.2 1247.57  94
  -1   4   2 21756.5 1176.39  91
  -1   4   3 165841. 5286.94   2
  -1   4   3 160834. 5641.69  91
  -1   4   3 170968. 5248.57  66
  -1   4   3 181123. 5749.93  86
  -1   4   3 187092. 5750.47  94
  -1   4   3 173670. 5765.77   1
  -1   4   4 139474. 4551.04   2
  -1   4   4 150000. 4978.51  84
  -1   4   4 134883. 4875.83  91
  -1   4   4 150486. 4534.63  80
  -1   4   4 154083. 5101.90   1
  -1   4   4 150603. 5011.96  86
  -1   4   5 10084.7 762.335  84
  -1   4   5 9253.37 426.987  68
  -1   4   5 8503.66 462.816   2
  -1   4   5 8760.57 468.427   9
  -1   4   5 8569.48 463.615  17
  -1   4   5 9344.84 817.439   1
  -1   4   5 7718.68 715.352  83
  -1   4   5 9470.68 795.588  86
  -1   4   6 52595.1 2255.44  84
  -1   4   6 53531.3 2295.48  86
  -1   4   6 52780.6 2243.57  94
  -1   4   6 56835.7 1815.60  68
  -1   4   6 54262.2 1880.08   2
  -1   4   6 55146.0 1879.81   9
  -1   4   6 53590.6 1861.60  17
  -1   4   6 60730.3 2521.53   1
  -1   4   6 52695.4 2246.54  83
  -1   4   7 78.5767 403.921  86
  -1   4   7 375.060 392.118  84
  -1   4   7 419.038 399.556  83
  -1   4   7 340.485 230.160  20
  -1   4   7 52.9632 485.614   1
  -1   4   7 287.782 232.794   9
  -1   4   7 248.691 257.357  17
  -1   4   7-25.4671 238.952   2
  -1   4   7 380.792 410.371  94
  -1   4   7 351.622 236.546  95
  -1   4   8 12614.0 1036.25  86
  -1   4   8 13199.3 1008.67  84
  -1   4   8 12677.7 600.277  80
  -1   4   8 13308.4 636.770  20
  -1   4   8 12815.9 633.023  69
  -1   4   8 12310.6 1134.24   1
  -1   4   8 12835.4 677.956   9
  -1   4   8 11733.9 907.202  83
  -1   4   8 13415.9 679.516  17
  -1   4   8 11446.8 925.544  94
  -1   4   8 13246.8 635.352  95
  -1   4   8 13689.0 604.233  93
  -1   4   9 24591.5 1643.59   1
  -1   4   9 23635.3 1471.96  84
  -1   4   9 25404.2 1027.20  95
  -1   4   9 25620.0 1004.28  80
  -1   4   9 26865.4 1069.03  20
  -1   4   9 24961.8 1441.60  94
  -1   4   9 27225.3 1045.35  69
  -1   4   9 25409.1 1527.65  86
  -1   4   9 26340.2 1123.97   9
  -1   4   9 24622.4 1070.92  17
  -1   4   9 27377.9 1001.04  93
  -1   4   9 24707.2 1442.07  83
  -1   4  10 1799.42 515.598  83
  -1   4  10 1984.87 564.081  84
  -1   4  10 2048.33 508.187  94
  -1   4  10 1761.37 329.838  79
  -1   4  10 2171.38 326.276  95
  -1   4  10 2007.87 354.243  69
  -1   4  10 1772.46 336.233  20
  -1   4  10 1798.31 368.104   9
  -1   4  10 1637.26 355.084   2
  -1   4  10 1809.98 379.728  17
  -1   4  10 1812.70 619.216  86
  -1   4  10 1597.19 285.633  93
  -1   4  11 11279.9 1021.79  84
  -1   4  11 12086.6 620.838  79
  -1   4  11 12642.6 647.407  20
  -1   4  11 11959.0 634.263  69
  -1   4  11 11156.6 544.761  93
  -1   4  11 12131.9 693.797   9
  -1   4  11 12190.0 679.161  17
  -1   4  11 12275.6 676.687   2
  -1   4  11 9798.13 878.557  83
  -1   4  11 10789.9 606.061  95
  -1   4  11 9642.68 991.840  86
  -1   4  11 10469.8 889.830  94
  -1   4  12 7181.05 735.322  94
  -1   4  12 9180.32 534.184  79
  -1   4  12 8631.25 524.587  95
  -1   4  12 9560.18 543.752  20
  -1   4  12 7309.59 862.753  86
  -1   4  12 8817.88 573.285   2
  -1   4  12 9200.18 579.362   9
  -1   4  12 9220.97 1010.44   1
  -1   4  13 2797.70 359.449   2
  -1   4  13 2799.23 328.450  79
  -1   4  13 3318.93 353.341  20
  -1   4  13 2138.47 308.928  95
  -1   4  13 2195.64 354.960   9
  -1   4  13 3060.56 350.996  92
  -1   4  13 2066.92 439.403  94
  -1   4  14 7038.57 454.471  79
  -1   4  14 8882.97 469.374  20
  -1   4  14 8253.35 483.007   2
  -1   4  14 7955.87 497.303   9
  -1   4  14 7992.52 452.687  95
  -1   4  14 8001.40 456.744  92
  -1   4  15 3164.58 297.471   2
  -1   4  15 3664.41 282.613  20
  -1   4  15 3314.99 307.597   9
  -1   4  15 3229.00 299.191  92
  -1   4  16 222.699 159.110   2
  -1   4  16 359.094 174.748   9
  -1   4  16 293.044 132.293  16
  -1   4  17 3717.25 192.188   9
  -1   5 -17 1602.32 160.974  23
  -1   5 -16 421.659 138.714   6
  -1   5 -16 520.738 172.482  23
  -1   5 -16 510.023 147.304  48
  -1   5 -15 10601.5 482.340  98
  -1   5 -15 10542.7 477.305  23
  -1   5 -14 10583.9 491.821  23
  -1   5 -14 10753.1 516.034  98
  -1   5 -14 9609.34 447.662  67
  -1   5 -13 2877.37 288.766  23
  -1   5 -13 2587.85 289.591  98
  -1   5 -13 2274.46 244.439  67
  -1   5 -13 2391.20 234.079  66
  -1   5 -13 2100.36 242.989   7
  -1   5 -12 15484.3 620.806  23
  -1   5 -12 12852.8 583.597   7
  -1   5 -12 13170.5 1225.80  91
  -1   5 -12 14190.0 613.311  67
  -1   5 -12 13498.2 965.592  63
  -1   5 -12 11425.0 518.275   4
  -1   5 -12 13394.0 647.271  98
  -1   5 -11 5859.35 449.643  98
  -1   5 -11 6762.54 422.804  67
  -1   5 -11 6323.91 405.870  24
  -1   5 -11 7090.36 732.808  63
  -1   5 -11 6146.78 351.794   4
  -1   5 -11 6506.74 398.196   7
  -1   5 -11 6804.24 1004.85  91
  -1   5 -10 24751.1 965.579  67
  -1   5 -10 23222.7 1367.55  63
  -1   5 -10 23835.7 893.229   4
  -1   5 -10 22392.3 908.338   7
  -1   5 -10 26218.6 1322.89  52
  -1   5 -10 23400.7 1708.04  91
  -1   5 -10 24403.9 945.352  24
  -1   5  -9 45286.2 1562.06  24
  -1   5  -9 41798.9 1529.11   7
  -1   5  -9 47247.6 1603.07  67
  -1   5  -9 44600.4 2066.45  63
  -1   5  -9 45424.8 1974.44  52
  -1   5  -8 121073. 3700.11  24
  -1   5  -8 126604. 3748.67  67
  -1   5  -8 117540. 4255.23  63
  -1   5  -8 115149. 3732.12  98
  -1   5  -8 118427. 4172.57  52
  -1   5  -8 115910. 3667.08   7
  -1   5  -7 6680.52 383.745  21
  -1   5  -7 7475.16 461.914  67
  -1   5  -7 6903.08 682.629  64
  -1   5  -7 8206.80 763.685  63
  -1   5  -7 6659.72 387.076   8
  -1   5  -7 6629.14 446.152  98
  -1   5  -7 7804.95 728.485  52
  -1   5  -6 41816.2 2102.81  83
  -1   5  -6 36807.0 1339.73  21
  -1   5  -6 37237.2 1373.29  67
  -1   5  -6 40023.5 1813.25  64
  -1   5  -6 37773.5 1819.65  63
  -1   5  -6 38399.5 1373.83  98
  -1   5  -6 38962.3 1345.07   8
  -1   5  -6 39371.3 2068.69  91
  -1   5  -5 5885.05 807.887  83
  -1   5  -5 6291.64 376.004  21
  -1   5  -5 6545.01 649.842  64
  -1   5  -5 5780.53 658.751  63
  -1   5  -5 5817.31 370.215   8
  -1   5  -5 5655.37 381.037  98
  -1   5  -5 5014.43 748.083  91
  -1   5  -4 16114.5 1212.01  83
  -1   5  -4 16403.1 707.987  21
  -1   5  -4 18624.7 1103.81  64
  -1   5  -4 17175.5 1099.17  63
  -1   5  -4 18276.1 732.214   8
  -1   5  -4 16823.9 698.251  98
  -1   5  -3 315.340 493.641  83
  -1   5  -3 73.7928 191.594  21
  -1   5  -3 88.9429 430.390  91
  -1   5  -3 121.195 197.857  67
  -1   5  -3 157.055 336.047  64
  -1   5  -3-39.9364 373.912  63
  -1   5  -3 39.6689 451.745  94
  -1   5  -3 200.926 184.198  98
  -1   5  -2 66931.5 2749.32  91
  -1   5  -2 65436.3 2165.89  67
  -1   5  -2 68117.3 2711.85  64
  -1   5  -2 68998.3 2732.04  63
  -1   5  -2 72084.7 2818.15  83
  -1   5  -2 62740.2 2143.25  16
  -1   5  -2 66193.2 2137.51  98
  -1   5  -2 73259.7 2753.11  94
  -1   5  -1 43644.4 1480.97  67
  -1   5  -1 43598.8 1493.26  66
  -1   5  -1 47815.0 2056.05  64
  -1   5  -1 42825.6 1484.09  16
  -1   5  -1 42116.8 1442.27  98
  -1   5  -1 48061.6 2036.35  94
  -1   5  -1 43084.2 1989.16  91
  -1   5  -1 47274.7 2070.93  83
  -1   5   0 7378.39 723.727  91
  -1   5   0 9006.56 825.177  83
  -1   5   0 7694.48 406.527  66
  -1   5   0 8302.21 795.695  94
  -1   5   0 6850.76 394.758  16
  -1   5   1-112.915 436.471  94
  -1   5   1 82.4147 166.765  66
  -1   5   1-349.347 465.932  86
  -1   5   1 52.5732 166.578   2
  -1   5   1 80.6086 174.575  16
  -1   5   1-142.918 389.549  91
  -1   5   2 156780. 5002.04   2
  -1   5   2 166671. 5012.70  68
  -1   5   2 157953. 4974.78  66
  -1   5   2 157256. 5029.71  16
  -1   5   2 168474. 5527.81   1
  -1   5   2 170255. 5595.71  94
  -1   5   2 150437. 5447.97  91
  -1   5   2 164369. 5586.00  86
  -1   5   3 41104.5 1867.46  94
  -1   5   3 38387.4 1390.59   2
  -1   5   3 39352.9 1381.41   9
  -1   5   3 41441.0 1886.51  86
  -1   5   3 42479.8 1884.26   1
  -1   5   3 37081.9 1750.65  91
  -1   5   4 5180.69 369.507  80
  -1   5   4 4906.37 627.941  84
  -1   5   4 4504.73 625.266  83
  -1   5   4 4415.87 360.091   2
  -1   5   4 4708.46 635.820   1
  -1   5   4 4751.70 351.377   9
  -1   5   4 5220.51 679.061  86
  -1   5   5 52737.2 2295.96  84
  -1   5   5 49396.0 2267.80  83
  -1   5   5 53348.1 1856.76   2
  -1   5   5 53727.7 1803.54  68
  -1   5   5 54570.1 1852.15   9
  -1   5   5 51220.9 2329.42  86
  -1   5   5 55044.2 2451.80   1
  -1   5   6 85324.7 3325.54  84
  -1   5   6 87366.8 2844.65   2
  -1   5   6 80876.5 2750.58  68
  -1   5   6 89891.3 2838.54   9
  -1   5   6 87260.5 3334.60  94
  -1   5   6 85762.4 3379.86  86
  -1   5   6 88685.9 3557.72   1
  -1   5   6 78833.0 3264.79  83
  -1   5   7 65177.2 2834.14  86
  -1   5   7 65247.0 2784.06  84
  -1   5   7 57573.0 2665.41  83
  -1   5   7 64008.0 2250.15  95
  -1   5   7 69669.5 2333.58   2
  -1   5   7 68976.4 2297.66  17
  -1   5   7 63986.0 2742.01  94
  -1   5   7 75227.9 3141.49   1
  -1   5   7 71804.9 2324.44   9
  -1   5   8 2087.78 624.288  86
  -1   5   8 2218.88 547.882  84
  -1   5   8 2476.36 532.635  83
  -1   5   8 2300.75 690.062   1
  -1   5   8 2189.46 359.459  69
  -1   5   8 2169.38 300.801  93
  -1   5   8 2273.28 355.999   9
  -1   5   8 1582.43 371.651   2
  -1   5   8 2415.10 392.792  17
  -1   5   8 2027.45 308.815  80
  -1   5   8 2113.40 328.397  95
  -1   5   8 1732.72 509.399  94
  -1   5   9 24039.7 1479.43  84
  -1   5   9 23105.1 1403.35  83
  -1   5   9 26394.7 982.101  93
  -1   5   9 24779.5 991.048  80
  -1   5   9 24500.1 1082.33   2
  -1   5   9 25404.0 1032.58  69
  -1   5   9 26762.5 1691.55   1
  -1   5   9 29095.1 1132.67   9
  -1   5   9 23498.2 1514.83  86
  -1   5   9 26148.3 1082.38  17
  -1   5   9 24818.7 1012.19  95
  -1   5   9 23929.0 1414.18  94
  -1   5  10 7112.12 462.953  79
  -1   5  10 7790.01 536.554   2
  -1   5  10 7373.87 464.811  95
  -1   5  10 7584.11 484.638  69
  -1   5  10 5953.10 787.499  86
  -1   5  10 7627.21 523.677   9
  -1   5  10 7708.67 533.837  17
  -1   5  10 5280.80 664.791  83
  -1   5  10 7447.21 930.495   1
  -1   5  10 5380.33 662.260  94
  -1   5  10 7811.88 423.552  93
  -1   5  11 25381.7 986.137  79
  -1   5  11 25536.1 992.898  95
  -1   5  11 26724.3 1020.07  69
  -1   5  11 26488.0 1056.55   9
  -1   5  11 24685.9 919.957  93
  -1   5  12 735.737 236.395  95
  -1   5  12 889.266 277.030   9
  -1   5  12 1315.07 259.620  79
  -1   5  13 431.510 213.635  79
  -1   5  13 576.435 223.947   9
  -1   5  13 613.488 232.006  16
  -1   5  13 623.577 203.171  95
  -1   5  13 839.255 219.647  92
  -1   5  14 2577.51 236.417  92
  -1   5  14 2871.42 260.137   2
  -1   5  14 2940.50 250.654   9
  -1   5  14 2614.50 244.381  16
  -1   5  15 3840.93 232.524   2
  -1   5  15 3745.69 203.803   9
  -1   5  15 3697.23 216.748  16
  -1   6 -16 1038.69 115.402  22
  -1   6 -16 1055.19 122.448  23
  -1   6 -15 8185.69 326.993   6
  -1   6 -15 9800.29 373.362  23
  -1   6 -15 7702.27 332.825  48
  -1   6 -15 9069.97 363.573  22
  -1   6 -14 2831.92 232.359  23
  -1   6 -14 2515.12 222.892  98
  -1   6 -14 2720.58 219.461  22
  -1   6 -13 5787.97 323.154  67
  -1   6 -13 5304.19 299.711  66
  -1   6 -13 5720.47 327.788  23
  -1   6 -12 13398.6 558.414   7
  -1   6 -12 14257.5 608.329  67
  -1   6 -12 14083.3 592.866  66
  -1   6 -12 14458.4 600.222  23
  -1   6 -11 12157.3 554.750   7
  -1   6 -11 13897.1 642.156  98
  -1   6 -11 14571.4 629.847  67
  -1   6 -11 13783.5 609.325  66
  -1   6 -11 13803.5 598.664  24
  -1   6 -10 9018.96 497.070  67
  -1   6 -10 9531.73 503.337  66
  -1   6 -10 7746.03 762.694  63
  -1   6 -10 8118.05 393.077   4
  -1   6 -10 8531.36 454.635  24
  -1   6 -10 7560.45 420.908   7
  -1   6 -10 10170.7 1126.35  91
  -1   6 -10 9488.03 525.171  98
  -1   6  -9 48145.4 1701.99  24
  -1   6  -9 48653.9 2545.01  91
  -1   6  -9 45816.0 1660.88   7
  -1   6  -9 52592.6 1765.78  67
  -1   6  -9 52562.2 1761.58  66
  -1   6  -9 47732.8 2188.74  63
  -1   6  -9 52691.2 1788.73  98
  -1   6  -9 50496.0 2552.68  83
  -1   6  -8 8336.18 483.930  24
  -1   6  -8 7873.56 434.236   7
  -1   6  -8 8659.40 1009.80  83
  -1   6  -8 8593.69 528.267  67
  -1   6  -8 8991.63 535.443  66
  -1   6  -8 8643.97 1028.74  91
  -1   6  -8 8619.97 816.356  63
  -1   6  -8 7378.06 394.981   8
  -1   6  -8 8835.71 515.796  98
  -1   6  -8 8779.92 910.273  94
  -1   6  -8 7617.71 728.046  52
  -1   6  -7 48427.7 2224.36  94
  -1   6  -7 41346.6 1522.76  21
  -1   6  -7 47217.6 1628.18  66
  -1   6  -7 47828.3 2136.23  63
  -1   6  -7 42244.7 1515.89   8
  -1   6  -7 43905.1 1590.57  98
  -1   6  -7 47235.6 1563.21   7
  -1   6  -7 48119.5 2408.10  83
  -1   6  -7 46917.2 2407.00  91
  -1   6  -7 49518.6 2092.11  52
  -1   6  -6 37611.0 2088.43  91
  -1   6  -6 37376.3 2079.57  83
  -1   6  -6 34823.6 1285.56  21
  -1   6  -6 36809.8 1355.72  66
  -1   6  -6 36662.5 1901.22  94
  -1   6  -6 36620.4 1843.22  63
  -1   6  -6 36541.4 1288.23   8
  -1   6  -6 35551.5 1319.89  98
  -1   6  -5 8747.67 901.958  94
  -1   6  -5 7840.65 446.616  21
  -1   6  -5 8090.42 939.362  91
  -1   6  -5 7644.56 480.809  67
  -1   6  -5 7626.94 493.385  66
  -1   6  -5 7978.86 827.072  63
  -1   6  -5 9581.18 999.192  83
  -1   6  -5 8562.12 450.551   8
  -1   6  -5 7389.89 448.978  98
  -1   6  -4 22120.2 1451.71  83
  -1   6  -4 18176.4 796.709  21
  -1   6  -4 18467.9 805.923  67
  -1   6  -4 18896.8 1261.09  63
  -1   6  -4 21605.1 817.633   8
  -1   6  -4 17496.0 764.074  98
  -1   6  -4 21134.5 1343.92  94
  -1   6  -4 19340.3 1367.98  91
  -1   6  -3 75793.1 3176.04  83
  -1   6  -3 76803.2 2463.33  21
  -1   6  -3 72220.4 2429.78  67
  -1   6  -3 75332.5 3074.04  63
  -1   6  -3 74987.0 3094.23  94
  -1   6  -3 79543.0 2465.69   8
  -1   6  -3 67390.4 2374.09  98
  -1   6  -3 71148.4 3087.76  91
  -1   6  -2 13776.0 1130.01  83
  -1   6  -2 14569.3 675.490  21
  -1   6  -2 13603.9 644.517  66
  -1   6  -2 12473.5 1048.09  63
  -1   6  -2 14645.2 1146.94  94
  -1   6  -2 13364.5 1057.36  91
  -1   6  -1 23124.2 1495.62  83
  -1   6  -1 27838.0 1558.66  94
  -1   6  -1 25304.6 985.334  66
  -1   6  -1 25870.4 1526.62  63
  -1   6  -1 24015.1 1428.06  91
  -1   6   0 9584.88 917.886  86
  -1   6   0 8297.96 465.608  66
  -1   6   0 8167.37 454.692  16
  -1   6   0 9427.69 907.046  94
  -1   6   0 8313.11 774.232  91
  -1   6   1 36844.1 1829.29  94
  -1   6   1 36403.5 1294.31  68
  -1   6   1 34857.3 1248.66  66
  -1   6   1 33676.7 1279.56  16
  -1   6   1 33487.2 1680.57  91
  -1   6   1 35699.8 1831.02  86
  -1   6   2 22355.9 1385.48  83
  -1   6   2 22577.9 1377.59  86
  -1   6   2 23472.9 924.913  16
  -1   6   2 22879.1 1380.12  94
  -1   6   2 19199.4 1195.07  91
  -1   6   3 3411.70 627.704  86
  -1   6   3 2743.03 297.298   2
  -1   6   3 3577.49 622.901  83
  -1   6   3 2696.13 577.502  84
  -1   6   3 3271.32 346.610  80
  -1   6   3 3236.80 339.921  16
  -1   6   3 3374.19 639.223  94
  -1   6   4 9922.16 879.522  83
  -1   6   4 10489.1 553.971  80
  -1   6   4 10031.4 525.483  68
  -1   6   4 10931.3 591.038  16
  -1   6   4 8909.71 841.252  84
  -1   6   4 10573.5 550.806   2
  -1   6   4 10070.3 918.611  86
  -1   6   5 11313.0 949.731  94
  -1   6   5 11352.0 919.618  83
  -1   6   5 10656.8 920.933  84
  -1   6   5 11943.9 996.123  86
  -1   6   5 11553.7 558.434  68
  -1   6   5 11500.0 644.073  16
  -1   6   5 13425.1 632.181   2
  -1   6   6 18965.8 1252.85  86
  -1   6   6 18845.8 802.582  95
  -1   6   6 17919.2 1189.10  84
  -1   6   6 15845.9 1099.48  83
  -1   6   6 17495.9 1186.82  94
  -1   6   6 20044.5 819.040   9
  -1   6   6 19814.8 882.007  16
  -1   6   6 19942.1 855.332   2
  -1   6   7 933.421 466.368  86
  -1   6   7 641.734 249.469  95
  -1   6   7 600.218 235.506  93
  -1   6   7 673.522 250.889  80
  -1   6   7 737.849 289.702  69
  -1   6   7 719.883 250.263   9
  -1   6   7 785.400 290.529   2
  -1   6   7 671.757 305.768  16
  -1   6   7 644.104 374.220  83
  -1   6   7 597.534 425.951  94
  -1   6   8 3086.40 313.855  80
  -1   6   8 3546.92 388.269   2
  -1   6   8 3592.70 352.920  69
  -1   6   8 3997.64 421.439  16
  -1   6   8 4274.82 366.065   9
  -1   6   8 3787.13 343.914  95
  -1   6   8 3133.54 307.217  93
  -1   6   8 3730.62 653.077  86
  -1   6   8 3109.23 547.472  94
  -1   6   9 7427.11 467.027   2
  -1   6   9 6083.25 409.431  69
  -1   6   9 7204.21 434.769   9
  -1   6   9 5466.88 382.161  95
  -1   6   9 6403.95 475.710  16
  -1   6   9 5529.00 617.418  94
  -1   6   9 5848.51 355.539  93
  -1   6  10 931.653 227.083  79
  -1   6  10 1227.22 248.589  69
  -1   6  10 1239.05 270.590   2
  -1   6  10 1107.49 230.975   9
  -1   6  10 896.645 215.001  95
  -1   6  10 1024.94 184.687  93
  -1   6  11 2716.37 279.610   2
  -1   6  11 2716.79 239.188   9
  -1   6  11 2418.11 247.704  79
  -1   6  12 2966.71 253.198   2
  -1   6  12 2875.06 256.310  16
  -1   6  12 2650.49 224.513  92
  -1   6  13 1120.41 156.219  16
  -1   7 -14 1147.73 113.311  23
  -1   7 -14 1047.32 102.691  22
  -1   7 -13 191.356 116.814  23
  -1   7 -13 225.962 110.820  22
  -1   7 -12 598.035 154.638  23
  -1   7 -12 723.819 145.037  22
  -1   7 -12 557.619 136.028  66
  -1   7 -11 10253.0 436.747  22
  -1   7 -11 10471.1 450.524  23
  -1   7 -11 10882.5 461.640  66
  -1   7 -11 10603.4 477.153  98
  -1   7 -11 9684.65 400.991   7
  -1   7 -10 13418.5 539.819   7
  -1   7 -10 15264.3 612.947  66
  -1   7 -10 14028.7 575.928  24
  -1   7 -10 15302.6 632.627  98
  -1   7  -9 565.858 196.224  24
  -1   7  -9 777.599 239.726  67
  -1   7  -9 735.014 224.188  66
  -1   7  -9 743.450 218.983  98
  -1   7  -9 755.003 162.792   7
  -1   7  -8 2449.97 260.907  24
  -1   7  -8 2498.88 316.123  66
  -1   7  -8 2272.84 260.848  98
  -1   7  -8 2362.35 219.791   7
  -1   7  -7 26507.7 992.647  24
  -1   7  -7 26795.0 1027.13  66
  -1   7  -7 25363.4 932.803   7
  -1   7  -7 24372.2 966.402  98
  -1   7  -6 17236.2 664.240   7
  -1   7  -6 14915.6 626.750  21
  -1   7  -6 17234.7 1159.33  94
  -1   7  -6 15601.1 718.808  66
  -1   7  -6 15452.1 618.675   8
  -1   7  -6 14954.0 652.437  98
  -1   7  -5 15921.5 1221.83  83
  -1   7  -5 14183.6 616.609  21
  -1   7  -5 15917.3 1144.14  94
  -1   7  -5 14350.2 602.322   8
  -1   7  -4 167.594 478.328  83
  -1   7  -4 436.991 188.605  21
  -1   7  -4 585.728 191.702   8
  -1   7  -4 435.177 236.346  66
  -1   7  -4 503.151 378.695  63
  -1   7  -4 478.459 489.236  94
  -1   7  -4 760.552 471.664  91
  -1   7  -3 4253.07 696.725  86
  -1   7  -3 5536.07 381.078  21
  -1   7  -3 5020.01 371.133  66
  -1   7  -3 4361.32 642.604  63
  -1   7  -3 5665.00 362.117   8
  -1   7  -3 4957.72 724.640  94
  -1   7  -3 4649.06 676.325  91
  -1   7  -3 5513.68 765.333  83
  -1   7  -2 29639.6 1121.88  21
  -1   7  -2 27966.1 1612.64  94
  -1   7  -2 29434.9 1126.44  68
  -1   7  -2 28011.8 1089.61  66
  -1   7  -2 27757.7 1591.82  63
  -1   7  -2 31023.4 1116.98   8
  -1   7  -2 28908.8 1617.70  86
  -1   7  -2 27285.3 1541.93  91
  -1   7  -1 7124.53 794.415  63
  -1   7  -1 8033.11 476.294  21
  -1   7  -1 6983.99 456.405  68
  -1   7  -1 6584.88 413.517  66
  -1   7  -1 8290.12 841.680  94
  -1   7  -1 7435.91 462.779   8
  -1   7  -1 8106.06 835.485  86
  -1   7   0 4292.12 657.968  86
  -1   7   0 3015.19 596.472  83
  -1   7   0 4211.94 383.356  21
  -1   7   0 3881.04 332.662  68
  -1   7   0 2231.02 562.137  63
  -1   7   0 3417.89 629.593  94
  -1   7   1 3283.99 594.088  86
  -1   7   1 3046.09 570.363  83
  -1   7   1 3939.16 360.411  80
  -1   7   1 3296.31 373.788  21
  -1   7   1 3374.29 313.148  68
  -1   7   1 3246.23 617.557  63
  -1   7   1 3591.79 647.894  94
  -1   7   2 1560.12 525.587  86
  -1   7   2 2354.95 310.343  80
  -1   7   2 2426.27 265.164  16
  -1   7   2 1385.58 488.251  94
  -1   7   3 26482.5 1025.02  80
  -1   7   3 28275.7 1050.83  16
  -1   7   3 26121.9 1471.66  86
  -1   7   4 8720.25 468.358  80
  -1   7   4 8397.23 450.283  68
  -1   7   4 9825.66 509.333  16
  -1   7   4 8487.28 770.554  94
  -1   7   5 2306.49 279.360  69
  -1   7   5 2228.29 285.127  16
  -1   7   5 2519.80 272.370  95
  -1   7   5 2012.20 464.425  94
  -1   7   6 2354.44 261.615  95
  -1   7   6 2258.74 281.135  69
  -1   7   6 1845.24 245.377  93
  -1   7   7 3548.64 284.272  95
  -1   7   7 3446.26 280.911  80
  -1   7   7 4542.15 317.152  69
  -1   7   7 4564.23 359.137  16
  -1   7   7 3514.90 270.055  93
  -1   7   8 7519.27 373.782  79
  -1   7   8 7585.44 395.103  69
  -1   7   8 8531.48 439.233  16
  -1   7   8 7524.07 353.029  93
  -1   7   9 1982.76 209.161  69
  -1   7   9 2211.45 232.041  16
  -1   7  10 4379.66 255.823  16
  -1   7  11 1920.32 134.724  21
  -1   8 -11 10144.7 356.882  23
  -1   8 -11 9908.51 346.569  22
  -1   8 -10 3846.54 206.369  23
  -1   8 -10 4058.80 195.181  22
  -1   8  -9 9708.08 379.168  22
  -1   8  -9 9256.46 373.432  24
  -1   8  -8 10777.6 453.521  66
  -1   8  -8 9702.12 410.467  24
  -1   8  -7 3064.72 226.771  24
  -1   8  -7 3753.46 245.091  68
  -1   8  -6 5354.80 314.132  68
  -1   8  -6 4642.48 301.877  66
  -1   8  -6 4682.45 238.364   7
  -1   8  -6 5002.92 298.653  24
  -1   8  -5 6740.54 372.251  68
  -1   8  -5 6767.96 368.062  66
  -1   8  -5 6725.80 309.511   7
  -1   8  -5 7134.39 373.473  24
  -1   8  -4 357.882 199.817  80
  -1   8  -4 134.486 125.266  21
  -1   8  -4 271.742 177.917  68
  -1   8  -4 284.181 139.164   7
  -1   8  -3 748.039 212.886  80
  -1   8  -3 649.238 156.547  21
  -1   8  -3 596.834 196.545  68
  -1   8  -3 820.093 164.217   7
  -1   8  -2 5284.17 311.026  21
  -1   8  -2 4805.54 328.751  80
  -1   8  -2 4840.54 323.359  68
  -1   8  -2 4955.42 274.084   8
  -1   8  -1 8587.21 421.709  21
  -1   8  -1 7360.65 408.288  68
  -1   8  -1 8637.57 391.616   8
  -1   8  -1 8229.60 424.462  80
  -1   8   0 464.969 196.279  80
  -1   8   0 618.123 195.787  21
  -1   8   0 260.176 173.945  68
  -1   8   0 460.308 169.166   8
  -1   8   1 15439.5 661.162  80
  -1   8   1 17583.6 700.195  21
  -1   8   1 17617.6 673.804   8
  -1   8   2 12260.8 557.442  80
  -1   8   2 13750.2 603.292  21
  -1   8   3 402.766 167.350  80
  -1   8   3 525.001 202.224  21
  -1   8   3 681.991 188.909  69
  -1   8   3 538.401 185.385   8
  -1   8   4 1193.17 216.651  21
  -1   8   4 1353.23 195.326  69
  -1   8   4 1199.94 175.553  93
  -1   8   4 1489.37 209.253   8
  -1   8   5 1915.55 234.214  21
  -1   8   5 1633.87 202.558   8
  -1   8   6 6272.70 304.778   8
  -1   9  -3 8832.03 330.218  24
  -1   9  -2 251.943 90.3272  24
   0  -8  -5 5996.44 251.940  32
   0  -8  -5 6862.76 261.973  55
   0  -8  -4 1297.50 141.847  32
   0  -8  -4 1106.21 133.879  55
   0  -8  -3 4385.58 247.425  32
   0  -8  -3 4475.90 248.682  55
   0  -8  -3 4222.80 209.625  28
   0  -8  -2 2716.02 193.477  65
   0  -8  -2 2792.01 210.977  32
   0  -8  -2 2764.42 208.377  55
   0  -8  -2 3117.58 204.519  28
   0  -8  -1 10717.9 435.124  65
   0  -8  -1 10974.8 452.694  32
   0  -8  -1 10151.6 440.188  55
   0  -8   0 14706.4 574.322  65
   0  -8   0 14850.4 586.886  32
   0  -8   0 15983.5 586.532  28
   0  -8   1 1710.07 177.868  65
   0  -8   1 1981.13 208.054  32
   0  -8   1 1777.06 206.163  28
   0  -8   2 29063.0 1014.85  65
   0  -8   2 28612.2 1020.61  32
   0  -8   2 31643.6 1023.92  28
   0  -8   3 4726.24 267.866  65
   0  -8   3 4636.06 278.108  32
   0  -8   3 4741.13 238.637  31
   0  -8   3 5121.57 288.968  28
   0  -8   4 1954.93 178.342  65
   0  -8   4 1581.72 180.918  32
   0  -8   4 1648.08 151.503  31
   0  -8   4 2094.30 209.121  28
   0  -8   5 4275.90 239.100  56
   0  -8   5 4690.49 259.174  29
   0  -8   5 3968.60 246.917  32
   0  -8   5 4397.23 227.965  31
   0  -8   5 4905.36 266.225  28
   0  -8   6 10203.1 415.744  56
   0  -8   6 11363.1 437.042  29
   0  -8   7 3026.48 195.296  26
   0  -8   7 2782.08 190.177  56
   0  -8   7 2866.16 203.968  29
   0  -8   8 882.114 139.656  29
   0  -8   8 801.496 123.923  26
   0  -8   8 777.100 129.174  56
   0  -8   8 835.513 133.155  28
   0  -8   9 4027.18 196.047  28
   0  -8   9 4036.59 197.979  56
   0  -8  10 2522.48 138.892  56
   0  -8  10 2767.77 140.515  29
   0  -7  -9 13853.1 509.484  32
   0  -7  -9 13934.9 498.278  55
   0  -7  -8 1607.62 200.156  32
   0  -7  -8 2279.21 206.819  55
   0  -7  -7 6739.02 340.345  65
   0  -7  -7 7718.70 402.495  32
   0  -7  -7 7949.76 395.694  55
   0  -7  -6 3062.85 299.184  32
   0  -7  -6 3391.96 308.723  55
   0  -7  -5 367.535 178.044  65
   0  -7  -5 267.178 221.211  32
   0  -7  -5 469.542 236.465  55
   0  -7  -4 3854.48 292.492  65
   0  -7  -4 3512.87 350.438  32
   0  -7  -4 4201.14 365.952  55
   0  -7  -3 19557.9 799.398  65
   0  -7  -3 22025.7 880.280  32
   0  -7  -3 20836.8 871.371  55
   0  -7  -2 13166.3 593.089  65
   0  -7  -2 12736.9 636.174  32
   0  -7  -2 12933.4 643.740  55
   0  -7  -1 10053.6 506.663  65
   0  -7  -1 9498.21 545.025  32
   0  -7  -1 10265.2 551.459  55
   0  -7   0 11305.0 552.603  65
   0  -7   0 11271.8 588.134  32
   0  -7   0 11305.5 488.906  12
   0  -7   1 4959.68 309.435  12
   0  -7   1 5836.54 391.506  65
   0  -7   1 4940.33 399.785  32
   0  -7   2 5669.02 328.252  12
   0  -7   2 5491.82 396.628  65
   0  -7   2 5543.49 401.907  32
   0  -7   3 11336.9 517.077  12
   0  -7   3 11304.0 575.964  32
   0  -7   3 12396.4 554.346  31
   0  -7   3 11097.0 555.909  55
   0  -7   4 19591.6 774.518  12
   0  -7   4 21299.5 836.127  32
   0  -7   4 22407.6 819.597  31
   0  -7   4 19464.9 801.116  55
   0  -7   5 20663.7 831.115  32
   0  -7   5 20978.7 807.462  31
   0  -7   5 22275.8 839.185  28
   0  -7   5 19788.8 777.688  12
   0  -7   6 474.388 215.106  32
   0  -7   6 274.269 191.328  31
   0  -7   7 5900.02 364.247  32
   0  -7   7 6560.88 358.137  31
   0  -7   7 5939.74 367.650  88
   0  -7   8 3694.98 289.147  28
   0  -7   8 3851.00 277.771  31
   0  -7   8 3862.65 286.433  88
   0  -7   9 2099.67 219.800  88
   0  -7   9 2232.26 233.235  28
   0  -7   9 1947.21 236.410  56
   0  -7   9 2679.57 240.808  26
   0  -7  10 9516.31 419.072  26
   0  -7  10 10300.2 431.357  29
   0  -7  10 9509.40 417.485  28
   0  -7  10 8795.99 413.802  56
   0  -7  10 8877.19 422.500  88
   0  -7  11 4203.36 246.948  28
   0  -7  11 4223.12 253.467  29
   0  -7  11 4754.59 252.328  26
   0  -7  11 3900.34 238.401  88
   0  -7  12 3163.90 205.508  56
   0  -7  12 3264.36 200.693  29
   0  -7  12 3011.42 187.153  26
   0  -7  12 3167.38 190.113  28
   0  -7  13 4580.88 224.784  57
   0  -7  13 4708.71 219.535  56
   0  -6 -12 6225.08 294.920  32
   0  -6 -11 4647.31 309.400  32
   0  -6 -10 9091.06 450.290  34
   0  -6 -10 9170.20 490.634  32
   0  -6  -9 445.233 177.963  65
   0  -6  -9 293.643 234.744  34
   0  -6  -9 457.839 182.526  33
   0  -6  -9 543.525 277.063  32
   0  -6  -8 2642.35 272.643  65
   0  -6  -8 2843.21 344.698  34
   0  -6  -8 2701.94 272.399  33
   0  -6  -8 3121.56 364.138  32
   0  -6  -7 4132.30 330.023  65
   0  -6  -7 3970.41 415.234  34
   0  -6  -7 3512.32 320.615  33
   0  -6  -7 4500.23 429.753  32
   0  -6  -7 3746.36 303.738  13
   0  -6  -6 6036.32 408.004  33
   0  -6  -6 7258.96 540.273  32
   0  -6  -6 7737.18 432.891  13
   0  -6  -5 18992.9 764.388  97
   0  -6  -5 17401.7 775.504  33
   0  -6  -5 20224.0 904.052  32
   0  -6  -5 19423.2 794.162  13
   0  -6  -4 36494.9 1337.43  65
   0  -6  -4 37851.2 1446.13  34
   0  -6  -4 35693.2 1325.04  33
   0  -6  -4 38262.5 1445.08  32
   0  -6  -3 23019.6 926.710  65
   0  -6  -3 21425.3 1005.99  34
   0  -6  -3 23037.8 1013.26  32
   0  -6  -2 21519.0 888.893  65
   0  -6  -2 20035.2 944.909  34
   0  -6  -2 21889.4 951.005  32
   0  -6  -1 36890.4 1335.08  65
   0  -6  -1 33598.4 1366.52  34
   0  -6  -1 35722.1 1373.42  32
   0  -6   0 8650.50 471.153  12
   0  -6   0 9337.43 563.850  32
   0  -6   1 4350.34 339.303  12
   0  -6   1 4276.15 408.021  32
   0  -6   2 6395.95 400.327  12
   0  -6   2 6333.09 470.465  32
   0  -6   3 14773.6 953.068  62
   0  -6   3 15037.7 718.047  32
   0  -6   3 15163.1 703.284  55
   0  -6   3 15123.6 658.990  12
   0  -6   4 37760.8 1300.64  12
   0  -6   4 35413.8 1309.77  96
   0  -6   4 35336.7 1348.12  88
   0  -6   4 34440.0 1677.98  62
   0  -6   4 38165.7 1368.38  32
   0  -6   4 36287.7 1329.32  55
   0  -6   5 29366.2 1077.18  12
   0  -6   5 28664.4 1481.49  62
   0  -6   5 29029.0 1093.37  96
   0  -6   5 29726.9 1135.48  32
   0  -6   5 31049.9 1117.19  31
   0  -6   5 28132.2 1092.01  55
   0  -6   5 28336.5 1133.42  88
   0  -6   6 42401.4 1465.06  12
   0  -6   6 39800.7 1900.40  62
   0  -6   6 42419.2 1548.74  88
   0  -6   6 41162.0 1509.24  32
   0  -6   6 44284.7 1502.21  31
   0  -6   7 37187.6 1373.09  88
   0  -6   7 35726.9 1717.06  62
   0  -6   7 35936.8 1325.19  32
   0  -6   7 37242.2 1311.81  31
   0  -6   7 37638.4 1317.78  28
   0  -6   7 35231.0 1282.12  12
   0  -6   8 3316.69 542.149  62
   0  -6   8 4593.16 381.634  88
   0  -6   8 4463.07 359.674  32
   0  -6   8 4475.61 314.077  58
   0  -6   8 3984.45 339.681  31
   0  -6   8 4742.76 360.982  28
   0  -6   9 1306.00 265.278  88
   0  -6   9 914.835 379.361  62
   0  -6   9 821.049 208.104  58
   0  -6   9 786.042 239.109  31
   0  -6   9 1035.16 258.087  28
   0  -6  10 5176.65 330.799  58
   0  -6  10 5935.96 363.817  28
   0  -6  10 5679.74 362.676  26
   0  -6  10 5478.63 402.224  88
   0  -6  10 5823.19 369.557  29
   0  -6  11 5269.59 338.128  26
   0  -6  11 5102.43 325.432  28
   0  -6  11 4780.82 329.347  56
   0  -6  11 4577.91 305.871  58
   0  -6  11 4754.54 327.111  29
   0  -6  11 4462.05 347.605  88
   0  -6  12 2010.39 211.329  11
   0  -6  12 2514.21 241.979  29
   0  -6  12 2062.88 230.451  58
   0  -6  12 2274.90 239.061  56
   0  -6  12 2104.31 228.857  28
   0  -6  12 2426.70 241.804  26
   0  -6  12 2078.78 236.975  88
   0  -6  13 21809.6 783.968  28
   0  -6  13 23040.3 809.078  58
   0  -6  13 22773.5 798.415  56
   0  -6  13 23051.9 796.986  29
   0  -6  13 23188.2 799.621  26
   0  -6  14 12196.7 472.008  56
   0  -6  14 12303.6 453.122  28
   0  -6  15 3400.94 210.044  57
   0  -6  15 3805.95 187.668  56
   0  -6  16 3180.64 157.069  57
   0  -5 -14 1601.51 144.805  33
   0  -5 -14 2293.90 204.631  32
   0  -5 -13 176.882 202.653  48
   0  -5 -13-31.2182 133.223  34
   0  -5 -12 45.4193 240.751  48
   0  -5 -12-67.1469 186.457  34
   0  -5 -11 3476.35 377.347  54
   0  -5 -11 4165.33 351.922  34
   0  -5 -11 3711.11 348.761  59
   0  -5 -11 4010.70 390.511  48
   0  -5 -10 5726.25 370.816  65
   0  -5 -10 5592.71 441.242  34
   0  -5 -10 5977.38 455.742  59
   0  -5 -10 5937.60 358.584  13
   0  -5 -10 5817.10 470.226  48
   0  -5  -9 13946.8 643.751  65
   0  -5  -9 14030.6 726.647  34
   0  -5  -9 14074.3 731.472  59
   0  -5  -9 15267.6 758.286  48
   0  -5  -9 14736.7 646.382  13
   0  -5  -8 6515.43 432.815  65
   0  -5  -8 7290.44 538.405  34
   0  -5  -8 7228.27 537.738  59
   0  -5  -8 6421.47 439.494  97
   0  -5  -8 6851.15 435.727  13
   0  -5  -8 7120.35 549.328  48
   0  -5  -7 18951.6 814.346  97
   0  -5  -7 19791.9 844.020  13
   0  -5  -7 19283.7 814.677  65
   0  -5  -7 20315.2 950.597  34
   0  -5  -7 20728.3 943.436  59
   0  -5  -7 19242.2 909.213  48
   0  -5  -6 31908.2 1280.75  54
   0  -5  -6 33451.1 1327.04  34
   0  -5  -6 32804.4 1301.21  59
   0  -5  -6 31434.9 1169.60  97
   0  -5  -6 30916.1 1259.06  48
   0  -5  -6 31198.5 1204.33  13
   0  -5  -5 34247.5 1244.04  97
   0  -5  -5 34489.0 1355.00  54
   0  -5  -5 34255.1 1282.56  13
   0  -5  -5 35762.7 1342.53  48
   0  -5  -4 78449.8 2657.25  48
   0  -5  -4 77872.9 2605.99  65
   0  -5  -4 82280.3 2720.81  32
   0  -5  -4 78916.9 2616.54  13
   0  -5  -4 79481.4 2569.42  97
   0  -5  -3 68232.0 2372.67  48
   0  -5  -3 75602.9 2361.46  65
   0  -5  -3 72675.8 2438.76  34
   0  -5  -3 65453.2 2344.21  33
   0  -5  -3 72902.9 2435.86  32
   0  -5  -3 69531.0 2287.13  97
   0  -5  -3 70429.5 2337.64  13
   0  -5  -2 54968.2 1885.93  13
   0  -5  -2 56574.2 1838.94  97
   0  -5  -2 57105.2 1986.61  34
   0  -5  -2 52831.4 1890.07  33
   0  -5  -2 58493.6 1983.95  32
   0  -5  -1 14942.0 722.871  34
   0  -5  -1 15216.4 720.900  32
   0  -5  -1 14256.7 641.362  13
   0  -5   0 8169.32 416.080  14
   0  -5   0 8623.49 516.248  34
   0  -5   0 9396.55 673.333  62
   0  -5   0 10356.1 540.293  32
   0  -5   0 7770.02 445.666  96
   0  -5   0 8918.40 459.451  88
   0  -5   1 15911.6 692.402  96
   0  -5   1 16378.7 743.164  34
   0  -5   1 16365.5 944.005  62
   0  -5   1 17653.7 755.449  32
   0  -5   1 16024.1 647.212  14
   0  -5   2 22056.8 860.571  96
   0  -5   2 20736.5 1120.42  62
   0  -5   2 20031.7 793.115  14
   0  -5   3 32976.9 1144.58  12
   0  -5   3 30425.9 1468.67  62
   0  -5   3 31984.0 1186.61  32
   0  -5   3 31267.8 1168.77  55
   0  -5   3 30026.9 1143.33  96
   0  -5   4 52774.5 2251.24  62
   0  -5   4 56166.3 1930.47  32
   0  -5   4 55708.9 1905.12  55
   0  -5   4 59127.2 1890.91  12
   0  -5   4 55781.2 1939.72  88
   0  -5   4 56088.6 1903.50  96
   0  -5   5 17195.0 717.876  96
   0  -5   5 16811.5 701.696  12
   0  -5   5 15926.0 1016.90  62
   0  -5   5 16392.7 732.848  32
   0  -5   5 17261.4 716.794  55
   0  -5   5 17900.9 765.441  88
   0  -5   6 13630.3 597.117  12
   0  -5   6 13645.8 948.574  62
   0  -5   6 13056.5 627.441  32
   0  -5   6 14464.4 631.332  31
   0  -5   6 12660.4 597.882  55
   0  -5   6 14616.7 625.275  96
   0  -5   7 6643.04 385.036  12
   0  -5   7 5717.16 651.208  62
   0  -5   7 5884.20 405.669  32
   0  -5   7 6850.83 409.478  31
   0  -5   7 6382.88 481.568  90
   0  -5   8 14067.4 607.104  12
   0  -5   8 14725.6 630.786  28
   0  -5   8 14313.5 1006.31  62
   0  -5   8 12776.5 623.425  32
   0  -5   8 13742.0 603.212  58
   0  -5   8 13848.3 627.161  31
   0  -5   8 15247.2 735.228  90
   0  -5   9 24850.7 908.712  28
   0  -5   9 21812.0 1292.86  62
   0  -5   9 26707.1 1049.74  90
   0  -5   9 20307.5 902.274  32
   0  -5   9 23913.2 904.299  58
   0  -5   9 23663.1 916.502  31
   0  -5  10 33477.2 1281.00  31
   0  -5  10 34881.1 1266.97  58
   0  -5  10 36811.4 1274.96  29
   0  -5  10 35852.5 1262.63  28
   0  -5  11 1260.71 251.767  26
   0  -5  11 1098.53 230.743  15
   0  -5  11 963.702 224.980  11
   0  -5  11 1019.27 253.816  29
   0  -5  11 757.367 392.708  62
   0  -5  11 1046.74 245.532  28
   0  -5  11 957.904 244.762  58
   0  -5  11 1093.34 323.502  90
   0  -5  12 30075.7 1092.60  11
   0  -5  12 30307.5 1093.40  29
   0  -5  12 31279.5 1095.73  28
   0  -5  12 30535.0 1521.10  62
   0  -5  12 30705.3 1116.19  58
   0  -5  12 29938.5 1093.65  15
   0  -5  12 30438.4 1093.16  56
   0  -5  12 30738.6 1104.77  26
   0  -5  12 31222.2 1212.67  90
   0  -5  13 10273.9 491.782  11
   0  -5  13 9535.51 502.989  58
   0  -5  13 10298.0 492.096  15
   0  -5  13 10480.9 474.737  56
   0  -5  13 9955.13 471.038  29
   0  -5  13 10079.0 461.796  28
   0  -5  13 10503.3 492.451  26
   0  -5  13 9237.41 540.722  90
   0  -5  14 611.087 188.969  56
   0  -5  14 647.313 217.929  11
   0  -5  14 560.347 221.178  15
   0  -5  14 715.044 246.410  58
   0  -5  14 736.675 183.568  28
   0  -5  15 6605.75 307.448  56
   0  -5  15 5244.83 317.100  88
   0  -5  16 2464.35 200.342  57
   0  -5  16 2268.99 192.801  25
   0  -5  17 1855.50 131.831  57
   0  -5  17 1850.75 149.503  25
   0  -4 -16 2566.22 179.177  48
   0  -4 -15 1648.86 232.599  48
   0  -4 -15 1482.79 216.641  54
   0  -4 -14 1021.24 260.754  48
   0  -4 -14 867.245 171.587  34
   0  -4 -14 1140.20 205.448  59
   0  -4 -14 1152.68 255.444  54
   0  -4 -13 7784.52 489.681  48
   0  -4 -13 7080.98 418.014  34
   0  -4 -13 7830.46 445.197  59
   0  -4 -13 7743.61 484.118  54
   0  -4 -12 817.757 326.446  54
   0  -4 -12 794.038 326.752  48
   0  -4 -12 752.777 263.573  34
   0  -4 -12 942.419 282.092  59
   0  -4 -11 12406.1 691.955  54
   0  -4 -11 13188.7 668.767  34
   0  -4 -11 12464.2 666.622  59
   0  -4 -11 12339.0 687.072  48
   0  -4 -10 47309.3 1775.04  54
   0  -4 -10 47778.5 1666.91  65
   0  -4 -10 48915.8 1769.75  34
   0  -4 -10 47991.2 1757.97  59
   0  -4 -10 48204.1 1699.37  97
   0  -4 -10 49779.9 1775.16  48
   0  -4  -9 46576.2 1699.10  97
   0  -4  -9 48601.9 1693.75  65
   0  -4  -9 51303.3 1798.86  59
   0  -4  -9 50428.8 1795.25  48
   0  -4  -8 1668.92 270.872  65
   0  -4  -8 1562.93 385.609  48
   0  -4  -8 1369.24 362.491  59
   0  -4  -8 1369.37 292.763  97
   0  -4  -7 2879.39 402.886  48
   0  -4  -7 2883.52 310.830  97
   0  -4  -7 2892.38 298.955  65
   0  -4  -7 3361.76 415.993  59
   0  -4  -6 60036.8 2099.71  48
   0  -4  -6 61911.6 2045.47  65
   0  -4  -6 64613.2 2148.10  59
   0  -4  -6 59786.0 2029.04  97
   0  -4  -5 83361.5 2736.47  59
   0  -4  -5 80599.7 2632.10  97
   0  -4  -5 79602.5 2718.94  54
   0  -4  -5 84765.3 2708.43  48
   0  -4  -4 19086.6 740.899  13
   0  -4  -4 17299.0 702.031  97
   0  -4  -4 17715.6 781.644  54
   0  -4  -4 17562.1 762.594  48
   0  -4  -3 5954.36 370.403  13
   0  -4  -3 6431.07 427.138  34
   0  -4  -3 5781.15 407.829  54
   0  -4  -3 6283.23 354.461  97
   0  -4  -3 6339.04 413.913  48
   0  -4  -2 28850.2 1085.57  34
   0  -4  -2 29156.6 1227.35  62
   0  -4  -2 28599.8 1079.49  59
   0  -4  -2 27570.2 1057.64  54
   0  -4  -2 28057.1 1048.66  48
   0  -4  -1 13428.4 572.970  96
   0  -4  -1 14887.4 787.007  62
   0  -4  -1 13113.5 571.081  88
   0  -4   0 96289.5 3102.79  96
   0  -4   0 103397. 3395.45  62
   0  -4   0 98121.3 3115.68  88
   0  -4   1 95200.5 3186.09  62
   0  -4   1 89386.4 2885.46  96
   0  -4   2 112723. 3844.92  62
   0  -4   2 112538. 3545.52  96
   0  -4   3 16292.0 647.811  96
   0  -4   3 16129.1 907.399  62
   0  -4   3 14585.6 914.374  87
   0  -4   4 3513.65 470.145  62
   0  -4   4 3191.17 268.180  96
   0  -4   4 2761.55 301.975  90
   0  -4   4 3033.73 461.468  87
   0  -4   5 50877.4 1661.68  12
   0  -4   5 53909.6 1687.22  96
   0  -4   5 48329.4 1999.79  62
   0  -4   5 48759.9 1682.06  32
   0  -4   5 48460.3 1662.27  55
   0  -4   5 50095.7 1725.65  90
   0  -4   5 48945.1 2080.91  87
   0  -4   6 60766.9 1869.97  96
   0  -4   6 55441.5 2218.90  62
   0  -4   6 58063.3 2335.83  87
   0  -4   6 52035.0 1853.04  32
   0  -4   6 53138.9 1832.83  55
   0  -4   6 59432.0 1926.77  90
   0  -4   6 56683.7 1839.15  12
   0  -4   7 24933.5 926.530  12
   0  -4   7 27742.7 1031.02  90
   0  -4   7 27167.2 958.051  96
   0  -4   7 25597.6 1307.57  62
   0  -4   7 28651.3 966.204  31
   0  -4   7 27894.6 1421.31  87
   0  -4   8 4187.18 566.634  62
   0  -4   8 4420.87 308.919  28
   0  -4   8 3396.97 298.832  32
   0  -4   8 4177.78 305.256  58
   0  -4   8 4514.03 313.447  31
   0  -4   8 4030.87 286.279  15
   0  -4   8 5230.75 408.083  90
   0  -4   8 5212.20 635.763  87
   0  -4   9 3340.63 362.036  90
   0  -4   9 3735.94 302.991  58
   0  -4   9 3548.18 292.860  31
   0  -4   9 2890.59 264.311  15
   0  -4   9 3013.50 269.280  28
   0  -4   9 3776.30 598.818  87
   0  -4  10 13526.6 676.515  90
   0  -4  10 12186.2 543.506  29
   0  -4  10 11960.3 532.888  28
   0  -4  10 12033.4 551.836  26
   0  -4  10 11621.6 875.350  62
   0  -4  10 11382.6 554.570  31
   0  -4  10 11698.8 562.994  58
   0  -4  10 11253.3 531.910  15
   0  -4  10 13223.2 1035.72  87
   0  -4  11 23903.8 927.470  11
   0  -4  11 24293.9 1333.26  62
   0  -4  11 25672.2 946.111  26
   0  -4  11 23967.2 949.383  58
   0  -4  11 23580.0 932.685  15
   0  -4  11 27845.1 1085.70  90
   0  -4  11 25340.4 933.482  29
   0  -4  11 24538.9 923.491  28
   0  -4  11 28337.7 1596.29  87
   0  -4  11 24255.0 950.377  49
   0  -4  12 21331.7 837.322  26
   0  -4  12 21185.0 817.382  29
   0  -4  12 23174.6 962.218  90
   0  -4  12 20723.4 816.101  28
   0  -4  12 18708.2 1169.46  62
   0  -4  12 21672.9 866.546  49
   0  -4  12 20927.5 861.681  58
   0  -4  12 21534.4 854.794  15
   0  -4  12 21396.7 822.799  56
   0  -4  12 21997.4 849.404  11
   0  -4  13 1478.45 226.764  29
   0  -4  13 1251.89 274.532  11
   0  -4  13 1375.75 254.972  26
   0  -4  13 1352.45 233.399  56
   0  -4  13 1674.82 311.424  90
   0  -4  13 1582.60 268.018  18
   0  -4  13 1141.75 412.198  62
   0  -4  13 1353.25 306.100  58
   0  -4  13 1247.83 233.212  28
   0  -4  13 1471.12 290.130  15
   0  -4  13 1423.21 285.741  49
   0  -4  14 13236.6 617.375  49
   0  -4  14 13583.5 610.457  11
   0  -4  14 12672.7 592.030  18
   0  -4  14 13152.9 635.558  58
   0  -4  14 12344.9 610.015  15
   0  -4  14 12609.3 538.085  56
   0  -4  14 12224.7 534.837  28
   0  -4  14 12483.8 635.201  90
   0  -4  15 6066.12 409.917  11
   0  -4  15 5984.01 381.534  18
   0  -4  15 6351.41 443.017  58
   0  -4  15 6403.60 425.280  15
   0  -4  15 5783.53 312.621  56
   0  -4  15 5210.07 386.927  90
   0  -4  15 6206.56 406.149  49
   0  -4  16 9716.37 427.091  57
   0  -4  16 9724.16 494.058  49
   0  -4  17 6285.09 327.331  25
   0  -4  17 5937.58 277.998  57
   0  -4  18 12736.0 485.842  25
   0  -3 -17 1472.18 187.068  48
   0  -3 -17 1717.77 159.426  54
   0  -3 -16 17681.8 681.806  48
   0  -3 -16 15697.1 651.979  54
   0  -3 -15 11021.4 550.434  48
   0  -3 -15 9776.19 467.691  59
   0  -3 -15 10875.8 541.203  54
   0  -3 -14 7564.16 432.570  34
   0  -3 -14 8771.11 474.353  59
   0  -3 -14 9106.89 527.084  54
   0  -3 -14 8840.09 535.401  48
   0  -3 -13 1939.43 360.508  48
   0  -3 -13 1589.32 344.944  54
   0  -3 -13 2018.82 320.449  59
   0  -3 -12 895.899 350.156  48
   0  -3 -12 1079.37 351.044  54
   0  -3 -12 1057.11 317.305  59
   0  -3 -11 17899.2 842.593  48
   0  -3 -11 19279.9 910.867  38
   0  -3 -11 18066.4 831.071  59
   0  -3 -11 17849.1 846.469  54
   0  -3 -10 2226.57 374.641  48
   0  -3 -10 1692.86 398.043  38
   0  -3 -10 2245.48 270.928  65
   0  -3 -10 2015.02 346.467  59
   0  -3 -10 1536.64 296.202  44
   0  -3 -10 2352.69 364.837  54
   0  -3  -9 3271.24 329.824  97
   0  -3  -9 2945.29 414.510  38
   0  -3  -9 3221.17 290.986  65
   0  -3  -9 2721.32 360.318  59
   0  -3  -9 3082.12 386.053  48
   0  -3  -9 2648.30 373.117  54
   0  -3  -9 3044.50 323.576  44
   0  -3  -8 12763.6 643.368  48
   0  -3  -8 11694.4 646.705  54
   0  -3  -8 13506.9 701.410  38
   0  -3  -8 12907.6 571.309  65
   0  -3  -8 13706.7 665.520  59
   0  -3  -8 12420.3 590.100  97
   0  -3  -8 13963.8 613.658  44
   0  -3  -7 30209.0 1137.72  48
   0  -3  -7 30950.5 1093.63  97
   0  -3  -7 30193.1 1100.20  44
   0  -3  -7 29054.3 1132.52   5
   0  -3  -7 30389.0 1081.28  65
   0  -3  -7 32578.3 1177.57  59
   0  -3  -6 6308.17 396.098   5
   0  -3  -6 6347.67 346.563  65
   0  -3  -6 6013.98 356.588  97
   0  -3  -5 2499.31 364.619  51
   0  -3  -5 2279.79 250.762  97
   0  -3  -5 2327.78 239.433  65
   0  -3  -5 2307.89 417.423  85
   0  -3  -4 12285.8 641.455  53
   0  -3  -4 11477.2 721.028  85
   0  -3  -4 11712.9 687.273  51
   0  -3  -3 38635.1 1466.28  53
   0  -3  -3 36812.5 1511.10  85
   0  -3  -3 40208.1 1528.44  51
   0  -3  -2 33287.9 1330.83  85
   0  -3  -2 32669.5 1129.38  96
   0  -3  -2 34659.1 1322.33  53
   0  -3  -2 35056.3 1369.79  51
   0  -3  -1 27377.5 986.594  96
   0  -3  -1 29334.5 1170.62  53
   0  -3  -1 28242.2 1134.22  85
   0  -3  -1 31185.9 1225.09  51
   0  -3  -1 29394.6 984.749  88
   0  -3   0 134826. 4174.53  96
   0  -3   0 138972. 4304.54  85
   0  -3   0 127187. 4377.88  77
   0  -3   0 136813. 4387.67  53
   0  -3   0 136182. 4183.81  88
   0  -3   1 454081. 14138.7  85
   0  -3   1 464629. 14256.1  77
   0  -3   1 471184. 14066.2  96
   0  -3   2 211422. 6590.67  96
   0  -3   2 217834. 6759.31  77
   0  -3   2 217881. 6611.60  90
   0  -3   2 225623. 6853.05  62
   0  -3   2 211425. 6882.35  87
   0  -3   3 61348.3 1978.38  90
   0  -3   3 60552.9 1953.54  96
   0  -3   3 58590.3 2244.63  87
   0  -3   3 61883.7 2084.69  77
   0  -3   3 63408.9 2214.28  62
   0  -3   4 52846.4 1807.03  77
   0  -3   4 52755.6 1705.62  96
   0  -3   4 53430.6 1978.90  62
   0  -3   4 52865.7 1737.86  90
   0  -3   4 51861.9 2026.74  87
   0  -3   5 131031. 4046.98  96
   0  -3   5 131689. 4085.50  90
   0  -3   5 127386. 4345.14  62
   0  -3   5 129495. 4424.78  87
   0  -3   6 1225.36 396.718  87
   0  -3   6 1512.18 379.236  62
   0  -3   6 1007.69 239.641  90
   0  -3   6 1311.87 191.734  96
   0  -3   7 30607.2 1091.62  78
   0  -3   7 32539.8 1089.64  96
   0  -3   7 31220.7 1138.92  90
   0  -3   7 29636.2 1488.57  87
   0  -3   8 9524.11 449.704  78
   0  -3   8 10340.1 743.221  62
   0  -3   8 8879.96 419.490  31
   0  -3   8 9647.02 502.359  90
   0  -3   8 9581.85 788.691  87
   0  -3   9 10123.2 465.883  15
   0  -3   9 9867.40 470.166  18
   0  -3   9 10194.1 755.447  62
   0  -3   9 11289.3 494.055  58
   0  -3   9 9957.14 445.604  28
   0  -3   9 11886.9 570.604  90
   0  -3   9 10012.1 481.187  49
   0  -3   9 10592.7 453.153  29
   0  -3   9 12211.7 921.504  87
   0  -3  10 12408.7 988.657  87
   0  -3  10 12797.8 628.126  90
   0  -3  10 11599.5 533.728  18
   0  -3  10 11612.7 817.868  62
   0  -3  10 11931.5 538.497  58
   0  -3  10 11526.4 526.828  15
   0  -3  10 11572.1 502.735  29
   0  -3  10 11898.0 546.555  49
   0  -3  10 11687.6 500.776  28
   0  -3  10 11586.8 516.784  26
   0  -3  11 15652.6 633.094  29
   0  -3  11 17197.7 701.627  18
   0  -3  11 17780.8 1020.05  62
   0  -3  11 16523.1 689.512  58
   0  -3  11 15467.5 636.294  56
   0  -3  11 15762.6 674.978  15
   0  -3  11 15728.2 662.186  11
   0  -3  11 15315.3 634.361  28
   0  -3  11 17222.5 769.972  90
   0  -3  11 15843.1 657.011  26
   0  -3  11 15854.6 696.214  49
   0  -3  11 18829.6 1258.71  87
   0  -3  12 33428.1 1177.23  11
   0  -3  12 31492.3 1121.61  29
   0  -3  12 34037.8 1206.70  18
   0  -3  12 31685.5 1514.41  62
   0  -3  12 33853.7 1198.09  58
   0  -3  12 32378.3 1187.67  15
   0  -3  12 31653.7 1119.80  56
   0  -3  12 34244.3 1833.73  87
   0  -3  12 31447.5 1146.91  26
   0  -3  12 33369.6 1261.17  90
   0  -3  12 29667.2 1116.30  28
   0  -3  12 32862.6 1207.22  49
   0  -3  13 21839.8 884.145  11
   0  -3  13 21190.1 821.150  28
   0  -3  13 22802.6 915.400  18
   0  -3  13 21192.4 1181.59  62
   0  -3  13 22851.1 918.773  58
   0  -3  13 23295.5 910.747  15
   0  -3  13 21533.7 813.652  56
   0  -3  13 20920.7 855.169  26
   0  -3  13 21405.6 944.060  90
   0  -3  13 23237.5 924.609  49
   0  -3  13 22587.6 1472.68  87
   0  -3  14 25091.9 1064.72  90
   0  -3  14 28148.5 1068.39  18
   0  -3  14 26798.1 1074.29  58
   0  -3  14 28692.7 1072.13  15
   0  -3  14 25473.6 940.936  56
   0  -3  14 28317.2 1053.27  11
   0  -3  14 25876.0 1123.06  95
   0  -3  14 28276.5 1078.80  49
   0  -3  15 17739.3 831.035  90
   0  -3  15 22053.3 868.674  18
   0  -3  15 22168.0 886.824  15
   0  -3  15 18282.1 746.827  57
   0  -3  15 20253.7 910.125  95
   0  -3  15 20743.6 858.260  11
   0  -3  15 20749.2 872.103  49
   0  -3  16 16873.0 710.739  18
   0  -3  16 16744.4 731.078  49
   0  -3  17 1874.46 256.449  25
   0  -3  17 1832.54 297.779  49
   0  -3  18 13389.3 514.000  30
   0  -3  18 15007.4 574.543  25
   0  -3  19 800.575 154.283  25
   0  -2 -18 1797.25 200.376  48
   0  -2 -17 4067.59 288.126  54
   0  -2 -17 4561.06 329.234  48
   0  -2 -16 16716.1 719.601  54
   0  -2 -16 18042.7 746.315  48
   0  -2 -15 7985.45 486.863  54
   0  -2 -15 6848.63 420.950  59
   0  -2 -15 8090.57 502.499  48
   0  -2 -14 10032.1 578.063  48
   0  -2 -14 10120.4 539.073  59
   0  -2 -14 10450.5 580.115  54
   0  -2 -14 9366.42 865.567  89
   0  -2 -13 23720.4 988.477  48
   0  -2 -13 21533.0 1327.83  89
   0  -2 -13 22465.1 973.997  54
   0  -2 -13 25805.4 1026.01  38
   0  -2 -13 23252.0 960.486  59
   0  -2 -12 49187.2 1780.68  48
   0  -2 -12 46227.0 2176.58  89
   0  -2 -12 49729.2 1718.96  44
   0  -2 -12 52827.9 1827.17  38
   0  -2 -12 52239.7 1788.90  60
   0  -2 -12 50978.1 1773.66  59
   0  -2 -11 11724.4 624.801  48
   0  -2 -11 11824.7 563.528  44
   0  -2 -11 11228.3 876.216  89
   0  -2 -11 13275.7 677.331  38
   0  -2 -11 12576.4 634.869  60
   0  -2 -11 11914.8 608.816  59
   0  -2 -10 3794.75 335.683  97
   0  -2 -10 3397.21 297.781  44
   0  -2 -10 3104.87 504.620  89
   0  -2 -10 3848.47 399.019  38
   0  -2 -10 4143.65 369.453  48
   0  -2 -10 3503.91 278.244  65
   0  -2 -10 3899.11 358.486  60
   0  -2 -10 3904.14 341.353  59
   0  -2 -10 3538.20 634.599  52
   0  -2  -9 25765.3 965.300  48
   0  -2  -9 27020.8 1450.13  52
   0  -2  -9 24420.1 914.243  44
   0  -2  -9 28233.6 1027.17  38
   0  -2  -9 24385.4 900.703  65
   0  -2  -9 24458.9 968.501  60
   0  -2  -9 23433.1 947.944  59
   0  -2  -9 24192.4 924.964  97
   0  -2  -9 25709.4 1238.47  89
   0  -2  -8 10853.8 731.821  89
   0  -2  -8 11645.5 495.522  65
   0  -2  -8 12786.1 934.228  52
   0  -2  -7 74294.5 2317.34  76
   0  -2  -7 73015.5 2335.05  65
   0  -2  -7 77361.9 2894.38  52
   0  -2  -7 70591.4 2593.14  89
   0  -2  -6 20987.9 948.585  89
   0  -2  -6 20796.7 1036.63  85
   0  -2  -6 20792.2 1130.18  52
   0  -2  -6 20990.2 719.038  76
   0  -2  -6 20214.2 737.175  65
   0  -2  -6 20588.1 759.911  97
   0  -2  -6 22080.0 932.161  51
   0  -2  -5 545888. 17113.4  85
   0  -2  -5 555620. 16814.3  65
   0  -2  -5 563557. 16825.9  97
   0  -2  -5 560070. 16933.3  53
   0  -2  -5 555354. 16999.0  51
   0  -2  -5 545943. 16986.8  89
   0  -2  -4 92333.2 2721.52  65
   0  -2  -4 84496.0 2823.95  53
   0  -2  -4 82950.8 2865.65  51
   0  -2  -4 84492.5 2945.28  85
   0  -2  -4 84186.9 2826.83  89
   0  -2  -3 250993. 7952.58  85
   0  -2  -3 254410. 7819.85  89
   0  -2  -3 254207. 7898.47  51
   0  -2  -3 258786. 7863.65  53
   0  -2  -2 145404. 4558.58  85
   0  -2  -2 138278. 4387.32  96
   0  -2  -2 147770. 4425.48  89
   0  -2  -2 147596. 4517.97  53
   0  -2  -2 144373. 4544.39  51
   0  -2  -1 95984.1 3011.24  53
   0  -2  -1 92466.6 3043.88  77
   0  -2  -1 91178.3 2989.52  85
   0  -2  -1 94148.8 2877.21  96
   0  -2  -1 99424.5 3042.20  51
   0  -2  -1 91483.5 2854.62  89
   0  -2   0 328012. 10042.5  77
   0  -2   0 338503. 10062.7  51
   0  -2   0 324397. 9899.12  96
   0  -2   0 332386. 10043.9  53
   0  -2   0 322620. 9974.68  85
   0  -2   1 152567. 4658.37  96
   0  -2   1 155742. 4779.57  77
   0  -2   1 149587. 4691.93  85
   0  -2   1 154127. 4856.42  87
   0  -2   1 152857. 4671.12  90
   0  -2   1 155833. 4814.30  53
   0  -2   2 76880.3 2357.50  85
   0  -2   2 75736.9 2374.29  90
   0  -2   2 78324.1 2457.33  77
   0  -2   2 75878.5 2566.13  87
   0  -2   2 75058.0 2357.14  96
   0  -2   3 472112. 14394.4  85
   0  -2   3 475336. 14646.4  87
   0  -2   3 483719. 14498.3  77
   0  -2   3 521851. 14634.8  62
   0  -2   3 481909. 14416.3  96
   0  -2   3 466401. 14430.4  90
   0  -2   4 30945.7 1040.29  90
   0  -2   4 30557.1 1080.46  77
   0  -2   4 30614.4 1256.71  87
   0  -2   4 33622.0 1232.25  62
   0  -2   4 31013.1 1014.46  96
   0  -2   5 26079.4 938.858  77
   0  -2   5 26228.9 1143.52  87
   0  -2   5 26531.0 871.136  96
   0  -2   5 23718.9 887.884   1
   0  -2   5 27411.5 905.959  90
   0  -2   6 59157.9 1859.21  78
   0  -2   6 58726.2 1940.72  77
   0  -2   6 61700.6 1890.65  90
   0  -2   6 58919.2 1855.43  96
   0  -2   6 60474.7 2206.74  87
   0  -2   7 421788. 12722.8  84
   0  -2   7 395531. 12162.4  78
   0  -2   7 414815. 12443.4  62
   0  -2   7 396569. 12153.3  96
   0  -2   7 405822. 12195.4  90
   0  -2   7 397833. 12586.8  87
   0  -2   8 139347. 4826.67  84
   0  -2   8 134571. 4219.21  78
   0  -2   8 140056. 4265.90  90
   0  -2   8 129968. 4477.97  62
   0  -2   8 134339. 4714.65  87
   0  -2   9 33215.9 1689.55  84
   0  -2   9 28378.5 1306.14  62
   0  -2   9 30260.2 1558.11  87
   0  -2   9 31113.5 1129.11  90
   0  -2  10 44657.3 2148.42  84
   0  -2  10 40516.2 1411.06  11
   0  -2  10 40606.2 1409.70  26
   0  -2  10 42602.8 1449.03  18
   0  -2  10 44729.5 1745.16  62
   0  -2  10 43050.1 1456.52  49
   0  -2  10 42812.5 1434.76  58
   0  -2  10 42436.5 1431.08  15
   0  -2  10 43770.8 1495.60  90
   0  -2  10 44602.5 2064.23  87
   0  -2  11 13897.7 1166.44  84
   0  -2  11 13662.5 594.014  11
   0  -2  11 13453.8 559.461  28
   0  -2  11 14564.2 634.757  18
   0  -2  11 13345.0 823.577  62
   0  -2  11 14125.8 621.150  58
   0  -2  11 13704.5 548.098  56
   0  -2  11 14600.6 618.452  15
   0  -2  11 14034.3 556.331  29
   0  -2  11 14749.7 1108.43  87
   0  -2  11 14358.1 658.045  90
   0  -2  11 13784.3 586.230  26
   0  -2  11 14816.2 639.223  49
   0  -2  12 38857.9 1352.82  11
   0  -2  12 36066.4 1337.44  20
   0  -2  12 36949.7 1296.87  28
   0  -2  12 38412.9 1379.31  18
   0  -2  12 34578.1 1605.59  62
   0  -2  12 39702.7 1380.20  58
   0  -2  12 38867.4 1369.51  15
   0  -2  12 38565.5 1996.99  87
   0  -2  12 39540.1 1407.56  90
   0  -2  12 40286.2 1397.81  49
   0  -2  13 31932.0 1133.13  11
   0  -2  13 27619.1 1102.41  20
   0  -2  13 31024.4 1157.64  18
   0  -2  13 27457.3 1355.80  62
   0  -2  13 32028.9 1174.67  58
   0  -2  13 30402.6 1149.12  15
   0  -2  13 28814.2 1155.80  90
   0  -2  13 25831.7 1673.15  87
   0  -2  13 29386.8 1158.26  49
   0  -2  14 5194.59 427.579  11
   0  -2  14 4826.28 390.705  20
   0  -2  14 5494.06 443.701  18
   0  -2  14 5208.24 472.089  58
   0  -2  14 5758.45 455.869  15
   0  -2  14 4445.28 305.401  57
   0  -2  14 4569.58 392.609  90
   0  -2  14 5416.40 451.526  49
   0  -2  14 3964.34 708.243  87
   0  -2  15 6785.44 515.588  49
   0  -2  15 6762.73 441.974  20
   0  -2  15 7840.95 508.347  18
   0  -2  15 7782.42 528.504  15
   0  -2  15 5905.52 432.510  90
   0  -2  15 5647.26 801.888  87
   0  -2  16 6763.22 492.067  95
   0  -2  16 6562.78 428.988  20
   0  -2  16 8158.82 503.143  18
   0  -2  16 6609.42 439.329  25
   0  -2  16 8765.69 531.283  49
   0  -2  17 3338.71 350.868  95
   0  -2  17 3652.56 310.269  20
   0  -2  17 3421.96 362.160  18
   0  -2  17 4361.37 400.076  49
   0  -2  17 3110.84 325.369  25
   0  -2  18 296.022 181.520  20
   0  -2  18 197.298 215.367  25
   0  -2  19 3553.67 256.151  25
   0  -1 -19 3331.07 205.092  48
   0  -1 -18 7885.36 392.832  48
   0  -1 -18 8114.51 401.663   5
   0  -1 -18 7092.50 347.625  54
   0  -1 -17 2810.11 303.080  48
   0  -1 -17 2112.97 265.660  54
   0  -1 -16 5490.70 421.304  48
   0  -1 -16 5250.03 380.445  54
   0  -1 -15 4704.03 414.260  48
   0  -1 -15 3871.43 669.395  89
   0  -1 -15 4218.96 336.301  59
   0  -1 -15 4471.17 714.851  52
   0  -1 -14 9826.02 565.646  48
   0  -1 -14 10400.3 959.333  52
   0  -1 -14 9866.58 494.250  44
   0  -1 -14 10068.9 524.109  59
   0  -1 -14 9639.63 916.486  89
   0  -1 -13 2686.32 611.899  52
   0  -1 -13 3064.57 361.870  48
   0  -1 -13 2989.88 298.135  44
   0  -1 -13 2869.30 345.950  38
   0  -1 -13 2880.39 310.111  59
   0  -1 -13 2675.85 599.145  89
   0  -1 -13 3065.31 354.853   6
   0  -1 -12 3244.68 330.597   6
   0  -1 -12 3101.16 352.415  48
   0  -1 -12 3889.49 367.084  38
   0  -1 -12 3097.71 588.325  52
   0  -1 -12 2527.29 576.566  89
   0  -1 -11 24056.8 972.100  48
   0  -1 -11 27921.6 1020.95  38
   0  -1 -11 25181.2 978.339  60
   0  -1 -11 28609.8 1478.00  52
   0  -1 -11 28512.9 1420.49  89
   0  -1 -11 25784.5 988.475   6
   0  -1 -10 9600.39 798.605  52
   0  -1 -10 9434.83 432.504  82
   0  -1 -10 10023.7 497.124  48
   0  -1 -10 11648.4 543.564  38
   0  -1 -10 10129.8 490.688   6
   0  -1 -10 11231.3 818.596  89
   0  -1  -9 6339.01 313.472  82
   0  -1  -9 6733.95 355.698  76
   0  -1  -9 6289.75 326.027  74
   0  -1  -9 6895.57 368.912  97
   0  -1  -9 6639.99 604.455  89
   0  -1  -9 7403.02 661.621  52
   0  -1  -8 143233. 4348.83  97
   0  -1  -8 135915. 4309.73  82
   0  -1  -8 144779. 4342.07  76
   0  -1  -8 138882. 4317.36  74
   0  -1  -8 139724. 4340.00  65
   0  -1  -8 153945. 4798.75  52
   0  -1  -8 141905. 4506.65  51
   0  -1  -8 137601. 4669.51  89
   0  -1  -7 77509.7 2440.77  76
   0  -1  -7 75818.2 2422.64  74
   0  -1  -7 80328.4 2443.43  65
   0  -1  -7 76804.7 2451.32  97
   0  -1  -7 78392.1 2543.02  53
   0  -1  -7 83769.8 2825.63  52
   0  -1  -7 79754.2 2598.33  51
   0  -1  -7 77842.9 2720.51  89
   0  -1  -6 51638.9 1616.09  76
   0  -1  -6 48877.9 1597.13  74
   0  -1  -6 52553.5 1720.25  53
   0  -1  -6 51673.7 1630.95  97
   0  -1  -6 55287.7 1942.82  52
   0  -1  -6 52014.1 1761.54  51
   0  -1  -6 50495.8 1840.00  89
   0  -1  -5 42733.5 1542.49  85
   0  -1  -5 40689.9 1378.72  53
   0  -1  -5 39756.6 1408.15  51
   0  -1  -5 41454.1 1542.88  52
   0  -1  -5 40764.7 1478.01  89
   0  -1  -4 112646. 3596.20  89
   0  -1  -4 114368. 3554.21  51
   0  -1  -4 112245. 3659.64  85
   0  -1  -4 112526. 3523.39  53
   0  -1  -4 113657. 3656.62  52
   0  -1  -3 879697. 25868.7  85
   0  -1  -3 849890. 25770.0  51
   0  -1  -3 868289. 25793.0  89
   0  -1  -3 835133. 25746.3  53
   0  -1  -2 678583. 20196.0  85
   0  -1  -2 676184. 20137.4  89
   0  -1  -2 659611. 20127.4  53
   0  -1  -2 658150. 20145.5  51
   0  -1  -1 55062.0 1768.31  85
   0  -1  -1 55042.9 1711.16  89
   0  -1  -1 52624.7 1785.84  77
   0  -1  -1 56691.7 1751.91  53
   0  -1  -1 55101.0 1762.01  51
   0  -1   0 170840. 5151.16  53
   0  -1   0 171195. 5153.27  77
   0  -1   0 163575. 5116.66  85
   0  -1   0 167041. 5175.23  87
   0  -1   0 169804. 5157.80  51
   0  -1   1 242358. 7218.53  77
   0  -1   1 234461. 7177.46  85
   0  -1   1 240448. 7273.94  87
   0  -1   2 247377. 7414.15  77
   0  -1   2 237195. 7507.16  64
   0  -1   2 244360. 7492.53  87
   0  -1   3 597812. 17850.0  84
   0  -1   3 587531. 17668.6  90
   0  -1   3 573793. 17808.4  87
   0  -1   4 256460. 7653.26  84
   0  -1   4 245591. 7422.76  90
   0  -1   4 233039. 7595.15  87
   0  -1   5 22825.8 876.121  62
   0  -1   5 23337.6 1025.10  84
   0  -1   5 21768.4 746.789  90
   0  -1   5 21069.0 938.205  87
   0  -1   5 20544.5 824.775   1
   0  -1   6 240187. 7414.91  86
   0  -1   6 238575. 7113.48  90
   0  -1   6 245404. 7465.78  84
   0  -1   6 236595. 7113.64  70
   0  -1   6 234070. 7259.72  62
   0  -1   6 211804. 7225.36   1
   0  -1   6 221371. 7380.42  87
   0  -1   7 35587.3 1453.29  86
   0  -1   7 33499.9 1476.02  84
   0  -1   7 27269.8 1211.05   1
   0  -1   7 32171.5 1090.45  70
   0  -1   7 29955.4 1214.59  62
   0  -1   7 33072.2 1089.27  92
   0  -1   7 31671.6 1085.93  90
   0  -1   7 31779.7 1388.97  87
   0  -1   8 135998. 4647.59   1
   0  -1   8 154809. 4885.28  86
   0  -1   8 147440. 4432.06  92
   0  -1   8 144553. 4909.87  84
   0  -1   8 140637. 4436.54  70
   0  -1   8 138181. 4593.26  62
   0  -1   8 137460. 4811.54  87
   0  -1   8 142784. 4433.51  90
   0  -1   9 8975.77 810.898  84
   0  -1   9 7810.88 705.200  87
   0  -1   9 9386.07 797.731  86
   0  -1   9 9121.38 458.764  70
   0  -1   9 8940.19 575.402  62
   0  -1   9 9125.13 631.666   1
   0  -1   9 9572.16 466.082  92
   0  -1   9 9064.25 457.348  90
   0  -1  10 21774.1 1291.02  84
   0  -1  10 20392.6 1238.32  86
   0  -1  10 20107.4 811.498  70
   0  -1  10 20808.1 977.432  62
   0  -1  10 19105.1 777.292  18
   0  -1  10 21440.7 790.988  58
   0  -1  10 20514.8 778.030  15
   0  -1  10 19720.4 787.183  49
   0  -1  10 21072.7 818.289  92
   0  -1  10 20431.8 807.883  90
   0  -1  10 20241.8 1061.75   1
   0  -1  10 19060.2 1198.04  87
   0  -1  11 11937.8 1013.91  84
   0  -1  11 12724.9 600.793  70
   0  -1  11 11667.4 596.004  92
   0  -1  11 12204.5 574.010  18
   0  -1  11 12222.9 732.087  62
   0  -1  11 11936.6 819.162   1
   0  -1  11 13206.8 593.874  58
   0  -1  11 13261.9 579.088  15
   0  -1  11 11382.7 957.695  87
   0  -1  11 11588.0 574.606  90
   0  -1  11 11830.3 575.818  49
   0  -1  12 60468.2 2817.85  84
   0  -1  12 61116.3 2145.95  90
   0  -1  12 66269.0 2173.74  70
   0  -1  12 59577.0 2120.86  20
   0  -1  12 62893.5 2145.25  18
   0  -1  12 61251.1 2350.67  62
   0  -1  12 68959.1 2179.82  58
   0  -1  12 68692.1 2159.26  15
   0  -1  12 60352.9 2775.28  87
   0  -1  13 33068.5 1297.90  90
   0  -1  13 35866.5 1331.09  70
   0  -1  13 33968.8 1292.82  20
   0  -1  13 35993.7 1324.36  18
   0  -1  13 39564.5 1351.01  15
   0  -1  13 32880.2 1951.62  84
   0  -1  13 33959.5 1915.00  87
   0  -1  14 37284.8 1390.61  70
   0  -1  14 35932.0 1366.22  20
   0  -1  14 40364.9 1404.65  18
   0  -1  14 37537.4 2094.30  84
   0  -1  14 33839.9 1979.24  87
   0  -1  14 35156.7 1359.83  90
   0  -1  15 18644.6 1471.88  84
   0  -1  15 20488.0 886.925  20
   0  -1  15 21660.7 909.872  18
   0  -1  15 19334.4 850.260  90
   0  -1  15 23431.3 1518.28  87
   0  -1  16 3619.22 370.743  20
   0  -1  17 5679.17 403.922  20
   0  -1  18 3279.47 309.139  95
   0  -1  18 3603.77 305.095  20
   0  -1  19 723.870 178.443  20
   0  -1  20 630.641 91.7775  10
   0  -1  20 746.729 115.475  25
   0   0 -19 2385.19 223.090   5
   0   0 -19 2745.21 227.406  48
   0   0 -18 1142.98 186.641  54
   0   0 -18 985.916 225.713   5
   0   0 -18 1218.71 239.104  48
   0   0 -17 6467.48 414.808  48
   0   0 -16 10383.0 541.170  48
   0   0 -16 8398.06 894.241  89
   0   0 -15 21076.0 872.740  48
   0   0 -15 19300.8 1338.72  89
   0   0 -15 21106.6 1342.45  52
   0   0 -15 21348.3 867.136   6
   0   0 -14 20007.4 825.554  48
   0   0 -14 18948.5 805.908   6
   0   0 -14 18436.2 1240.09  52
   0   0 -14 21047.5 1332.99  89
   0   0 -14 18849.2 780.247  82
   0   0 -13 6070.40 422.145  48
   0   0 -13 6680.83 416.141   6
   0   0 -13 6300.58 388.464  82
   0   0 -13 6634.75 776.906  89
   0   0 -13 6275.51 722.668  52
   0   0 -12 53232.0 1833.32  48
   0   0 -12 57110.9 2351.25  52
   0   0 -12 55239.5 1834.21   6
   0   0 -12 56603.7 2399.61  89
   0   0 -12 54836.3 1823.52  82
   0   0 -11 10658.8 501.891  48
   0   0 -11 11159.1 502.162   6
   0   0 -11 11241.2 499.230  82
   0   0 -11 11358.0 863.367  89
   0   0 -11 10687.5 808.144  52
   0   0 -10 26274.5 982.482  48
   0   0 -10 30452.2 1424.63  89
   0   0 -10 28089.1 987.426  82
   0   0 -10 29340.8 998.106  74
   0   0 -10 29748.7 1365.46  52
   0   0  -9 613.875 166.825  82
   0   0  -9 663.393 191.468  76
   0   0  -9 577.817 180.911  74
   0   0  -9 437.183 394.886  89
   0   0  -9 599.112 329.479  52
   0   0  -9 434.014 200.133  51
   0   0  -8 117672. 3957.88  89
   0   0  -8 112161. 3608.36  82
   0   0  -8 121236. 3632.23  76
   0   0  -8 116879. 3616.87  74
   0   0  -8 122290. 3959.23  64
   0   0  -8 117591. 3919.91  52
   0   0  -7 5516.10 272.757  82
   0   0  -7 5630.26 282.974  97
   0   0  -7 5955.71 294.648  76
   0   0  -7 6041.69 461.944  64
   0   0  -7 5588.19 282.860  74
   0   0  -7 5282.94 496.643  89
   0   0  -7 5314.45 446.947  52
   0   0  -6 53950.6 1688.65  74
   0   0  -6 54823.2 1908.19  64
   0   0  -6 49339.0 1888.73  63
   0   0  -6 55298.9 1902.13  52
   0   0  -6 55155.5 1924.58  89
   0   0  -5 17308.6 579.708  74
   0   0  -5 17044.3 741.824  64
   0   0  -5 16580.9 732.977  63
   0   0  -5 17042.1 731.239  52
   0   0  -5 17237.8 760.808  89
   0   0  -4 582.234 253.779  85
   0   0  -4 586.792 274.420  89
   0   0  -3 1153.97 200.483  89
   0   0  -2 27235.0 916.571  89
   0   0  -1 201084. 6089.35  85
   0   0   1 187500. 5774.70  86
   0   0   1 187979. 5769.09  83
   0   0   1 196799. 5774.27  64
   0   0   2 23966.9 807.494  84
   0   0   2 24476.6 790.259  64
   0   0   2 22095.0 754.800  62
   0   0   2 22449.4 786.229   1
   0   0   3 1198.05 228.176  84
   0   0   3 963.372 166.726  64
   0   0   3 1206.10 155.577  62
   0   0   3 913.777 191.195   1
   0   0   3 1183.24 172.930  94
   0   0   4 438.672 299.316  84
   0   0   4 407.499 202.842  64
   0   0   4 273.195 191.608  62
   0   0   4 116.144 239.513   1
   0   0   4 567.365 221.127  94
   0   0   5 15468.8 780.766  84
   0   0   5 16632.3 752.919   1
   0   0   5 17258.1 656.807  62
   0   0   5 16669.0 693.217  94
   0   0   5 15819.4 572.705  95
   0   0   6 49955.6 1883.06  84
   0   0   6 49613.3 1611.20  95
   0   0   6 48838.6 1831.89   1
   0   0   6 50154.1 1606.74  90
   0   0   6 53858.3 1724.09  62
   0   0   6 51101.8 1776.72  94
   0   0   7 5804.38 525.546  86
   0   0   7 5216.58 497.392   1
   0   0   7 5509.90 554.745  84
   0   0   7 5277.69 310.539  79
   0   0   7 6141.04 402.700  62
   0   0   7 5227.62 310.207  95
   0   0   7 6413.30 461.523  94
   0   0   7 5258.73 292.677  90
   0   0   8 115847. 3908.00  86
   0   0   8 117470. 3567.15  79
   0   0   8 124250. 3735.76  62
   0   0   8 115450. 3545.03  92
   0   0   8 110758. 3956.68  84
   0   0   8 106173. 3551.16  95
   0   0   8 111874. 3550.61  90
   0   0   8 116536. 3906.40   1
   0   0   9 717.165 397.914  86
   0   0   9 519.391 425.648  84
   0   0   9 483.738 348.953  87
   0   0   9 623.427 237.242  79
   0   0   9 609.369 273.539  62
   0   0   9 419.740 344.537   1
   0   0   9 473.050 206.881  92
   0   0   9 440.340 192.078  90
   0   0  10 28704.3 1483.38  86
   0   0  10 29382.2 1538.53  84
   0   0  10 29107.2 1083.49  79
   0   0  10 28737.0 1055.38  90
   0   0  10 29466.7 1055.29  49
   0   0  10 27688.8 1056.28  70
   0   0  10 29461.8 1231.83  62
   0   0  10 26707.3 1037.73  18
   0   0  10 30102.7 1065.95  15
   0   0  10 32171.1 1067.08  11
   0   0  10 28160.1 1426.16   1
   0   0  10 29765.7 1056.00  92
   0   0  10 27187.6 1462.82  87
   0   0  11 11533.0 936.119  86
   0   0  11 12676.7 570.477  11
   0   0  11 12004.2 560.903  92
   0   0  11 11356.8 582.963  79
   0   0  11 11453.4 555.122  70
   0   0  11 9958.63 530.254  20
   0   0  11 10833.9 911.078  87
   0   0  11 10538.4 541.589  18
   0   0  11 12655.6 906.415   1
   0   0  11 12954.5 590.450  15
   0   0  11 11576.1 981.049  84
   0   0  11 10498.9 535.942  90
   0   0  11 11251.6 555.328  49
   0   0  12 54171.4 2565.86  84
   0   0  12 59861.8 1952.65  92
   0   0  12 56951.7 1939.98  70
   0   0  12 52082.0 1925.06  20
   0   0  12 56974.5 2524.22  86
   0   0  12 56565.9 2454.48   1
   0   0  12 57308.3 1935.61  18
   0   0  12 51086.6 2492.35  87
   0   0  12 55818.2 1928.97  90
   0   0  12 60879.3 1954.74  49
   0   0  13 6963.12 905.967  84
   0   0  13 6627.77 849.619  86
   0   0  13 7464.92 495.236  49
   0   0  13 7265.34 465.749  70
   0   0  13 6789.86 440.187  90
   0   0  13 6660.91 475.897  20
   0   0  13 8580.86 828.030   1
   0   0  13 7725.75 490.537  18
   0   0  13 6874.53 488.104  92
   0   0  13 6505.08 446.167  25
   0   0  13 6472.12 832.991  87
   0   0  14 20835.4 1466.94  84
   0   0  14 19039.1 854.317  70
   0   0  14 20160.6 880.958  20
   0   0  14 20517.6 883.753  18
   0   0  14 18606.9 837.644  90
   0   0  14 20977.9 901.856  92
   0   0  14 21772.0 901.193  49
   0   0  14 19001.0 853.467  25
   0   0  14 21348.6 1462.64  87
   0   0  15 18058.4 1432.45  84
   0   0  15 19729.0 875.791  70
   0   0  15 20924.7 910.294  20
   0   0  15 22727.8 923.675  18
   0   0  15 23424.1 929.232  49
   0   0  15 20970.7 884.484  25
   0   0  15 18716.4 1399.93  87
   0   0  15 18937.6 848.138  90
   0   0  16 10329.0 590.644  20
   0   0  16 9775.09 548.520  70
   0   0  16 11456.5 600.021  18
   0   0  16 11689.3 617.456  49
   0   0  16 10293.7 570.610  25
   0   0  17 6843.89 442.638  20
   0   0  17 5895.66 383.629  17
   0   0  17 7031.48 442.307  25
   0   0  18 1174.53 248.501  20
   0   0  18 1166.81 198.538  17
   0   0  18 1022.08 242.314  25
   0   0  19 2668.55 230.050  20
   0   0  19 2229.90 195.969   9
   0   0  19 2652.93 223.291  25
   0   1 -19 908.987 182.258   5
   0   1 -19 763.113 183.262  48
   0   1 -18 3821.39 302.422  48
   0   1 -18 3475.11 291.579   5
   0   1 -17 5388.24 348.517   6
   0   1 -17 5694.14 390.286  48
   0   1 -16 3653.66 323.077   6
   0   1 -16 3506.58 340.896  48
   0   1 -15 21783.2 875.855  48
   0   1 -15 22430.3 863.469   6
   0   1 -15 22102.9 1325.27  52
   0   1 -14 37700.3 1322.08  48
   0   1 -14 37275.3 1305.34   6
   0   1 -14 34716.4 1277.48  81
   0   1 -14 38072.5 1820.52  52
   0   1 -14 37457.0 1331.25  82
   0   1 -13 33835.9 1213.23  48
   0   1 -13 33850.0 1198.66   6
   0   1 -13 34967.0 1682.10  52
   0   1 -13 33304.5 1192.56  81
   0   1 -13 32999.1 1186.91  98
   0   1 -13 35086.7 1239.33  82
   0   1 -12 59538.4 2003.91  81
   0   1 -12 59028.0 1996.08   6
   0   1 -12 66066.6 2049.67  82
   0   1 -12 60160.4 2515.67  64
   0   1 -12 63772.1 2490.66  52
   0   1 -12 61528.6 2007.53  98
   0   1 -11 11232.7 504.954  22
   0   1 -11 10963.3 797.162  64
   0   1 -11 10955.9 492.988  98
   0   1 -11 12338.2 815.766  52
   0   1 -11 11627.8 525.511  82
   0   1 -10 20823.4 769.496  82
   0   1 -10 19959.4 747.014  98
   0   1 -10 21262.8 776.230  74
   0   1 -10 19097.1 1042.48  64
   0   1 -10 20747.2 1044.85  52
   0   1 -10 18842.3 732.387  22
   0   1  -9 8884.74 412.815  82
   0   1  -9 9197.99 421.706  74
   0   1  -9 8617.85 605.371  64
   0   1  -9 8378.55 627.644  52
   0   1  -8 145493. 4431.73  74
   0   1  -8 146090. 4705.86  52
   0   1  -8 137434. 4700.85  64
   0   1  -8 141210. 4712.99  63
   0   1  -8 143503. 4428.43  82
   0   1  -7 30612.1 1036.78  82
   0   1  -7 32936.0 1046.85  76
   0   1  -7 30583.1 1039.42  74
   0   1  -7 31984.9 1273.81  64
   0   1  -7 30926.1 1271.53  63
   0   1  -7 30887.9 1258.85  52
   0   1  -7 29535.3 1295.50  89
   0   1  -6 220490. 6823.62  82
   0   1  -6 232253. 6827.61  74
   0   1  -6 214149. 7042.67  64
   0   1  -6 223084. 7049.98  63
   0   1  -6 221131. 7033.00  52
   0   1  -6 228029. 7069.74  89
   0   1  -5 23527.6 926.835  64
   0   1  -5 21700.7 913.406  63
   0   1  -5 22036.5 909.461  52
   0   1  -5 23676.7 946.847  89
   0   1  -4 258970. 7668.25  89
   0   1  -4 237879. 7650.17  52
   0   1  -3 594056. 17989.9  89
   0   1  -2 243487. 7407.55  89
   0   1  -1 234094. 7169.14  77
   0   1  -1 236524. 7131.31  89
   0   1  -1 236279. 7139.71   1
   0   1   0 154693. 4726.72   1
   0   1   1 54569.9 1758.02  91
   0   1   2 655848. 19889.5  94
   0   1   2 652092. 19871.6  91
   0   1   2 666888. 19918.7  86
   0   1   3 865006. 25826.0  83
   0   1   3 836805. 25845.9  64
   0   1   3 853979. 25863.4  84
   0   1   3 859240. 25817.7  94
   0   1   4 111319. 3583.59  83
   0   1   4 111638. 3642.25  84
   0   1   4 113283. 3577.41  94
   0   1   4 115052. 3695.87   1
   0   1   5 41250.6 1545.24  84
   0   1   5 40100.7 1451.48  94
   0   1   5 40191.4 1473.94  83
   0   1   5 41729.7 1311.70  95
   0   1   5 37895.8 1557.97   1
   0   1   6 45971.1 1925.20   1
   0   1   6 52548.3 1945.14  84
   0   1   6 51553.7 1860.50  83
   0   1   6 51847.2 1643.83  95
   0   1   6 50784.8 1814.33  94
   0   1   7 76548.6 2353.39  93
   0   1   7 69749.7 2727.43  84
   0   1   7 78892.1 2665.61  83
   0   1   7 75535.1 2387.60  69
   0   1   7 74077.7 2393.38  95
   0   1   7 79631.4 2792.59   1
   0   1   7 74236.8 2590.50  94
   0   1   8 130996. 4594.35  86
   0   1   8 125281. 4640.53  84
   0   1   8 132378. 4236.08  79
   0   1   8 139409. 4236.84  69
   0   1   8 138142. 4699.31   1
   0   1   8 135199. 4241.87  95
   0   1   8 140177. 4192.35  93
   0   1   8 135787. 4476.43  94
   0   1   9 6400.81 684.683  84
   0   1   9 6154.24 627.320  86
   0   1   9 6343.67 383.799  79
   0   1   9 6238.55 369.241  69
   0   1   9 6240.54 672.668   1
   0   1   9 6280.39 529.206  94
   0   1   9 6102.47 378.027  95
   0   1  10 9457.25 810.168  86
   0   1  10 10265.7 523.212  79
   0   1  10 9796.61 515.503  95
   0   1  10 9206.52 494.990  20
   0   1  10 9448.96 484.989  18
   0   1  10 10004.1 893.569  84
   0   1  10 10113.7 876.389   1
   0   1  10 8942.56 679.822  94
   0   1  10 10223.9 485.406  90
   0   1  10 10833.8 503.269  49
   0   1  10 10299.9 509.572  25
   0   1  11 26590.7 1468.13  86
   0   1  11 23367.3 1490.09  84
   0   1  11 27286.2 1038.91  79
   0   1  11 21438.6 1382.48  87
   0   1  11 28001.0 1039.42  95
   0   1  11 27089.5 1025.30  25
   0   1  11 25113.4 994.092  18
   0   1  11 26051.3 1506.90   1
   0   1  11 25742.9 1000.74  92
   0   1  11 25104.6 991.362  90
   0   1  11 28753.3 1026.51  49
   0   1  12 3147.09 633.860  86
   0   1  12 3037.47 341.479  92
   0   1  12 2203.89 635.525  84
   0   1  12 3653.04 393.672  79
   0   1  12 3252.77 630.487   1
   0   1  12 3000.35 375.818  95
   0   1  12 3372.95 339.364  18
   0   1  12 3144.45 330.771  90
   0   1  12 3385.88 362.205  49
   0   1  12 3641.33 390.113  25
   0   1  12 3723.92 635.992  87
   0   1  13 3199.81 330.903  90
   0   1  13 3267.53 674.507  86
   0   1  13 3083.86 673.497   1
   0   1  13 2974.99 723.489  84
   0   1  13 3398.63 437.623  79
   0   1  13 2855.35 340.687  70
   0   1  13 3226.72 350.340  18
   0   1  13 2828.83 379.227  95
   0   1  13 2991.96 379.001  92
   0   1  13 3600.80 380.541  49
   0   1  13 3304.63 398.543  25
   0   1  13 2908.15 617.696  87
   0   1  14 8586.99 962.187  86
   0   1  14 9701.90 1035.49  84
   0   1  14 10035.2 988.805   1
   0   1  14 10244.1 554.579  70
   0   1  14 10901.2 584.739  18
   0   1  14 11033.4 602.320  49
   0   1  14 10392.9 600.359  92
   0   1  14 9548.34 538.795  90
   0   1  14 10277.9 603.578  25
   0   1  14 7791.65 924.255  87
   0   1  15 5066.69 436.812  92
   0   1  15 4860.87 382.526  70
   0   1  15 4925.21 403.737  18
   0   1  15 4712.49 707.572   1
   0   1  15 3965.28 706.119  86
   0   1  15 4027.92 343.751  90
   0   1  15 4462.49 429.243  25
   0   1  15 3983.91 673.974  87
   0   1  16 5615.02 383.958  70
   0   1  16 5681.41 417.011  17
   0   1  16 5903.02 445.482  25
   0   1  17 2384.77 299.873  25
   0   1  17 1976.02 275.744  17
   0   1  18 7814.94 403.047  25
   0   1  18 8138.16 394.962  17
   0   1  19 2989.59 204.334   9
   0   1  19 3473.35 186.714  17
   0   2 -19 3976.22 251.541  48
   0   2 -19 3564.89 241.826   5
   0   2 -18 27.8091 212.899  48
   0   2 -17 3017.25 255.638   6
   0   2 -17 3548.18 318.424  48
   0   2 -17 3483.34 325.380  23
   0   2 -16 7878.88 468.651  22
   0   2 -16 7417.71 406.469  81
   0   2 -16 7351.74 450.352  23
   0   2 -16 7378.97 436.732  48
   0   2 -16 6632.12 390.049   6
   0   2 -15 6696.24 431.726  48
   0   2 -15 7187.99 397.034   6
   0   2 -15 7789.62 457.788  22
   0   2 -15 6712.03 411.076  81
   0   2 -15 6744.05 398.582  98
   0   2 -15 7117.56 442.827  23
   0   2 -15 6374.28 698.169  52
   0   2 -14 5249.19 391.021  22
   0   2 -14 4752.54 333.302   6
   0   2 -14 4920.47 365.831  81
   0   2 -14 4750.34 350.919  98
   0   2 -14 4466.36 606.669  52
   0   2 -14 5125.57 747.997  91
   0   2 -14 4963.31 725.711  89
   0   2 -14 5364.01 409.394  82
   0   2 -13 28380.8 1071.40  22
   0   2 -13 29495.1 1085.06  81
   0   2 -13 29152.5 1083.46  98
   0   2 -13 28258.6 1478.33  52
   0   2 -13 30075.0 1697.99  91
   0   2 -13 28865.6 1107.05  82
   0   2 -13 30138.4 1635.78  89
   0   2 -12 38821.5 1343.58  82
   0   2 -12 38322.7 1319.77  81
   0   2 -12 36170.5 1289.59  22
   0   2 -12 34247.0 1699.34  64
   0   2 -12 36890.4 1319.97  98
   0   2 -12 36646.4 1695.87  52
   0   2 -12 33989.9 1892.35  91
   0   2 -12 38611.7 1855.61  89
   0   2 -11 14431.9 636.120  82
   0   2 -11 14101.4 623.202  98
   0   2 -11 15470.5 950.609  64
   0   2 -11 14334.0 621.979  81
   0   2 -11 16700.9 950.383  52
   0   2 -11 14228.7 1002.14  89
   0   2 -11 13944.5 585.761  22
   0   2 -10 44569.1 1491.92  82
   0   2 -10 43017.0 1450.55  22
   0   2 -10 44323.3 1858.26  64
   0   2 -10 39815.2 1846.54  63
   0   2 -10 43673.2 1461.76   7
   0   2 -10 46317.8 1837.68  52
   0   2 -10 44146.7 1490.70  98
   0   2 -10 43378.3 1914.08  89
   0   2  -9 27497.1 1331.43  64
   0   2  -9 27281.6 1345.96  63
   0   2  -9 30136.6 1035.73  98
   0   2  -9 30803.8 1367.38  52
   0   2  -9 27192.5 1374.24  89
   0   2  -8 134744. 4103.88  74
   0   2  -8 132143. 4106.40  98
   0   2  -8 131642. 4428.68  64
   0   2  -8 127646. 4433.94  63
   0   2  -8 127680. 4408.59  52
   0   2  -8 132125. 4460.53  89
   0   2  -7 397365. 12071.0  82
   0   2  -7 405557. 12074.8  74
   0   2  -7 374277. 12368.5  64
   0   2  -7 392660. 12390.7  63
   0   2  -7 393701. 12357.7  52
   0   2  -7 409259. 12403.0  89
   0   2  -6 62402.5 1970.68  82
   0   2  -6 62089.1 1969.39  74
   0   2  -6 61586.6 2223.45  89
   0   2  -6 62532.1 2235.32  64
   0   2  -6 62160.6 2247.11  63
   0   2  -6 61827.7 2229.61  52
   0   2  -5 26414.7 1103.00  89
   0   2  -5 27927.0 929.912  74
   0   2  -5 28455.0 1181.08  64
   0   2  -5 29171.7 1194.78  63
   0   2  -4 29423.6 975.300  74
   0   2  -4 33350.3 1256.44  64
   0   2  -4 32828.9 1249.48  63
   0   2  -4 29607.8 1118.50  89
   0   2  -3 500168. 14868.3  64
   0   2  -3 499962. 14868.8  63
   0   2  -3 469615. 14670.7  89
   0   2  -2 78274.3 2607.23  64
   0   2  -2 73734.2 2545.16  91
   0   2  -1 154918. 4677.47   1
   0   2  -1 144097. 4787.16  91
   0   2   0 311409. 9726.55  91
   0   2   0 319148. 9661.45   1
   0   2   1 89284.1 3049.59  83
   0   2   1 94028.7 3005.05   1
   0   2   1 94343.1 3025.14  91
   0   2   2 149533. 4598.88  83
   0   2   2 143100. 4586.17  94
   0   2   2 139769. 4576.82   1
   0   2   2 141828. 4537.36  91
   0   2   3 262885. 8021.46  86
   0   2   3 257122. 8018.60   1
   0   2   3 242543. 7898.43  91
   0   2   3 256207. 7966.67  83
   0   2   3 263473. 7971.15  94
   0   2   4 90053.3 3010.29  84
   0   2   4 85474.7 2921.93  83
   0   2   4 82474.2 3011.87   1
   0   2   4 89845.7 2931.58  94
   0   2   5 562401. 17227.8  84
   0   2   5 573531. 17142.3  83
   0   2   5 560003. 16879.5  80
   0   2   5 551782. 16870.1  68
   0   2   5 572299. 17138.7  94
   0   2   6 21177.8 1081.79  84
   0   2   6 21359.7 995.777  83
   0   2   6 20819.7 737.379  80
   0   2   6 21936.1 983.276  94
   0   2   7 73883.1 2820.60  84
   0   2   7 73479.9 2708.07  83
   0   2   7 74982.9 2390.16  80
   0   2   7 76704.6 2688.93  94
   0   2   7 70333.8 2892.26   1
   0   2   7 75633.5 2430.81  95
   0   2   7 77889.3 2382.12  93
   0   2   8 10533.1 742.686  83
   0   2   8 9606.28 828.980  84
   0   2   8 11385.1 481.541  80
   0   2   8 12441.5 937.939   1
   0   2   8 11278.3 530.081  95
   0   2   8 11187.8 724.791  94
   0   2   8 11088.3 464.209  93
   0   2   9 23037.5 1364.10  84
   0   2   9 23716.3 1230.87  83
   0   2   9 23063.8 1178.21  94
   0   2   9 24183.5 924.480  69
   0   2   9 22835.9 928.469  20
   0   2   9 27174.9 1474.07   1
   0   2   9 23336.2 1312.13  86
   0   2   9 27601.5 1000.85  25
   0   2   9 24341.8 943.205  95
   0   2   9 24737.1 869.410  93
   0   2  10 2642.80 587.777  84
   0   2  10 3476.63 352.854  79
   0   2  10 3096.31 334.519  20
   0   2  10 3682.88 342.794  69
   0   2  10 2443.01 597.392   1
   0   2  10 3255.36 343.450  95
   0   2  10 2748.92 458.253  94
   0   2  10 3898.30 615.351  86
   0   2  10 4024.60 396.349  25
   0   2  11 10855.2 961.571  86
   0   2  11 11633.8 1043.23  84
   0   2  11 12550.6 640.672  79
   0   2  11 11252.7 612.850  95
   0   2  11 11402.3 616.582  20
   0   2  11 12182.5 609.679  69
   0   2  11 12588.5 1100.72   1
   0   2  11 12015.5 576.606  18
   0   2  11 11081.9 812.826  94
   0   2  11 13799.6 679.362  25
   0   2  12 45996.0 2280.00  86
   0   2  12 45020.5 2345.25  84
   0   2  12 51378.5 1765.70  79
   0   2  12 48846.6 1742.75  20
   0   2  12 47913.5 2394.03   1
   0   2  12 51378.8 1708.31  18
   0   2  12 47375.0 1735.52  95
   0   2  12 44915.6 1695.83  90
   0   2  12 57113.2 1811.89  25
   0   2  12 38577.5 2159.00  87
   0   2  13 21645.0 1454.76  86
   0   2  13 22939.2 1545.71  84
   0   2  13 22543.5 1001.42  79
   0   2  13 24801.8 1584.91   1
   0   2  13 22579.0 989.144  95
   0   2  13 23014.1 946.565  90
   0   2  13 22054.2 977.093  20
   0   2  13 24525.6 978.771  92
   0   2  13 26466.7 1039.82  25
   0   2  13 22073.9 1419.49  87
   0   2  14 7616.08 893.660  86
   0   2  14 11541.0 1043.78   1
   0   2  14 10396.2 619.144  79
   0   2  14 10388.9 586.065  20
   0   2  14 9968.54 550.655  70
   0   2  14 10352.2 590.807  95
   0   2  14 11672.3 597.198  92
   0   2  14 9695.46 533.157  90
   0   2  14 12220.9 640.235  25
   0   2  14 7472.55 885.402  87
   0   2  15 9031.83 522.146  20
   0   2  15 7305.87 452.703  70
   0   2  15 8301.15 516.432  17
   0   2  15 7868.48 506.264  95
   0   2  15 8599.43 513.162  92
   0   2  15 9309.81 539.032  25
   0   2  16 16173.9 739.050  95
   0   2  16 18237.3 746.280  20
   0   2  16 16595.3 733.280  17
   0   2  16 17178.7 730.553  92
   0   2  16 17662.6 741.409  25
   0   2  17 4727.88 322.231  20
   0   2  17 4175.80 287.673   2
   0   2  17 4958.69 337.987  17
   0   2  18 1764.52 151.467   2
   0   2  18 1987.88 190.467  20
   0   2  18 1655.22 196.341  17
   0   3 -19 1117.63 148.023  48
   0   3 -18 14374.6 568.509  48
   0   3 -18 14406.1 580.023  23
   0   3 -17 1466.09 182.470   6
   0   3 -17 1476.21 243.912  48
   0   3 -17 1653.61 242.756  23
   0   3 -17 1962.13 258.516  22
   0   3 -16 16211.8 658.955  48
   0   3 -16 14476.2 605.874   6
   0   3 -16 16428.4 674.366  22
   0   3 -16 14832.6 650.341  81
   0   3 -16 15685.8 646.219  98
   0   3 -16 15704.2 671.145  23
   0   3 -15 19040.9 787.440  98
   0   3 -15 18255.3 733.667   6
   0   3 -15 20099.5 805.534  81
   0   3 -15 20119.4 795.855  23
   0   3 -15 20569.0 796.342  22
   0   3 -14 23815.7 1603.05  91
   0   3 -14 26353.1 1014.73  81
   0   3 -14 26400.8 986.164  23
   0   3 -14 25235.9 978.546  22
   0   3 -14 25728.2 1001.74  98
   0   3 -14 24787.5 1375.03  52
   0   3 -13 20991.8 830.180  23
   0   3 -13 21606.1 877.067  81
   0   3 -13 21787.5 831.277  22
   0   3 -13 19649.7 864.009  98
   0   3 -13 21330.9 1482.43  91
   0   3 -13 19966.3 1210.72  52
   0   3 -12 32009.3 1190.73  23
   0   3 -12 34124.7 1243.66  82
   0   3 -12 33805.7 1912.02  91
   0   3 -12 34246.0 1243.20  81
   0   3 -12 32450.7 1184.29  22
   0   3 -12 31093.4 1681.26  63
   0   3 -12 35237.2 1646.07  52
   0   3 -12 34151.2 1247.15  98
   0   3 -12 34512.7 1202.32   7
   0   3 -12 33828.9 1720.60  89
   0   3 -11 16818.1 725.792  82
   0   3 -11 16731.5 674.562  22
   0   3 -11 16538.3 723.399  81
   0   3 -11 17321.7 1067.49  64
   0   3 -11 15588.5 1096.80  63
   0   3 -11 16847.0 728.305  98
   0   3 -11 15848.2 663.527   7
   0   3 -11 17723.4 1074.93  52
   0   3 -11 16721.7 1289.33  91
   0   3 -11 17730.3 1125.63  89
   0   3 -10 12019.1 572.036  82
   0   3 -10 11940.8 532.899  22
   0   3 -10 12224.3 876.467  64
   0   3 -10 11046.9 897.871  63
   0   3 -10 11732.4 573.414  81
   0   3 -10 12357.7 526.849   7
   0   3 -10 13554.5 901.762  52
   0   3 -10 11747.1 1087.87  91
   0   3 -10 12573.5 528.939  24
   0   3 -10 12464.6 582.695  98
   0   3 -10 11247.8 883.876  89
   0   3  -9 10814.6 499.248  82
   0   3  -9 9697.41 784.467  89
   0   3  -9 10202.1 499.355  81
   0   3  -9 9964.08 501.195  98
   0   3  -9 8944.49 734.691  64
   0   3  -9 10709.4 813.864  63
   0   3  -9 10507.5 460.242  24
   0   3  -9 10742.0 771.729  52
   0   3  -9 9868.57 453.026   7
   0   3  -8 9116.55 455.793  82
   0   3  -8 10158.3 736.957  64
   0   3  -8 10881.1 782.938  63
   0   3  -8 9880.82 476.188  98
   0   3  -8 9709.33 729.705  52
   0   3  -8 9521.06 731.564  89
   0   3  -7 31195.4 1090.31  82
   0   3  -7 31912.1 1439.93  64
   0   3  -7 33403.4 1478.93  63
   0   3  -7 32309.5 1444.46  52
   0   3  -7 28148.1 1320.32  89
   0   3  -6 1466.52 357.707  64
   0   3  -6 1154.55 377.967  63
   0   3  -6 1250.68 195.307  82
   0   3  -6 1189.28 212.510  98
   0   3  -6 1346.31 477.835  91
   0   3  -6 959.370 293.614  89
   0   3  -5 117704. 3763.18  82
   0   3  -5 119438. 3782.54  81
   0   3  -5 122965. 3796.48  98
   0   3  -5 136161. 4230.51  64
   0   3  -5 139197. 4249.32  63
   0   3  -5 127258. 4281.40  91
   0   3  -4 50126.3 1996.20  91
   0   3  -4 47173.7 1596.35  81
   0   3  -4 53696.9 2001.81  64
   0   3  -4 54373.7 2013.91  63
   0   3  -4 51175.8 1615.08  98
   0   3  -3 57437.2 1870.06  81
   0   3  -3 64993.1 2291.69  64
   0   3  -3 60335.6 1882.21  98
   0   3  -3 60029.5 2239.12  91
   0   3  -2 212616. 6500.11  98
   0   3  -2 226615. 6939.13  64
   0   3  -2 208749. 6833.09  91
   0   3  -1 458431. 14202.5  91
   0   3  -1 466221. 14033.6   1
   0   3  -1 457958. 13876.2  98
   0   3   0 135385. 4479.26  83
   0   3   0 131258. 4396.81  91
   0   3   0 135995. 4312.22   1
   0   3   1 28871.4 1194.64   1
   0   3   1 30280.1 1230.98  91
   0   3   1 29625.9 1300.21  83
   0   3   2 35489.0 1471.92  83
   0   3   2 35927.0 1434.28   1
   0   3   2 35458.2 1483.16  94
   0   3   2 33503.9 1369.24  91
   0   3   3 37776.9 1548.83  83
   0   3   3 37787.3 1569.32   1
   0   3   3 38663.9 1558.72  94
   0   3   3 41014.0 1635.30  86
   0   3   4 11390.2 733.335  83
   0   3   4 11586.9 472.185  68
   0   3   4 12591.8 825.441   1
   0   3   4 11886.0 752.041  94
   0   3   4 12265.0 812.585  86
   0   3   5 2685.18 504.209   1
   0   3   5 2139.88 419.919  83
   0   3   5 2598.90 230.538  80
   0   3   5 2408.61 202.872  68
   0   3   5 2276.40 488.485  84
   0   3   5 2173.14 412.174  94
   0   3   6 5965.10 561.282  83
   0   3   6 6332.79 338.649  80
   0   3   6 6166.83 314.205  68
   0   3   6 6621.63 726.940   1
   0   3   6 6369.96 644.552  84
   0   3   6 6929.28 595.732  94
   0   3   7 30622.5 1562.34  84
   0   3   7 29851.6 1426.72  83
   0   3   7 31547.3 1116.40  80
   0   3   7 28818.1 1652.45   1
   0   3   7 32433.0 1450.13  94
   0   3   8 13711.3 1021.37  84
   0   3   8 11218.5 834.610  83
   0   3   8 12704.5 560.361  80
   0   3   8 13086.2 613.000  20
   0   3   8 13399.3 627.948  95
   0   3   8 11728.1 1041.49   1
   0   3   8 13631.9 556.336  93
   0   3   8 12349.2 842.696  94
   0   3   9 3120.80 488.179  83
   0   3   9 2731.81 268.173  80
   0   3   9 3025.27 326.862  20
   0   3   9 2898.12 637.817  84
   0   3   9 3331.13 631.700  86
   0   3   9 2643.84 348.531  95
   0   3   9 2522.49 466.517  94
   0   3   9 3224.92 267.087  93
   0   3   9 3627.81 432.517  25
   0   3  10 1683.30 540.664  86
   0   3  10 1908.35 611.128  84
   0   3  10 1393.79 436.624  83
   0   3  10 2261.99 319.215  20
   0   3  10 2353.39 245.619  93
   0   3  10 1931.18 337.897  95
   0   3  10 2659.20 420.794  25
   0   3  10 1863.22 438.222  94
   0   3  11 15833.7 1240.66  84
   0   3  11 17626.6 824.262  79
   0   3  11 15752.6 1301.35   1
   0   3  11 17472.2 797.352  20
   0   3  11 17580.6 807.543  69
   0   3  11 16395.4 1230.33  86
   0   3  11 15841.5 1008.24  94
   0   3  11 17398.3 804.373  95
   0   3  12 594.962 489.753  86
   0   3  12 711.525 309.490  95
   0   3  12 1107.54 533.200  84
   0   3  12 944.237 335.947  79
   0   3  12 1174.44 306.235  20
   0   3  12 796.798 376.112  25
   0   3  12 1285.38 557.828   1
   0   3  12 942.171 249.548  90
   0   3  13 1768.89 364.247  79
   0   3  13 1645.08 308.560  20
   0   3  13 1238.94 519.531   1
   0   3  13 1653.85 319.814  95
   0   3  13 1788.90 320.251  92
   0   3  13 1739.02 272.134  90
   0   3  13 1116.02 498.386  86
   0   3  14 7934.08 520.080  79
   0   3  14 9160.37 506.183  20
   0   3  14 8058.69 463.161  70
   0   3  14 8905.94 495.864  92
   0   3  14 8647.13 500.859  95
   0   3  15 11206.2 528.986  20
   0   3  15 11249.3 549.270   2
   0   3  15 11081.3 561.714   9
   0   3  15 10571.5 536.125  95
   0   3  15 10174.1 524.541  92
   0   3  16 17062.6 652.834  20
   0   3  16 17391.9 678.809   2
   0   3  16 17161.6 688.116   9
   0   3  16 16406.2 687.970  17
   0   3  16 16294.6 665.312  92
   0   3  17 2078.51 180.068   2
   0   3  17 1766.85 147.221  20
   0   3  17 2036.80 187.329   9
   0   3  17 1815.28 203.343  17
   0   4 -18 12961.2 495.774  48
   0   4 -18 13775.7 505.549  23
   0   4 -17 6463.17 342.093  48
   0   4 -17 6384.86 344.136  23
   0   4 -17 6843.46 343.015  22
   0   4 -16 9362.29 440.190  23
   0   4 -16 7788.92 361.411   6
   0   4 -16 9101.52 431.675  22
   0   4 -16 8834.43 435.956  98
   0   4 -16 9221.16 435.472  48
   0   4 -15 6269.02 376.343  23
   0   4 -15 5756.14 353.440  22
   0   4 -15 5841.77 384.708  81
   0   4 -15 5246.73 303.735   6
   0   4 -15 5462.67 322.722  67
   0   4 -15 6114.66 378.474  98
   0   4 -14 12840.3 580.687  23
   0   4 -14 12765.5 566.526  22
   0   4 -14 12841.1 608.285  81
   0   4 -14 12041.4 560.144  67
   0   4 -14 12523.5 606.599  98
   0   4 -13 1062.01 265.455  23
   0   4 -13 1712.97 307.723  81
   0   4 -13 1594.36 242.146  22
   0   4 -13 1289.69 456.259  63
   0   4 -13 1473.53 439.524  52
   0   4 -13 1342.63 279.368  98
   0   4 -12 21955.0 862.487  23
   0   4 -12 21491.0 906.327  81
   0   4 -12 21872.9 836.075  22
   0   4 -12 20410.6 1303.30  63
   0   4 -12 20479.6 897.133  98
   0   4 -12 20987.0 823.234   7
   0   4 -12 23494.9 1303.74  52
   0   4 -11 25628.7 964.161  22
   0   4 -11 26625.9 1784.73  91
   0   4 -11 26352.3 1503.23  63
   0   4 -11 26710.5 1027.27  98
   0   4 -11 26967.2 1444.76  52
   0   4 -11 24007.4 928.206   7
   0   4 -11 25251.0 950.448  24
   0   4 -10 11570.9 528.814  24
   0   4 -10 12033.4 948.067  63
   0   4 -10 11278.2 516.886   7
   0   4 -10 12754.7 933.942  52
   0   4 -10 11171.3 1168.98  91
   0   4  -9 3794.05 351.302  81
   0   4  -9 3510.74 537.965  64
   0   4  -9 3163.00 541.719  63
   0   4  -9 3464.34 282.199  24
   0   4  -9 4014.02 566.601  52
   0   4  -9 2858.44 246.066   7
   0   4  -9 3067.00 710.188  91
   0   4  -8 4041.99 298.849  24
   0   4  -8 4019.23 361.875  81
   0   4  -8 3862.63 538.252  64
   0   4  -8 3868.44 562.816  63
   0   4  -8 4935.05 362.686  98
   0   4  -8 4385.43 603.929  52
   0   4  -8 4885.98 771.699  91
   0   4  -8 3925.81 273.307   7
   0   4  -7 26256.9 1011.16  81
   0   4  -7 29028.5 1450.68  64
   0   4  -7 31400.4 1512.18  63
   0   4  -7 27747.1 1033.75  98
   0   4  -7 26851.2 1605.85  91
   0   4  -7 25858.3 1403.12  52
   0   4  -7 26584.7 965.695   7
   0   4  -6 54729.5 1834.20  81
   0   4  -6 56046.5 2337.88  64
   0   4  -6 62853.3 2397.65  63
   0   4  -6 54080.4 1854.00  98
   0   4  -6 57419.7 2473.59  91
   0   4  -5 47784.3 1612.28  81
   0   4  -5 51931.1 2127.76  64
   0   4  -5 53612.8 2155.80  63
   0   4  -5 48160.4 1626.38  98
   0   4  -5 48145.4 2162.99  91
   0   4  -4 3045.95 238.165  81
   0   4  -4 3674.77 514.762  64
   0   4  -4 3404.40 522.908  63
   0   4  -4 2755.05 240.681  98
   0   4  -4 3277.52 576.435  91
   0   4  -3 14425.5 574.282  81
   0   4  -3 16253.1 998.988  64
   0   4  -3 15653.4 591.102  98
   0   4  -3 16977.8 998.656  91
   0   4  -2 111958. 3492.15  67
   0   4  -2 115652. 4047.86  64
   0   4  -2 112053. 3464.00  98
   0   4  -2 104869. 3905.83  91
   0   4  -1 91983.3 3234.46  83
   0   4  -1 88831.5 2700.02  67
   0   4  -1 82439.8 2660.94  98
   0   4  -1 85738.4 3089.71  91
   0   4   0 95797.1 3332.72  91
   0   4   0 93136.4 2952.86  67
   0   4   0 96763.3 3215.28   1
   0   4   0 97282.3 3451.89  83
   0   4   1 13988.3 899.678  83
   0   4   1 13182.5 512.914  67
   0   4   1 13924.0 540.835  66
   0   4   1 13183.9 788.694  91
   0   4   1 14536.8 790.845   1
   0   4   2 27832.0 1345.76  83
   0   4   2 28682.4 1386.41  94
   0   4   2 26983.9 939.053  66
   0   4   2 25394.7 1199.17  91
   0   4   2 30088.0 1318.13   1
   0   4   3 6467.01 610.805   1
   0   4   3 5763.10 603.686  83
   0   4   3 5679.12 290.952  66
   0   4   3 6144.96 345.899   2
   0   4   3 6364.49 646.065  94
   0   4   3 5020.37 461.804  91
   0   4   4 18946.6 1135.03   1
   0   4   4 18144.3 1062.56  83
   0   4   4 18705.5 720.673  68
   0   4   4 19328.8 1152.71  86
   0   4   4 18918.2 1097.26  94
   0   4   5 83429.5 3215.00  84
   0   4   5 90528.7 3317.73   1
   0   4   5 76601.9 3036.57  83
   0   4   5 85007.2 2662.36  80
   0   4   5 81713.4 2639.97  68
   0   4   5 82817.9 2675.78  17
   0   4   5 83789.4 3105.52  94
   0   4   5 78578.5 3160.68  86
   0   4   6 62940.2 2618.39  84
   0   4   6 57402.2 2433.26  83
   0   4   6 67749.8 2804.45   1
   0   4   6 62313.6 2050.78  80
   0   4   6 61208.0 2030.95  68
   0   4   6 64947.4 2109.83   9
   0   4   6 62007.6 2091.74  17
   0   4   6 62976.2 2497.99  94
   0   4   7 2129.78 543.145  84
   0   4   7 2409.89 473.530  83
   0   4   7 2547.39 272.873  80
   0   4   7 3466.12 349.961   9
   0   4   7 2975.53 358.920  17
   0   4   7 2535.00 647.284   1
   0   4   7 2742.94 479.426  94
   0   4   8 1163.07 419.697  94
   0   4   8 1479.15 540.076  84
   0   4   8 1153.12 421.094  83
   0   4   8 1389.98 245.140  80
   0   4   8 1608.21 315.797  95
   0   4   8 1554.97 337.901   9
   0   4   8 1607.62 335.209  17
   0   4   8 1270.50 588.473   1
   0   4   8 1541.28 240.874  93
   0   4   9 40945.1 2157.05  86
   0   4   9 46139.5 2262.73  84
   0   4   9 50147.9 2408.59   1
   0   4   9 38296.8 1915.32  83
   0   4   9 44999.9 1573.06  80
   0   4   9 50067.9 1716.91   9
   0   4   9 45560.3 1658.43  17
   0   4   9 48150.3 1654.65  95
   0   4   9 44898.6 2003.78  94
   0   4   9 45456.9 1545.15  93
   0   4  10 44047.3 2154.98  86
   0   4  10 50696.7 2407.17   1
   0   4  10 42474.9 2161.77  84
   0   4  10 35528.4 1828.75  83
   0   4  10 45597.7 1596.22  95
   0   4  10 51425.3 1671.67   9
   0   4  10 46442.2 1628.20  17
   0   4  10 41718.7 1466.96  93
   0   4  10 39475.0 1853.02  94
   0   4  11 12325.1 1124.11   1
   0   4  11 12849.7 648.060  79
   0   4  11 13032.1 674.472   9
   0   4  11 11972.5 661.780  17
   0   4  11 11736.7 627.378  95
   0   4  12 1071.11 308.640  79
   0   4  12 878.958 291.808   9
   0   4  12 1209.08 329.838  17
   0   4  12 1157.13 290.119  95
   0   4  12 399.412 207.071  90
   0   4  13 7745.02 467.348  79
   0   4  13 7546.52 467.732   9
   0   4  13 7735.23 482.018  17
   0   4  13 6670.56 438.866  95
   0   4  13 6930.41 423.896  92
   0   4  14 1261.28 255.270  79
   0   4  14 967.170 230.271   9
   0   4  14 1272.34 256.349   2
   0   4  14 1314.21 272.218  17
   0   4  14 1351.64 229.367  95
   0   4  14 1241.48 226.108  92
   0   4  15 1483.58 199.305   9
   0   4  15 1481.18 213.027   2
   0   4  15 1537.39 224.671  17
   0   4  15 1433.49 197.286  92
   0   4  16 2340.94 175.627   2
   0   4  16 2121.33 164.654  16
   0   5 -17 1592.51 159.463  48
   0   5 -17 1890.77 159.824  23
   0   5 -16 2187.00 212.381  48
   0   5 -16 2520.64 206.944  23
   0   5 -16 2547.97 197.165  22
   0   5 -15 6094.89 333.280  23
   0   5 -15 6141.75 323.336  22
   0   5 -15 6184.85 321.742  67
   0   5 -15 6188.24 349.408  98
   0   5 -14 561.303 175.164  22
   0   5 -14 675.571 209.265  23
   0   5 -14 642.170 188.363  67
   0   5 -14 667.676 207.654  98
   0   5 -13 10763.6 501.026  23
   0   5 -13 10015.4 478.008  22
   0   5 -13 10807.7 522.624  67
   0   5 -12 31845.6 1133.38  23
   0   5 -12 31788.3 1177.57  81
   0   5 -12 30517.2 1097.26  22
   0   5 -12 32519.4 1165.91  67
   0   5 -12 33456.7 1983.92  91
   0   5 -12 29926.5 1605.11  63
   0   5 -12 28315.9 1066.10   7
   0   5 -12 32534.3 1587.89  52
   0   5 -11 876.295 197.952  24
   0   5 -11 684.529 286.059  81
   0   5 -11 728.235 221.116  22
   0   5 -11 893.158 269.216  98
   0   5 -11 969.415 267.277  67
   0   5 -11 1284.38 472.293  63
   0   5 -11 958.149 404.066  52
   0   5 -11 1566.36 694.045  91
   0   5 -11 992.246 180.260   7
   0   5 -10 38122.5 1339.22  81
   0   5 -10 37061.4 1343.34  67
   0   5 -10 35292.7 1822.56  63
   0   5 -10 37031.0 1350.49  98
   0   5 -10 32702.6 1222.89   7
   0   5 -10 39063.7 1808.57  52
   0   5 -10 36353.3 2165.21  91
   0   5 -10 34727.3 1253.92  24
   0   5  -9 23549.7 917.716  24
   0   5  -9 25464.9 1005.84  81
   0   5  -9 25186.4 1456.54  63
   0   5  -9 27768.3 1019.56  98
   0   5  -9 25256.7 1420.80  52
   0   5  -9 21167.2 863.391   7
   0   5  -9 25083.5 1685.76  91
   0   5  -8 14305.8 677.411  81
   0   5  -8 13532.2 587.834   7
   0   5  -8 15691.7 706.927  98
   0   5  -8 16429.6 1135.00  63
   0   5  -8 15031.2 1059.94  52
   0   5  -8 13049.7 1229.31  91
   0   5  -7 6398.04 415.163  81
   0   5  -7 5819.97 701.963  64
   0   5  -7 7294.88 792.311  63
   0   5  -7 6574.87 435.509  98
   0   5  -7 7296.15 767.268  52
   0   5  -7 7027.47 878.855  91
   0   5  -7 6650.44 362.675   7
   0   5  -6 13353.9 603.476  81
   0   5  -6 13422.9 641.188  67
   0   5  -6 14461.4 1031.00  64
   0   5  -6 14777.5 1055.51  63
   0   5  -6 12874.5 610.399  98
   0   5  -6 14567.9 1171.74  91
   0   5  -5 17043.2 1207.07  91
   0   5  -5 16337.6 672.804  21
   0   5  -5 16905.3 723.585  67
   0   5  -5 16847.4 1141.67  64
   0   5  -5 16477.2 1145.33  63
   0   5  -5 16660.1 695.756  98
   0   5  -4 53922.4 1807.81  21
   0   5  -4 55224.6 1829.98  67
   0   5  -4 56058.4 2430.27  64
   0   5  -4 54928.3 2422.76  63
   0   5  -4 52391.8 1787.69  98
   0   5  -4 53290.5 2397.52  91
   0   5  -3 31505.2 1684.36  83
   0   5  -3 31532.7 1092.54  21
   0   5  -3 29601.7 1077.58  67
   0   5  -3 31056.1 1629.65  64
   0   5  -3 29053.2 1619.46  63
   0   5  -3 27625.0 1026.77  98
   0   5  -3 28252.2 1520.31  91
   0   5  -2 24256.6 1412.78  83
   0   5  -2 22315.4 855.312  67
   0   5  -2 23746.5 1395.28  64
   0   5  -2 22425.5 1260.17  91
   0   5  -1 17453.2 1148.26  83
   0   5  -1 15173.0 968.201  91
   0   5  -1 16048.4 645.759  67
   0   5  -1 15774.2 666.731  66
   0   5  -1 17506.7 1177.85  64
   0   5  -1 18747.8 1182.52  94
   0   5   0 9844.35 849.711  83
   0   5   0 8487.50 403.788  67
   0   5   0 8318.68 422.648  66
   0   5   0 8784.71 690.025  91
   0   5   1 15110.2 1025.03  83
   0   5   1 14649.7 588.884  66
   0   5   1 13957.0 614.722  16
   0   5   1 12775.1 830.528  91
   0   5   2 55007.7 2300.71  83
   0   5   2 52297.3 1735.20  66
   0   5   2 58150.8 2368.66  94
   0   5   2 48412.1 2030.77  91
   0   5   2 58860.4 2424.49  86
   0   5   3 70793.1 2323.79   2
   0   5   3 71027.3 2319.29  68
   0   5   3 71293.1 2931.18  86
   0   5   3 71271.2 2854.61  94
   0   5   3 67430.4 2782.11  83
   0   5   4 80349.2 3260.31  84
   0   5   4 76698.7 3093.71  83
   0   5   4 80415.4 2646.52  80
   0   5   4 81689.8 2666.87   2
   0   5   4 82224.2 3263.19  86
   0   5   4 81844.0 2632.62  68
   0   5   4 81723.6 3165.23  94
   0   5   4 84225.1 3217.40   1
   0   5   5 31099.7 1627.52  83
   0   5   5 36499.2 1268.75  80
   0   5   5 36543.5 1313.90   2
   0   5   5 34281.6 1239.19  68
   0   5   5 33828.1 1782.76  84
   0   5   5 32316.5 1772.98  86
   0   5   5 36234.8 1736.29  94
   0   5   5 37520.3 1849.64   1
   0   5   6 25847.0 1454.50  83
   0   5   6 30732.5 1150.65  80
   0   5   6 29801.0 1567.40  94
   0   5   6 30816.9 1125.91  68
   0   5   6 34581.7 1245.66   2
   0   5   6 32952.8 1189.79  17
   0   5   6 34543.4 1747.93  84
   0   5   6 35113.5 1830.28   1
   0   5   7 16745.1 1223.06  84
   0   5   7 16223.1 1050.24  83
   0   5   7 21128.4 1468.09   1
   0   5   7 18867.1 774.780  80
   0   5   7 18958.4 826.303  95
   0   5   7 20839.3 900.184   2
   0   5   7 20963.8 853.547  17
   0   5   7 17251.7 1124.10  94
   0   5   8 6993.03 822.413  84
   0   5   8 5235.36 596.888  83
   0   5   8 6688.45 403.070  80
   0   5   8 6894.14 468.127  95
   0   5   8 7061.86 509.009   2
   0   5   8 7036.62 892.693   1
   0   5   8 7075.88 499.476  17
   0   5   8 5581.33 642.317  94
   0   5   8 7250.53 389.315  93
   0   5   9 12204.8 1029.86  86
   0   5   9 12852.7 590.491  80
   0   5   9 14281.2 709.576   2
   0   5   9 16010.3 702.952   9
   0   5   9 14605.7 696.611  17
   0   5   9 13226.6 1169.66   1
   0   5   9 11395.2 858.272  94
   0   5   9 12724.6 560.297  93
   0   5   9 15385.6 679.235  95
   0   5  10 5580.29 408.556  95
   0   5  10 6218.88 453.188   2
   0   5  10 6119.16 418.968   9
   0   5  10 5907.34 444.901  17
   0   5  11 3905.22 342.128  79
   0   5  11 4200.70 376.175   2
   0   5  11 4211.99 334.542   9
   0   5  11 4360.93 368.947  17
   0   5  11 3557.83 327.305  95
   0   5  12 72.1348 215.794  79
   0   5  12 7.67296 168.160   9
   0   5  12 92.7584 218.117   2
   0   5  12 35.8667 183.558  95
   0   5  13 513.619 190.326  79
   0   5  13 201.526 182.981   2
   0   5  13 253.951 164.379  92
   0   5  14 2495.97 198.440   2
   0   5  14 2209.09 192.857  16
   0   6 -16 3189.34 144.255  23
   0   6 -16 1970.96 135.691  48
   0   6 -15 3376.36 199.845  23
   0   6 -15 3332.30 183.747  22
   0   6 -14 11735.8 462.060  23
   0   6 -14 11438.7 444.079  22
   0   6 -14 11729.9 477.124  67
   0   6 -14 11483.7 467.032  66
   0   6 -13 23575.0 834.706  23
   0   6 -13 22694.5 811.151  22
   0   6 -13 23826.0 863.842  67
   0   6 -13 23806.3 861.255  66
   0   6 -13 22809.5 874.450  98
   0   6 -12 2144.88 238.050  23
   0   6 -12 2003.23 205.397  22
   0   6 -12 2388.42 254.513  67
   0   6 -12 2078.74 261.549  98
   0   6 -11 4620.08 303.201  22
   0   6 -11 5204.81 363.556  67
   0   6 -11 5012.55 365.282  98
   0   6 -11 4244.84 278.444  24
   0   6 -10 6269.13 428.381  67
   0   6 -10 6353.86 417.425  98
   0   6 -10 5084.64 326.410  24
   0   6  -9 1109.27 206.249  24
   0   6  -9 1221.96 627.626  83
   0   6  -9 876.800 257.627  98
   0   6  -9 1148.65 444.846  63
   0   6  -9 1719.82 443.080  52
   0   6  -9 819.220 544.663  91
   0   6  -9 1036.54 166.839   7
   0   6  -8 4747.49 343.458  24
   0   6  -8 5189.85 424.063  67
   0   6  -8 4132.91 616.172  63
   0   6  -8 4911.69 374.851  98
   0   6  -8 4138.36 623.603  52
   0   6  -8 4522.77 278.489   7
   0   6  -8 4788.09 811.001  91
   0   6  -7 34642.0 1240.71   7
   0   6  -7 38847.1 1378.17  67
   0   6  -7 39160.7 1918.38  63
   0   6  -7 36236.5 1322.35  98
   0   6  -7 39741.7 1882.61  52
   0   6  -7 38318.5 2037.35  91
   0   6  -6 42724.3 1428.00   7
   0   6  -6 43337.0 1525.00  67
   0   6  -6 45539.4 2129.41  63
   0   6  -6 39460.3 1459.94  98
   0   6  -6 42870.5 2152.43  91
   0   6  -5 28211.2 1763.01  83
   0   6  -5 26924.0 1034.71  21
   0   6  -5 30361.5 1115.32  67
   0   6  -5 32148.3 1698.46  63
   0   6  -5 29322.9 1763.18  94
   0   6  -5 31688.5 1687.21  91
   0   6  -4 37597.2 2029.28  83
   0   6  -4 35422.4 1305.19  21
   0   6  -4 36841.9 1336.76  67
   0   6  -4 38436.0 1369.61  66
   0   6  -4 37174.5 1951.82  63
   0   6  -4 39930.1 2070.57  94
   0   6  -4 39040.5 1890.92  91
   0   6  -3 17463.8 1263.29  83
   0   6  -3 14858.6 657.741  21
   0   6  -3 14071.6 651.117  67
   0   6  -3 14949.2 688.388  66
   0   6  -3 16461.8 1209.92  63
   0   6  -3 15749.2 1236.02  94
   0   6  -3 15435.9 1053.36  91
   0   6  -2 5741.47 770.749  83
   0   6  -2 5943.78 402.341  21
   0   6  -2 7403.43 858.306  94
   0   6  -2 5508.70 359.980  67
   0   6  -2 6264.90 402.582  66
   0   6  -2 6185.89 799.817  63
   0   6  -1 4218.53 695.563  83
   0   6  -1 4175.67 328.497  66
   0   6   0 7722.56 820.135  83
   0   6   0 7650.48 420.919  66
   0   6   0 8468.11 947.266  86
   0   6   1 32933.3 1721.83  83
   0   6   1 35023.7 1786.02  94
   0   6   1 35818.6 1254.90  68
   0   6   1 32328.7 1172.36  66
   0   6   1 33578.5 1823.16  86
   0   6   2 21598.5 1271.10  83
   0   6   2 19987.9 1305.60  94
   0   6   2 20752.6 844.834  68
   0   6   2 20929.3 838.327  16
   0   6   2 20657.3 1363.69  86
   0   6   3 23443.5 1424.39  84
   0   6   3 21982.0 1295.98  83
   0   6   3 23559.5 942.118  80
   0   6   3 23320.4 919.313  68
   0   6   3 25549.1 967.069  16
   0   6   3 24342.3 1395.45  94
   0   6   3 24400.2 1462.31  86
   0   6   4 36418.0 1862.88  84
   0   6   4 31731.1 1655.02  83
   0   6   4 37160.5 1320.48  80
   0   6   4 36555.4 1297.85  68
   0   6   4 39667.4 1375.95  16
   0   6   4 35251.3 1760.49  94
   0   6   4 35433.3 1856.48  86
   0   6   5 18520.0 1232.81  86
   0   6   5 15972.5 1046.85  83
   0   6   5 21705.1 821.823   2
   0   6   5 19037.5 789.394  80
   0   6   5 19180.8 761.420  68
   0   6   5 21692.0 870.760  16
   0   6   5 17191.4 1128.93  94
   0   6   6 8114.24 459.960   2
   0   6   6 6748.32 406.856  80
   0   6   6 8890.90 521.121  16
   0   6   6 7164.66 444.130  95
   0   6   6 6160.85 643.069  94
   0   6   7 3491.46 292.129  80
   0   6   7 4550.97 363.531   2
   0   6   7 4134.29 348.678  69
   0   6   7 4372.31 416.000  16
   0   6   7 4165.16 348.495  95
   0   6   7 3531.30 505.636  94
   0   6   7 4034.75 287.466  93
   0   6   8 3713.44 332.112   2
   0   6   8 2421.38 241.785  80
   0   6   8 2579.93 295.049  95
   0   6   8 2658.61 304.892  69
   0   6   8 2908.33 342.536  16
   0   6   8 2833.58 222.533  93
   0   6   9 894.836 235.389   2
   0   6   9 729.246 252.972  16
   0   6   9 824.895 209.808  95
   0   6  10 10377.4 470.073   2
   0   6  10 8964.57 447.851  79
   0   6  10 10098.5 499.107  16
   0   6  11 5348.40 291.798   2
   0   6  11 4935.23 293.857  79
   0   6  11 5688.44 323.555  16
   0   6  12 6339.47 295.251  16
   0   7 -13 4705.08 217.389  23
   0   7 -12 3086.89 197.860  23
   0   7 -12 3167.50 170.827  22
   0   7 -12 3215.33 211.304  66
   0   7 -11 4244.83 256.864  23
   0   7 -11 4208.33 222.644  22
   0   7 -11 4658.86 286.095  66
   0   7 -10 8654.82 385.794  22
   0   7 -10 10153.2 457.896  67
   0   7 -10 10471.9 469.977  66
   0   7 -10 8547.22 371.819  24
   0   7  -9 2182.96 190.551  24
   0   7  -9 2878.61 278.096  67
   0   7  -8 3683.99 257.865  24
   0   7  -8 3896.94 317.695  67
   0   7  -7 7087.00 377.743  24
   0   7  -7 6762.58 794.953  94
   0   7  -7 6694.91 412.636  67
   0   7  -7 7192.35 436.971  66
   0   7  -6 574.014 209.807  67
   0   7  -6 471.825 237.615  66
   0   7  -6 440.544 449.030  94
   0   7  -5 22686.0 915.266  66
   0   7  -5 24503.0 1458.63  94
   0   7  -4 22469.0 891.141  66
   0   7  -4 22890.3 1428.29  94
   0   7  -3 11208.7 519.571  21
   0   7  -3 12446.2 560.714  66
   0   7  -3 12727.8 1048.42  94
   0   7  -3 13132.6 1079.27  86
   0   7  -2 5212.49 736.285  86
   0   7  -2 5897.50 355.022  21
   0   7  -2 5536.22 346.788  66
   0   7  -2 4445.88 687.313  94
   0   7  -1 5017.59 708.541  86
   0   7  -1 4794.18 349.566  21
   0   7  -1 5170.16 315.300  66
   0   7   0 12191.9 591.634  21
   0   7   0 11817.7 570.836  68
   0   7   0 13192.3 987.301  94
   0   7   1 11474.0 574.929  21
   0   7   1 10247.3 512.772  68
   0   7   1 11096.4 885.158  94
   0   7   2 13556.6 598.548  80
   0   7   2 12760.6 571.508  68
   0   7   2 12431.6 925.302  94
   0   7   3 22031.9 835.633  80
   0   7   3 21354.1 811.492  68
   0   7   4 3294.60 270.546  80
   0   7   5 496.481 174.535  80
   0   7   5 574.368 209.331  69
   0   7   5 597.695 169.861  16
   0   7   5 557.640 197.296  95
   0   7   5 485.865 166.550  93
   0   7   6 3113.55 236.680  80
   0   7   6 2971.52 213.609  93
   0   7   6 3345.78 269.198  95
   0   7   6 3210.88 276.027  69
   0   7   6 3849.74 269.208  16
   0   7   7 7739.74 385.036  69
   0   7   7 8032.49 375.015  16
   0   7   8 1893.43 162.939  16
   0   8 -10 2710.55 135.324  23
   0   8  -9 3836.28 197.495  23
   0   8  -8 877.601 96.8407  22
   0   8  -7 2907.62 165.266  24
   0   8  -6 11426.9 447.224  24
   0   8  -6 12569.2 509.733  68
   0   8  -5 4856.18 263.684  24
   0   8  -5 4830.91 300.251  68
   0   8  -4 2484.82 230.318  68
   0   8  -3 5345.83 327.743  80
   0   8  -2 33275.4 1144.06  80
   0   8  -2 32405.9 1134.26  68
   0   8  -1 1911.73 220.716  80
   0   8  -1 2022.04 201.283  68
   0   8   0 15833.9 579.355  21
   0   8   0 16537.1 616.485  68
   0   8   1 11605.4 489.911  80
   0   8   1 12701.6 473.613  21
   0   8   1 11732.2 474.117  68
   0   8   2 3236.81 212.568  21
   0   8   3 4812.19 256.227  21
   0   8   4 1318.33 141.257  21
   1  -9   1 10307.0 364.773  28
   1  -9   2 220.563 76.0639  29
   1  -9   3 7101.10 267.033  29
   1  -9   4 282.332 74.9762  29
   1  -8  -5 1324.63 145.480  32
   1  -8  -4 1100.16 156.339  65
   1  -8  -4 1097.17 164.761  32
   1  -8  -4 1117.67 196.105  55
   1  -8  -3 608.161 166.573  32
   1  -8  -3 701.808 191.265  55
   1  -8  -2 11259.8 476.978  32
   1  -8  -2 11159.0 494.882  55
   1  -8  -1 15037.9 553.779  12
   1  -8  -1 14237.2 592.266  65
   1  -8  -1 13886.5 573.711  32
   1  -8  -1 14568.1 592.792  55
   1  -8   0 342.031 152.597  12
   1  -8   0 492.450 191.593  65
   1  -8   0 496.296 171.541  32
   1  -8   0 351.901 174.229  55
   1  -8   1 6796.67 338.037  12
   1  -8   1 6767.83 379.787  65
   1  -8   1 6338.31 346.110  32
   1  -8   1 6835.47 353.872  55
   1  -8   2 4635.65 280.239  12
   1  -8   2 4862.62 330.494  65
   1  -8   2 4447.63 283.051  32
   1  -8   2 4398.91 306.890  31
   1  -8   2 4385.87 278.126  55
   1  -8   3 745.724 169.912  12
   1  -8   3 728.457 209.234  65
   1  -8   3 772.589 167.894  32
   1  -8   3 692.133 196.319  31
   1  -8   4 24.1502 141.762  12
   1  -8   4 75.4618 143.906  32
   1  -8   4 82.7682 168.851  31
   1  -8   4 241.903 196.926  28
   1  -8   5 6499.70 344.573  31
   1  -8   5 6525.85 346.301  28
   1  -8   6 4281.93 270.901  31
   1  -8   6 4568.80 274.051  28
   1  -8   7 2632.58 214.194  31
   1  -8   7 2959.40 214.345  28
   1  -8   7 3078.86 192.862  26
   1  -8   8 9871.10 388.648  28
   1  -8   8 9840.42 402.464  29
   1  -8   9 9732.11 381.133  29
   1  -8   9 9631.40 363.103  28
   1  -8  10 3337.74 189.210  56
   1  -8  10 3818.08 180.155  29
   1  -8  11 9365.02 330.634  56
   1  -7 -11 2563.30 154.714  55
   1  -7 -10 3624.44 189.947  33
   1  -7 -10 3500.16 188.813  32
   1  -7  -9 1831.95 175.726  33
   1  -7  -9 1591.03 184.560  32
   1  -7  -8 7527.34 354.639  65
   1  -7  -8 7389.25 376.597  33
   1  -7  -8 7806.98 398.309  32
   1  -7  -7 3435.40 258.674  65
   1  -7  -7 3458.37 278.830  33
   1  -7  -7 3931.62 318.532  32
   1  -7  -6 2094.03 230.274  65
   1  -7  -6 1851.17 249.511  33
   1  -7  -6 2366.17 293.762  32
   1  -7  -6 1919.39 229.351  97
   1  -7  -5 2108.26 251.253  65
   1  -7  -5 2341.97 272.711  33
   1  -7  -5 2391.83 297.803  32
   1  -7  -4 8953.88 463.595  65
   1  -7  -4 7873.03 453.966  33
   1  -7  -4 8753.21 500.201  32
   1  -7  -4 8297.99 410.259  14
   1  -7  -3 25585.0 929.736  14
   1  -7  -3 23822.8 960.855  33
   1  -7  -3 26945.8 1024.24  32
   1  -7  -2 1749.83 252.657  33
   1  -7  -2 1933.01 301.218  32
   1  -7  -2 2024.67 231.713  14
   1  -7  -1 3543.48 365.377  65
   1  -7  -1 3256.98 341.396  32
   1  -7  -1 3414.64 373.366  55
   1  -7  -1 3372.23 276.351  14
   1  -7   0 3749.72 349.619  32
   1  -7   0 3778.76 370.043  55
   1  -7   0 3479.89 279.254  14
   1  -7   1 7594.98 437.093  12
   1  -7   1 6807.45 440.184  32
   1  -7   1 6553.73 442.572  55
   1  -7   2 29789.8 1080.13  12
   1  -7   2 28486.0 1087.91  32
   1  -7   2 27542.7 1079.58  55
   1  -7   3 5223.78 361.752  12
   1  -7   3 3909.52 546.429  62
   1  -7   3 4889.87 362.088  32
   1  -7   3 4594.65 350.264  55
   1  -7   3 4796.92 368.006  96
   1  -7   4 384.866 223.104  12
   1  -7   4 355.684 219.139  96
   1  -7   4 213.065 328.010  62
   1  -7   4 377.056 226.263  32
   1  -7   4 214.146 197.264  55
   1  -7   5 15059.4 653.136  12
   1  -7   5 14682.7 672.520  96
   1  -7   5 15043.6 657.920  32
   1  -7   5 15624.6 688.758  31
   1  -7   6 17084.5 694.488  12
   1  -7   6 15778.1 710.165  96
   1  -7   6 15736.1 682.105  32
   1  -7   7 26669.0 973.826  12
   1  -7   7 25521.7 998.953  96
   1  -7   7 25825.7 963.810  58
   1  -7   7 27806.0 1004.61  31
   1  -7   7 27770.8 983.419  28
   1  -7   8 2260.38 248.532  58
   1  -7   8 2632.38 280.662  31
   1  -7   8 2329.10 245.550  28
   1  -7   9 730.043 206.592  58
   1  -7   9 298.975 202.098  31
   1  -7   9 525.114 178.516  28
   1  -7   9 829.031 173.265  26
   1  -7  10 12385.6 502.388  11
   1  -7  10 14742.5 544.961  29
   1  -7  10 12417.3 532.001  58
   1  -7  10 13999.6 523.817  28
   1  -7  10 13100.6 504.877  26
   1  -7  11 9321.08 393.993  11
   1  -7  11 9668.73 384.673  28
   1  -7  11 9883.73 423.381  58
   1  -7  11 10241.1 408.127  29
   1  -7  11 9659.60 417.811  56
   1  -7  12 672.649 123.638  29
   1  -7  12 754.792 164.648  58
   1  -7  12 676.575 144.178  56
   1  -7  13 144.642 130.853  58
   1  -7  13 157.051 97.1895  56
   1  -7  14 1037.36 109.471  57
   1  -6 -13 839.471 126.189  33
   1  -6 -13 762.816 112.662  32
   1  -6 -12 2576.38 221.205  33
   1  -6 -12 2367.32 222.669  32
   1  -6 -11 2542.17 269.257  33
   1  -6 -11 2492.08 272.937  32
   1  -6 -11 2771.91 229.306  13
   1  -6 -10 937.800 303.012  48
   1  -6 -10 730.817 165.404  65
   1  -6 -10 811.639 240.396  33
   1  -6 -10 872.339 256.583  32
   1  -6 -10 837.768 216.267  13
   1  -6  -9 5854.32 358.290  65
   1  -6  -9 7052.83 415.266  13
   1  -6  -9 6291.76 447.908  33
   1  -6  -9 6620.84 479.223  32
   1  -6  -9 6094.75 390.850  97
   1  -6  -9 7091.08 495.589  48
   1  -6  -8 3249.86 288.966  65
   1  -6  -8 2937.37 367.704  34
   1  -6  -8 3568.00 379.531  33
   1  -6  -8 3583.72 401.150  32
   1  -6  -8 3489.23 318.586  97
   1  -6  -8 3586.38 350.582  13
   1  -6  -8 3503.42 429.483  48
   1  -6  -7 572.065 358.481  48
   1  -6  -7 663.924 231.844  65
   1  -6  -7 617.795 313.636  34
   1  -6  -7 560.683 289.903  33
   1  -6  -7 383.374 291.089  32
   1  -6  -7 952.069 224.724  14
   1  -6  -7 792.475 252.480  97
   1  -6  -7 604.488 272.925  13
   1  -6  -6 19407.4 760.396  47
   1  -6  -6 17648.4 770.702  97
   1  -6  -6 18559.0 784.816  65
   1  -6  -6 20004.5 916.346  34
   1  -6  -6 17988.8 844.391  33
   1  -6  -6 18216.8 877.326  32
   1  -6  -6 19968.9 791.979  14
   1  -6  -6 19247.6 832.185  13
   1  -6  -5 12414.5 574.710  47
   1  -6  -5 12653.5 605.199  65
   1  -6  -5 12371.9 707.998  34
   1  -6  -5 10490.3 641.657  33
   1  -6  -5 12756.3 686.588  32
   1  -6  -5 11229.0 570.449  97
   1  -6  -5 11935.6 578.726  14
   1  -6  -5 12539.9 638.294  13
   1  -6  -4 10125.4 512.428  47
   1  -6  -4 10577.0 565.433  65
   1  -6  -4 10353.3 636.577  34
   1  -6  -4 9092.24 573.292  33
   1  -6  -4 9565.80 603.392  32
   1  -6  -4 10230.1 517.207  97
   1  -6  -4 9649.70 518.855  14
   1  -6  -4 9451.97 554.785  13
   1  -6  -3 2818.76 345.902  33
   1  -6  -3 3365.81 383.678  32
   1  -6  -3 2685.87 303.819  14
   1  -6  -3 3049.78 300.431  47
   1  -6  -3 3179.40 313.599  97
   1  -6  -3 2921.69 355.504  13
   1  -6  -2 23062.0 950.373  33
   1  -6  -2 24181.3 991.139  32
   1  -6  -2 22419.5 903.316  14
   1  -6  -2 22747.6 901.653  47
   1  -6  -2 22819.1 937.027  13
   1  -6  -1 34520.4 1236.18  14
   1  -6  -1 32844.0 1263.08  33
   1  -6  -1 36534.0 1311.85  32
   1  -6  -1 31214.1 1248.92  96
   1  -6  -1 35160.5 1265.86  13
   1  -6   0 8107.69 450.453  14
   1  -6   0 6920.07 453.367  33
   1  -6   0 9413.38 765.876  62
   1  -6   0 9701.85 528.777  32
   1  -6   0 7945.70 489.076  96
   1  -6   1 23480.4 965.449  33
   1  -6   1 26392.2 1379.16  62
   1  -6   1 28142.5 1036.49  32
   1  -6   1 24391.9 1006.10  96
   1  -6   1 25584.9 965.747  14
   1  -6   2 13707.9 971.718  62
   1  -6   2 13892.4 680.363  96
   1  -6   2 14883.9 668.659  32
   1  -6   2 14316.4 674.127  55
   1  -6   2 13448.5 612.284  14
   1  -6   3 72548.0 2414.60  96
   1  -6   3 68872.9 2304.79  19
   1  -6   3 71581.6 2829.04  62
   1  -6   3 74298.0 2380.83  32
   1  -6   3 75338.0 2378.05  55
   1  -6   3 66296.9 2318.77  14
   1  -6   3 72570.0 2377.00  88
   1  -6   4 20447.7 807.777  12
   1  -6   4 19472.5 837.820  96
   1  -6   4 17330.3 726.169  19
   1  -6   4 18626.6 1150.68  62
   1  -6   4 19101.4 796.796  32
   1  -6   4 18675.4 779.614  55
   1  -6   4 20167.9 812.833  88
   1  -6   5 8248.16 466.649  12
   1  -6   5 7283.91 483.213  96
   1  -6   5 8453.88 759.274  62
   1  -6   5 7707.03 454.071  32
   1  -6   5 7689.53 434.771  55
   1  -6   5 8048.61 463.628  88
   1  -6   6 37008.5 1319.88  12
   1  -6   6 33755.9 1724.45  62
   1  -6   6 33541.0 1309.84  32
   1  -6   6 38779.3 1366.98  31
   1  -6   6 39581.2 1389.41  96
   1  -6   6 37770.2 1358.89  88
   1  -6   7 43920.7 2059.40  62
   1  -6   7 41915.7 1598.18  32
   1  -6   7 51478.7 1658.43  31
   1  -6   7 48296.2 1679.92  96
   1  -6   7 48618.8 1667.41  88
   1  -6   8 7512.35 419.444  15
   1  -6   8 8242.22 480.168  88
   1  -6   8 8727.58 500.126  96
   1  -6   8 7785.51 760.446  62
   1  -6   8 8381.30 469.153  58
   1  -6   8 8849.01 456.195  28
   1  -6   8 7790.49 828.574  87
   1  -6   9 48756.1 1638.72  58
   1  -6   9 52007.2 1707.17  88
   1  -6   9 48942.9 1604.68  28
   1  -6  10 7661.76 721.661  62
   1  -6  10 9070.63 482.198  58
   1  -6  10 7921.89 426.437  15
   1  -6  10 8706.58 426.747  28
   1  -6  10 9028.10 427.800  26
   1  -6  10 9387.24 446.566  29
   1  -6  10 9382.09 574.189  90
   1  -6  10 9689.22 490.449  88
   1  -6  11 13244.6 685.405  90
   1  -6  11 14404.3 571.240  29
   1  -6  11 13392.8 603.119  58
   1  -6  11 12574.4 564.172  15
   1  -6  11 14376.1 550.027  28
   1  -6  11 12914.2 539.136  26
   1  -6  12 13150.8 566.017  11
   1  -6  12 13714.9 536.014  29
   1  -6  12 14215.2 596.983  58
   1  -6  12 13550.4 567.154  15
   1  -6  12 13818.6 553.799  56
   1  -6  13 6132.61 334.067  11
   1  -6  13 5408.32 350.313  58
   1  -6  13 6145.24 334.985  15
   1  -6  13 5493.66 295.193  56
   1  -6  14 3329.23 248.530  11
   1  -6  14 2772.13 259.149  58
   1  -6  14 3229.80 243.400  15
   1  -6  14 2841.09 180.636  56
   1  -6  15 9766.35 410.014  11
   1  -6  16 1022.49 110.586  25
   1  -5 -15 3492.03 218.237  33
   1  -5 -15 3133.17 196.266  32
   1  -5 -14 2185.19 242.807  32
   1  -5 -14 2766.98 276.427  48
   1  -5 -13 481.330 263.904  48
   1  -5 -13 487.489 178.907  13
   1  -5 -12 1127.74 329.177  48
   1  -5 -12 920.601 194.478  34
   1  -5 -12 1086.37 242.190  13
   1  -5 -11 25201.8 940.012  65
   1  -5 -11 25628.0 998.105  34
   1  -5 -11 24824.8 996.786  97
   1  -5 -11 28398.1 1088.85  48
   1  -5 -11 27026.2 1014.48  13
   1  -5 -10 7445.22 411.193  65
   1  -5 -10 8469.58 513.186  34
   1  -5 -10 7825.14 538.706  54
   1  -5 -10 6826.91 460.312  97
   1  -5 -10 7256.05 423.108  14
   1  -5 -10 8604.54 503.391  13
   1  -5 -10 7596.51 563.192  48
   1  -5  -9 27946.1 1130.64  54
   1  -5  -9 24766.9 984.466  65
   1  -5  -9 28477.8 1108.21  34
   1  -5  -9 23779.3 1010.14  97
   1  -5  -9 26965.3 1014.93  14
   1  -5  -9 27195.5 1136.65  48
   1  -5  -8 1717.11 301.683  97
   1  -5  -8 2490.91 284.360  65
   1  -5  -8 2380.91 391.561  34
   1  -5  -8 2112.17 423.409  54
   1  -5  -8 1958.61 301.452  14
   1  -5  -8 2400.74 435.454  48
   1  -5  -7 68636.4 2245.95  47
   1  -5  -7 65170.7 2234.59  65
   1  -5  -7 72370.6 2396.59  34
   1  -5  -7 67590.1 2347.21  54
   1  -5  -7 64041.5 2239.04  97
   1  -5  -7 69223.0 2271.13  14
   1  -5  -6 75206.6 3178.13  85
   1  -5  -6 86004.9 2765.78  47
   1  -5  -6 80182.8 2771.95  14
   1  -5  -6 90081.5 2777.52  65
   1  -5  -6 92856.7 2910.57  34
   1  -5  -6 84734.3 2766.12  97
   1  -5  -6 87246.1 3246.69  51
   1  -5  -6 79285.4 2802.72  13
   1  -5  -5 47332.6 2191.75  85
   1  -5  -5 52616.5 1831.61  47
   1  -5  -5 59568.7 1867.40  65
   1  -5  -5 56024.7 1951.86  34
   1  -5  -5 57013.3 2324.56  51
   1  -5  -5 52663.3 1846.90  14
   1  -5  -5 51373.8 1869.72  13
   1  -5  -4 4754.49 349.553  47
   1  -5  -4 5607.61 580.564  53
   1  -5  -4 4487.47 531.745  85
   1  -5  -4 5599.43 461.636  34
   1  -5  -4 4728.43 356.308  14
   1  -5  -4 5521.49 636.882  51
   1  -5  -4 4412.45 384.973  13
   1  -5  -3 35736.8 1694.83  85
   1  -5  -3 40417.8 1415.84  47
   1  -5  -3 42854.9 1803.53  53
   1  -5  -3 41722.6 1518.25  34
   1  -5  -3 41569.1 1491.62  32
   1  -5  -3 40339.0 1443.92  13
   1  -5  -3 39459.2 1419.15  14
   1  -5  -3 42351.9 1858.01  51
   1  -5  -2 166298. 5122.13  47
   1  -5  -2 165519. 5619.75  51
   1  -5  -2 165383. 5553.73  53
   1  -5  -2 165195. 5181.21  33
   1  -5  -2 175838. 5200.80  32
   1  -5  -2 164436. 5124.92  14
   1  -5  -2 160671. 5139.10  13
   1  -5  -2 152617. 5150.59  48
   1  -5  -1 9.08356 185.421  47
   1  -5  -1 51.4314 218.276  96
   1  -5  -1 89.9695 213.451  33
   1  -5  -1 34.3340 222.582  32
   1  -5  -1 31.4771 302.667  53
   1  -5  -1 130.284 193.755  14
   1  -5  -1 60.0623 213.270  13
   1  -5   0 7375.94 398.579  47
   1  -5   0 7219.81 364.729  45
   1  -5   0 6891.02 649.707  77
   1  -5   0 7552.08 657.762  53
   1  -5   0 6622.95 414.165  33
   1  -5   0 7441.91 435.268  32
   1  -5   0 7230.47 430.592  96
   1  -5   0 6848.70 396.296  14
   1  -5   0 6983.06 410.822  13
   1  -5   1 46119.1 1525.76  45
   1  -5   1 44094.3 1932.87  77
   1  -5   1 44515.7 1921.54  53
   1  -5   1 44239.6 1564.66  33
   1  -5   1 48817.3 1590.79  32
   1  -5   1 46007.0 1550.41  14
   1  -5   1 46332.0 1590.34  96
   1  -5   1 44396.5 1553.92  88
   1  -5   1 43913.1 1541.23  47
   1  -5   2 66420.6 2206.25  45
   1  -5   2 69245.3 2625.71  77
   1  -5   2 73088.0 2238.26  19
   1  -5   2 62762.4 2230.97  33
   1  -5   2 71051.6 2261.06  32
   1  -5   2 70395.4 2283.34  96
   1  -5   2 66582.9 2226.61  14
   1  -5   2 69260.3 2251.91  88
   1  -5   3 248.571 171.856  19
   1  -5   3 165.386 362.482  62
   1  -5   3 95.0976 190.504  32
   1  -5   3 75.9913 192.551  55
   1  -5   3 143.661 228.205  96
   1  -5   3 134.534 181.786  14
   1  -5   3 241.934 174.021  88
   1  -5   4 15806.8 656.258  19
   1  -5   4 16991.4 1047.97  62
   1  -5   4 16199.8 683.692  32
   1  -5   4 16713.1 678.392  55
   1  -5   4 18392.3 743.090  96
   1  -5   4 15201.0 653.942  14
   1  -5   4 17481.8 712.268  88
   1  -5   4 17266.2 1151.45  87
   1  -5   5 5686.81 328.658  46
   1  -5   5 5919.38 405.390  96
   1  -5   5 5468.66 327.639  19
   1  -5   5 4576.58 611.109  62
   1  -5   5 5282.02 348.041  32
   1  -5   5 5353.70 332.208  55
   1  -5   5 5854.50 374.912  88
   1  -5   5 5651.54 722.649  87
   1  -5   6 37805.0 1292.75  46
   1  -5   6 34272.9 1267.13  19
   1  -5   6 39144.9 1752.60  62
   1  -5   6 33624.0 1282.16  32
   1  -5   6 35408.7 1263.16  55
   1  -5   6 40715.1 1374.54  96
   1  -5   6 38107.5 1404.14  90
   1  -5   6 42252.9 1377.05  88
   1  -5   6 39024.3 1943.10  87
   1  -5   7 6866.26 400.774  46
   1  -5   7 8118.62 476.298  96
   1  -5   7 5907.45 381.404  32
   1  -5   7 7227.15 405.692  12
   1  -5   7 7131.31 503.660  90
   1  -5   7 8294.81 867.625  87
   1  -5   8 114232. 3681.54  12
   1  -5   8 122148. 3831.92  90
   1  -5   8 126698. 3785.27  96
   1  -5   8 119741. 3674.16  28
   1  -5   8 118637. 4509.71  87
   1  -5   9 44085.0 1512.27  12
   1  -5   9 44424.6 2013.53  62
   1  -5   9 44679.4 1542.86  58
   1  -5   9 43192.2 1532.22  31
   1  -5   9 41132.5 1512.15  15
   1  -5   9 46702.5 1598.86  96
   1  -5   9 44100.9 1488.27  28
   1  -5   9 49354.4 1691.29  90
   1  -5   9 44236.0 2253.33  87
   1  -5  10 25891.4 1619.27  87
   1  -5  10 22578.5 912.201  15
   1  -5  10 25162.9 1356.74  62
   1  -5  10 23114.7 924.479  31
   1  -5  10 24855.4 950.733  58
   1  -5  10 23131.1 867.332  28
   1  -5  10 23931.4 882.385  26
   1  -5  11 5146.55 619.488  62
   1  -5  11 5724.86 383.570  49
   1  -5  11 6284.28 430.231  58
   1  -5  11 5893.01 392.957  15
   1  -5  11 6561.34 354.259  29
   1  -5  11 6098.72 346.438  26
   1  -5  11 7111.23 521.898  90
   1  -5  11 5767.77 335.082  28
   1  -5  11 6771.87 872.381  87
   1  -5  12 12454.5 572.937  11
   1  -5  12 11182.3 856.866  62
   1  -5  12 12623.8 611.480  58
   1  -5  12 13424.7 549.549  56
   1  -5  12 12552.9 589.621  15
   1  -5  12 13800.7 710.089  90
   1  -5  12 12611.7 523.124  29
   1  -5  12 13040.6 588.347  49
   1  -5  12 13368.9 1142.81  87
   1  -5  13 2651.69 287.828  11
   1  -5  13 2280.68 310.817  58
   1  -5  13 2076.33 217.540  56
   1  -5  13 2237.05 281.738  15
   1  -5  13 2340.53 327.067  90
   1  -5  13 2743.43 286.150  49
   1  -5  14 10820.7 505.114  11
   1  -5  14 10356.0 533.100  58
   1  -5  14 10534.1 512.116  15
   1  -5  14 9850.16 549.813  90
   1  -5  14 10093.9 493.347  49
   1  -5  15 10823.4 495.183  11
   1  -5  15 10634.1 525.732  58
   1  -5  15 10211.7 499.659  15
   1  -5  15 10513.6 483.507  49
   1  -5  16 441.426 119.179  57
   1  -5  16 312.870 166.966  49
   1  -5  17 1663.25 161.456  25
   1  -4 -17 3931.86 221.578  48
   1  -4 -16 341.317 207.588  48
   1  -4 -15 3057.43 238.148  13
   1  -4 -15 3169.63 330.745  48
   1  -4 -14 7913.70 447.203  54
   1  -4 -14 8264.62 512.672  48
   1  -4 -13 2480.64 333.354  54
   1  -4 -13 3033.18 404.367  48
   1  -4 -12 8651.12 493.422  59
   1  -4 -12 8685.09 552.245  54
   1  -4 -12 8944.17 512.617  97
   1  -4 -12 8735.21 465.155  14
   1  -4 -12 9373.54 603.389  48
   1  -4 -11 11489.4 529.031  65
   1  -4 -11 12056.3 609.138  34
   1  -4 -11 11073.9 604.727  59
   1  -4 -11 12330.4 671.899  54
   1  -4 -11 11998.6 685.144  48
   1  -4 -10 2035.10 401.659  48
   1  -4 -10 1801.81 241.574  65
   1  -4 -10 2211.56 335.140  34
   1  -4 -10 2412.17 363.289  59
   1  -4 -10 2254.81 391.030  54
   1  -4  -9 25996.8 982.794  65
   1  -4  -9 27891.8 1105.67  34
   1  -4  -9 27748.5 1098.90  59
   1  -4  -9 24675.3 1020.29  97
   1  -4  -9 27553.0 1134.84  54
   1  -4  -9 26657.6 1122.47  48
   1  -4  -8 10479.0 887.360  85
   1  -4  -8 12257.4 591.145  47
   1  -4  -8 12914.1 571.458  65
   1  -4  -8 14579.3 704.486  34
   1  -4  -8 14775.0 712.206  59
   1  -4  -8 12349.7 611.184  97
   1  -4  -8 12972.1 691.970  54
   1  -4  -7 34.9860 353.509  85
   1  -4  -7 255.333 203.435  47
   1  -4  -7 13.4791 291.012  54
   1  -4  -7 236.263 192.128  65
   1  -4  -7 294.067 295.843  34
   1  -4  -7 459.144 285.099  59
   1  -4  -7 167.450 346.267  51
   1  -4  -6 50957.6 2266.54  85
   1  -4  -6 54838.8 1890.50  47
   1  -4  -6 55036.4 2193.48  53
   1  -4  -6 54083.7 1958.33  54
   1  -4  -6 58984.3 1894.30  65
   1  -4  -6 61324.1 2003.85  34
   1  -4  -6 58145.3 1973.36  59
   1  -4  -6 59013.5 2333.58  51
   1  -4  -5 8082.90 700.789  85
   1  -4  -5 9246.83 457.721  47
   1  -4  -5 9821.94 535.018  34
   1  -4  -5 10346.7 539.151  59
   1  -4  -5 8920.99 520.391  54
   1  -4  -5 9724.47 697.957  53
   1  -4  -5 9703.01 746.728  51
   1  -4  -5 8219.48 455.501  14
   1  -4  -4 133793. 4445.70  96
   1  -4  -4 152054. 4847.14  53
   1  -4  -4 138549. 4812.57  85
   1  -4  -4 146520. 4509.61  54
   1  -4  -4 155175. 4913.58  51
   1  -4  -4 143971. 4485.38  48
   1  -4  -3 165748. 5514.56  85
   1  -4  -3 159842. 5614.13  77
   1  -4  -3 179802. 5576.98  53
   1  -4  -3 164311. 5198.42  96
   1  -4  -3 175951. 5622.84  51
   1  -4  -2 23474.6 1108.80  85
   1  -4  -2 23492.7 1205.78  77
   1  -4  -2 23531.0 833.167  75
   1  -4  -2 25595.7 1182.25  53
   1  -4  -2 24322.4 1212.54  51
   1  -4  -1 64584.1 2418.09  85
   1  -4  -1 68209.3 2561.10  77
   1  -4  -1 67052.5 2144.17  75
   1  -4  -1 72369.8 2538.42  53
   1  -4  -1 71456.9 2567.33  51
   1  -4   0 22252.9 1042.84  85
   1  -4   0 24134.2 887.335  96
   1  -4   0 23372.1 1163.01  77
   1  -4   0 24244.1 1160.84  53
   1  -4   0 25540.5 1189.35  51
   1  -4   0 23912.6 857.925  88
   1  -4   1 117259. 3918.74  85
   1  -4   1 117772. 4085.20  77
   1  -4   1 123112. 3752.22  96
   1  -4   1 116747. 3699.59  73
   1  -4   1 119713. 4085.16  51
   1  -4   1 118996. 4067.30  53
   1  -4   1 120552. 3729.81  88
   1  -4   2 5587.04 516.079  77
   1  -4   2 5148.45 273.755  73
   1  -4   2 4907.79 286.767  72
   1  -4   2 4856.02 513.779  53
   1  -4   2 5473.43 344.765  96
   1  -4   2 5485.72 309.447  88
   1  -4   2 4752.98 348.291  90
   1  -4   2 5300.27 611.066  87
   1  -4   3 23534.9 1214.41  53
   1  -4   3 25447.8 1197.11  77
   1  -4   3 25284.8 908.487  72
   1  -4   3 26421.9 961.637  96
   1  -4   3 27715.2 947.414  88
   1  -4   3 24154.7 1321.43  87
   1  -4   4 272403. 8512.57  77
   1  -4   4 262454. 8149.91  72
   1  -4   4 267720. 8179.76  71
   1  -4   4 271766. 8203.04  96
   1  -4   4 263438. 8730.20  87
   1  -4   5 23675.0 1127.84  77
   1  -4   5 23847.0 875.331  71
   1  -4   5 22594.3 1200.65  62
   1  -4   5 23786.3 905.941  96
   1  -4   5 24521.9 1336.12  87
   1  -4   6 93989.8 2887.04  12
   1  -4   6 90583.5 2882.87  46
   1  -4   6 93662.6 2905.86  71
   1  -4   6 82649.0 2863.60  19
   1  -4   6 93441.5 3529.66  87
   1  -4   6 93573.7 2937.64  96
   1  -4   6 93560.8 2963.53  90
   1  -4   7 96608.6 3004.62  46
   1  -4   7 100512. 3064.52  78
   1  -4   7 98113.4 2986.73  12
   1  -4   7 101671. 3061.47  96
   1  -4   7 98299.4 3431.03  62
   1  -4   7 102108. 3013.74  31
   1  -4   7 100548. 3099.01  90
   1  -4   7 99328.8 3705.41  87
   1  -4   8 30653.8 1106.60  12
   1  -4   8 32738.9 1155.69  46
   1  -4   8 33510.9 1203.81  78
   1  -4   8 31727.9 1184.39  96
   1  -4   8 31243.9 1501.03  62
   1  -4   8 32628.9 1139.17  31
   1  -4   8 31866.7 1740.66  87
   1  -4   8 31181.3 1089.74  28
   1  -4   8 33330.0 1243.60  90
   1  -4   9 88689.5 2834.40  46
   1  -4   9 98256.4 2913.69  78
   1  -4   9 92313.0 3287.84  62
   1  -4   9 87757.5 2807.07  31
   1  -4   9 89876.4 2824.00  58
   1  -4   9 96180.8 2890.39  96
   1  -4   9 83847.0 2753.28  28
   1  -4   9 82381.1 2759.44  26
   1  -4   9 95355.7 2955.88  90
   1  -4   9 82072.1 2796.69  49
   1  -4   9 89113.0 2814.86  15
   1  -4   9 91090.0 3647.82  87
   1  -4   9 84996.6 2779.54  12
   1  -4  10 22268.7 893.699  78
   1  -4  10 20696.6 819.682  18
   1  -4  10 21086.8 1191.99  62
   1  -4  10 20163.6 818.478  31
   1  -4  10 22733.2 862.845  58
   1  -4  10 20636.3 834.778  49
   1  -4  10 20945.7 841.486  15
   1  -4  10 21191.4 781.003  29
   1  -4  10 22181.6 877.386  96
   1  -4  10 20649.4 785.422  26
   1  -4  10 23087.2 980.490  90
   1  -4  10 22415.1 1519.31  87
   1  -4  11 8724.65 494.618  78
   1  -4  11 9903.68 597.916  90
   1  -4  11 7688.31 444.481  18
   1  -4  11 8338.36 725.147  62
   1  -4  11 9175.22 499.037  58
   1  -4  11 8451.50 470.371  15
   1  -4  11 8234.63 469.748  49
   1  -4  11 10518.0 1063.00  87
   1  -4  12 4435.09 356.017  18
   1  -4  12 3684.72 531.623  62
   1  -4  12 5000.14 390.457  58
   1  -4  12 4323.18 285.582  56
   1  -4  12 4622.60 369.327  15
   1  -4  12 4510.30 442.943  90
   1  -4  12 4432.34 374.632  49
   1  -4  12 4519.90 775.803  87
   1  -4  13 3886.33 350.272  11
   1  -4  13 4518.96 356.758  18
   1  -4  13 4987.38 397.194  58
   1  -4  13 4601.18 381.229  15
   1  -4  13 4934.74 438.743  90
   1  -4  13 4299.07 380.261  49
   1  -4  13 5185.17 794.629  87
   1  -4  14 1524.41 289.436  11
   1  -4  14 1322.93 273.308  18
   1  -4  14 1461.47 310.773  58
   1  -4  14 1902.04 306.970  15
   1  -4  14 2298.58 332.797  90
   1  -4  14 1828.91 307.343  49
   1  -4  15 5916.46 405.487  11
   1  -4  15 5780.22 421.387  90
   1  -4  15 6175.42 396.108  18
   1  -4  15 6075.47 448.345  58
   1  -4  15 6520.55 424.830  15
   1  -4  15 6165.60 413.905  49
   1  -4  16 19772.8 778.948  11
   1  -4  16 19202.4 758.467  18
   1  -4  16 20148.4 798.171  15
   1  -4  16 18393.6 771.634  49
   1  -4  17 6224.83 338.108  18
   1  -4  17 6289.15 358.841  49
   1  -4  17 5645.92 318.793  25
   1  -4  18 827.392 151.702  25
   1  -3 -18 4931.33 268.557  48
   1  -3 -17 2728.81 281.442  48
   1  -3 -16 2599.17 324.093  48
   1  -3 -16 2383.69 230.161  54
   1  -3 -15 15616.1 678.158  54
   1  -3 -15 16614.6 744.075  48
   1  -3 -14 18896.4 859.015  48
   1  -3 -14 18490.8 795.194  44
   1  -3 -14 19505.1 845.367   5
   1  -3 -14 19497.3 819.852  54
   1  -3 -13 6827.87 516.602  48
   1  -3 -13 6586.60 461.004  44
   1  -3 -13 7035.03 493.953   5
   1  -3 -13 6728.68 480.752  54
   1  -3 -12 18377.0 849.005  48
   1  -3 -12 18591.0 794.995  44
   1  -3 -12 18880.0 832.953   5
   1  -3 -12 16684.4 768.604  97
   1  -3 -12 18906.3 837.223  54
   1  -3 -12 16086.5 1062.04  89
   1  -3 -11 5712.26 474.453  48
   1  -3 -11 5278.47 415.502  44
   1  -3 -11 4799.48 593.351  89
   1  -3 -11 5218.83 435.443   5
   1  -3 -11 5548.72 411.562  97
   1  -3 -11 5497.98 454.108  54
   1  -3 -10 10748.7 614.885  48
   1  -3 -10 11001.7 568.933  44
   1  -3 -10 10849.6 496.098  76
   1  -3 -10 11364.1 600.409   5
   1  -3 -10 9735.84 469.419  65
   1  -3 -10 12469.8 598.067  59
   1  -3 -10 10824.4 547.353  97
   1  -3 -10 11347.8 612.518  54
   1  -3 -10 9510.01 763.010  89
   1  -3  -9 6405.25 698.625  85
   1  -3  -9 6601.11 435.691  44
   1  -3  -9 6877.01 360.490  76
   1  -3  -9 7637.55 497.657  54
   1  -3  -9 6805.31 451.859   5
   1  -3  -9 6987.74 362.159  65
   1  -3  -9 8349.24 482.365  59
   1  -3  -9 6919.74 415.381  97
   1  -3  -9 5705.59 578.668  89
   1  -3  -9 8389.81 648.665  51
   1  -3  -8 30609.6 1564.30  85
   1  -3  -8 35374.4 1272.58  54
   1  -3  -8 34424.3 1226.92  44
   1  -3  -8 32433.5 1141.38  76
   1  -3  -8 34097.7 1238.59   5
   1  -3  -8 30104.6 1420.28  89
   1  -3  -8 33126.3 1154.96  65
   1  -3  -8 39024.8 1288.95  59
   1  -3  -8 36098.9 1543.70  51
   1  -3  -7 19413.2 1102.74  85
   1  -3  -7 19367.5 772.934  44
   1  -3  -7 19277.2 705.760  76
   1  -3  -7 20518.1 734.507  65
   1  -3  -7 18812.6 950.826  89
   1  -3  -7 22740.7 1029.66  53
   1  -3  -7 20267.3 1076.38  51
   1  -3  -6 68178.5 2644.84  85
   1  -3  -6 66728.0 2225.57  76
   1  -3  -6 76988.9 2275.04  65
   1  -3  -6 77127.8 2596.15  53
   1  -3  -6 74935.4 2649.35  51
   1  -3  -6 67720.6 2467.82  89
   1  -3  -5 201935. 6854.28  85
   1  -3  -5 213813. 6491.91  50
   1  -3  -5 225583. 6828.64  53
   1  -3  -5 218950. 6880.54  51
   1  -3  -5 203236. 6689.75  89
   1  -3  -4 131271. 4349.80  85
   1  -3  -4 137101. 4334.55  53
   1  -3  -4 132156. 4417.30  77
   1  -3  -4 128158. 4029.65  75
   1  -3  -4 129085. 4040.33  96
   1  -3  -4 136392. 4376.27  51
   1  -3  -4 132985. 4020.46  50
   1  -3  -4 124031. 4169.34  89
   1  -3  -3 359596. 11329.8  85
   1  -3  -3 367511. 11067.7  96
   1  -3  -3 355453. 11410.8  77
   1  -3  -3 362120. 11043.4  75
   1  -3  -3 378793. 11378.3  51
   1  -3  -3 370275. 11036.7  50
   1  -3  -3 345959. 11160.2  89
   1  -3  -3 371036. 11336.7  53
   1  -3  -2 27491.9 1174.92  85
   1  -3  -2 28659.7 965.954  96
   1  -3  -2 28220.3 1189.77  53
   1  -3  -2 28082.6 931.977  50
   1  -3  -2 26791.9 1215.88  77
   1  -3  -2 28469.2 935.622  75
   1  -3  -2 26473.9 1035.22  89
   1  -3  -2 26995.9 945.474  73
   1  -3  -2 29696.6 1229.11  51
   1  -3  -1 166880. 5350.32  85
   1  -3  -1 175468. 5413.95  53
   1  -3  -1 177043. 5457.01  77
   1  -3  -1 166674. 5132.85  73
   1  -3  -1 163046. 5134.25  72
   1  -3  -1 172100. 5421.01  51
   1  -3  -1 167878. 5121.79  50
   1  -3   0 156623. 4913.51  85
   1  -3   0 161125. 4995.02  51
   1  -3   0 153261. 4993.15  77
   1  -3   0 154154. 4703.34  73
   1  -3   0 152158. 4709.63  72
   1  -3   0 153668. 4698.62  50
   1  -3   0 157555. 4977.15  53
   1  -3   0 146909. 4718.86  96
   1  -3   0 155483. 4727.19  90
   1  -3   0 156792. 5074.51  87
   1  -3   1 29645.6 1173.97  85
   1  -3   1 29885.9 1024.50  96
   1  -3   1 30866.2 1262.48  77
   1  -3   1 29899.9 994.363  73
   1  -3   1 30942.2 1006.70  72
   1  -3   1 29046.0 1010.65  71
   1  -3   1 30240.2 1241.76  53
   1  -3   1 30697.8 1260.20  51
   1  -3   1 29982.7 1027.54  90
   1  -3   1 30886.8 1346.09  87
   1  -3   2 62928.3 2193.24  85
   1  -3   2 64258.6 2049.54  78
   1  -3   2 65564.9 2290.60  77
   1  -3   2 64157.7 2024.94  72
   1  -3   2 64548.0 2037.65  71
   1  -3   2 65090.8 2288.58  53
   1  -3   2 64319.5 2047.04  96
   1  -3   2 63195.2 2049.89  90
   1  -3   2 62873.0 2389.63  87
   1  -3   3 288761. 9328.81  85
   1  -3   3 299490. 9183.84  78
   1  -3   3 309423. 9440.46  77
   1  -3   3 302975. 9158.08  72
   1  -3   3 303326. 9173.79  71
   1  -3   3 304199. 9186.59  96
   1  -3   3 298999. 9578.98  87
   1  -3   4 40409.4 1547.91  85
   1  -3   4 42160.0 1404.15  78
   1  -3   4 43137.3 1632.21  77
   1  -3   4 42527.2 1387.58  71
   1  -3   4 41661.5 1405.26  96
   1  -3   4 43960.6 1801.78  87
   1  -3   5 292622. 8920.36  78
   1  -3   5 287090. 9172.55  77
   1  -3   5 292162. 8913.70  96
   1  -3   5 295274. 9383.29  87
   1  -3   6 59054.1 1961.85  78
   1  -3   6 58540.2 2206.81  77
   1  -3   6 59695.0 2222.92  62
   1  -3   6 61298.6 1961.36  96
   1  -3   6 60699.3 1955.32  95
   1  -3   6 59210.9 1970.67  90
   1  -3   6 56119.2 2407.57  87
   1  -3   7 70701.3 2277.85  78
   1  -3   7 67774.0 2537.69  77
   1  -3   7 67411.1 2538.77  62
   1  -3   7 69071.1 2273.43  96
   1  -3   7 69929.6 2268.94  95
   1  -3   7 70729.1 2295.23  90
   1  -3   7 69297.0 2788.60  87
   1  -3   8 2892.55 245.671  46
   1  -3   8 2830.78 288.842  78
   1  -3   8 2992.25 433.182  62
   1  -3   8 3058.66 254.899  58
   1  -3   8 2737.77 276.974  96
   1  -3   8 2817.37 313.559  95
   1  -3   8 2797.78 317.796  90
   1  -3   8 2415.73 543.704  87
   1  -3   9 887.008 504.047  87
   1  -3   9 612.318 205.191  78
   1  -3   9 741.298 214.003  15
   1  -3   9 950.331 346.416  62
   1  -3   9 596.522 199.174  58
   1  -3   9 613.043 166.751  31
   1  -3   9 626.750 209.068  96
   1  -3   9 700.336 269.273  95
   1  -3   9 673.275 265.313  90
   1  -3  10 4376.57 328.966  78
   1  -3  10 3881.11 483.818  62
   1  -3  10 3359.45 298.806  18
   1  -3  10 4029.28 320.930  58
   1  -3  10 3700.20 310.116  15
   1  -3  10 3690.54 318.623  96
   1  -3  10 3992.39 383.856  95
   1  -3  10 4093.31 393.527  90
   1  -3  10 3824.53 320.824  49
   1  -3  10 4148.88 715.272  87
   1  -3  11 5731.76 395.798  49
   1  -3  11 5114.38 371.571  78
   1  -3  11 4859.99 514.133  62
   1  -3  11 4882.41 367.374  18
   1  -3  11 5131.58 370.258  58
   1  -3  11 5339.71 367.219  15
   1  -3  11 5971.44 462.386  95
   1  -3  11 5254.88 360.967  96
   1  -3  11 5644.72 449.311  90
   1  -3  11 5781.02 818.166  87
   1  -3  12 36316.7 1352.63  78
   1  -3  12 37098.4 2086.49  87
   1  -3  12 34465.0 1565.73  62
   1  -3  12 36964.8 1348.22  18
   1  -3  12 36970.4 1333.12  15
   1  -3  12 39488.7 1435.46  95
   1  -3  12 38575.5 1427.56  90
   1  -3  12 37863.5 1358.34  49
   1  -3  13 11480.7 611.232  49
   1  -3  13 11399.2 597.221  18
   1  -3  13 11354.8 595.144  15
   1  -3  13 12612.6 666.453  95
   1  -3  13 11990.1 663.091  90
   1  -3  13 13154.6 1179.19  87
   1  -3  14 251.569 301.314  95
   1  -3  14 492.703 228.714  20
   1  -3  14 196.391 275.449  18
   1  -3  14 345.037 290.288  15
   1  -3  14 376.266 275.610  90
   1  -3  14 59.7912 298.070  49
   1  -3  14 63.6949 473.452  87
   1  -3  15 12591.5 594.795  20
   1  -3  15 13689.4 653.444  18
   1  -3  15 13789.4 655.918  15
   1  -3  15 13041.2 680.119  95
   1  -3  15 12617.6 659.986  90
   1  -3  15 14151.7 666.330  49
   1  -3  16 3166.41 281.759  20
   1  -3  16 3598.79 353.541  18
   1  -3  16 3334.15 371.611  15
   1  -3  16 3366.55 356.633  49
   1  -3  16 2489.86 300.665  90
   1  -3  17 944.552 197.593  20
   1  -3  17 1041.27 248.731  18
   1  -3  17 1301.70 274.729  49
   1  -3  18 2631.00 260.712  49
   1  -3  18 2583.97 247.276  18
   1  -3  19 2820.92 181.109  25
   1  -2 -19 533.709 143.910  48
   1  -2 -18 3373.56 278.715  48
   1  -2 -17 870.859 268.856  48
   1  -2 -17 1144.40 213.091  44
   1  -2 -17 1147.16 236.591   5
   1  -2 -16 5025.87 420.672  48
   1  -2 -16 4892.57 345.813  44
   1  -2 -16 5105.44 389.502   5
   1  -2 -16 4790.99 330.713  54
   1  -2 -15 24226.4 960.369  48
   1  -2 -15 22031.8 892.796  44
   1  -2 -15 24337.3 944.194   5
   1  -2 -15 22329.1 896.334  54
   1  -2 -14 10705.2 605.285  48
   1  -2 -14 10130.1 542.483  44
   1  -2 -14 10454.9 570.512   5
   1  -2 -14 10089.7 551.372  54
   1  -2 -14 9857.56 1018.60  52
   1  -2 -14 9534.07 872.423  89
   1  -2 -13 2110.03 357.489  48
   1  -2 -13 2271.88 326.667  44
   1  -2 -13 2298.74 335.912   5
   1  -2 -13 2377.04 322.824  54
   1  -2 -13 1560.94 566.528  52
   1  -2 -13 2116.53 529.996  89
   1  -2 -12 483.136 236.118  97
   1  -2 -12 608.518 289.542  48
   1  -2 -12 721.091 256.756  44
   1  -2 -12 385.822 239.092  76
   1  -2 -12 720.828 194.965  74
   1  -2 -12 562.147 272.223   5
   1  -2 -12 379.779 410.231  89
   1  -2 -12 753.576 279.366  54
   1  -2 -12 202.025 463.363  52
   1  -2 -11 392.530 239.836  44
   1  -2 -11 206.558 219.924  76
   1  -2 -11 306.400 169.201  74
   1  -2 -11 126.416 226.660   5
   1  -2 -11 327.148 222.601  97
   1  -2 -11 243.307 233.260  54
   1  -2 -11 693.001 435.570  52
   1  -2 -11 237.668 379.504  89
   1  -2 -10 35059.0 1793.06  85
   1  -2 -10 41187.9 1374.98  76
   1  -2 -10 37930.6 1337.45  74
   1  -2 -10 40430.9 1416.48   5
   1  -2 -10 42156.4 1395.99  97
   1  -2 -10 46043.2 2004.35  52
   1  -2 -10 44403.4 1724.26  51
   1  -2 -10 41547.6 1769.38  89
   1  -2  -9 4050.26 277.321  76
   1  -2  -9 3915.15 244.982  74
   1  -2  -9 4021.19 305.837   5
   1  -2  -9 3879.35 233.137  65
   1  -2  -9 4180.24 298.857  97
   1  -2  -9 4476.48 466.603  51
   1  -2  -9 3701.36 491.196  89
   1  -2  -8 17381.9 915.025  89
   1  -2  -8 16513.6 636.541  76
   1  -2  -8 15983.4 607.853  74
   1  -2  -8 17851.3 622.112  65
   1  -2  -8 18348.4 875.358  53
   1  -2  -8 19385.8 941.258  51
   1  -2  -7 34187.2 1324.06  53
   1  -2  -7 32770.3 1061.08  76
   1  -2  -7 29753.6 1031.86  65
   1  -2  -7 33911.7 1364.40  51
   1  -2  -7 31029.7 1321.19  89
   1  -2  -6 119413. 4190.03  85
   1  -2  -6 134982. 4154.73  53
   1  -2  -6 130664. 4178.16  51
   1  -2  -6 118521. 4101.19  89
   1  -2  -5 739.973 326.050  85
   1  -2  -5 540.045 300.390  77
   1  -2  -5 535.414 138.140  75
   1  -2  -5 476.706 259.426  53
   1  -2  -5 796.000 286.678  51
   1  -2  -5 525.479 274.978  89
   1  -2  -4 41297.0 1491.78  85
   1  -2  -4 36680.8 1233.15  96
   1  -2  -4 41248.9 1470.33  51
   1  -2  -4 41351.8 1454.03  53
   1  -2  -4 36376.3 1499.68  52
   1  -2  -4 38925.1 1411.81  89
   1  -2  -3 590750. 18107.2  85
   1  -2  -3 576892. 17874.4  73
   1  -2  -3 592356. 18114.5  52
   1  -2  -3 603340. 17871.7  96
   1  -2  -3 598586. 18068.1  53
   1  -2  -3 597223. 18076.7  51
   1  -2  -3 598398. 18027.5  89
   1  -2  -2 89211.9 2956.14  85
   1  -2  -2 92579.1 2992.33  77
   1  -2  -2 88041.4 2929.30  53
   1  -2  -2 88504.0 2760.46  96
   1  -2  -2 91356.6 2944.08  51
   1  -2  -1 477345. 14369.8  85
   1  -2  -1 467032. 14187.7  96
   1  -2  -1 471899. 14405.0  77
   1  -2  -1 472594. 14356.1  53
   1  -2  -1 468977. 14359.0  51
   1  -2   0 487616. 14810.8  85
   1  -2   0 496730. 14857.0  77
   1  -2   0 466860. 14805.0  51
   1  -2   0 488095. 14642.8  90
   1  -2   0 481815. 14898.8  87
   1  -2   1 212670. 6591.41  85
   1  -2   1 212296. 6628.47  77
   1  -2   1 207592. 6435.24  96
   1  -2   1 213173. 6430.66  90
   1  -2   1 222467. 6697.02  87
   1  -2   2 224503. 6911.00  77
   1  -2   2 226501. 6874.36  51
   1  -2   2 216908. 6710.02  96
   1  -2   2 220316. 6707.38  90
   1  -2   2 227608. 6983.76  87
   1  -2   3 210922. 6507.58  53
   1  -2   3 208834. 6549.66  77
   1  -2   3 208466. 6323.27  95
   1  -2   3 208159. 6621.72  87
   1  -2   3 206615. 6340.63  96
   1  -2   4 302837. 9200.90  84
   1  -2   4 294721. 9245.23  87
   1  -2   4 294752. 8926.07  78
   1  -2   4 293969. 9153.74  77
   1  -2   4 291119. 8926.33  70
   1  -2   4 288197. 9076.57  53
   1  -2   4 299514. 8926.79  96
   1  -2   4 290299. 8905.20  95
   1  -2   5 50233.1 1911.63  84
   1  -2   5 51308.6 1850.12  77
   1  -2   5 51122.5 1814.74  62
   1  -2   5 49429.4 1614.21  96
   1  -2   5 48797.8 1593.74  95
   1  -2   5 50597.9 1968.62  87
   1  -2   6 69689.4 2565.35  84
   1  -2   6 66948.4 2451.27  77
   1  -2   6 68955.0 2379.10  62
   1  -2   6 69699.0 2202.34  96
   1  -2   6 67399.9 2179.71  95
   1  -2   6 69542.9 2210.16  90
   1  -2   6 67595.4 2606.52  87
   1  -2   7 25321.2 1304.60  84
   1  -2   7 25488.0 947.391  90
   1  -2   7 23981.4 1169.30  77
   1  -2   7 26815.8 954.275  70
   1  -2   7 24264.0 1071.40  62
   1  -2   7 25499.1 913.901  95
   1  -2   7 25309.9 928.273  96
   1  -2   7 24824.5 1329.87  87
   1  -2   8 113747. 3962.84  84
   1  -2   8 106569. 3407.76  90
   1  -2   8 109106. 3418.57  70
   1  -2   8 102091. 3558.69  62
   1  -2   8 108701. 3386.02  95
   1  -2   8 103871. 3379.07  96
   1  -2   8 112147. 4017.02  87
   1  -2   9 73249.7 2872.75  84
   1  -2   9 69623.0 2269.38  95
   1  -2   9 69171.4 2627.24  77
   1  -2   9 72079.7 2298.85  70
   1  -2   9 65369.6 2425.66  62
   1  -2   9 66935.5 2208.03  58
   1  -2   9 66650.3 2246.25  96
   1  -2   9 66076.9 2496.64   1
   1  -2   9 70444.4 2292.98  90
   1  -2   9 77843.0 2983.06  87
   1  -2  10 11904.5 1021.64  84
   1  -2  10 11244.3 576.671  90
   1  -2  10 11509.4 587.773  70
   1  -2  10 10584.5 731.919   1
   1  -2  10 10736.8 648.199  62
   1  -2  10 10570.4 501.647  58
   1  -2  10 11493.4 536.057  96
   1  -2  10 11775.1 567.683  95
   1  -2  10 12213.2 1048.77  87
   1  -2  10 10574.6 515.162  49
   1  -2  11 27589.2 1630.21  84
   1  -2  11 24362.3 951.555  11
   1  -2  11 27342.1 1018.50  78
   1  -2  11 27854.7 1068.54  90
   1  -2  11 29129.3 1089.29  70
   1  -2  11 25580.0 1149.64  62
   1  -2  11 25231.8 989.831  18
   1  -2  11 26919.3 990.101  58
   1  -2  11 26399.1 1005.76  49
   1  -2  11 25129.4 999.273  96
   1  -2  11 27862.6 1048.47  95
   1  -2  11 31317.4 1741.33  87
   1  -2  12 33363.5 1885.26  84
   1  -2  12 32450.9 1168.56  11
   1  -2  12 31363.6 1197.07  78
   1  -2  12 36249.6 1297.89  70
   1  -2  12 32573.4 1203.54  18
   1  -2  12 33052.7 1202.50  58
   1  -2  12 30651.6 1186.07  96
   1  -2  12 32907.0 1249.82  95
   1  -2  12 31334.9 1252.34  90
   1  -2  12 32348.6 1203.01  49
   1  -2  12 34273.0 1948.60  87
   1  -2  13 29817.2 1871.61  87
   1  -2  13 30339.6 1872.83  84
   1  -2  13 30466.1 1132.23  11
   1  -2  13 28915.1 1137.32  78
   1  -2  13 31245.7 1206.17  95
   1  -2  13 30424.5 1163.62  18
   1  -2  13 31365.1 1174.99  58
   1  -2  13 31079.7 1214.91  90
   1  -2  14 34692.9 1251.88  11
   1  -2  14 33702.8 1280.88  18
   1  -2  14 36747.7 1319.00  58
   1  -2  14 32696.6 1302.65  95
   1  -2  14 31900.4 1298.62  90
   1  -2  14 33723.2 1997.72  87
   1  -2  15 11978.4 591.198  11
   1  -2  15 10625.6 569.789  20
   1  -2  15 11302.0 607.996  18
   1  -2  15 11669.9 632.367  95
   1  -2  15 10629.8 1079.14  87
   1  -2  15 11110.5 607.042  90
   1  -2  16 17558.2 755.069  20
   1  -2  16 18263.8 798.540  95
   1  -2  16 16885.5 773.593  90
   1  -2  16 16712.4 721.050  25
   1  -2  17 1368.31 246.484  25
   1  -2  17 1585.57 255.363  20
   1  -2  17 1167.97 280.566  18
   1  -2  17 1001.83 251.969  95
   1  -2  18 5154.39 315.608  20
   1  -2  18 5267.48 347.438  18
   1  -2  18 5856.69 355.191  49
   1  -2  18 4951.89 313.306  25
   1  -2  19 8768.48 356.273  20
   1  -2  19 8756.12 359.531  25
   1  -1 -19 211.347 188.505  48
   1  -1 -18 6247.19 388.634  48
   1  -1 -18 6047.44 326.951  44
   1  -1 -18 6878.85 361.767   5
   1  -1 -17 13162.3 627.287  48
   1  -1 -17 13289.2 571.666  44
   1  -1 -17 13410.5 600.756   5
   1  -1 -16 3713.52 379.391  48
   1  -1 -16 3839.82 334.138  44
   1  -1 -16 3656.91 348.402   5
   1  -1 -15 2867.48 362.885  48
   1  -1 -15 1917.35 242.865  82
   1  -1 -15 2561.22 310.090  44
   1  -1 -15 2736.56 323.580   5
   1  -1 -15 2332.83 285.648  54
   1  -1 -15 1734.42 529.042  52
   1  -1 -15 2196.16 578.095  89
   1  -1 -14 2849.89 367.804  48
   1  -1 -14 2679.73 273.673  82
   1  -1 -14 2555.15 602.069  52
   1  -1 -14 3134.67 631.919  89
   1  -1 -13 51597.4 1779.26  48
   1  -1 -13 52591.2 2395.17  52
   1  -1 -13 49819.4 1713.37  82
   1  -1 -13 52485.6 1735.18  74
   1  -1 -13 50980.9 2295.41  89
   1  -1 -12 4456.57 376.195  48
   1  -1 -12 4967.24 370.781  23
   1  -1 -12 4438.85 305.678  82
   1  -1 -12 4413.93 353.989  76
   1  -1 -12 4074.41 311.252  74
   1  -1 -12 4625.17 644.932  52
   1  -1 -12 3916.85 618.556  89
   1  -1 -12 4900.86 358.887   6
   1  -1 -11 8465.26 462.914  23
   1  -1 -11 8598.22 420.358  82
   1  -1 -11 9018.06 461.533  76
   1  -1 -11 9218.05 433.376  74
   1  -1 -11 8585.26 430.058  97
   1  -1 -11 9132.31 800.863  52
   1  -1 -11 10205.3 789.274  89
   1  -1 -11 8265.24 627.842  51
   1  -1 -11 10343.0 481.450   6
   1  -1 -10 85826.0 2604.54  23
   1  -1 -10 74502.8 2966.35  85
   1  -1 -10 80025.4 2580.87  76
   1  -1 -10 78250.1 2556.04  74
   1  -1 -10 80733.1 2565.81  97
   1  -1 -10 81173.2 2833.62  53
   1  -1 -10 85476.6 3066.48  52
   1  -1 -10 81917.0 2878.85  51
   1  -1 -10 79212.9 2974.93  89
   1  -1  -9 37264.8 1594.02  85
   1  -1  -9 37033.9 1240.87  76
   1  -1  -9 35702.4 1222.51  74
   1  -1  -9 36719.0 1624.74  63
   1  -1  -9 37348.4 1233.12  97
   1  -1  -9 37238.8 1463.76  53
   1  -1  -9 36822.1 1623.49  52
   1  -1  -9 39340.4 1511.18  51
   1  -1  -9 35658.4 1568.48  89
   1  -1  -8 146032. 4951.72  85
   1  -1  -8 148819. 4605.14  76
   1  -1  -8 152156. 4961.80  63
   1  -1  -8 150711. 4602.39  97
   1  -1  -8 149888. 4833.74  53
   1  -1  -8 151827. 4866.70  51
   1  -1  -8 145424. 4921.41  89
   1  -1  -7 57898.3 2164.37  85
   1  -1  -7 57706.6 2149.29  63
   1  -1  -7 59899.5 2097.51  51
   1  -1  -7 59779.6 2162.13  89
   1  -1  -6 59544.3 2205.43  85
   1  -1  -6 63955.6 2221.49  63
   1  -1  -6 65178.6 2172.12  51
   1  -1  -6 60953.5 2190.06  89
   1  -1  -5 229591. 7677.08  85
   1  -1  -5 241757. 7650.47  77
   1  -1  -5 251649. 7663.61  63
   1  -1  -5 262565. 7673.07  51
   1  -1  -5 245035. 7671.66  89
   1  -1  -4 26659.2 1039.07  77
   1  -1  -4 27799.7 1049.73  89
   1  -1  -4 26162.6 997.365  63
   1  -1  -4 25044.7 1017.87  52
   1  -1  -4 28107.0 1023.05  51
   1  -1  -3 701852. 20889.4  77
   1  -1  -3 682133. 20856.5  53
   1  -1  -3 683637. 20853.2  52
   1  -1  -2 190836. 5833.49  85
   1  -1  -2 185188. 5758.91  52
   1  -1  -1 416083. 12390.1  85
   1  -1  -1 401090. 12296.2  52
   1  -1  -1 406422. 12373.4  87
   1  -1   0 71221.6 2318.17  77
   1  -1   0 70857.8 2310.20  87
   1  -1   1 14856.3 554.637  84
   1  -1   1 14682.4 642.946  77
   1  -1   1 14773.8 583.982  53
   1  -1   1 14720.7 574.268  51
   1  -1   2 981678. 29603.3  84
   1  -1   2 978199. 29575.5  64
   1  -1   2 996856. 29592.8  53
   1  -1   2 969065. 29571.1  51
   1  -1   3 350576. 10386.4  84
   1  -1   3 329046. 10298.8  53
   1  -1   3 341231. 10343.7  64
   1  -1   4 173567. 5323.31  86
   1  -1   4 174130. 5402.24  84
   1  -1   4 168878. 5345.45  64
   1  -1   4 168537. 5170.35  95
   1  -1   5 196627. 5984.83  86
   1  -1   5 191720. 6069.95  84
   1  -1   5 191898. 5880.78  62
   1  -1   5 192920. 5778.67  95
   1  -1   5 181160. 5793.90  90
   1  -1   6 86260.0 2837.66  86
   1  -1   6 81438.8 2901.91  84
   1  -1   6 82577.2 2580.06  79
   1  -1   6 79363.0 2656.31  62
   1  -1   6 86670.6 2989.39  87
   1  -1   6 82840.0 2570.20  95
   1  -1   6 79927.7 2588.34  90
   1  -1   7 105279. 3492.83  86
   1  -1   7 98319.6 3556.75  84
   1  -1   7 104131. 3182.21  79
   1  -1   7 97120.2 3182.23  70
   1  -1   7 99294.6 3265.88  62
   1  -1   7 101943. 3170.38  95
   1  -1   7 102234. 3153.91  92
   1  -1   7 99505.3 3190.84  90
   1  -1   7 110015. 3686.92  87
   1  -1   8 335921. 10040.7  86
   1  -1   8 316860. 10127.9  84
   1  -1   8 330048. 9659.77  79
   1  -1   8 305369. 9657.10  70
   1  -1   8 300124. 9724.66  62
   1  -1   8 317184. 9639.29  95
   1  -1   8 320827. 9625.36  92
   1  -1   8 318370. 10231.8  87
   1  -1   8 308749. 9660.72  90
   1  -1   8 320391. 9976.93   1
   1  -1   9 65750.5 2450.94  86
   1  -1   9 62235.0 2540.22  84
   1  -1   9 61650.7 2021.29  95
   1  -1   9 60429.2 2042.10  70
   1  -1   9 57685.4 2088.69  62
   1  -1   9 59923.1 2350.58   1
   1  -1   9 63634.9 2009.24  92
   1  -1   9 61158.9 2045.81  90
   1  -1   9 62072.1 2603.44  87
   1  -1  10 18033.2 1111.47  86
   1  -1  10 16927.5 1175.47  84
   1  -1  10 16815.1 658.081  11
   1  -1  10 15618.6 734.003  70
   1  -1  10 16875.9 1009.49   1
   1  -1  10 18016.2 701.253  58
   1  -1  10 16466.3 673.693  15
   1  -1  10 18225.5 730.913  95
   1  -1  10 17946.3 712.006  92
   1  -1  10 16916.8 733.429  90
   1  -1  10 16070.1 683.835  49
   1  -1  10 17825.9 1220.75  87
   1  -1  11 54809.2 2628.84  87
   1  -1  11 54882.7 2333.73   1
   1  -1  11 57239.2 2566.79  84
   1  -1  11 53250.2 1930.24  90
   1  -1  11 53633.6 1848.63  11
   1  -1  11 57353.9 1940.83  70
   1  -1  11 58769.2 1902.75  58
   1  -1  11 56525.9 1874.26  15
   1  -1  11 57900.1 1925.07  95
   1  -1  11 58219.7 1903.95  92
   1  -1  11 54288.1 1878.38  49
   1  -1  12 21241.5 1462.32  84
   1  -1  12 23251.4 881.891  11
   1  -1  12 21936.6 948.025  70
   1  -1  12 24645.3 944.428  58
   1  -1  12 21687.9 939.369  90
   1  -1  12 22853.0 906.814  15
   1  -1  12 23525.5 946.212  95
   1  -1  12 20712.8 1272.70   1
   1  -1  12 20740.8 892.013  49
   1  -1  12 21346.2 1507.89  87
   1  -1  13 17857.2 1369.76  84
   1  -1  13 19922.9 793.551  11
   1  -1  13 18193.0 839.962  70
   1  -1  13 20263.2 817.990  15
   1  -1  13 18633.6 1198.51   1
   1  -1  13 15422.1 751.988  96
   1  -1  13 19049.2 837.212  95
   1  -1  13 17741.5 824.934  90
   1  -1  13 17959.9 797.912  49
   1  -1  13 16249.1 1383.64  87
   1  -1  14 13379.7 1214.48  84
   1  -1  14 14415.5 723.039  70
   1  -1  14 12693.3 668.723  20
   1  -1  14 13707.3 687.853  18
   1  -1  14 15327.6 715.423  15
   1  -1  14 13023.6 701.515  95
   1  -1  14 13864.2 698.779  90
   1  -1  14 14536.1 694.678  49
   1  -1  14 13105.0 1201.47  87
   1  -1  15 12505.6 659.459  70
   1  -1  15 11917.8 625.047  20
   1  -1  15 12584.4 639.214  18
   1  -1  15 12021.1 642.722  95
   1  -1  15 12387.6 641.039  90
   1  -1  15 13040.1 645.989  49
   1  -1  15 11922.7 585.325  25
   1  -1  15 10416.5 1090.62  87
   1  -1  16 3235.70 353.573  20
   1  -1  16 3237.16 349.034  18
   1  -1  16 3236.83 342.782  95
   1  -1  16 3190.23 320.923  90
   1  -1  16 2789.07 303.245  25
   1  -1  16 2749.73 347.180  49
   1  -1  17 10727.3 532.020  20
   1  -1  17 11149.8 537.017  18
   1  -1  17 9438.52 515.576  95
   1  -1  17 9850.90 487.892  25
   1  -1  17 11009.8 529.502  49
   1  -1  18 7399.63 387.420  20
   1  -1  18 7624.91 395.130  18
   1  -1  18 6704.92 357.095  25
   1  -1  19 1287.31 163.171  20
   1  -1  19 945.776 133.516  25
   1   0 -20 5719.31 267.133  48
   1   0 -19 2366.66 237.777  48
   1   0 -19 1968.53 195.817   5
   1   0 -18 21063.9 805.555  48
   1   0 -18 20353.7 755.835  44
   1   0 -18 20182.4 773.664   5
   1   0 -17 5340.78 397.642  48
   1   0 -17 5493.54 356.010  44
   1   0 -17 5091.70 358.994   5
   1   0 -16 2976.94 361.293  48
   1   0 -16 3354.71 307.612  82
   1   0 -15 3882.81 388.915  48
   1   0 -15 4053.79 376.555  23
   1   0 -15 4103.22 341.509  82
   1   0 -15 3280.41 607.475  52
   1   0 -15 3095.85 623.416  89
   1   0 -14 10492.4 563.706  48
   1   0 -14 10790.7 553.693  23
   1   0 -14 10492.0 531.360  82
   1   0 -14 9846.20 909.625  52
   1   0 -14 9805.60 928.095  89
   1   0 -13 21775.7 881.920  48
   1   0 -13 22679.6 882.666  23
   1   0 -13 22981.6 872.633  82
   1   0 -13 21545.5 870.195  74
   1   0 -13 20818.7 1296.48  63
   1   0 -13 21085.7 1308.95  52
   1   0 -12 4307.11 322.627  23
   1   0 -12 4666.54 354.850  22
   1   0 -12 4305.55 322.437  82
   1   0 -12 4769.87 341.130  74
   1   0 -12 4604.09 583.350  63
   1   0 -12 3965.80 576.495  52
   1   0 -12 4558.45 485.367  51
   1   0 -11 44495.5 1503.31  23
   1   0 -11 46839.6 1529.06  22
   1   0 -11 44475.1 1505.07  74
   1   0 -11 42004.7 1889.54  63
   1   0 -11 44115.3 1928.06  52
   1   0 -11 43032.7 1766.51  51
   1   0 -10 10978.3 469.631  74
   1   0 -10 10333.4 727.411  64
   1   0 -10 11073.5 741.180  63
   1   0 -10 9273.95 633.148  51
   1   0 -10 10668.5 741.352  52
   1   0  -9 17722.3 656.162  74
   1   0  -9 17025.5 917.401  64
   1   0  -9 18216.8 922.401  63
   1   0  -9 16884.4 931.159  52
   1   0  -8 87915.3 3050.14  85
   1   0  -8 89563.2 2767.41  97
   1   0  -8 90581.4 3097.45  64
   1   0  -8 89451.7 3063.91  63
   1   0  -8 90461.3 3088.34  52
   1   0  -7 5480.25 444.554  85
   1   0  -7 5033.42 428.938  64
   1   0  -7 5197.76 420.963  63
   1   0  -6 55774.4 1925.49  85
   1   0  -6 55557.3 1940.60  64
   1   0  -6 54709.3 1913.35  63
   1   0  -5 138907. 4579.36  85
   1   0  -5 147627. 4620.54  64
   1   0  -5 151181. 4592.97  63
   1   0  -4 528802. 15361.3  85
   1   0  -4 487185. 15281.5  77
   1   0  -4 515012. 15363.5  64
   1   0  -4 504332. 15339.6  63
   1   0  -3 191974. 5708.25  85
   1   0  -3 186498. 5647.62  77
   1   0  -3 185971. 5689.97  64
   1   0  -3 183868. 5668.15  63
   1   0  -3 175104. 5697.93  52
   1   0  -2 40986.6 1335.02  85
   1   0  -2 39483.7 1288.21  77
   1   0  -2 39582.2 1295.27  64
   1   0  -2 39270.8 1273.89  63
   1   0  -2 38535.7 1303.73  52
   1   0  -1 124326. 3820.35  64
   1   0   0 830950. 25017.6  87
   1   0   1 150293. 4447.17  84
   1   0   1 145844. 4390.70  53
   1   0   1 141912. 4370.11  51
   1   0   1 142550. 4443.03  87
   1   0   2 404161. 12023.6  84
   1   0   2 410235. 11992.2  64
   1   0   2 389383. 11899.8  53
   1   0   2 388968. 12033.4  87
   1   0   2 401474. 11973.1  86
   1   0   3 260653. 7895.55  86
   1   0   3 257173. 7955.60  84
   1   0   3 255036. 7909.95  64
   1   0   3 258134. 7788.73  62
   1   0   4 39181.9 1406.03  86
   1   0   4 38380.7 1480.09  84
   1   0   4 40296.9 1250.15  62
   1   0   4 40021.7 1269.47  95
   1   0   5 131427. 4483.85  84
   1   0   5 132967. 4403.82  86
   1   0   5 145537. 4222.40  62
   1   0   5 133301. 4229.07  95
   1   0   5 137721. 4288.57  94
   1   0   6 69120.6 2431.17  86
   1   0   6 63887.4 2506.40  84
   1   0   6 68386.4 2212.77  79
   1   0   6 68492.0 2210.27  95
   1   0   6 75696.4 2210.35  62
   1   0   6 69750.2 2300.48  94
   1   0   7 90084.8 3146.82  86
   1   0   7 83058.7 3233.97  84
   1   0   7 89185.0 2877.45  79
   1   0   7 95179.2 2864.71  69
   1   0   7 92069.1 2876.96  95
   1   0   7 92796.5 3224.17   1
   1   0   8 39318.6 1588.01  86
   1   0   8 37255.0 1690.61  84
   1   0   8 37448.0 1280.76  79
   1   0   8 36076.3 1616.11   1
   1   0   8 37234.8 1274.18  95
   1   0   8 36740.3 1286.52  90
   1   0   9 65318.2 2510.01  86
   1   0   9 58792.4 2583.07  84
   1   0   9 66035.1 2128.80  79
   1   0   9 63841.3 2540.16   1
   1   0   9 64802.7 2091.48  92
   1   0   9 64209.9 2113.78  95
   1   0   9 63834.4 2131.72  90
   1   0  10 4590.96 580.125  86
   1   0  10 4418.92 671.318  84
   1   0  10 5971.82 351.404  11
   1   0  10 4231.25 608.293   1
   1   0  10 4856.67 378.952  79
   1   0  10 4872.29 368.158  90
   1   0  10 4808.70 330.011  18
   1   0  10 5543.51 359.410  15
   1   0  10 5198.12 369.058  95
   1   0  10 5246.43 345.766  92
   1   0  10 4698.82 329.489  49
   1   0  11 21668.1 1326.67  86
   1   0  11 23197.3 933.725  95
   1   0  11 20060.0 1392.49  84
   1   0  11 23507.6 958.822  79
   1   0  11 22103.7 935.924  70
   1   0  11 22998.5 898.240  18
   1   0  11 26947.3 946.292  15
   1   0  11 24180.4 917.362  92
   1   0  11 23257.3 944.765  90
   1   0  11 21070.8 1336.20   1
   1   0  11 21697.9 888.098  49
   1   0  12 12685.9 1026.22  86
   1   0  12 13435.2 1161.98  84
   1   0  12 14002.9 704.946  79
   1   0  12 13612.0 681.582  70
   1   0  12 12629.3 623.311  18
   1   0  12 16090.2 696.402  15
   1   0  12 13482.7 1058.67   1
   1   0  12 13157.0 663.999  95
   1   0  12 13302.2 642.084  92
   1   0  12 12377.1 661.668  90
   1   0  12 12900.5 627.473  49
   1   0  12 13393.3 623.329  25
   1   0  13 82342.9 3307.70  86
   1   0  13 75742.2 3419.64  84
   1   0  13 83264.0 2730.03  70
   1   0  13 77588.3 2656.91  18
   1   0  13 82347.5 3322.14   1
   1   0  13 82273.2 2707.60  95
   1   0  13 83530.8 2684.09  92
   1   0  13 79993.4 2713.63  90
   1   0  13 82136.7 2670.09  49
   1   0  13 79809.9 2651.88  25
   1   0  13 75515.4 3455.74  87
   1   0  14 7064.28 902.908  84
   1   0  14 6798.07 493.836  70
   1   0  14 6713.05 461.068  18
   1   0  14 7092.47 812.547   1
   1   0  14 6772.54 488.608  95
   1   0  14 6386.81 455.193  92
   1   0  14 6015.99 468.733  90
   1   0  14 6658.42 447.304  25
   1   0  14 6676.34 914.948  87
   1   0  14 7402.35 468.921  49
   1   0  15 23817.9 1023.47  70
   1   0  15 26248.8 994.128  18
   1   0  15 24291.1 1009.11  95
   1   0  15 23695.0 1009.99  90
   1   0  15 24615.1 973.498  25
   1   0  15 26921.4 995.687  49
   1   0  15 23324.6 1593.58  87
   1   0  16 1772.26 294.096  70
   1   0  16 1716.63 284.704  18
   1   0  16 1778.30 298.216  95
   1   0  16 1653.86 269.629  90
   1   0  16 1926.30 290.658  49
   1   0  16 1819.30 282.864  25
   1   0  17 9523.71 448.297  18
   1   0  17 8716.66 428.158  25
   1   0  18 4854.19 282.050  17
   1   0  18 4443.68 258.875  25
   1   0  19 47.3238 98.5512   9
   1   1 -20 631.197 130.563  48
   1   1 -19 1075.54 209.377  48
   1   1 -19 1053.88 162.435   5
   1   1 -18 11111.9 514.962  48
   1   1 -18 10203.3 466.810   5
   1   1 -17 6433.48 425.751  48
   1   1 -16 28292.6 1059.40  48
   1   1 -16 28165.6 1061.46  82
   1   1 -16 26232.7 1007.37  81
   1   1 -16 29294.4 1061.69  23
   1   1 -16 28089.6 1550.55  89
   1   1 -15 48449.8 1648.46  48
   1   1 -15 49693.1 1649.98  23
   1   1 -15 48442.5 1654.93  82
   1   1 -15 44113.7 2154.57  63
   1   1 -15 44786.6 1607.63  98
   1   1 -15 47080.4 1615.24  81
   1   1 -15 46978.0 2215.82  52
   1   1 -15 47421.6 2218.01  89
   1   1 -14 14351.7 642.368  23
   1   1 -14 14286.9 655.929  48
   1   1 -14 14259.3 661.850  22
   1   1 -14 15477.1 673.562  82
   1   1 -14 12654.0 1008.30  63
   1   1 -14 13873.4 626.407  98
   1   1 -14 14360.1 1048.60  52
   1   1 -14 14803.8 1094.91  89
   1   1 -13 4928.03 351.862  23
   1   1 -13 5249.20 368.963  22
   1   1 -13 5515.59 389.335  82
   1   1 -13 4836.77 391.578  74
   1   1 -13 4890.57 619.852  63
   1   1 -13 4936.52 344.437  98
   1   1 -13 4604.93 510.981  51
   1   1 -13 4729.19 638.273  52
   1   1 -13 4397.66 644.909  89
   1   1 -12 19992.1 766.306  23
   1   1 -12 19667.8 797.603  82
   1   1 -12 19687.8 775.920  22
   1   1 -12 20046.7 803.160  74
   1   1 -12 18572.8 1139.23  64
   1   1 -12 18925.5 1121.37  63
   1   1 -12 20062.6 1162.74  52
   1   1 -12 21795.1 1236.93  89
   1   1 -11 43380.3 1536.49  23
   1   1 -11 47890.0 1574.78  82
   1   1 -11 47613.0 1553.97  22
   1   1 -11 47891.2 1573.58  76
   1   1 -11 48558.4 1579.70  74
   1   1 -11 40605.0 1917.32  64
   1   1 -11 45171.4 1935.57  63
   1   1 -11 47957.5 1986.01  52
   1   1 -11 45375.0 1996.95  89
   1   1 -10 13537.3 540.175  23
   1   1 -10 14211.8 572.506  76
   1   1 -10 13306.0 574.970  74
   1   1 -10 13141.8 825.032  63
   1   1 -10 15696.4 881.507  52
   1   1 -10 13278.6 877.640  89
   1   1  -9 11475.9 476.966  76
   1   1  -9 9504.89 675.607  63
   1   1  -9 11806.5 741.988  52
   1   1  -9 11155.2 754.662  89
   1   1  -8 206413. 6278.62  76
   1   1  -8 204739. 6601.62  63
   1   1  -8 208330. 6634.13  52
   1   1  -8 200063. 6587.71  89
   1   1  -7 19089.5 658.414  76
   1   1  -7 16624.4 863.555  64
   1   1  -7 18520.9 894.824  63
   1   1  -7 19047.8 902.341  89
   1   1  -6 144689. 4871.05  64
   1   1  -6 150855. 4870.60  63
   1   1  -6 158855. 4869.01  89
   1   1  -5 444219. 13667.3  85
   1   1  -5 454835. 13857.8  64
   1   1  -5 463779. 13840.6  63
   1   1  -5 452502. 13800.0  89
   1   1  -4 229567. 7010.01  85
   1   1  -4 235785. 7212.98  64
   1   1  -4 239319. 7195.09  63
   1   1  -4 224191. 7126.21  89
   1   1  -3 106745. 3266.01  85
   1   1  -3 108443. 3463.77  64
   1   1  -3 107190. 3450.51  63
   1   1  -3 105263. 3366.12  89
   1   1  -2 241124. 7402.19  77
   1   1  -2 254644. 7586.52  64
   1   1  -1 89036.0 2783.55  91
   1   1   0 46155.2 1454.32  91
   1   1   1 372227. 11320.7  83
   1   1   2 225885. 6931.53  83
   1   1   2 226564. 6975.12  94
   1   1   3 60188.9 2092.41  84
   1   1   3 59291.3 1932.44  83
   1   1   3 58216.0 1953.57  94
   1   1   3 59720.7 2038.01  86
   1   1   4 245620. 7984.08  84
   1   1   4 256865. 7833.61  83
   1   1   4 256005. 7825.48  94
   1   1   4 255038. 7933.18  86
   1   1   5 3301.55 332.482  83
   1   1   5 3713.64 422.545  86
   1   1   5 3275.75 286.293  94
   1   1   6 57063.9 2153.55  86
   1   1   6 56104.9 2065.03  83
   1   1   6 60148.4 1879.31  69
   1   1   6 60374.0 1896.50  95
   1   1   6 56146.2 2010.22  94
   1   1   7 30293.6 1323.95  86
   1   1   7 28093.0 1398.80   1
   1   1   7 29449.9 1001.27  69
   1   1   7 29615.7 1020.23  95
   1   1   7 25332.4 1106.28  94
   1   1   8 405.688 354.621  86
   1   1   8 1299.79 444.648   1
   1   1   8 1145.03 207.289  69
   1   1   8 1207.37 233.933  95
   1   1   9 25510.4 1315.85  86
   1   1   9 25025.9 966.902  79
   1   1   9 26405.6 949.163  69
   1   1   9 23970.2 913.894  18
   1   1   9 25682.5 965.422  95
   1   1   9 28126.5 977.010  25
   1   1   9 26111.4 1425.71   1
   1   1  10 103458. 3885.91  86
   1   1  10 105918. 3418.80  79
   1   1  10 106796. 3409.99  95
   1   1  10 107968. 4048.29   1
   1   1  10 102898. 3358.51  18
   1   1  10 115066. 3417.01  25
   1   1  10 105675. 3364.43  49
   1   1  11 2319.10 550.321  86
   1   1  11 2326.30 359.924  79
   1   1  11 1969.07 309.781  90
   1   1  11 1990.81 292.865  20
   1   1  11 2171.80 272.515  18
   1   1  11 2516.13 593.714   1
   1   1  11 2627.02 342.088  95
   1   1  11 2486.52 294.402  92
   1   1  11 2325.26 289.958  49
   1   1  11 2584.25 330.387  25
   1   1  11 1960.51 544.057  87
   1   1  12 14997.1 1124.47  86
   1   1  12 17792.3 813.904  79
   1   1  12 15679.2 744.683  20
   1   1  12 16175.3 718.838  18
   1   1  12 18024.9 1294.04   1
   1   1  12 15983.2 771.544  95
   1   1  12 17147.9 746.426  92
   1   1  12 16353.8 774.580  90
   1   1  12 18216.0 779.941  25
   1   1  12 17526.7 734.258  49
   1   1  12 16661.0 1264.18  87
   1   1  13 29050.6 1614.89  86
   1   1  13 30039.7 1187.71  79
   1   1  13 28189.2 1149.22  70
   1   1  13 28212.7 1122.71  20
   1   1  13 28454.1 1088.57  18
   1   1  13 27723.3 1668.23   1
   1   1  13 26315.7 1133.98  95
   1   1  13 28626.4 1108.73  92
   1   1  13 29086.0 1159.20  90
   1   1  13 31841.2 1145.00  25
   1   1  13 30224.1 1098.96  49
   1   1  13 25073.0 1680.98  87
   1   1  14 22623.0 1442.87  86
   1   1  14 25388.5 1056.38  70
   1   1  14 26231.0 1037.69  20
   1   1  14 26893.0 1589.62   1
   1   1  14 26514.7 997.036  18
   1   1  14 23941.3 1040.86  90
   1   1  14 25377.1 1046.81  95
   1   1  14 24929.2 1008.72  92
   1   1  14 27455.7 1034.86  25
   1   1  14 27651.1 1006.40  49
   1   1  14 25130.6 1617.83  87
   1   1  15 17364.2 795.580  70
   1   1  15 18589.9 788.853  20
   1   1  15 19731.3 757.578  18
   1   1  15 17655.8 795.012  95
   1   1  15 17607.3 762.062  92
   1   1  15 16565.1 778.928  90
   1   1  15 19481.1 773.910  25
   1   1  16 6944.00 425.642  20
   1   1  16 7572.44 431.400  70
   1   1  16 6625.63 414.640  95
   1   1  16 5935.93 396.097  90
   1   1  16 7262.25 397.307  25
   1   1  17 9558.62 451.545  20
   1   1  17 9139.76 445.132  70
   1   1  17 9069.66 449.050  17
   1   1  18 2947.99 206.787  20
   1   1  18 3058.27 215.693  17
   1   2 -19 9206.09 374.690  44
   1   2 -19 8919.14 367.775   5
   1   2 -18 10033.9 455.889  48
   1   2 -18 8948.19 404.543  81
   1   2 -17 8528.56 453.034  48
   1   2 -17 7984.77 419.049  23
   1   2 -17 7606.41 400.020  81
   1   2 -17 7443.60 385.140  98
   1   2 -16 40330.1 1412.67  48
   1   2 -16 41052.3 1403.29  23
   1   2 -16 40590.9 1427.86  82
   1   2 -16 41081.8 1406.77  81
   1   2 -16 38394.8 1392.93  98
   1   2 -15 7330.31 437.801  48
   1   2 -15 7481.57 430.025  23
   1   2 -15 7086.86 430.049  22
   1   2 -15 7605.83 464.662  82
   1   2 -15 7514.00 439.910  81
   1   2 -15 6689.47 729.550  63
   1   2 -15 6761.98 413.921  98
   1   2 -15 5932.75 722.955  52
   1   2 -15 5851.98 797.232  91
   1   2 -15 6416.99 752.774  89
   1   2 -14 8735.61 457.189  23
   1   2 -14 9133.36 470.984  22
   1   2 -14 8410.41 509.411  82
   1   2 -14 7938.90 479.859  81
   1   2 -14 6657.76 721.799  63
   1   2 -14 7936.66 470.551  98
   1   2 -14 9384.30 836.864  52
   1   2 -14 8254.84 827.490  89
   1   2 -13 509.130 218.600  23
   1   2 -13 492.160 216.037  22
   1   2 -13 391.431 371.638  63
   1   2 -13 306.091 222.780  98
   1   2 -13-160.394 390.711  52
   1   2 -13 528.684 448.002  89
   1   2 -12 4137.15 300.855  23
   1   2 -12 4333.12 300.375  22
   1   2 -12 3861.81 353.676  74
   1   2 -12 4068.78 544.765  63
   1   2 -12 3890.48 341.745  98
   1   2 -12 3390.83 539.856  52
   1   2 -12 4022.85 594.042  89
   1   2 -11 5520.95 330.057  23
   1   2 -11 5700.29 327.115  22
   1   2 -11 5966.21 380.522  74
   1   2 -11 6277.11 627.528  63
   1   2 -11 6296.08 646.532  52
   1   2 -11 5682.17 636.578  89
   1   2 -10 13078.6 549.175  23
   1   2 -10 13539.8 584.073  82
   1   2 -10 13163.0 537.800  22
   1   2 -10 13899.1 584.567  74
   1   2 -10 13702.7 917.530  63
   1   2 -10 15389.6 948.729  52
   1   2 -10 14168.3 886.007  89
   1   2  -9 7256.01 375.920  74
   1   2  -9 6440.92 605.296  63
   1   2  -9 8048.36 660.547  52
   1   2  -9 6074.29 585.372  89
   1   2  -8 37412.1 1229.70  76
   1   2  -8 36260.3 1240.57  74
   1   2  -8 36894.5 1579.28  63
   1   2  -8 37723.0 1601.30  52
   1   2  -8 37939.4 1527.40  89
   1   2  -7 20285.6 702.209  76
   1   2  -7 19626.0 718.348  74
   1   2  -7 21335.9 1033.32  63
   1   2  -7 19675.4 1036.99  52
   1   2  -7 19574.2 932.537  89
   1   2  -6 58382.9 1843.49  74
   1   2  -6 60590.8 2204.32  63
   1   2  -6 56195.0 2034.60  89
   1   2  -5 330701. 10087.5  74
   1   2  -5 352205. 10469.9  63
   1   2  -5 332114. 10254.9  89
   1   2  -4 282626. 8666.19  63
   1   2  -4 277749. 8606.25  91
   1   2  -4 268967. 8412.91  89
   1   2  -3 189177. 6097.82  91
   1   2  -3 194557. 5926.35  89
   1   2  -2 46750.9 1737.38  64
   1   2  -2 45385.1 1562.43  91
   1   2  -2 42397.3 1369.41  89
   1   2  -1 8427.60 384.628   1
   1   2  -1 8517.44 453.690  91
   1   2   0 36170.8 1348.15  83
   1   2   0 33080.6 1205.45  91
   1   2   0 35598.4 1241.98   1
   1   2   1 64025.1 2131.50   1
   1   2   1 63009.2 2136.88  83
   1   2   1 59628.1 1987.86  91
   1   2   2 43124.3 1576.56  83
   1   2   2 43682.7 1663.11   1
   1   2   2 43605.6 1629.83  94
   1   2   3 43035.0 1574.43  83
   1   2   3 41772.2 1706.49   1
   1   2   3 43906.7 1615.47  94
   1   2   3 43854.1 1706.73  86
   1   2   4 44145.1 1776.63   1
   1   2   4 42400.3 1579.76  83
   1   2   4 42890.8 1613.57  94
   1   2   4 43810.6 1723.54  86
   1   2   5 79320.2 2663.37  83
   1   2   5 77282.2 2442.31  80
   1   2   5 81410.9 2690.16  94
   1   2   5 74344.8 2892.34   1
   1   2   5 80510.8 2824.94  86
   1   2   6 13214.7 830.372  86
   1   2   6 12757.1 704.995  83
   1   2   6 13232.2 499.264  80
   1   2   6 13326.9 929.951   1
   1   2   6 12940.6 692.886  94
   1   2   7 173820. 5786.47  86
   1   2   7 161667. 5588.05  83
   1   2   7 172675. 5294.33  80
   1   2   7 180200. 5369.69  95
   1   2   7 173166. 5961.88   1
   1   2   7 166528. 5558.47  94
   1   2   8 3245.23 540.908  86
   1   2   8 3056.47 227.848  80
   1   2   8 3156.89 304.569  69
   1   2   8 3469.90 290.417  20
   1   2   8 2972.88 376.144  94
   1   2   8 3364.78 322.500  95
   1   2   9 3044.20 552.146  86
   1   2   9 2939.91 303.138  69
   1   2   9 2401.56 277.130  20
   1   2   9 3093.20 330.684  95
   1   2  10 11308.5 939.779  86
   1   2  10 11992.0 592.289  69
   1   2  10 10818.6 580.870  20
   1   2  10 11660.8 613.066  95
   1   2  11 523.834 449.527  86
   1   2  11 811.543 268.140  20
   1   2  11 843.707 520.035   1
   1   2  11 958.131 294.286  95
   1   2  11 1026.62 315.079  25
   1   2  11 1222.69 497.718  87
   1   2  12 1708.21 529.745  86
   1   2  12 1744.24 605.722   1
   1   2  12 1173.37 297.537  20
   1   2  12 1192.90 321.439  95
   1   2  12 1082.47 282.283  92
   1   2  12 1242.55 296.068  90
   1   2  12 1762.15 332.643  25
   1   2  12 1571.03 501.849  87
   1   2  13 1864.37 516.531  86
   1   2  13 1936.35 594.270   1
   1   2  13 2819.94 320.219  92
   1   2  13 2926.21 340.024  20
   1   2  13 2414.30 345.008  95
   1   2  13 3065.63 337.049  90
   1   2  13 2937.62 357.642  25
   1   2  13 2448.72 553.146  87
   1   2  14 11421.2 595.658  90
   1   2  14 12420.5 597.245  20
   1   2  14 11833.3 608.275  70
   1   2  14 11896.3 605.332  95
   1   2  14 11949.5 571.887  92
   1   2  15 9189.88 460.954  20
   1   2  15 8711.80 476.092  70
   1   2  15 8385.77 471.158  95
   1   2  15 8613.73 441.339  92
   1   2  15 8025.04 460.134  90
   1   2  16 9419.84 425.819  20
   1   2  16 8265.39 430.600  70
   1   2  16 8732.65 449.939  17
   1   2  17 9314.70 367.267  20
   1   2  17 8566.47 389.265   2
   1   2  17 9092.95 391.286   9
   1   2  17 10018.5 414.393  17
   1   3 -19 40605.1 1299.80  48
   1   3 -18 12766.8 508.634  48
   1   3 -18 12159.5 482.174  23
   1   3 -17 2334.20 236.124  23
   1   3 -17 2909.81 253.900  81
   1   3 -17 3040.09 267.301  48
   1   3 -17 2592.09 230.369  98
   1   3 -16 9903.19 489.194  48
   1   3 -16 9470.09 462.119  23
   1   3 -16 10350.2 469.606  22
   1   3 -16 9511.61 483.341  81
   1   3 -16 9450.90 474.263  98
   1   3 -15 2240.36 255.627  23
   1   3 -15 2692.93 265.159  22
   1   3 -15 2960.83 318.651  82
   1   3 -15 2600.83 302.762  81
   1   3 -15 2963.65 292.877  98
   1   3 -14 6703.79 379.917  23
   1   3 -14 6437.17 416.236  98
   1   3 -14 5908.89 365.409  22
   1   3 -14 6517.27 432.825  82
   1   3 -14 6189.10 424.512  81
   1   3 -14 4665.10 611.747  63
   1   3 -14 5613.49 850.937  91
   1   3 -14 5791.90 685.604  52
   1   3 -13 3354.36 291.650  23
   1   3 -13 4069.01 364.264  82
   1   3 -13 3259.95 349.045  81
   1   3 -13 3059.18 275.480  22
   1   3 -13 2941.79 739.077  91
   1   3 -13 2771.64 526.202  63
   1   3 -13 2947.87 327.776  98
   1   3 -13 3565.97 568.664  52
   1   3 -12 11055.9 520.289  23
   1   3 -12 11621.9 570.373  82
   1   3 -12 10948.0 502.199  22
   1   3 -12 10907.8 895.681  63
   1   3 -12 11142.2 580.597  98
   1   3 -12 11616.9 931.668  52
   1   3 -12 10676.2 1090.16  91
   1   3 -11 72318.4 2368.91  82
   1   3 -11 68994.6 2307.09  22
   1   3 -11 74291.7 2929.72  63
   1   3 -11 77889.7 2971.80  52
   1   3 -11 76206.1 3278.87  91
   1   3 -11 72799.1 2401.48  98
   1   3 -10 25196.6 915.988  82
   1   3 -10 22788.1 862.426  22
   1   3 -10 23125.1 1316.37  63
   1   3 -10 23340.5 1315.34  52
   1   3 -10 25441.7 1672.80  91
   1   3 -10 23846.6 1211.24  89
   1   3  -9 8318.86 427.361  82
   1   3  -9 7850.97 411.931  74
   1   3  -9 8594.21 734.901  63
   1   3  -9 8416.64 741.585  52
   1   3  -9 9014.96 945.981  91
   1   3  -8 1351.14 209.027  82
   1   3  -8 1394.35 210.793  74
   1   3  -8 1389.30 405.323  63
   1   3  -8 1169.12 419.796  52
   1   3  -8 1007.32 518.428  91
   1   3  -7 2191.34 226.991  82
   1   3  -7 2176.42 215.311  74
   1   3  -7 2221.57 421.441  63
   1   3  -7 2618.55 489.913  52
   1   3  -7 2959.96 566.062  91
   1   3  -6 35452.5 1175.50  82
   1   3  -6 34010.3 1167.22  74
   1   3  -6 36034.5 1621.31  63
   1   3  -6 34427.5 1654.86  91
   1   3  -5 12733.7 486.307  82
   1   3  -5 12061.6 474.553  74
   1   3  -5 13552.8 870.471  63
   1   3  -5 11984.0 832.764  91
   1   3  -4 23179.0 1209.84  63
   1   3  -4 22539.1 1129.77  91
   1   3  -3 32354.1 1367.68  91
   1   3  -2 74184.9 2295.32  98
   1   3  -2 70284.2 2547.24  91
   1   3  -1 18186.0 967.283  83
   1   3  -1 17399.0 820.529  91
   1   3   0 40093.4 1616.24  83
   1   3   0 39374.0 1449.03   1
   1   3   0 39080.4 1445.73  91
   1   3   1 56133.9 2076.08  83
   1   3   1 58981.3 2031.84   1
   1   3   1 52560.2 1878.19  91
   1   3   2 106714. 3709.59  83
   1   3   2 112264. 3755.67   1
   1   3   2 111285. 3795.24  94
   1   3   3 46487.2 1820.57  83
   1   3   3 50070.9 1971.95   1
   1   3   3 47202.6 1874.30  94
   1   3   3 46833.6 1980.45  86
   1   3   4 20978.5 988.181  83
   1   3   4 19596.7 725.908  68
   1   3   4 22930.4 1251.40   1
   1   3   4 20242.0 1031.07  94
   1   3   4 22738.7 1165.09  86
   1   3   5 15998.7 862.952  83
   1   3   5 17633.3 647.998  80
   1   3   5 15874.6 618.447  68
   1   3   5 19970.5 1184.29   1
   1   3   5 17175.9 921.477  94
   1   3   5 18435.9 1056.48  86
   1   3   6 56599.1 2317.43  86
   1   3   6 54871.7 2104.10  83
   1   3   6 56766.2 1829.05  80
   1   3   6 60179.9 2523.90   1
   1   3   6 54195.8 2140.29  94
   1   3   7 22574.2 1290.26  86
   1   3   7 21333.6 1094.09  83
   1   3   7 23991.7 846.138  80
   1   3   7 22380.6 1438.72   1
   1   3   7 24109.5 1136.00  94
   1   3   8 81859.0 3283.56  86
   1   3   8 80946.2 2674.59  80
   1   3   8 86340.6 2755.21  69
   1   3   8 88934.1 3535.94   1
   1   3   8 87519.6 2778.41  95
   1   3   9 1905.10 535.732  86
   1   3   9 1714.76 658.201   1
   1   3   9 2646.65 329.229  69
   1   3   9 2815.79 355.988  95
   1   3  10 11486.8 942.583  86
   1   3  10 10834.7 566.350  69
   1   3  10 10888.0 1093.49   1
   1   3  10 9735.41 573.902  95
   1   3  11 2877.02 583.760  86
   1   3  11 3089.22 327.068  20
   1   3  11 3030.47 338.953  69
   1   3  11 2904.05 361.362  95
   1   3  11 3268.13 715.653   1
   1   3  11 2128.00 498.884  87
   1   3  12 1010.13 435.631  86
   1   3  12 2306.95 291.325  20
   1   3  12 1660.66 313.541  95
   1   3  12 1371.84 281.285  90
   1   3  12 2014.38 603.760   1
   1   3  13 4477.90 325.233  20
   1   3  13 4690.50 398.639  17
   1   3  13 3986.96 352.155  95
   1   3  13 3859.62 324.242  92
   1   3  13 3741.10 333.260  90
   1   3  14 3638.47 303.082  70
   1   3  14 3754.35 311.405   9
   1   3  14 4061.24 343.313  17
   1   3  14 3456.54 296.621  95
   1   3  14 3266.56 275.101  92
   1   3  14 2811.85 277.918  90
   1   3  15 3904.55 279.242  70
   1   3  15 4610.57 307.689   2
   1   3  15 4457.83 284.497   9
   1   3  15 4650.36 319.146  17
   1   3  16 3043.74 205.369   2
   1   3  16 2948.33 211.873  17
   1   4 -18 580.414 138.376  48
   1   4 -17 5032.35 296.296  48
   1   4 -17 5443.97 266.191  23
   1   4 -16 6903.77 339.766  23
   1   4 -16 6508.36 322.817  22
   1   4 -16 7013.09 373.118  81
   1   4 -16 6399.30 333.675  67
   1   4 -16 7122.63 369.684  98
   1   4 -15 2050.99 224.254  23
   1   4 -15 2088.84 208.729  22
   1   4 -15 1939.91 262.731  81
   1   4 -15 1784.07 243.989  98
   1   4 -14 471.044 192.984  23
   1   4 -14 334.138 167.954  22
   1   4 -14 538.810 230.555  98
   1   4 -13 2025.84 241.750  23
   1   4 -13 2215.50 226.892  22
   1   4 -13 1485.27 433.186  63
   1   4 -13 2390.43 494.270  52
   1   4 -13 1823.54 627.010  91
   1   4 -12 734.723 220.761  23
   1   4 -12 659.269 252.354  82
   1   4 -12 833.875 281.949  81
   1   4 -12 612.451 182.864  22
   1   4 -12 521.936 381.826  63
   1   4 -12 1001.30 442.861  52
   1   4 -12 334.940 549.679  91
   1   4 -11 35535.2 1267.44  82
   1   4 -11 36022.4 1293.69  81
   1   4 -11 32382.7 1191.39  22
   1   4 -11 33743.7 1754.36  63
   1   4 -11 36576.7 1308.43  98
   1   4 -11 33661.0 1726.75  52
   1   4 -11 38568.2 2215.46  91
   1   4 -10 12180.2 582.956  82
   1   4 -10 12490.7 614.200  81
   1   4 -10 12262.9 630.939  98
   1   4 -10 11831.6 968.099  63
   1   4 -10 12522.6 971.125  52
   1   4 -10 13364.0 1262.30  91
   1   4  -9 38348.9 1393.87  82
   1   4  -9 42568.9 1443.12  81
   1   4  -9 36869.9 1879.97  63
   1   4  -9 40842.4 1451.44  98
   1   4  -9 40077.5 1926.25  52
   1   4  -9 40138.8 2177.99  91
   1   4  -8 16974.1 710.339  82
   1   4  -8 18435.5 749.901  81
   1   4  -8 17281.1 757.466  98
   1   4  -8 16042.4 1119.96  63
   1   4  -8 16553.8 1130.46  52
   1   4  -8 16789.5 1297.28  91
   1   4  -7 15483.2 671.783  81
   1   4  -7 14580.8 1036.81  63
   1   4  -7 15203.0 684.839  98
   1   4  -7 15436.8 1048.49  52
   1   4  -7 15209.8 1142.26  91
   1   4  -6 41149.5 1400.41  81
   1   4  -6 37888.4 1879.05  63
   1   4  -6 40560.5 1416.66  98
   1   4  -6 42424.1 1963.33  91
   1   4  -5 25559.6 927.648  81
   1   4  -5 25818.2 1446.46  63
   1   4  -5 25951.1 948.658  98
   1   4  -5 26654.4 1388.54  91
   1   4  -4 111694. 4099.21  63
   1   4  -4 110727. 3462.11  98
   1   4  -4 107495. 3905.31  91
   1   4  -3 31844.7 1571.30  83
   1   4  -3 29759.1 1012.71  98
   1   4  -2 24281.9 1272.83  83
   1   4  -2 19930.1 1022.72  91
   1   4  -1 77188.9 2883.49  83
   1   4  -1 74612.9 2378.23  67
   1   4   0 16232.0 979.205  83
   1   4   1 96935.2 3515.64  83
   1   4   1 99869.9 3612.07  94
   1   4   2 2894.52 558.767  86
   1   4   2 2439.51 425.767  83
   1   4   2 2800.63 500.157  94
   1   4   3 7501.79 623.730  83
   1   4   3 9205.70 720.322   1
   1   4   3 7587.22 693.902  94
   1   4   3 8541.66 800.415  86
   1   4   4 15199.2 896.095  83
   1   4   4 18969.2 1126.72   1
   1   4   4 16249.4 636.705  68
   1   4   4 15732.7 985.963  94
   1   4   4 16112.4 1085.45  86
   1   4   5 29720.9 1388.67  83
   1   4   5 32279.0 1130.27  80
   1   4   5 31171.5 1099.63  68
   1   4   5 31465.8 1486.38  94
   1   4   5 33166.1 1653.00  86
   1   4   6 10344.7 889.570  86
   1   4   6 10712.8 476.220  80
   1   4   6 11101.7 1008.16   1
   1   4   6 9485.37 430.886  68
   1   4   6 9444.12 726.341  94
   1   4   7 69074.6 2899.25  86
   1   4   7 69117.4 2298.87  80
   1   4   7 78117.4 3192.79   1
   1   4   7 78225.4 2427.45  17
   1   4   7 64693.6 2629.38  94
   1   4   8 31684.1 1740.04  86
   1   4   8 32940.2 1207.48  80
   1   4   8 38187.6 1993.66   1
   1   4   8 37668.4 1304.33  69
   1   4   8 36520.3 1327.78  17
   1   4   8 35341.5 1311.27  95
   1   4   9 18747.5 1261.91  86
   1   4   9 21438.1 883.042  69
   1   4   9 23098.4 928.587  17
   1   4   9 19905.1 886.968  95
   1   4  10 33198.2 1226.63  69
   1   4  10 32700.2 1244.50  95
   1   4  11 7231.37 426.730  69
   1   4  11 7888.78 475.630  17
   1   4  11 6936.91 443.798  95
   1   4  12 6729.65 404.630  90
   1   4  12 8531.62 473.674   2
   1   4  12 7951.30 452.203  17
   1   4  12 6941.87 414.784  95
   1   4  13 17004.4 659.888   2
   1   4  13 16205.1 634.767  17
   1   4  14 13.3599 149.298   2
   1   4  14 81.3867 163.476  17
   1   5 -16 13709.2 484.613  23
   1   5 -15 365.606 136.931  23
   1   5 -15 308.942 139.997  67
   1   5 -15 275.594 159.184  98
   1   5 -14 14658.1 576.711  23
   1   5 -14 14567.1 552.331  22
   1   5 -14 15826.8 639.651  81
   1   5 -14 16157.8 631.140  67
   1   5 -14 15449.0 641.129  98
   1   5 -13 9233.64 420.774  23
   1   5 -13 9896.27 488.808  81
   1   5 -13 10366.9 491.824  67
   1   5 -13 9496.56 488.083  98
   1   5 -12 11930.9 531.109  23
   1   5 -12 13690.3 606.604  81
   1   5 -12 11731.8 493.319  22
   1   5 -12 12840.3 602.985  98
   1   5 -11 1729.13 290.217  81
   1   5 -11 1341.77 185.174  22
   1   5 -11 1295.64 434.388  63
   1   5 -11 1821.99 287.146  98
   1   5 -11 1359.33 439.923  52
   1   5 -10 327.881 258.306  81
   1   5 -10 96.1749 163.064  22
   1   5 -10 416.004 258.134  98
   1   5 -10 86.4241 354.394  63
   1   5 -10 258.077 413.630  52
   1   5 -10 313.529 509.613  91
   1   5  -9 19515.5 802.333  24
   1   5  -9 25899.3 949.869  81
   1   5  -9 20932.9 1324.51  63
   1   5  -9 25286.9 960.021  98
   1   5  -9 22004.2 1320.92  52
   1   5  -9 23961.7 1572.93  91
   1   5  -8 14169.0 611.447  24
   1   5  -8 15987.5 693.131  81
   1   5  -8 17398.7 1152.99  63
   1   5  -8 15240.1 704.429  98
   1   5  -8 14507.6 1073.75  52
   1   5  -8 14078.9 1176.38  91
   1   5  -7 77805.2 2604.78  81
   1   5  -7 77039.8 3232.78  63
   1   5  -7 82848.8 2640.44  98
   1   5  -7 80237.4 3233.06  52
   1   5  -7 83045.0 3333.07  91
   1   5  -6 39967.1 2131.25  83
   1   5  -6 37726.3 1902.39  63
   1   5  -6 36455.5 1313.83  98
   1   5  -5 88221.2 3559.75  83
   1   5  -5 79226.1 3356.64  63
   1   5  -4 10815.6 1014.77  83
   1   5  -4 11671.9 555.054  67
   1   5  -4 10536.4 983.293  63
   1   5  -3 8049.34 839.391  83
   1   5  -3 7965.36 420.948  67
   1   5  -3 7172.62 834.034  63
   1   5  -2 21115.5 1298.90  83
   1   5  -2 21702.7 815.012  67
   1   5  -1 24130.4 1346.72  83
   1   5  -1 22748.6 862.664  66
   1   5  -1 24256.0 1444.89  94
   1   5   0 13042.3 940.338  83
   1   5   0 13521.7 555.250  66
   1   5   0 13874.1 1054.37  94
   1   5   1 13913.7 938.184  83
   1   5   1 14053.9 1046.09  94
   1   5   1 14385.9 1120.76  86
   1   5   2 7199.43 668.304  83
   1   5   2 7174.17 756.571  94
   1   5   2 8834.34 865.097  86
   1   5   3 75306.4 2915.73  83
   1   5   3 79425.8 2547.30  68
   1   5   3 79347.5 3063.62  94
   1   5   3 80946.5 3196.70  86
   1   5   4 23113.5 1403.58  84
   1   5   4 23554.2 871.561  80
   1   5   4 21530.4 830.657  68
   1   5   4 21627.3 1228.61  94
   1   5   4 22427.7 1356.82  86
   1   5   5 7871.02 786.839  86
   1   5   5 8108.94 843.280  84
   1   5   5 8935.36 436.469  80
   1   5   5 7840.78 391.860  68
   1   5   5 8893.66 722.942  94
   1   5   6 11388.6 923.413  86
   1   5   6 9397.09 884.088  84
   1   5   6 9923.02 484.723  80
   1   5   7 2522.93 538.233  86
   1   5   7 3096.57 253.541  80
   1   5   7 3582.05 335.330  69
   1   5   7 4284.23 378.595   2
   1   5   8 216.225 232.458  69
   1   5   8 757.359 257.785   2
   1   5   9 3325.55 330.210   2
   1   5   9 2878.74 283.646  69
   1   5   9 2836.37 291.937  95
   1   5  10 6502.44 368.314  69
   1   5  10 5847.43 367.136  95
   1   5  11 4996.04 326.609   2
   1   5  12 5882.53 302.841   2
   1   5  13 1799.05 149.763  16
   1   6 -14 9542.31 351.450  23
   1   6 -13 9372.15 376.224  23
   1   6 -13 9938.35 431.986  67
   1   6 -12 3255.17 218.402  23
   1   6 -12 3513.30 261.524  98
   1   6 -11 314.026 118.573  22
   1   6 -11 564.443 213.225  67
   1   6 -11 435.984 189.982  98
   1   6 -10 339.321 131.095  22
   1   6 -10 392.208 227.685  67
   1   6 -10 433.320 204.425  98
   1   6  -9 3083.21 342.813  67
   1   6  -8 24813.7 915.770  24
   1   6  -8 29690.4 1063.06  67
   1   6  -7 17080.6 663.509  24
   1   6  -7 16967.9 746.591  67
   1   6  -7 15670.1 1109.12  63
   1   6  -7 15981.3 1099.62  52
   1   6  -6 26329.6 1612.11  83
   1   6  -6 24713.1 964.912  67
   1   6  -6 23336.9 1409.84  63
   1   6  -6 22947.7 1393.06  52
   1   6  -5 59207.7 2621.97  83
   1   6  -5 55742.3 1875.26  67
   1   6  -4 14056.3 1087.62  83
   1   6  -4 11751.3 551.189  67
   1   6  -4 12291.9 589.997  66
   1   6  -4 12381.4 1028.28  63
   1   6  -3 12012.1 988.680  83
   1   6  -3 11426.1 549.335  66
   1   6  -3 11384.4 1015.61  63
   1   6  -3 12111.8 1071.09  94
   1   6  -2 15882.2 1108.40  83
   1   6  -2 16054.9 674.727  66
   1   6  -2 16900.9 1275.89  63
   1   6  -1 2581.16 481.716  83
   1   6  -1 2296.27 588.420  94
   1   6   0 48183.2 2186.83  94
   1   6   0 45300.0 2227.66  86
   1   6   1 23903.4 916.164  68
   1   6   1 23764.5 1365.29  94
   1   6   1 24042.1 1449.35  86
   1   6   2 1085.60 464.343  86
   1   6   2 1523.80 215.193  68
   1   6   2 1430.66 444.526  94
   1   6   3 7509.95 409.753  80
   1   6   3 7346.34 374.912  68
   1   6   3 6800.25 676.684  94
   1   6   3 7186.36 750.060  86
   1   6   4 7638.52 391.769  80
   1   6   4 7146.13 349.086  68
   1   6   4 6979.16 628.284  94
   1   6   5 5713.94 320.135  80
   1   6   6 7960.01 378.435  80
   1   6   6 8719.16 445.275  69
   1   6   7 9881.77 477.727  69
   1   6   7 10455.6 493.917  16
   1   6   8 4506.16 288.678  69
   1   6   8 4790.96 298.575  16
   1   6   9 1949.96 200.206  79
   1   6   9 1691.31 177.522  16
   1   7 -11 4100.03 185.886  23
   1   7 -10 14997.5 554.709  23
   1   7 -10 18069.8 635.291  66
   1   7  -9 18127.6 716.772  67
   1   7  -9 20134.9 751.492  66
   1   7  -8 4850.90 297.219  67
   1   7  -8 5293.21 330.735  66
   1   7  -7 10580.9 493.428  66
   1   7  -6 317.387 124.168  24
   1   7  -6 159.612 171.160  66
   1   7  -5 39063.8 1335.49  66
   1   7  -4 9388.45 426.384  66
   1   7  -2 799.369 216.565  68
   1   7  -1 7710.17 401.513  68
   1   7   0 3261.17 279.426  80
   1   7   0 3482.47 255.235  68
   1   7   1 1366.04 205.531  80
   1   7   1 1140.87 168.692  68
   1   7   2 27287.2 950.576  80
   1   7   2 28800.2 961.472  21
   1   7   2 25580.6 916.440  68
   1   7   3 1561.07 176.533  80
   1   7   3 1766.99 206.257  21
   1   7   4 4691.17 292.938  21
   1   7   4 4443.51 285.530  69
   1   7   5 677.143 166.316  21
   1   7   5 701.223 161.408  69
   1   7   6 5676.20 275.564  21
   2  -9  -1 12595.4 445.064  31
   2  -9   0 2736.62 147.831  12
   2  -9   0 3019.65 169.465  31
   2  -9   1 4264.00 195.307  12
   2  -9   1 4667.28 214.684  31
   2  -9   1 4153.55 213.278  28
   2  -9   2 3599.57 187.391  31
   2  -9   2 3298.84 180.995  28
   2  -9   3 3116.72 170.375  31
   2  -9   3 2807.80 156.746  28
   2  -9   4 7138.46 284.168  31
   2  -9   5 9733.10 341.313  31
   2  -9   5 8837.15 329.531  29
   2  -9   6 1017.36 92.6443  56
   2  -8  -8 415.108 92.6471  55
   2  -8  -7 6639.08 301.460  55
   2  -8  -6 12820.7 512.165  55
   2  -8  -5 2622.25 185.479  12
   2  -8  -5 2235.76 182.322  65
   2  -8  -5 2517.59 226.478  55
   2  -8  -4 5104.54 282.151  12
   2  -8  -4 4489.50 269.314  65
   2  -8  -4 4327.76 291.800  55
   2  -8  -4 4849.12 258.874  14
   2  -8  -3 12219.1 536.760  65
   2  -8  -3 13157.5 551.765  55
   2  -8  -2 12900.3 556.879  65
   2  -8  -2 12288.3 541.343  55
   2  -8  -1 775.548 204.324  12
   2  -8  -1 908.822 214.981  65
   2  -8  -1 709.659 180.573  55
   2  -8   0 1482.74 226.934  12
   2  -8   0 1480.33 196.395  55
   2  -8   1 1800.15 237.599  12
   2  -8   1 1827.02 195.405  55
   2  -8   2 4408.27 305.953  12
   2  -8   3 7107.90 380.485  12
   2  -8   4 3696.80 273.238  12
   2  -8   4 4049.67 303.473  31
   2  -8   4 3767.68 282.396  96
   2  -8   5 952.665 187.011  12
   2  -8   5 1260.36 193.200  96
   2  -8   5 1152.63 197.540  28
   2  -8   6 7149.55 356.547  58
   2  -8   6 6960.05 327.634  28
   2  -8   7 7296.18 352.722  58
   2  -8   7 7581.45 317.020  28
   2  -8   8 5432.56 289.488  31
   2  -8   8 5700.25 295.002  58
   2  -8   8 5888.90 271.551  29
   2  -8   9 8270.53 347.774  58
   2  -8   9 8139.04 312.757  29
   2  -8  10 3114.61 182.793  58
   2  -8  10 2827.77 163.417  56
   2  -8  11 4969.63 213.681  58
   2  -7 -11 267.895 110.348  33
   2  -7 -10 148.597 147.867  33
   2  -7 -10 384.617 150.588  13
   2  -7  -9 238.119 158.532  97
   2  -7  -9 474.910 193.998  33
   2  -7  -9 482.889 187.241  13
   2  -7  -8 6939.34 411.150  33
   2  -7  -8 6417.56 358.308  97
   2  -7  -8 6133.07 335.016  14
   2  -7  -8 7523.30 399.429  13
   2  -7  -7 26868.7 1008.18  65
   2  -7  -7 30364.8 1116.60  33
   2  -7  -7 28238.3 1034.49  32
   2  -7  -7 27677.4 1037.02  97
   2  -7  -7 31775.2 1054.65  14
   2  -7  -7 32384.9 1105.41  13
   2  -7  -6 12985.4 555.424  47
   2  -7  -6 11752.2 535.847  65
   2  -7  -6 12766.4 619.606  33
   2  -7  -6 12694.0 561.506  32
   2  -7  -6 11949.6 555.671  97
   2  -7  -6 13274.4 578.377  14
   2  -7  -6 13157.3 611.420  13
   2  -7  -5 2954.23 293.988  47
   2  -7  -5 2729.85 265.504  65
   2  -7  -5 2591.47 274.876  97
   2  -7  -5 2888.72 326.543  33
   2  -7  -5 2724.35 277.849  32
   2  -7  -5 3070.53 306.411  14
   2  -7  -5 3223.11 332.630  13
   2  -7  -4 3040.11 296.149  47
   2  -7  -4 3500.37 311.890  65
   2  -7  -4 3384.45 341.362  33
   2  -7  -4 3484.86 303.677  32
   2  -7  -4 3369.38 298.992  97
   2  -7  -4 2942.35 301.202  14
   2  -7  -4 3492.89 345.460  13
   2  -7  -3 9620.93 518.540  65
   2  -7  -3 8477.78 518.819  33
   2  -7  -3 9746.31 497.780  32
   2  -7  -3 9926.93 493.409  97
   2  -7  -3 9370.11 497.913  14
   2  -7  -2 8949.35 478.241  19
   2  -7  -2 9137.70 514.904  33
   2  -7  -2 9512.58 484.408  32
   2  -7  -2 9421.62 500.130  14
   2  -7  -1 6007.60 378.176  19
   2  -7  -1 5504.59 399.974  33
   2  -7  -1 5899.65 379.370  32
   2  -7  -1 5877.72 398.546  14
   2  -7   0 4301.50 343.912  14
   2  -7   0 4409.16 330.604  19
   2  -7   0 4347.81 589.894  62
   2  -7   0 5110.50 342.199  32
   2  -7   0 4522.32 367.501  55
   2  -7   0 3855.09 368.984  96
   2  -7   1 50783.0 1763.50  19
   2  -7   1 51108.1 2232.59  62
   2  -7   1 54969.8 1765.76  32
   2  -7   1 52280.5 1779.34  55
   2  -7   1 51472.5 1825.71  96
   2  -7   1 51247.7 1773.16  14
   2  -7   2 60836.0 2099.30  14
   2  -7   2 61689.2 2091.79  19
   2  -7   2 59723.8 2566.12  62
   2  -7   2 65388.3 2089.03  32
   2  -7   2 65345.0 2097.91  55
   2  -7   2 64033.6 2171.46  96
   2  -7   3 2377.05 324.779  12
   2  -7   3 2674.82 257.408  19
   2  -7   3 1752.68 460.003  62
   2  -7   3 2576.47 252.671  32
   2  -7   3 2588.41 253.141  55
   2  -7   3 2665.90 330.931  96
   2  -7   4 21934.1 893.742  96
   2  -7   4 18987.1 775.518  19
   2  -7   4 20839.2 1220.75  62
   2  -7   4 20190.5 771.318  32
   2  -7   5 1161.00 273.971  96
   2  -7   5 979.185 405.692  62
   2  -7   6 1735.44 256.503  12
   2  -7   6 2074.28 296.777  31
   2  -7   6 1620.46 286.968  96
   2  -7   7 2529.71 255.194  12
   2  -7   7 2423.22 280.722  31
   2  -7   7 2511.44 301.157  96
   2  -7   7 2532.82 241.943  28
   2  -7   8 18694.5 712.535  12
   2  -7   8 19879.2 758.496  58
   2  -7   8 18783.6 740.753  31
   2  -7   8 18181.6 710.984  15
   2  -7   8 18332.8 784.035  96
   2  -7   8 17669.8 669.915  28
   2  -7   9 39439.4 1434.49  96
   2  -7   9 41358.4 1404.73  31
   2  -7   9 43941.5 1422.39  58
   2  -7   9 40921.5 1380.83  15
   2  -7  10 11638.6 502.921  58
   2  -7  10 10223.3 455.631  15
   2  -7  10 10923.6 427.714  29
   2  -7  11 3870.17 251.420  11
   2  -7  11 3554.68 270.909  58
   2  -7  11 3933.73 227.642  56
   2  -7  11 3594.26 242.585  15
   2  -7  12 10827.0 419.152  11
   2  -7  12 10344.0 435.712  58
   2  -7  12 10656.5 413.997  15
   2  -7  12 9370.18 363.407  56
   2  -7  13 827.923 136.121  11
   2  -7  13 520.928 150.523  58
   2  -7  13 836.054 131.468  15
   2  -7  14 8299.49 311.539  11
   2  -6 -14 4585.29 215.976  33
   2  -6 -13 820.102 167.307  33
   2  -6 -13 646.411 144.904  13
   2  -6 -12 337.990 223.125  48
   2  -6 -12 279.953 187.982  33
   2  -6 -12 130.586 169.885  13
   2  -6 -11 13229.1 608.363  33
   2  -6 -11 10852.4 512.116  32
   2  -6 -11 11509.8 536.258  97
   2  -6 -11 12245.9 513.509  14
   2  -6 -11 13278.0 570.115  13
   2  -6 -11 13662.6 602.904  48
   2  -6 -10 2671.46 369.427  48
   2  -6 -10 2618.92 236.638  47
   2  -6 -10 3087.67 359.649  33
   2  -6 -10 2292.16 276.629  32
   2  -6 -10 2823.44 284.022  97
   2  -6 -10 2614.70 265.901  14
   2  -6 -10 2864.97 322.602  13
   2  -6  -9 15781.9 662.815  47
   2  -6  -9 17469.2 802.072  33
   2  -6  -9 15721.6 717.004  32
   2  -6  -9 15061.3 681.171  97
   2  -6  -9 15622.9 693.297  14
   2  -6  -9 16404.3 742.699  13
   2  -6  -9 17069.9 783.552  48
   2  -6  -8 30846.0 1105.50  47
   2  -6  -8 27549.8 1048.19  65
   2  -6  -8 32871.9 1236.39  33
   2  -6  -8 27431.9 1141.46  32
   2  -6  -8 28300.1 1104.36  97
   2  -6  -8 31577.9 1145.72  14
   2  -6  -8 31069.4 1182.90  13
   2  -6  -8 30315.4 1184.23  48
   2  -6  -7 2243.72 472.097  85
   2  -6  -7 3667.92 345.967  47
   2  -6  -7 3196.41 288.331  65
   2  -6  -7 3315.16 412.003  33
   2  -6  -7 3605.53 367.278  32
   2  -6  -7 3728.22 351.207  97
   2  -6  -7 3570.09 360.587  14
   2  -6  -7 4168.41 407.837  13
   2  -6  -7 3496.09 422.698  48
   2  -6  -6 18755.9 1199.80  85
   2  -6  -6 22837.8 913.256  47
   2  -6  -6 22828.5 870.059  65
   2  -6  -6 23255.0 996.212  33
   2  -6  -6 21377.1 923.626  32
   2  -6  -6 21858.0 913.923  14
   2  -6  -6 22190.0 1320.01  51
   2  -6  -6 21426.8 941.896  13
   2  -6  -6 20292.5 945.139  48
   2  -6  -5 40723.7 1443.28  47
   2  -6  -5 42301.7 1432.91  65
   2  -6  -5 39479.9 1517.25  33
   2  -6  -5 38536.5 1446.29  32
   2  -6  -5 38248.1 1444.59  14
   2  -6  -5 38639.7 1923.68  51
   2  -6  -5 37467.8 1453.73  13
   2  -6  -4 11560.4 604.260  47
   2  -6  -4 12068.4 922.197  53
   2  -6  -4 11771.1 669.247  33
   2  -6  -4 13021.1 632.165  32
   2  -6  -4 12569.2 628.252  14
   2  -6  -4 12259.8 987.483  51
   2  -6  -3 3974.51 363.187  47
   2  -6  -3 3766.71 309.380  45
   2  -6  -3 4188.03 400.426  33
   2  -6  -3 3976.50 347.690  32
   2  -6  -3 3642.13 344.964  96
   2  -6  -3 3521.88 589.546  53
   2  -6  -3 3951.74 366.856  14
   2  -6  -3 4179.79 629.949  51
   2  -6  -2 22363.4 908.927  47
   2  -6  -2 21746.5 875.723  45
   2  -6  -2 23376.5 1326.86  53
   2  -6  -2 22995.5 958.277  33
   2  -6  -2 23469.0 907.423  32
   2  -6  -2 20800.0 912.961  96
   2  -6  -2 22467.0 918.491  14
   2  -6  -2 22454.7 924.087  13
   2  -6  -1 15436.5 698.134  47
   2  -6  -1 15541.0 672.153  45
   2  -6  -1 13051.8 1049.96  77
   2  -6  -1 14740.4 728.205  33
   2  -6  -1 17677.2 705.775  32
   2  -6  -1 15698.8 1061.44  53
   2  -6  -1 15386.1 706.403  14
   2  -6  -1 15808.5 712.202  13
   2  -6   0 18524.6 785.333  47
   2  -6   0 18050.0 759.814  45
   2  -6   0 18165.5 1185.90  77
   2  -6   0 18003.8 810.691  33
   2  -6   0 20158.9 776.704  32
   2  -6   0 17448.5 1150.27  53
   2  -6   0 18864.7 792.529  14
   2  -6   0 18683.3 793.081  13
   2  -6   1 28375.7 1078.60  47
   2  -6   1 29593.8 1072.37  45
   2  -6   1 26885.1 1517.90  77
   2  -6   1 28025.9 1101.75  33
   2  -6   1 28390.9 1525.10  53
   2  -6   1 28586.6 1137.32  96
   2  -6   1 29689.9 1097.67  14
   2  -6   2 19827.6 823.151  45
   2  -6   2 21278.2 1258.89  77
   2  -6   2 22334.5 871.004  19
   2  -6   2 22368.3 841.214  55
   2  -6   2 20252.8 907.404  96
   2  -6   2 19789.3 839.075  14
   2  -6   3 12162.0 558.321  46
   2  -6   3 12365.1 570.247  45
   2  -6   3 13008.3 603.059  19
   2  -6   3 12822.3 993.575  62
   2  -6   3 12694.1 556.932  32
   2  -6   3 12739.3 558.968  55
   2  -6   3 13744.3 668.242  96
   2  -6   3 11751.9 582.645  14
   2  -6   4 24052.3 926.504  46
   2  -6   4 24644.9 1027.18  96
   2  -6   4 25972.5 960.331  19
   2  -6   4 25463.8 1416.21  62
   2  -6   4 23850.8 909.108  32
   2  -6   5 62810.0 1965.13  12
   2  -6   5 55245.4 1910.82  46
   2  -6   5 57447.6 1930.01  19
   2  -6   5 57163.9 2445.56  62
   2  -6   5 53421.9 1875.54  32
   2  -6   5 60706.9 2029.19  96
   2  -6   6 60051.6 1950.26  12
   2  -6   6 56659.7 1929.14  46
   2  -6   6 54171.1 1918.28  19
   2  -6   6 57265.3 2035.18  90
   2  -6   6 61327.0 2043.30  96
   2  -6   6 56777.1 2683.74  87
   2  -6   7 26922.3 1025.16  12
   2  -6   7 26429.1 1037.72  46
   2  -6   7 28435.1 1136.69  96
   2  -6   7 27701.5 1465.70  62
   2  -6   7 29912.4 1068.22  31
   2  -6   7 27404.3 994.720  28
   2  -6   7 27614.4 1139.98  90
   2  -6   7 27700.5 1699.75  87
   2  -6   8 18541.5 770.481  12
   2  -6   8 19486.1 802.655  46
   2  -6   8 19055.0 1168.57  62
   2  -6   8 19966.1 799.009  31
   2  -6   8 21255.3 894.856  96
   2  -6   8 20207.6 912.902  90
   2  -6   8 19597.8 1399.83  87
   2  -6   9 9080.53 787.207  62
   2  -6   9 10054.4 491.309  31
   2  -6   9 9949.50 525.458  58
   2  -6   9 9628.32 496.123  15
   2  -6   9 10237.4 558.939  96
   2  -6   9 9363.35 597.905  90
   2  -6   9 9422.18 985.882  87
   2  -6  10 28164.6 1041.39  31
   2  -6  10 30332.5 1088.75  58
   2  -6  10 28814.4 1052.72  15
   2  -6  10 27679.7 1099.67  96
   2  -6  11 11756.8 544.221  58
   2  -6  11 10011.2 501.585  15
   2  -6  11 10566.5 480.312  49
   2  -6  12 4137.76 297.687  11
   2  -6  12 4574.60 337.584  58
   2  -6  12 4427.90 313.969  15
   2  -6  12 4248.53 293.277  49
   2  -6  13 9112.68 425.262  11
   2  -6  13 8892.16 448.257  58
   2  -6  13 9305.09 436.550  15
   2  -6  13 9261.71 410.805  49
   2  -6  14 691.596 185.701  11
   2  -6  14 529.812 178.738  15
   2  -6  14 440.756 203.801  58
   2  -6  15 2987.86 214.433  11
   2  -6  15 3050.23 237.214  58
   2  -6  15 2890.56 213.207  15
   2  -6  16 14975.7 501.097  25
   2  -5 -16 196.903 79.5090  33
   2  -5 -15 1123.92 196.749  48
   2  -5 -15 972.118 156.953  13
   2  -5 -14 2331.27 213.716  32
   2  -5 -14 3209.31 259.654  13
   2  -5 -14 2991.71 300.598  48
   2  -5 -13 5955.21 345.462  14
   2  -5 -13 6452.83 435.571  48
   2  -5 -12 3067.79 257.358  47
   2  -5 -12 2727.76 296.209  97
   2  -5 -12 3174.49 297.817  14
   2  -5 -12 3417.42 385.887  48
   2  -5 -11 5130.00 352.712  47
   2  -5 -11 5631.64 400.720  14
   2  -5 -11 5736.74 485.014  48
   2  -5 -10 29147.1 1094.85  47
   2  -5 -10 28814.4 1128.02  14
   2  -5 -10 29067.3 1188.71  48
   2  -5  -9 17488.8 1216.41  85
   2  -5  -9 20903.4 849.459  47
   2  -5  -9 19411.6 845.797  97
   2  -5  -9 20825.6 882.254  14
   2  -5  -9 19330.5 926.940  48
   2  -5  -8 43948.2 2180.37  85
   2  -5  -8 54401.4 1764.49  47
   2  -5  -8 46106.4 1649.63  65
   2  -5  -8 53529.8 2265.64  51
   2  -5  -8 51231.6 1785.81  14
   2  -5  -8 50097.6 1800.20  48
   2  -5  -7 3392.66 436.670  48
   2  -5  -7 3614.84 607.759  85
   2  -5  -7 3408.34 358.840  47
   2  -5  -7 3596.43 287.502  65
   2  -5  -7 3414.92 374.590  14
   2  -5  -7 3215.56 578.072  51
   2  -5  -6 124846. 3992.40  47
   2  -5  -6 133229. 3959.88  65
   2  -5  -6 126205. 4485.66  53
   2  -5  -6 131985. 4636.15  51
   2  -5  -6 121398. 4003.14  14
   2  -5  -6 121501. 4017.06  48
   2  -5  -5 50130.8 1733.77  47
   2  -5  -5 50931.2 1753.52  32
   2  -5  -5 50689.2 2190.84  53
   2  -5  -5 49639.2 2233.35  51
   2  -5  -5 48002.8 1736.34  14
   2  -5  -5 43919.2 2092.44  85
   2  -5  -5 51051.6 1762.40  48
   2  -5  -4 41461.5 1912.75  85
   2  -5  -4 44841.8 1547.95  47
   2  -5  -4 40714.7 2020.27  77
   2  -5  -4 42290.8 1489.95  75
   2  -5  -4 46821.9 2010.63  53
   2  -5  -4 41646.7 1515.71  96
   2  -5  -4 43112.0 2015.61  51
   2  -5  -4 44623.1 1555.67  14
   2  -5  -4 45983.2 1571.89  48
   2  -5  -3 1231.30 301.141  48
   2  -5  -3 1235.93 399.076  85
   2  -5  -3 1213.02 245.853  47
   2  -5  -3 989.446 427.553  77
   2  -5  -3 984.428 201.031  75
   2  -5  -3 996.774 272.307  33
   2  -5  -3 977.150 239.253  96
   2  -5  -3 744.151 381.822  53
   2  -5  -3 1234.74 452.760  51
   2  -5  -3 1498.97 265.425  14
   2  -5  -3 1407.44 267.694  13
   2  -5  -2 25768.3 1337.69  85
   2  -5  -2 27961.8 1034.06  47
   2  -5  -2 28162.7 1435.30  53
   2  -5  -2 26925.3 1037.00  96
   2  -5  -2 24056.8 1431.20  77
   2  -5  -2 26588.5 981.702  75
   2  -5  -2 26855.8 1071.67  33
   2  -5  -2 29634.5 1050.78  14
   2  -5  -2 27020.0 1454.43  51
   2  -5  -2 26884.7 1034.66  13
   2  -5  -1 66833.1 2651.52  85
   2  -5  -1 69322.1 2312.27  47
   2  -5  -1 73924.5 2315.35  45
   2  -5  -1 68676.1 2828.19  77
   2  -5  -1 70126.5 2268.85  75
   2  -5  -1 68706.9 2346.98  33
   2  -5  -1 69258.2 2766.65  53
   2  -5  -1 70754.6 2337.62  96
   2  -5  -1 71168.4 2322.33  14
   2  -5  -1 70115.3 2804.81  51
   2  -5  -1 69032.3 2313.98  13
   2  -5   0 3262.64 463.718  85
   2  -5   0 4351.40 322.822  47
   2  -5   0 4649.24 320.142  45
   2  -5   0 3753.17 563.516  77
   2  -5   0 4583.62 288.108  75
   2  -5   0 4276.66 303.043  73
   2  -5   0 4479.15 347.917  33
   2  -5   0 4849.93 582.384  53
   2  -5   0 4440.51 332.484  14
   2  -5   0 4903.52 610.932  51
   2  -5   0 4319.62 324.557  13
   2  -5   1 7986.31 640.698  85
   2  -5   1 8197.04 734.560  53
   2  -5   1 7453.11 412.099  45
   2  -5   1 7233.21 725.648  77
   2  -5   1 7775.47 411.269  73
   2  -5   1 7511.63 431.569  33
   2  -5   1 8180.78 422.382  13
   2  -5   2 38111.4 1406.97  96
   2  -5   2 40228.2 1362.71  47
   2  -5   2 40178.3 1361.15  45
   2  -5   2 42004.7 1856.13  77
   2  -5   2 38851.7 1782.32  53
   2  -5   2 39932.3 1354.28  73
   2  -5   2 38978.0 1370.64  72
   2  -5   2 34974.1 1354.96  33
   2  -5   3 18555.7 740.901  45
   2  -5   3 18729.3 1135.52  77
   2  -5   3 17742.6 721.927  73
   2  -5   3 18045.5 750.081  72
   2  -5   3 19984.8 771.504  19
   2  -5   3 16983.2 729.315  14
   2  -5   3 18476.9 794.566  96
   2  -5   3 19775.8 796.653  90
   2  -5   3 17345.3 1227.52  87
   2  -5   4 71938.6 2400.50  45
   2  -5   4 74087.0 2917.22  77
   2  -5   4 75237.1 2398.63  73
   2  -5   4 72740.6 2418.91  72
   2  -5   4 74429.6 2454.62  71
   2  -5   4 78092.0 2431.10  19
   2  -5   4 73707.9 2475.19  96
   2  -5   4 70246.6 2391.62  14
   2  -5   4 71497.4 2457.34  90
   2  -5   4 77053.3 2395.29  88
   2  -5   4 70864.3 3077.47  87
   2  -5   5 66009.8 2122.94  46
   2  -5   5 64699.7 2601.68  77
   2  -5   5 63736.3 2125.47  72
   2  -5   5 63882.6 2157.71  71
   2  -5   5 63223.4 2117.65  19
   2  -5   5 64331.1 2188.48  96
   2  -5   5 62943.0 2184.37  90
   2  -5   5 60238.3 2795.89  87
   2  -5   6 44791.8 1516.32  12
   2  -5   6 45144.1 1530.03  46
   2  -5   6 43251.3 1527.68  72
   2  -5   6 44309.9 1567.23  71
   2  -5   6 41759.1 1511.17  19
   2  -5   6 45998.1 2007.10  62
   2  -5   6 45488.0 1606.37  96
   2  -5   6 42935.3 1600.95  90
   2  -5   6 45872.2 2261.92  87
   2  -5   7 111299. 3469.85  12
   2  -5   7 108788. 3493.81  46
   2  -5   7 110253. 3536.56  71
   2  -5   7 99916.0 3464.02  19
   2  -5   7 112621. 4009.45  62
   2  -5   7 112593. 3490.26  31
   2  -5   7 114997. 3585.79  96
   2  -5   7 109508. 3586.31  90
   2  -5   7 111668. 4377.65  87
   2  -5   8 74870.9 2482.01  12
   2  -5   8 76785.6 2538.35  46
   2  -5   8 75818.5 2564.67  71
   2  -5   8 76672.6 2633.14  90
   2  -5   8 81753.2 2629.36  96
   2  -5   8 74416.2 2977.15  62
   2  -5   8 78759.8 2507.34  31
   2  -5   8 77814.8 3426.21  87
   2  -5   9 4050.55 284.381  12
   2  -5   9 3953.01 357.121  46
   2  -5   9 4640.52 407.707  96
   2  -5   9 3964.22 326.342  71
   2  -5   9 4173.57 582.231  62
   2  -5   9 4460.37 319.268  31
   2  -5   9 4303.33 373.359  58
   2  -5   9 3495.33 726.281  87
   2  -5  10 3231.57 346.600  15
   2  -5  10 2914.74 283.491  18
   2  -5  10 2837.55 521.428  62
   2  -5  10 2986.00 281.608  31
   2  -5  10 3374.08 352.737  58
   2  -5  10 3025.88 349.458  96
   2  -5  10 3291.44 316.902  49
   2  -5  10 2547.13 685.171  87
   2  -5  11 7389.89 434.612  49
   2  -5  11 6906.30 397.990  18
   2  -5  11 5750.24 622.531  62
   2  -5  11 8070.82 450.826  15
   2  -5  11 6941.20 455.255  96
   2  -5  11 8573.67 986.399  87
   2  -5  12 4082.40 313.085  18
   2  -5  12 4439.21 349.927  15
   2  -5  12 3933.52 331.885  96
   2  -5  12 4835.27 425.949  90
   2  -5  12 4122.82 345.078  49
   2  -5  13 2518.13 283.867  11
   2  -5  13 2866.17 274.861  18
   2  -5  13 3042.97 309.489  15
   2  -5  13 2858.03 335.253  90
   2  -5  13 2831.45 303.125  49
   2  -5  14 3259.06 262.650  18
   2  -5  14 3170.00 304.860  15
   2  -5  14 3147.62 314.369  90
   2  -5  14 3129.31 289.999  49
   2  -5  15 4404.27 274.342  18
   2  -5  15 4190.36 315.141  15
   2  -5  15 4108.41 296.922  49
   2  -5  16 6184.14 339.830  15
   2  -5  16 6046.03 317.269  49
   2  -5  17 9488.07 360.785  49
   2  -5  17 9557.99 354.312  25
   2  -4 -17 1303.36 174.673  48
   2  -4 -17 1390.45 122.717  13
   2  -4 -16 5514.75 344.125  48
   2  -4 -15 13455.3 565.191  14
   2  -4 -15 14646.6 644.653  48
   2  -4 -14 25574.6 1019.00  48
   2  -4 -13 2696.61 391.034  48
   2  -4 -13 2338.61 261.882  47
   2  -4 -13 2852.88 301.091  97
   2  -4 -12 13273.0 606.986  47
   2  -4 -12 13314.3 672.589  44
   2  -4 -12 12397.1 619.073  97
   2  -4 -12 13592.1 707.900  48
   2  -4 -11 3783.61 422.340  44
   2  -4 -11 3711.60 300.638  76
   2  -4 -11 4337.63 393.378  54
   2  -4 -11 3901.77 376.544  97
   2  -4 -11 3600.97 445.300  48
   2  -4 -10 11614.1 975.974  85
   2  -4 -10 12373.4 665.215  44
   2  -4 -10 11811.7 538.495  76
   2  -4 -10 11962.8 624.433  97
   2  -4 -10 10597.2 888.174  51
   2  -4 -10 12999.3 700.957  48
   2  -4  -9 20541.6 1342.19  85
   2  -4  -9 23633.6 976.187  44
   2  -4  -9 21177.4 831.192  76
   2  -4  -9 25798.3 1000.76  54
   2  -4  -9 22177.5 1302.35  51
   2  -4  -9 23320.5 989.419  48
   2  -4  -8 49006.5 2355.53  85
   2  -4  -8 52396.3 1866.12  44
   2  -4  -8 50905.0 1751.34  76
   2  -4  -8 58543.2 1903.28  54
   2  -4  -8 51497.9 2212.23  53
   2  -4  -8 59054.9 2387.48  51
   2  -4  -8 54752.4 1778.61  50
   2  -4  -8 54583.1 1886.11  48
   2  -4  -7 11191.5 895.901  85
   2  -4  -7 11473.6 506.078  65
   2  -4  -7 13092.4 628.703  54
   2  -4  -7 13129.6 899.828  53
   2  -4  -7 13077.9 956.377  51
   2  -4  -7 11624.7 524.459  50
   2  -4  -7 11483.7 765.474  89
   2  -4  -7 11903.8 615.817  48
   2  -4  -6 24758.1 1379.26  85
   2  -4  -6 24997.2 985.395  75
   2  -4  -6 28878.5 981.035  65
   2  -4  -6 28535.6 1406.96  53
   2  -4  -6 28134.1 1453.92  51
   2  -4  -6 28850.6 990.569  50
   2  -4  -6 23037.6 1179.10  89
   2  -4  -6 26512.4 1039.99  48
   2  -4  -5 11680.4 860.347  85
   2  -4  -5 11770.1 568.057  44
   2  -4  -5 12044.0 525.385  96
   2  -4  -5 11777.7 538.060  75
   2  -4  -5 14265.8 896.443  53
   2  -4  -5 12662.7 900.614  51
   2  -4  -5 12307.3 525.561  50
   2  -4  -5 11359.5 713.808  89
   2  -4  -5 12505.6 588.766  48
   2  -4  -4 124064. 4299.27  85
   2  -4  -4 122158. 3871.70  47
   2  -4  -4 118102. 4377.87  77
   2  -4  -4 125550. 3855.93  75
   2  -4  -4 121823. 3861.57  96
   2  -4  -4 127716. 4351.53  51
   2  -4  -4 122401. 3850.04  50
   2  -4  -4 115796. 4069.21  89
   2  -4  -4 128932. 4329.78  53
   2  -4  -3 61822.4 2449.24  85
   2  -4  -3 61933.2 2544.66  77
   2  -4  -3 63280.9 2070.63  75
   2  -4  -3 62919.7 2082.16  73
   2  -4  -3 66661.6 2090.01  96
   2  -4  -3 65701.4 2488.35  53
   2  -4  -3 64910.1 2512.60  51
   2  -4  -3 60172.5 2277.83  89
   2  -4  -3 63285.5 2062.84  50
   2  -4  -2 34737.0 1562.37  85
   2  -4  -2 36591.9 1662.01  77
   2  -4  -2 36775.8 1237.08  75
   2  -4  -2 34752.8 1245.63  73
   2  -4  -2 37153.9 1609.25  53
   2  -4  -2 36872.9 1255.77  96
   2  -4  -2 35468.2 1612.26  51
   2  -4  -2 35023.7 1223.28  50
   2  -4  -1 69185.9 2678.73  85
   2  -4  -1 73764.2 2799.33  77
   2  -4  -1 74724.0 2346.89  73
   2  -4  -1 69941.7 2345.62  72
   2  -4  -1 73559.2 2354.41  96
   2  -4  -1 73644.0 2742.18  51
   2  -4  -1 75226.0 2741.95  53
   2  -4  -1 71923.5 2322.93  50
   2  -4   0 37830.9 1583.36  85
   2  -4   0 37551.9 1666.28  77
   2  -4   0 36673.4 1257.46  73
   2  -4   0 36309.8 1267.93  72
   2  -4   0 36462.7 1272.66  71
   2  -4   0 37547.0 1277.27  96
   2  -4   0 38622.0 1624.09  53
   2  -4   0 35162.5 1239.82  50
   2  -4   1 9406.03 674.036  85
   2  -4   1 10321.3 759.423  77
   2  -4   1 8987.07 427.473  73
   2  -4   1 9520.48 443.705  72
   2  -4   1 8804.86 448.180  71
   2  -4   1 8829.19 697.242  51
   2  -4   1 8610.08 441.329  90
   2  -4   2 41323.3 1689.80  85
   2  -4   2 39745.0 1777.41  77
   2  -4   2 42575.5 1386.45  73
   2  -4   2 40544.0 1392.22  72
   2  -4   2 41207.3 1408.95  71
   2  -4   2 38408.2 1719.87  51
   2  -4   2 40186.8 1395.22  90
   2  -4   2 39251.9 1852.77  87
   2  -4   3 86718.3 3094.80  85
   2  -4   3 85635.6 3130.72  53
   2  -4   3 85402.8 3211.66  77
   2  -4   3 88008.6 2776.60  72
   2  -4   3 89407.3 2792.34  71
   2  -4   3 83909.1 2795.75  96
   2  -4   3 84476.3 2782.84  90
   2  -4   3 92438.2 3368.58  87
   2  -4   4 100046. 3602.16  85
   2  -4   4 102456. 3307.75  78
   2  -4   4 102178. 3724.16  77
   2  -4   4 102852. 3278.60  72
   2  -4   4 102334. 3296.12  71
   2  -4   4 108061. 3283.63  19
   2  -4   4 103037. 3310.34  96
   2  -4   4 98465.1 3622.54  53
   2  -4   4 103423. 3301.14  90
   2  -4   4 106698. 3910.78  87
   2  -4   5 25419.4 1225.21  85
   2  -4   5 22577.9 878.453  45
   2  -4   5 25431.2 951.525  78
   2  -4   5 24901.1 1287.36  77
   2  -4   5 24737.5 934.651  71
   2  -4   5 25185.3 907.702  19
   2  -4   5 25321.6 954.903  96
   2  -4   5 24964.3 950.766  90
   2  -4   5 23281.1 864.795  14
   2  -4   5 25035.1 1441.89  87
   2  -4   6 7708.20 377.669  12
   2  -4   6 7220.22 398.640  46
   2  -4   6 7150.92 445.169  78
   2  -4   6 6685.75 663.132  77
   2  -4   6 7425.95 425.110  71
   2  -4   6 6531.04 373.000  19
   2  -4   6 7718.76 689.374  62
   2  -4   6 7604.82 453.979  96
   2  -4   6 7139.36 447.651  90
   2  -4   6 7703.87 835.518  87
   2  -4   7 81767.6 2606.53  12
   2  -4   7 82002.0 2660.42  46
   2  -4   7 83890.3 2722.71  78
   2  -4   7 84792.1 3165.73  77
   2  -4   7 82499.4 2694.82  71
   2  -4   7 79725.8 3045.61  62
   2  -4   7 81025.3 2617.67  31
   2  -4   7 85051.1 2728.63  96
   2  -4   7 79745.1 2723.84  90
   2  -4   7 82095.9 3425.63  87
   2  -4   8 63458.4 2147.82  12
   2  -4   8 74907.0 2322.99  96
   2  -4   8 66862.3 2225.80  46
   2  -4   8 72363.7 2313.61  78
   2  -4   8 70586.2 2273.97  71
   2  -4   8 69127.8 2621.06  62
   2  -4   8 63874.6 2166.57  31
   2  -4   8 68165.7 2314.46  90
   2  -4   8 67485.7 3088.08  87
   2  -4   9 13939.0 671.185  78
   2  -4   9 12881.7 611.024  71
   2  -4   9 11624.1 830.901  62
   2  -4   9 11682.5 525.892  31
   2  -4   9 12646.4 590.136  58
   2  -4   9 13215.0 661.741  96
   2  -4   9 15277.0 1275.82  87
   2  -4  10 71877.6 2449.15  78
   2  -4  10 70731.1 2382.05  71
   2  -4  10 70526.1 2720.08  62
   2  -4  10 70601.4 2354.36  58
   2  -4  10 71305.0 2359.39  15
   2  -4  10 72712.8 2435.97  96
   2  -4  10 81515.0 3453.54  87
   2  -4  11 1973.74 316.057  78
   2  -4  11 2166.87 286.120  18
   2  -4  11 1866.92 299.479  58
   2  -4  11 2116.98 311.197  15
   2  -4  11 2119.90 306.131  96
   2  -4  11 1769.36 309.692  49
   2  -4  11 2635.35 709.351  87
   2  -4  12 10101.8 563.516  78
   2  -4  12 9406.03 524.560  18
   2  -4  12 10145.9 525.675  58
   2  -4  12 9826.68 528.053  15
   2  -4  12 9774.89 543.244  96
   2  -4  12 10962.5 628.921  90
   2  -4  12 9943.36 545.310  49
   2  -4  12 11694.2 1169.58  87
   2  -4  13 4394.86 347.463  11
   2  -4  13 4868.51 376.725  78
   2  -4  13 4991.22 375.676  18
   2  -4  13 4880.87 375.187  58
   2  -4  13 4895.86 380.046  15
   2  -4  13 4408.93 348.382  96
   2  -4  13 4896.89 433.960  90
   2  -4  13 5491.29 409.788  49
   2  -4  13 4930.95 812.813  87
   2  -4  14 10042.0 482.113  11
   2  -4  14 8315.77 474.250  78
   2  -4  14 9981.79 512.183  18
   2  -4  14 9760.05 512.961  58
   2  -4  14 9425.43 552.794  90
   2  -4  14 10292.3 529.575  49
   2  -4  15 14617.9 599.305  11
   2  -4  15 12548.9 557.578  20
   2  -4  15 14109.8 612.247  18
   2  -4  15 14692.5 638.936  58
   2  -4  15 12629.0 639.838  90
   2  -4  15 14331.6 628.154  49
   2  -4  16 3636.15 242.912  20
   2  -4  16 3734.16 290.245  18
   2  -4  16 3698.69 304.758  49
   2  -4  17 4073.55 252.083  18
   2  -4  17 4519.22 274.653  49
   2  -4  18 51.2232 101.596  49
   2  -3 -18 2652.89 219.212  48
   2  -3 -17 9201.91 455.639  48
   2  -3 -16 6125.84 379.198  44
   2  -3 -16 6065.95 414.520  48
   2  -3 -15 2450.96 353.915  48
   2  -3 -15 2285.14 314.560  44
   2  -3 -14 1693.28 344.252  48
   2  -3 -14 1878.11 331.013  44
   2  -3 -14 1815.44 466.478  89
   2  -3 -13 10768.5 626.649  48
   2  -3 -13 11261.6 610.165  44
   2  -3 -13 12009.4 600.373   5
   2  -3 -13 10966.5 544.423  76
   2  -3 -13 10506.3 542.704  97
   2  -3 -13 9691.32 853.109  89
   2  -3 -12 21866.4 924.822  48
   2  -3 -12 19819.3 886.151  44
   2  -3 -12 22341.7 909.522   5
   2  -3 -12 20763.9 834.225  76
   2  -3 -12 20668.9 843.555  97
   2  -3 -12 18924.5 1187.07  89
   2  -3 -11 12228.5 661.557  48
   2  -3 -11 12234.8 1002.27  85
   2  -3 -11 12320.6 637.803  44
   2  -3 -11 13385.5 651.634   5
   2  -3 -11 11983.3 570.498  76
   2  -3 -11 12925.0 608.046  97
   2  -3 -11 12937.2 917.769  51
   2  -3 -11 11033.6 863.488  89
   2  -3 -10 3323.58 394.595  48
   2  -3 -10 3464.25 368.686  44
   2  -3 -10 3808.75 373.612   5
   2  -3 -10 3596.54 306.896  76
   2  -3 -10 4087.31 356.254  97
   2  -3 -10 3044.01 469.830  53
   2  -3 -10 4046.10 563.736  51
   2  -3 -10 3259.64 532.706  89
   2  -3  -9 36717.6 1361.22  48
   2  -3  -9 35927.9 1332.20  44
   2  -3  -9 39649.2 1359.33   5
   2  -3  -9 36806.8 1283.91  76
   2  -3  -9 35857.2 1653.10  53
   2  -3  -9 40840.9 1958.71  52
   2  -3  -9 37115.2 1729.54  51
   2  -3  -9 35246.5 1648.18  89
   2  -3  -8 13773.2 650.732  48
   2  -3  -8 14811.0 646.953   5
   2  -3  -8 14912.3 931.409  53
   2  -3  -8 15049.8 1080.29  52
   2  -3  -8 15083.6 972.326  51
   2  -3  -8 14123.6 894.833  89
   2  -3  -7 25335.5 952.161  48
   2  -3  -7 26516.8 1336.63  85
   2  -3  -7 23753.0 922.956  75
   2  -3  -7 28448.2 1310.44  53
   2  -3  -7 27311.0 1344.52  51
   2  -3  -7 24479.6 1199.11  89
   2  -3  -6 97184.6 3425.76  85
   2  -3  -6 89003.2 3398.73  77
   2  -3  -6 92852.4 2977.93  75
   2  -3  -6 100124. 3397.74  53
   2  -3  -6 98538.5 3415.79  51
   2  -3  -6 89408.4 3266.64  89
   2  -3  -5 24949.6 1232.25  85
   2  -3  -5 24106.0 1248.34  77
   2  -3  -5 25489.9 883.439  75
   2  -3  -5 22647.3 839.119  96
   2  -3  -5 25595.5 1206.08  53
   2  -3  -5 23819.0 1204.97  51
   2  -3  -5 24655.7 1138.33  89
   2  -3  -4 82930.5 2936.34  85
   2  -3  -4 81294.3 2549.85  75
   2  -3  -4 78072.2 2531.52  96
   2  -3  -4 81467.5 2887.72  53
   2  -3  -4 79084.0 2892.82  51
   2  -3  -4 80593.6 2833.29  89
   2  -3  -3 5028.03 547.721  85
   2  -3  -3 4025.08 272.567  73
   2  -3  -3 4640.98 272.193  96
   2  -3  -3 4061.33 481.565  53
   2  -3  -3 3986.37 474.593  51
   2  -3  -3 4002.10 258.207  50
   2  -3  -2 111704. 3673.48  85
   2  -3  -2 108881. 3695.02  77
   2  -3  -2 109686. 3321.94  73
   2  -3  -2 102437. 3311.30  71
   2  -3  -2 106549. 3308.42  96
   2  -3  -2 105817. 3625.06  53
   2  -3  -2 96703.3 3581.53  51
   2  -3  -2 106498. 3296.95  50
   2  -3  -1 216050. 6873.88  85
   2  -3  -1 214718. 6918.60  77
   2  -3  -1 217604. 6543.54  73
   2  -3  -1 212880. 6540.97  72
   2  -3  -1 210562. 6539.78  71
   2  -3  -1 208473. 6516.10  50
   2  -3  -1 215632. 6535.22  96
   2  -3  -1 220768. 6850.09  53
   2  -3   0 187541. 5969.46  85
   2  -3   0 184645. 5642.54  78
   2  -3   0 185585. 6011.31  77
   2  -3   0 182376. 5647.77  72
   2  -3   0 180812. 5641.18  96
   2  -3   0 188156. 5939.78  51
   2  -3   0 182503. 5620.25  90
   2  -3   0 193030. 6061.27  87
   2  -3   1 23843.4 1124.41  85
   2  -3   1 23436.1 845.822  78
   2  -3   1 27141.5 1196.72  77
   2  -3   1 23204.0 847.497  71
   2  -3   1 23907.6 853.072  96
   2  -3   1 23042.6 1079.37  51
   2  -3   1 24125.9 833.278  90
   2  -3   1 22451.8 1186.11  87
   2  -3   2 28189.2 1271.72  85
   2  -3   2 27279.1 987.269  78
   2  -3   2 28771.9 1315.22  77
   2  -3   2 29114.4 1242.77  53
   2  -3   2 30225.7 1243.39  51
   2  -3   2 27973.4 974.101  90
   2  -3   2 28588.7 963.093  50
   2  -3   3 25597.4 1212.68  77
   2  -3   3 23174.9 878.236  96
   2  -3   3 24279.4 1110.02  53
   2  -3   3 24737.5 1095.32  51
   2  -3   3 24287.6 866.016  90
   2  -3   4 98332.3 3415.25  77
   2  -3   4 96423.6 3020.32  96
   2  -3   4 91487.7 3246.34  53
   2  -3   4 94070.1 3001.54  90
   2  -3   5 30363.3 1089.91  96
   2  -3   5 30629.6 1083.35  78
   2  -3   5 30112.3 1431.38  77
   2  -3   5 27527.8 1248.39  53
   2  -3   5 30027.3 1076.77  90
   2  -3   6 10537.0 518.004  78
   2  -3   6 10507.0 812.341  77
   2  -3   6 10541.8 532.745  96
   2  -3   6 11185.7 474.699  95
   2  -3   6 9738.43 507.992  90
   2  -3   7 3812.26 279.359  46
   2  -3   7 4202.58 337.063  78
   2  -3   7 4228.61 541.426  77
   2  -3   7 3210.04 424.977  62
   2  -3   7 3763.84 335.677  96
   2  -3   7 3472.62 286.580  95
   2  -3   7 3574.16 334.475  90
   2  -3   8 58784.5 1970.07  46
   2  -3   8 64879.8 2068.57  78
   2  -3   8 61613.9 2539.42  77
   2  -3   8 59967.8 2240.38  62
   2  -3   8 53911.1 1901.88  31
   2  -3   8 59602.2 1949.85  58
   2  -3   8 65526.9 2063.46  96
   2  -3   8 65129.2 2005.58  95
   2  -3   9 5214.69 346.356  46
   2  -3   9 5152.31 390.609  78
   2  -3   9 5504.24 649.076  77
   2  -3   9 4663.12 458.717  62
   2  -3   9 4839.76 332.861  58
   2  -3   9 5211.54 397.886  96
   2  -3   9 5764.30 398.164  95
   2  -3   9 6116.53 850.692  87
   2  -3  10 17639.0 737.028  46
   2  -3  10 17616.1 801.100  78
   2  -3  10 17117.6 721.233  58
   2  -3  10 16907.4 727.762  15
   2  -3  10 18328.0 808.059  96
   2  -3  10 20427.5 809.391  95
   2  -3  10 19229.2 1463.52  87
   2  -3  11 63700.3 2163.20  78
   2  -3  11 58886.7 2052.26  58
   2  -3  11 59569.1 2056.49  15
   2  -3  11 63743.5 2151.27  96
   2  -3  11 66403.2 2143.07  95
   2  -3  11 62316.3 2183.26  90
   2  -3  11 62140.0 2094.39  49
   2  -3  12 7652.35 433.721  11
   2  -3  12 8834.58 520.942  78
   2  -3  12 8215.61 488.873  18
   2  -3  12 8508.82 476.852  58
   2  -3  12 8128.44 469.040  15
   2  -3  12 8322.69 505.870  96
   2  -3  12 8868.18 520.831  95
   2  -3  12 8458.13 563.291  90
   2  -3  12 8460.06 505.118  49
   2  -3  12 8348.03 1038.35  87
   2  -3  13 814.433 242.148  11
   2  -3  13 852.152 252.678  78
   2  -3  13 569.218 282.051  18
   2  -3  13 1051.58 285.356  58
   2  -3  13 517.856 264.356  15
   2  -3  13 889.694 290.585  95
   2  -3  13 842.204 241.362  96
   2  -3  13 879.502 309.269  90
   2  -3  13 759.319 291.172  49
   2  -3  13 1059.30 604.858  87
   2  -3  14 17920.3 708.236  11
   2  -3  14 15035.8 720.634  78
   2  -3  14 17194.1 742.143  18
   2  -3  14 17041.7 738.445  58
   2  -3  14 16852.4 730.945  15
   2  -3  14 16889.9 755.754  95
   2  -3  14 17091.2 800.732  90
   2  -3  14 15832.9 751.677  49
   2  -3  15 6799.42 401.785  11
   2  -3  15 5583.26 368.251  78
   2  -3  15 6500.08 397.739  20
   2  -3  15 7026.58 434.141  18
   2  -3  15 7161.15 425.406  15
   2  -3  15 5704.78 430.980  90
   2  -3  16 1898.12 247.257  20
   2  -3  16 1757.89 278.038  18
   2  -3  16 1488.46 273.048  15
   2  -3  16 1575.37 248.557  90
   2  -3  16 1775.19 216.146  25
   2  -3  17 42.1627 167.138  20
   2  -3  17 189.828 189.995  18
   2  -3  17 135.204 148.499  25
   2  -3  18 3248.80 191.046  20
   2  -3  18 3775.46 229.431  18
   2  -3  18 3117.77 178.258  25
   2  -3  18 3830.98 230.082  49
   2  -2 -19 2133.41 180.562  48
   2  -2 -18 4181.49 273.750  44
   2  -2 -18 4622.10 313.374  48
   2  -2 -17 479.128 253.267  48
   2  -2 -17 553.505 224.448  44
   2  -2 -16 10566.9 570.768  48
   2  -2 -16 11298.2 545.936  44
   2  -2 -16 10651.4 510.067   5
   2  -2 -15 1190.79 327.763  48
   2  -2 -15 512.927 274.144  44
   2  -2 -15 822.827 249.089   5
   2  -2 -15 714.443 432.651  89
   2  -2 -14 2583.91 373.577  48
   2  -2 -14 2238.72 343.918  44
   2  -2 -14 2559.01 326.458  76
   2  -2 -14 2306.25 258.514  74
   2  -2 -14 2356.61 309.871   5
   2  -2 -14 2005.34 576.857  52
   2  -2 -14 2408.48 554.188  89
   2  -2 -13 640.830 308.007  48
   2  -2 -13 617.357 209.355  82
   2  -2 -13 630.234 298.441  44
   2  -2 -13 464.267 266.653  76
   2  -2 -13 420.249 208.594  74
   2  -2 -13 236.594 248.342   5
   2  -2 -13 766.579 215.191  97
   2  -2 -13 517.445 516.805  52
   2  -2 -13 335.230 426.111  89
   2  -2 -12 7952.94 514.175  48
   2  -2 -12 7369.71 768.636  85
   2  -2 -12 8084.76 469.594  76
   2  -2 -12 8635.95 433.745  74
   2  -2 -12 8341.60 477.133   5
   2  -2 -12 7810.24 426.701  97
   2  -2 -12 7341.51 693.293  51
   2  -2 -12 7208.75 763.405  89
   2  -2 -11 86884.9 2803.12  48
   2  -2 -11 83879.2 3276.80  85
   2  -2 -11 87242.1 2766.00  76
   2  -2 -11 81471.1 2725.89  74
   2  -2 -11 88858.6 2790.30   5
   2  -2 -11 85795.9 2746.32  97
   2  -2 -11 87052.0 3172.85  53
   2  -2 -11 87107.1 3404.37  52
   2  -2 -11 85230.4 3218.49  51
   2  -2 -11 82666.3 3241.17  89
   2  -2 -10 22897.3 929.328  48
   2  -2 -10 22276.4 1314.00  85
   2  -2 -10 24074.3 909.384  76
   2  -2 -10 24765.0 926.364   5
   2  -2 -10 24613.0 907.513  97
   2  -2 -10 24576.9 1235.67  53
   2  -2 -10 24684.5 1370.12  52
   2  -2 -10 25550.5 1279.15  51
   2  -2 -10 24643.2 1300.03  89
   2  -2  -9 4384.09 340.314  48
   2  -2  -9 4497.16 582.722  85
   2  -2  -9 4025.34 494.425  53
   2  -2  -9 3721.94 539.564  52
   2  -2  -9 3908.91 500.269  51
   2  -2  -9 4338.51 563.539  89
   2  -2  -8 10725.8 795.158  85
   2  -2  -8 11952.0 779.428  53
   2  -2  -8 11793.3 840.705  52
   2  -2  -8 11199.3 773.411  51
   2  -2  -8 11788.6 807.891  89
   2  -2  -7 11338.2 802.116  85
   2  -2  -7 10847.1 734.124  77
   2  -2  -7 11641.6 501.772  75
   2  -2  -7 13015.5 783.959  53
   2  -2  -7 12162.6 811.153  52
   2  -2  -7 12300.5 805.826  51
   2  -2  -7 12565.2 791.547  89
   2  -2  -6 15846.1 893.515  77
   2  -2  -6 17447.3 655.362  75
   2  -2  -6 17964.9 938.121  53
   2  -2  -6 16324.7 908.278  52
   2  -2  -6 16762.9 937.458  51
   2  -2  -6 17426.5 941.095  89
   2  -2  -5 22091.1 1047.69  77
   2  -2  -5 22641.4 752.086  75
   2  -2  -5 21419.1 741.334  73
   2  -2  -5 21538.1 1016.07  53
   2  -2  -5 21539.3 991.939  52
   2  -2  -5 24428.9 1072.45  89
   2  -2  -5 22162.3 1013.65  51
   2  -2  -4 26945.1 1192.18  77
   2  -2  -4 27065.1 915.762  73
   2  -2  -4 26265.8 900.000  72
   2  -2  -4 25624.1 867.889  96
   2  -2  -4 26637.7 1158.09  53
   2  -2  -4 26395.0 1118.69  52
   2  -2  -4 27348.7 1159.96  51
   2  -2  -3 100897. 3262.08  85
   2  -2  -3 97175.4 3235.41  77
   2  -2  -3 95793.9 2932.12  73
   2  -2  -3 94316.8 2923.70  72
   2  -2  -3 89609.6 2895.73  96
   2  -2  -3 95763.0 3175.80  53
   2  -2  -3 96524.5 3108.96  52
   2  -2  -2 75936.1 2527.82  85
   2  -2  -2 72291.8 2216.62  72
   2  -2  -2 67745.9 2187.74  96
   2  -2  -2 69861.6 2433.19  53
   2  -2  -1 122105. 3858.25  85
   2  -2  -1 112643. 3526.93  96
   2  -2  -1 112760. 3735.96  51
   2  -2  -1 119730. 3803.98  87
   2  -2   0 40563.8 1536.11  77
   2  -2   0 37901.0 1232.91  96
   2  -2   0 39146.6 1443.00  53
   2  -2   0 38541.2 1418.94  51
   2  -2   0 36576.4 1199.36  90
   2  -2   0 37963.6 1217.71  50
   2  -2   0 41565.4 1519.84  87
   2  -2   1 79779.3 2561.58  78
   2  -2   1 85475.4 2880.74  77
   2  -2   1 84200.8 2570.91  96
   2  -2   1 87353.9 2777.57  53
   2  -2   1 87295.7 2753.61  51
   2  -2   1 81499.6 2540.43  90
   2  -2   1 79881.7 2541.78  50
   2  -2   1 84193.6 2879.80  87
   2  -2   2 18940.1 965.351  77
   2  -2   2 20243.3 701.387  96
   2  -2   2 19832.3 865.371  53
   2  -2   2 20201.3 842.488  51
   2  -2   2 19311.3 676.318  90
   2  -2   2 18430.4 657.426  50
   2  -2   2 19823.0 973.899  87
   2  -2   3 307821. 9800.97  50
   2  -2   3 343660. 10234.1  77
   2  -2   3 329462. 9830.86  70
   2  -2   3 340467. 10032.6  53
   2  -2   3 322459. 9973.11  51
   2  -2   3 330496. 9833.05  90
   2  -2   3 334872. 10233.5  87
   2  -2   4 184046. 5937.30  84
   2  -2   4 184155. 6095.50  77
   2  -2   4 186180. 5696.61  70
   2  -2   4 183731. 5852.02  53
   2  -2   4 184675. 5699.59  90
   2  -2   4 195689. 6155.14  87
   2  -2   5 112201. 3607.65  84
   2  -2   5 111770. 3751.92  77
   2  -2   5 107862. 3292.85  70
   2  -2   5 98774.6 3235.53  95
   2  -2   5 106887. 3296.02  90
   2  -2   5 107631. 3780.28  87
   2  -2   6 5867.83 594.213  84
   2  -2   6 6220.53 323.368  95
   2  -2   6 5958.37 370.504  70
   2  -2   6 6070.16 460.527  62
   2  -2   6 6502.25 385.537  90
   2  -2   6 6142.80 698.139  87
   2  -2   7 6231.62 674.055  84
   2  -2   7 6312.57 395.831  70
   2  -2   7 5878.86 434.937  62
   2  -2   7 6494.00 348.326  95
   2  -2   7 6622.74 410.811  90
   2  -2   7 6396.97 714.339  87
   2  -2   8 14299.2 1001.50  84
   2  -2   8 13739.2 582.861  46
   2  -2   8 15186.6 673.839  70
   2  -2   8 12868.3 686.586  62
   2  -2   8 14838.5 584.564  58
   2  -2   8 16164.5 625.745  95
   2  -2   8 14303.9 1149.41  87
   2  -2   9 42.9322 451.233  84
   2  -2   9 104.588 151.948  46
   2  -2   9-74.3741 204.011  95
   2  -2   9 168.686 263.077  70
   2  -2   9 28.5839 177.197  58
   2  -2   9 201.207 183.156  15
   2  -2  10 15103.3 1157.18  84
   2  -2  10 15224.4 1105.94  77
   2  -2  10 15284.0 989.687   1
   2  -2  10 14780.3 633.808  58
   2  -2  10 14488.2 623.593  15
   2  -2  10 15206.8 714.039  96
   2  -2  10 17145.3 696.343  95
   2  -2  11 43124.3 2169.53  84
   2  -2  11 39912.0 1413.10  11
   2  -2  11 41324.3 2054.45  77
   2  -2  11 41125.2 1910.87   1
   2  -2  11 43565.5 1462.10  58
   2  -2  11 40679.0 1442.70  15
   2  -2  11 44709.7 1508.59  95
   2  -2  11 43713.4 1571.93  90
   2  -2  11 43556.0 1544.48  96
   2  -2  11 39840.7 1465.53  49
   2  -2  12 13782.6 1173.77  84
   2  -2  12 13067.4 574.488  11
   2  -2  12 12476.8 946.063   1
   2  -2  12 13187.6 620.452  58
   2  -2  12 13269.5 602.352  15
   2  -2  12 12098.3 640.245  96
   2  -2  12 13417.5 650.952  95
   2  -2  12 13029.0 698.997  90
   2  -2  12 12021.2 611.890  49
   2  -2  13 18768.0 1411.37  84
   2  -2  13 18182.9 765.731  11
   2  -2  13 18571.8 839.445  78
   2  -2  13 19094.5 818.613  49
   2  -2  13 20299.3 907.988  70
   2  -2  13 21068.8 842.145  58
   2  -2  13 19205.0 799.169  15
   2  -2  13 17463.9 829.331  96
   2  -2  13 19651.4 837.594  95
   2  -2  13 19748.2 890.903  90
   2  -2  14 32997.9 1133.07  11
   2  -2  14 28358.7 1163.90  78
   2  -2  14 33270.1 1160.42  15
   2  -2  14 27957.1 1154.51  96
   2  -2  14 30677.7 1174.71  95
   2  -2  14 30073.8 1214.14  90
   2  -2  14 31964.1 1167.15  49
   2  -2  15 10803.2 547.829  78
   2  -2  15 11651.9 572.149  20
   2  -2  15 13206.7 591.856  15
   2  -2  15 11502.8 603.403  90
   2  -2  15 12032.9 587.497  49
   2  -2  15 10762.4 507.655  25
   2  -2  16 25920.3 932.138  20
   2  -2  16 23117.5 953.062  90
   2  -2  16 26031.4 934.550  49
   2  -2  16 22937.1 867.436  25
   2  -2  17 17680.9 678.035  20
   2  -2  17 18897.2 681.604  49
   2  -2  18 8564.73 383.964  20
   2  -2  18 9592.19 393.645  18
   2  -1 -19 2763.24 226.724  48
   2  -1 -19 2843.42 205.766  44
   2  -1 -18 17049.2 671.635  48
   2  -1 -18 15989.6 641.771  44
   2  -1 -17 3030.42 319.302  48
   2  -1 -17 2696.94 237.615  82
   2  -1 -17 2716.16 294.620  44
   2  -1 -17 2697.44 245.886   5
   2  -1 -16 5053.03 404.315  48
   2  -1 -16 5153.13 335.168  82
   2  -1 -16 5283.67 386.385  44
   2  -1 -16 5410.56 355.652   5
   2  -1 -15 10422.1 572.966  48
   2  -1 -15 10281.8 508.578  82
   2  -1 -15 9883.75 509.801  74
   2  -1 -15 10321.6 516.645   5
   2  -1 -15 9066.69 911.004  52
   2  -1 -15 9727.35 895.739  89
   2  -1 -14 6189.20 466.246  48
   2  -1 -14 7150.80 415.449  82
   2  -1 -14 7814.61 476.196  76
   2  -1 -14 6508.12 420.021  74
   2  -1 -14 6911.17 424.117   5
   2  -1 -14 6373.95 799.506  52
   2  -1 -14 6347.90 761.160  89
   2  -1 -13 87720.7 2833.83  48
   2  -1 -13 88005.6 2830.22  76
   2  -1 -13 88543.3 2805.72  74
   2  -1 -13 83477.5 2798.91   5
   2  -1 -13 84915.5 3444.56  52
   2  -1 -13 84672.2 3239.06  51
   2  -1 -13 86368.2 3385.28  89
   2  -1 -12 34423.0 1272.57  48
   2  -1 -12 36306.3 1273.77  76
   2  -1 -12 34278.0 1246.69  74
   2  -1 -12 35510.9 1617.82  53
   2  -1 -12 35610.3 1770.35  52
   2  -1 -12 36392.8 1662.35  51
   2  -1 -12 35865.5 1740.62  89
   2  -1 -11 52735.3 1795.61  48
   2  -1 -11 48671.2 2165.39  85
   2  -1 -11 55676.6 1800.90  76
   2  -1 -11 54393.8 1780.98  74
   2  -1 -11 54495.8 2174.54  53
   2  -1 -11 50094.5 2251.32  52
   2  -1 -11 52315.9 2187.12  51
   2  -1 -11 52997.2 2262.77  89
   2  -1 -10 24335.5 905.549  48
   2  -1 -10 23318.9 1228.84  85
   2  -1 -10 25805.4 917.149  76
   2  -1 -10 23307.2 853.720  97
   2  -1 -10 25812.2 1240.33  53
   2  -1 -10 25901.3 1308.13  52
   2  -1 -10 24503.1 1236.34  51
   2  -1 -10 25376.6 1316.56  89
   2  -1  -9 28999.2 1396.11  85
   2  -1  -9 31525.3 1396.40  53
   2  -1  -9 32457.1 1446.60  52
   2  -1  -9 29753.0 1381.60  51
   2  -1  -9 29696.2 1446.27  89
   2  -1  -8 74315.1 2760.98  85
   2  -1  -8 74808.5 2689.19  63
   2  -1  -8 76283.1 2759.32  52
   2  -1  -8 79926.4 2774.58  51
   2  -1  -8 75225.5 2800.93  89
   2  -1  -7 21.9683 298.745  85
   2  -1  -7 93.2780 134.213  75
   2  -1  -7 156.994 227.797  63
   2  -1  -7 369.149 279.797  52
   2  -1  -7-21.3499 290.337  51
   2  -1  -7 70.4754 353.903  89
   2  -1  -6 16380.3 862.640  85
   2  -1  -6 15776.3 778.963  77
   2  -1  -6 16465.9 603.057  75
   2  -1  -6 16193.8 760.044  63
   2  -1  -6 16695.1 822.904  52
   2  -1  -6 15927.9 850.084  51
   2  -1  -6 16672.6 903.253  89
   2  -1  -5 1831.18 369.792  85
   2  -1  -5 1413.66 274.299  77
   2  -1  -5 1905.19 174.953  75
   2  -1  -5 1473.51 152.715  73
   2  -1  -5 1533.13 218.649  63
   2  -1  -5 1870.84 298.890  52
   2  -1  -5 1543.76 352.837  51
   2  -1  -5 1404.51 388.757  89
   2  -1  -4 138440. 4381.18  85
   2  -1  -4 134020. 4308.99  77
   2  -1  -4 129495. 4236.54  52
   2  -1  -3 179735. 5590.41  85
   2  -1  -3 177310. 5528.02  77
   2  -1  -3 169202. 5396.63  52
   2  -1  -2 453622. 13263.3  85
   2  -1  -2 444259. 13215.5  77
   2  -1  -2 420402. 13017.7  52
   2  -1  -2 420837. 13134.5  51
   2  -1  -1 162896. 5099.24  77
   2  -1  -1 166818. 5021.75  53
   2  -1  -1 156702. 4834.57  52
   2  -1  -1 159516. 4988.52  51
   2  -1  -1 157167. 4974.14  87
   2  -1   0 15355.8 781.917  77
   2  -1   0 16026.6 692.879  53
   2  -1   0 15979.0 667.573  51
   2  -1   0 16703.4 709.102  87
   2  -1   1 141517. 4488.48  84
   2  -1   1 150668. 4614.67  53
   2  -1   1 149931. 4578.22  51
   2  -1   1 146178. 4460.52  90
   2  -1   1 155730. 4694.85  87
   2  -1   2 333959. 10068.0  84
   2  -1   2 341611. 10092.6  53
   2  -1   2 313509. 9986.57  64
   2  -1   2 325165. 10038.5  51
   2  -1   2 334383. 9973.17  90
   2  -1   2 349452. 10242.2  87
   2  -1   3 221030. 6803.28  84
   2  -1   3 212159. 6712.48  64
   2  -1   3 208143. 6709.42  53
   2  -1   3 223486. 6645.33  90
   2  -1   3 230045. 6970.98  87
   2  -1   4 49307.4 1767.43  84
   2  -1   4 48085.9 1666.81  64
   2  -1   4 46981.0 1487.01  95
   2  -1   4 49541.0 1545.24  90
   2  -1   4 51853.7 1909.56  87
   2  -1   5 91777.0 3151.74  84
   2  -1   5 89627.0 2909.63  62
   2  -1   5 89452.4 2819.29  95
   2  -1   5 90921.0 2867.09  90
   2  -1   6 8763.19 570.178  86
   2  -1   6 8859.05 689.847  84
   2  -1   6 8708.09 409.151  79
   2  -1   6 8940.96 393.903  95
   2  -1   6 8641.22 441.810  90
   2  -1   6 9689.29 803.342  87
   2  -1   7 8501.34 596.583  86
   2  -1   7 7932.59 708.026  84
   2  -1   7 8548.25 419.770  79
   2  -1   7 8507.48 399.148  95
   2  -1   7 7713.82 445.701  90
   2  -1   7 9080.84 857.444  87
   2  -1   8 15111.9 1007.30  84
   2  -1   8 15792.4 660.699  79
   2  -1   8 15329.4 682.856  70
   2  -1   8 15517.1 634.749  95
   2  -1   8 17385.9 1194.57  87
   2  -1   9 22046.4 1241.05   1
   2  -1   9 23520.0 1358.56  84
   2  -1   9 22214.0 808.901  11
   2  -1   9 23277.2 853.204  58
   2  -1   9 21993.4 826.104  15
   2  -1   9 23700.7 877.547  95
   2  -1   9 25117.5 1536.69  87
   2  -1  10 1626.08 547.477  84
   2  -1  10 1422.00 211.180  11
   2  -1  10 1662.81 469.829   1
   2  -1  10 1440.85 262.468  58
   2  -1  10 1288.19 227.442  15
   2  -1  10 1239.30 256.408  95
   2  -1  10 1282.16 234.983  49
   2  -1  10 1612.32 586.701  87
   2  -1  11 31761.5 1807.76  84
   2  -1  11 34675.9 1182.65  11
   2  -1  11 33276.6 1714.68   1
   2  -1  11 36004.8 1247.98  58
   2  -1  11 33644.1 1199.26  15
   2  -1  11 33341.7 1241.18  95
   2  -1  11 32159.2 1294.86  90
   2  -1  11 30978.4 1198.37  49
   2  -1  11 35550.9 2035.21  87
   2  -1  12 42459.3 2195.54  84
   2  -1  12 45737.3 1479.53  11
   2  -1  12 40103.0 2018.08   1
   2  -1  12 42023.1 1586.78  70
   2  -1  12 40496.3 1487.71  18
   2  -1  12 46328.6 1508.21  15
   2  -1  12 42624.6 1530.27  95
   2  -1  12 41838.4 1588.45  90
   2  -1  12 38751.4 1473.87  49
   2  -1  12 44292.2 2403.57  87
   2  -1  13 7559.78 931.282  84
   2  -1  13 8745.83 565.126  70
   2  -1  13 7779.89 485.051  18
   2  -1  13 9222.68 498.883  15
   2  -1  13 7745.26 506.049  96
   2  -1  13 8213.69 497.827  95
   2  -1  13 6742.42 790.540   1
   2  -1  13 8124.82 538.503  90
   2  -1  13 7955.64 478.783  49
   2  -1  13 7853.98 428.976  25
   2  -1  13 8246.30 996.556  87
   2  -1  14 2165.14 357.041  70
   2  -1  14 2762.31 322.223  18
   2  -1  14 2296.47 540.101   1
   2  -1  14 2102.60 294.943  96
   2  -1  14 2509.15 311.514  95
   2  -1  14 2840.46 349.607  90
   2  -1  14 2393.93 306.934  49
   2  -1  14 2568.25 272.073  25
   2  -1  14 2623.94 675.730  87
   2  -1  15 2509.11 276.640  78
   2  -1  15 3208.14 361.376  70
   2  -1  15 2958.33 324.759  18
   2  -1  15 2431.47 288.978  95
   2  -1  15 2997.99 331.802  90
   2  -1  15 2846.97 274.723  25
   2  -1  15 3345.79 308.377  49
   2  -1  16 7493.83 436.319  20
   2  -1  16 8173.54 429.388  18
   2  -1  16 7415.71 447.998  90
   2  -1  16 7926.64 383.090  25
   2  -1  16 8542.02 424.539  49
   2  -1  17 2865.05 259.032  20
   2  -1  17 3273.42 255.414  18
   2  -1  17 3281.79 236.252  49
   2  -1  18 1285.74 140.265  17
   2   0 -19 5254.75 292.505  48
   2   0 -19 4811.19 273.375  44
   2   0 -18 5041.93 337.472  48
   2   0 -18 4424.82 286.762  82
   2   0 -18 4797.22 312.652  44
   2   0 -17 3019.58 315.213  48
   2   0 -17 2641.14 262.649  82
   2   0 -17 2391.40 232.618   5
   2   0 -16 57114.8 1905.97  48
   2   0 -16 58450.5 1891.07  82
   2   0 -16 53605.0 1845.19   5
   2   0 -15 23833.8 954.603  48
   2   0 -15 25012.1 943.538  82
   2   0 -15 25268.8 956.084  74
   2   0 -15 22324.9 892.127  98
   2   0 -15 24080.3 1435.65  52
   2   0 -15 24241.2 1403.35  89
   2   0 -14 48808.4 1673.08  23
   2   0 -14 48434.3 1687.89  48
   2   0 -14 48388.6 1678.15  82
   2   0 -14 49786.4 1697.09  76
   2   0 -14 50379.1 1692.11  74
   2   0 -14 45711.2 2207.06  52
   2   0 -14 45950.4 2055.42  51
   2   0 -14 45771.1 2208.08  89
   2   0 -13 6449.73 431.207  48
   2   0 -13 6610.58 405.342  23
   2   0 -13 7269.17 444.349  76
   2   0 -13 6454.05 422.383  74
   2   0 -13 6140.27 669.601  63
   2   0 -13 6733.89 645.024  53
   2   0 -13 6916.57 766.073  52
   2   0 -13 7140.52 681.598  51
   2   0 -13 5675.13 723.174  89
   2   0 -12 14096.6 647.740  48
   2   0 -12 15406.6 638.681  23
   2   0 -12 16766.0 673.090  76
   2   0 -12 15311.4 664.992  74
   2   0 -12 14137.1 956.324  63
   2   0 -12 14617.1 1021.26  52
   2   0 -12 15422.9 971.774  51
   2   0 -12 14999.6 1044.32  89
   2   0 -11 5272.09 340.613  48
   2   0 -11 5281.55 349.448  76
   2   0 -11 5197.50 350.250  74
   2   0 -11 4632.98 536.534  64
   2   0 -11 5205.25 523.319  63
   2   0 -11 5111.43 589.651  52
   2   0 -11 5663.23 593.949  51
   2   0 -11 4730.80 604.135  89
   2   0 -10 5855.23 516.483  85
   2   0 -10 7731.64 396.045  76
   2   0 -10 6512.54 583.254  64
   2   0 -10 7112.62 579.121  63
   2   0 -10 7093.38 643.398  52
   2   0 -10 7644.67 626.191  51
   2   0 -10 6766.90 652.220  89
   2   0  -9 25734.0 1177.31  85
   2   0  -9 27628.1 964.413  76
   2   0  -9 25592.4 1229.41  64
   2   0  -9 27284.6 1200.29  63
   2   0  -9 27979.7 1273.22  52
   2   0  -9 25791.0 1317.14  89
   2   0  -8 14485.1 767.804  85
   2   0  -8 13949.1 784.911  64
   2   0  -8 15373.7 759.497  63
   2   0  -8 15181.6 832.636  52
   2   0  -8 14042.1 877.990  89
   2   0  -7 53751.6 1993.32  85
   2   0  -7 54533.4 2025.78  64
   2   0  -7 56462.0 1966.62  63
   2   0  -7 58210.0 2062.02  52
   2   0  -7 55205.4 2104.34  89
   2   0  -6 34587.9 1374.91  85
   2   0  -6 36944.9 1381.76  64
   2   0  -6 35399.8 1312.45  63
   2   0  -6 36275.0 1404.05  52
   2   0  -6 35455.8 1463.95  89
   2   0  -5 173728. 5315.15  85
   2   0  -5 159552. 5161.36  77
   2   0  -5 166678. 5273.20  64
   2   0  -5 170074. 5222.90  63
   2   0  -5 166923. 5313.20  52
   2   0  -5 169920. 5396.55  89
   2   0  -4 278100. 8253.63  85
   2   0  -4 259555. 8135.35  77
   2   0  -4 265256. 8165.27  64
   2   0  -4 257940. 8108.11  63
   2   0  -4 270988. 8203.40  52
   2   0  -3 225834. 7008.84  85
   2   0  -3 219527. 6930.38  77
   2   0  -3 224930. 6892.52  64
   2   0  -3 223826. 6839.67  63
   2   0  -3 223785. 6919.92  52
   2   0  -2 39828.8 1470.64  77
   2   0  -2 42823.2 1387.56  64
   2   0  -2 40780.7 1346.34  63
   2   0  -2 40634.0 1405.45  52
   2   0  -1 2422.43 206.502  64
   2   0  -1 2303.16 208.171  52
   2   0   0 178369. 5464.86  87
   2   0   1 80103.5 2522.92  84
   2   0   1 78192.8 2472.41  64
   2   0   1 77466.4 2480.18  53
   2   0   1 75658.8 2437.32  51
   2   0   1 76360.0 2518.37  87
   2   0   1 78526.6 2454.24  86
   2   0   2 72726.4 2376.15  84
   2   0   2 70556.2 2306.99  64
   2   0   2 69021.0 2245.65  53
   2   0   2 76517.0 2431.68  87
   2   0   2 71348.6 2266.83  86
   2   0   3 47287.4 1590.08  86
   2   0   3 47652.1 1715.34  84
   2   0   3 46737.4 1485.74  95
   2   0   3 50248.8 1790.00  87
   2   0   4 187270. 6135.95  86
   2   0   4 200363. 6308.54  84
   2   0   4 197194. 6001.28  95
   2   0   5 14750.5 708.002  86
   2   0   5 14463.0 829.449  84
   2   0   5 14418.9 554.130  95
   2   0   6 30686.1 1283.01  86
   2   0   6 31254.3 1441.25  84
   2   0   6 31981.2 1093.40  79
   2   0   6 31706.3 1081.77  95
   2   0   7 9890.36 659.052  86
   2   0   7 9139.58 760.296  84
   2   0   7 10740.4 491.253  79
   2   0   7 10728.0 475.868  95
   2   0   8 32918.1 1426.63  86
   2   0   8 30728.2 1582.95  84
   2   0   8 31528.4 1149.09  79
   2   0   8 32244.5 1133.41  95
   2   0   8 30176.7 1533.67   1
   2   0   8 35795.3 1776.14  87
   2   0   9 151523. 5169.59  86
   2   0   9 152863. 5403.72  84
   2   0   9 160864. 4805.39  79
   2   0   9 153928. 5343.70   1
   2   0   9 162488. 4793.75  95
   2   0   9 160499. 5647.18  87
   2   0   9 140076. 4724.57  49
   2   0  10 45771.9 2263.91  84
   2   0  10 52813.7 1728.29  79
   2   0  10 47382.0 2211.01   1
   2   0  10 51675.4 1701.27  95
   2   0  10 47494.1 1744.25  90
   2   0  10 45100.0 1631.76  49
   2   0  11 43524.7 2266.66  84
   2   0  11 48270.4 2253.93   1
   2   0  11 52298.7 1729.18  79
   2   0  11 44335.9 1617.03  18
   2   0  11 49470.8 1683.91  95
   2   0  11 48561.3 1743.60  90
   2   0  11 47023.5 1622.79  49
   2   0  11 50317.2 2488.14  87
   2   0  12 17012.4 1269.26  84
   2   0  12 16289.0 796.678  70
   2   0  12 15071.9 683.904  18
   2   0  12 17727.0 752.973  95
   2   0  12 15328.5 1160.63   1
   2   0  12 16490.2 798.617  90
   2   0  12 16433.6 690.044  25
   2   0  12 15248.9 679.610  49
   2   0  12 17246.5 1350.68  87
   2   0  13 32380.7 1890.16  84
   2   0  13 35892.9 1341.13  70
   2   0  13 32944.4 1229.82  18
   2   0  13 32826.8 1787.74   1
   2   0  13 33017.0 1267.38  95
   2   0  13 33414.0 1326.51  90
   2   0  13 34468.6 1220.00  25
   2   0  13 34804.4 1225.08  49
   2   0  13 37726.9 2064.32  87
   2   0  14 11072.1 621.258  70
   2   0  14 10650.8 555.802  20
   2   0  14 10530.4 530.405  18
   2   0  14 10469.9 555.325  95
   2   0  14 10840.4 600.835  90
   2   0  14 11293.7 520.982  25
   2   0  14 12264.0 536.362  49
   2   0  15 6845.09 450.297  70
   2   0  15 6639.29 416.924  20
   2   0  15 6878.07 383.274  18
   2   0  15 5373.27 384.324  96
   2   0  15 6217.50 396.882  95
   2   0  15 6870.01 436.602  90
   2   0  15 7123.78 372.339  49
   2   0  16 138.343 202.667  70
   2   0  16 213.506 203.233  20
   2   0  16 6.27627 165.942  18
   2   0  17 1509.84 197.532  20
   2   0  18 12617.8 430.300  20
   2   0  18 11398.1 429.182  17
   2   1 -19 1371.60 179.580  48
   2   1 -19 1542.41 172.376  44
   2   1 -18 1559.00 234.724  48
   2   1 -18 1290.23 196.361  82
   2   1 -17 1577.30 266.604  48
   2   1 -17 1503.12 235.109  82
   2   1 -17 1713.58 218.378  81
   2   1 -17 1509.48 192.886  98
   2   1 -16 748.829 271.586  48
   2   1 -16 433.746 234.383  82
   2   1 -16 727.603 215.989  81
   2   1 -16 547.985 192.239  98
   2   1 -15 27717.4 1033.53  48
   2   1 -15 27570.9 1001.98  23
   2   1 -15 28177.3 1042.50  82
   2   1 -15 25732.5 1012.32  98
   2   1 -15 25353.0 1478.03  52
   2   1 -15 26403.2 1461.19  89
   2   1 -14 20896.7 875.263  48
   2   1 -14 23041.9 857.909  23
   2   1 -14 22436.5 897.198  82
   2   1 -14 21423.8 1246.22  63
   2   1 -14 21918.6 1321.84  52
   2   1 -14 23408.9 1248.83  51
   2   1 -14 20792.7 1288.57  89
   2   1 -13 19071.6 756.627  23
   2   1 -13 19213.7 806.639  82
   2   1 -13 20309.3 801.070  76
   2   1 -13 18023.4 1107.61  63
   2   1 -13 19993.0 1211.05  52
   2   1 -13 18781.0 1120.53  51
   2   1 -13 18203.6 1174.30  89
   2   1 -12 68417.9 2178.81  23
   2   1 -12 68789.2 2214.10  76
   2   1 -12 60868.3 2636.38  64
   2   1 -12 63274.5 2595.86  63
   2   1 -12 70506.0 2744.55  52
   2   1 -12 63694.0 2666.60  89
   2   1 -11 135241. 4140.30  76
   2   1 -11 122699. 4586.36  64
   2   1 -11 129279. 4533.21  63
   2   1 -11 136174. 4660.16  52
   2   1 -11 129123. 4608.71  89
   2   1 -10 26125.7 930.217  76
   2   1 -10 25513.2 944.410  74
   2   1 -10 23893.3 1263.33  64
   2   1 -10 26357.4 1231.23  63
   2   1 -10 28478.2 1340.29  52
   2   1 -10 25017.1 1273.16  89
   2   1  -9 27122.0 955.218  76
   2   1  -9 28200.5 1307.58  64
   2   1  -9 26544.6 1238.49  63
   2   1  -9 30092.0 1348.91  52
   2   1  -9 25525.1 1274.73  89
   2   1  -8 74392.7 2318.58  76
   2   1  -8 70806.5 2667.61  64
   2   1  -8 71814.5 2618.81  63
   2   1  -8 75881.0 2717.78  52
   2   1  -8 68879.1 2653.23  89
   2   1  -7 15305.4 833.991  64
   2   1  -7 16420.0 820.095  63
   2   1  -7 16850.5 886.553  52
   2   1  -7 16084.6 857.296  89
   2   1  -6 35106.8 1404.70  64
   2   1  -6 34803.9 1354.45  63
   2   1  -6 36334.6 1437.26  52
   2   1  -6 31434.4 1363.39  89
   2   1  -5 19949.2 799.232  85
   2   1  -5 22760.9 986.689  64
   2   1  -5 21294.3 940.641  63
   2   1  -5 23214.4 1015.98  52
   2   1  -5 22042.0 962.293  89
   2   1  -4 80573.2 2694.97  85
   2   1  -4 84694.6 2857.08  64
   2   1  -4 85559.6 2823.32  63
   2   1  -4 88493.8 2886.25  52
   2   1  -4 82774.8 2818.64  89
   2   1  -3 61776.2 2039.02  85
   2   1  -3 65655.3 2169.41  64
   2   1  -3 62853.5 2126.45  63
   2   1  -2 98251.0 3026.44  64
   2   1  -2 85438.0 2793.60  91
   2   1  -1 16799.2 820.993  64
   2   1   0 72775.6 2339.54  83
   2   1   1 27955.6 925.014  83
   2   1   1 28016.0 1020.76  87
   2   1   2 300373. 9151.79  84
   2   1   2 278944. 8962.94  94
   2   1   2 302638. 9052.04  87
   2   1   2 292961. 9065.37  86
   2   1   3 62621.4 2334.25  84
   2   1   3 67538.0 2325.47  87
   2   1   3 63388.2 2239.91  86
   2   1   4 86352.0 2945.51  86
   2   1   4 84791.3 3068.63  84
   2   1   4 89409.1 3091.43  87
   2   1   5 12127.6 715.167  86
   2   1   5 13006.5 838.323  84
   2   1   5 12686.7 519.251  95
   2   1   5 12899.6 841.477  87
   2   1   5 12243.0 866.890   1
   2   1   6 27361.5 1284.85  86
   2   1   6 29511.7 1455.36  84
   2   1   6 29749.2 1014.24  69
   2   1   6 28707.3 1452.69   1
   2   1   6 29807.0 1042.98  95
   2   1   6 28648.9 1463.73  87
   2   1   7 5023.47 521.474  86
   2   1   7 5627.11 659.553  84
   2   1   7 4918.06 308.312  69
   2   1   7 5657.10 349.963  95
   2   1   7 5184.13 626.985  87
   2   1   8 58630.1 2356.92  86
   2   1   8 58997.0 2569.90  84
   2   1   8 61483.2 2042.47  79
   2   1   8 61127.5 2000.85  69
   2   1   8 61374.5 2030.77  95
   2   1   8 64618.3 2673.41  87
   2   1   9 6321.81 639.586  86
   2   1   9 7072.77 800.630  84
   2   1   9 6762.33 445.482  79
   2   1   9 6577.87 426.750  95
   2   1   9 7368.65 809.539  87
   2   1  10 35249.6 1936.02  84
   2   1  10 39019.2 1411.66  79
   2   1  10 38347.4 1379.43  95
   2   1  10 38439.4 1328.97  92
   2   1  10 37604.1 1432.30  90
   2   1  10 38586.2 1980.79   1
   2   1  10 34894.6 1976.14  87
   2   1  11 7448.50 903.017  84
   2   1  11 8153.52 532.479  79
   2   1  11 8776.72 444.766  18
   2   1  11 8294.43 896.091   1
   2   1  11 8070.07 501.059  95
   2   1  11 8844.56 458.104  92
   2   1  11 7990.83 542.072  90
   2   1  11 7477.43 896.602  87
   2   1  12 10080.1 1026.90  84
   2   1  12 11469.2 621.859  79
   2   1  12 10549.4 553.034  20
   2   1  12 10248.2 506.649  18
   2   1  12 12707.5 1072.04   1
   2   1  12 11015.4 576.589  95
   2   1  12 10750.8 616.505  90
   2   1  12 11205.7 1062.41  87
   2   1  13 4514.19 402.922  70
   2   1  13 4253.24 354.399  20
   2   1  13 4259.25 364.086  95
   2   1  13 3718.99 380.782  90
   2   1  14 6019.70 431.381  70
   2   1  14 6704.63 406.235  20
   2   1  14 5737.60 387.478  95
   2   1  14 6235.07 427.881  90
   2   1  15 6842.93 379.490  20
   2   1  15 6840.78 419.007  70
   2   1  15 6525.04 402.822  90
   2   1  16 4518.15 262.987  20
   2   1  16 3936.45 290.024  70
   2   1  17 3382.63 195.792   9
   2   1  17 4641.03 231.943  17
   2   2 -19 505.892 130.563  48
   2   2 -19 708.285 132.393  44
   2   2 -18 2859.28 238.781  48
   2   2 -18 2769.54 209.101  81
   2   2 -17 16135.3 639.645  48
   2   2 -17 16047.2 632.188  81
   2   2 -17 15276.8 623.353  98
   2   2 -16 30326.2 1067.83  23
   2   2 -16 32477.4 1114.62  48
   2   2 -16 30753.4 1115.06  81
   2   2 -16 30759.6 1119.68  98
   2   2 -15 4318.02 343.918  48
   2   2 -15 4172.76 296.113  23
   2   2 -15 4348.94 336.606  98
   2   2 -14 25083.4 920.026  23
   2   2 -14 25883.1 982.487  82
   2   2 -14 22552.4 1295.08  63
   2   2 -14 25979.1 990.167  98
   2   2 -14 25291.1 1413.44  52
   2   2 -14 22959.3 1512.02  91
   2   2 -14 25568.0 1324.31  51
   2   2 -13 3317.46 266.411  23
   2   2 -13 3778.47 343.224  82
   2   2 -13 3171.45 325.336  74
   2   2 -13 3026.94 476.413  63
   2   2 -13 3284.79 548.383  52
   2   2 -13 2673.76 659.535  91
   2   2 -13 2080.66 481.260  89
   2   2 -12 29420.3 1040.41  23
   2   2 -12 30810.1 1111.32  82
   2   2 -12 30295.8 1099.13  74
   2   2 -12 26886.9 1417.17  63
   2   2 -12 27907.9 1513.85  52
   2   2 -12 28001.8 1449.98  89
   2   2 -11 66877.0 2168.18  23
   2   2 -11 66576.4 2221.30  74
   2   2 -11 68284.5 2710.63  64
   2   2 -11 70221.3 2656.84  63
   2   2 -11 68849.0 2730.19  52
   2   2 -11 68922.2 2630.29  89
   2   2 -10 38884.0 1320.26  76
   2   2 -10 39234.1 1346.69  74
   2   2 -10 37864.0 1767.81  64
   2   2 -10 40219.4 1753.46  63
   2   2 -10 39906.8 1816.95  52
   2   2 -10 37444.2 1666.83  89
   2   2  -9 27950.9 1007.11  74
   2   2  -9 27939.1 1382.37  64
   2   2  -9 28109.1 1351.58  63
   2   2  -9 28123.7 1413.17  52
   2   2  -9 29150.6 1313.35  89
   2   2  -8 12788.8 539.080  74
   2   2  -8 12374.0 836.403  64
   2   2  -8 13580.9 830.196  63
   2   2  -8 13082.8 866.640  52
   2   2  -8 13120.3 768.920  89
   2   2  -7 59992.1 2365.66  64
   2   2  -7 63131.8 2346.79  63
   2   2  -7 62086.6 2396.36  52
   2   2  -7 60352.0 2209.33  89
   2   2  -6 16297.0 926.309  64
   2   2  -6 14224.4 858.196  63
   2   2  -6 16295.2 945.010  52
   2   2  -6 17861.2 984.718  91
   2   2  -6 15760.3 785.139  89
   2   2  -5 4615.96 484.549  64
   2   2  -5 4596.23 483.552  63
   2   2  -5 5213.41 487.510  91
   2   2  -5 4068.17 377.601  89
   2   2  -4 78841.6 2767.77  64
   2   2  -4 81238.4 2753.30  63
   2   2  -4 71876.5 2581.62  91
   2   2  -4 72459.4 2485.91  89
   2   2  -3 71849.4 2524.12  64
   2   2  -3 63574.7 2219.24  91
   2   2  -2 8268.64 633.060  64
   2   2  -1 43791.7 1690.09  83
   2   2  -1 47096.2 1619.74   1
   2   2   0 115274. 3946.30  83
   2   2   0 132802. 4056.37   1
   2   2   1 8823.45 489.699  83
   2   2   1 10553.7 671.954   1
   2   2   2 11508.5 766.037   1
   2   2   2 11468.8 657.072  94
   2   2   2 11841.8 745.543  86
   2   2   3 14417.2 916.042  84
   2   2   3 15134.0 925.190   1
   2   2   3 14588.0 731.778  94
   2   2   3 15266.7 862.019  86
   2   2   4 5241.75 583.146  84
   2   2   4 4814.57 603.394   1
   2   2   4 5871.25 533.470  86
   2   2   5 9322.13 689.449  86
   2   2   5 9859.05 798.536  84
   2   2   5 10820.8 866.346   1
   2   2   6 800.121 359.035  86
   2   2   6 1051.23 439.776  84
   2   2   6 630.142 404.510   1
   2   2   6 678.760 215.787  95
   2   2   6 612.093 338.108  87
   2   2   7 30602.0 1448.66  86
   2   2   7 28850.0 1585.81  84
   2   2   7 29572.6 1050.96  69
   2   2   7 28363.1 1075.91  95
   2   2   7 31209.5 1664.82   1
   2   2   8 18550.5 1102.34  86
   2   2   8 18527.6 1272.35  84
   2   2   8 19870.3 778.296  69
   2   2   8 19600.6 813.455  95
   2   2   8 20846.7 1373.48   1
   2   2   8 17994.0 1191.90  87
   2   2   9 3740.25 555.109  86
   2   2   9 2655.01 640.553  84
   2   2   9 3749.66 383.129  79
   2   2   9 3880.16 325.540  69
   2   2   9 4239.63 369.986  95
   2   2   9 3296.84 658.370   1
   2   2   9 3088.61 587.665  87
   2   2  10 59454.8 2777.65  84
   2   2  10 61896.8 2165.38  79
   2   2  10 65992.6 2124.09  20
   2   2  10 68772.2 2929.72   1
   2   2  10 62795.1 2146.02  95
   2   2  10 59684.1 2731.99  87
   2   2  11 2402.11 626.684  84
   2   2  11 3052.61 369.320  79
   2   2  11 3902.04 332.638  20
   2   2  11 2861.62 663.694   1
   2   2  11 3278.58 337.490  95
   2   2  11 3138.39 290.637  92
   2   2  11 3565.19 375.073  90
   2   2  11 2423.73 565.041  87
   2   2  12 10828.5 572.719  79
   2   2  12 10972.1 525.316  20
   2   2  12 10103.3 537.721  95
   2   2  12 9762.54 569.989  90
   2   2  13 3305.77 345.295  79
   2   2  13 3646.09 342.390  70
   2   2  13 3941.19 295.324  20
   2   2  13 3006.87 301.922  95
   2   2  13 3108.39 318.196  90
   2   2  14 23487.4 802.149  20
   2   2  14 21732.9 872.138  70
   2   2  14 20503.5 856.374  90
   2   2  15 7513.44 378.260  70
   2   2  15 8144.12 378.592  17
   2   2  16 6535.71 299.993   2
   2   2  16 6965.17 304.083  17
   2   3 -18 2572.47 183.490  48
   2   3 -17 14882.0 574.879  48
   2   3 -17 15295.2 588.765  81
   2   3 -16 2710.64 248.194  48
   2   3 -16 2148.71 238.355  82
   2   3 -16 2413.59 246.098  81
   2   3 -16 2218.02 230.820  98
   2   3 -15 638.713 165.643  23
   2   3 -15 535.855 214.490  82
   2   3 -15 1022.52 229.344  81
   2   3 -15 955.891 218.130  98
   2   3 -14 679.072 175.782  23
   2   3 -14 606.061 231.141  82
   2   3 -14 765.728 230.978  98
   2   3 -13 1513.59 206.704  23
   2   3 -13 2207.19 285.312  82
   2   3 -13 1855.82 400.343  63
   2   3 -13 1847.62 478.946  52
   2   3 -13 1391.02 594.696  91
   2   3 -12 1741.31 209.288  23
   2   3 -12 1644.63 273.489  82
   2   3 -12 1123.00 377.511  63
   2   3 -12 1811.24 469.024  52
   2   3 -12 843.878 610.814  91
   2   3 -11 10950.1 500.209  23
   2   3 -11 11475.7 566.866  82
   2   3 -11 12888.3 566.605  74
   2   3 -11 11516.4 867.382  63
   2   3 -11 11380.0 926.736  52
   2   3 -10 50456.9 1674.59  82
   2   3 -10 48740.5 1659.23  74
   2   3 -10 50702.0 2204.40  52
   2   3 -10 53003.7 2482.71  91
   2   3  -9 35626.4 1232.49  82
   2   3  -9 35720.4 1221.70  74
   2   3  -9 31261.9 1630.48  64
   2   3  -9 32868.0 1621.02  63
   2   3  -9 32089.1 1662.96  52
   2   3  -9 37696.0 1912.82  91
   2   3  -8 41898.8 1416.25  82
   2   3  -8 42373.9 1405.54  74
   2   3  -8 38767.7 1863.67  64
   2   3  -8 38636.7 1836.90  63
   2   3  -8 41371.9 1908.90  52
   2   3  -8 42864.4 2020.38  91
   2   3  -7 58425.3 1845.09  82
   2   3  -7 56335.2 1828.87  74
   2   3  -7 53862.4 2326.34  64
   2   3  -7 53000.7 2293.14  63
   2   3  -7 54311.6 2336.55  52
   2   3  -7 54347.3 2361.32  91
   2   3  -6 41187.5 1870.11  64
   2   3  -6 42107.5 1856.66  63
   2   3  -6 41431.4 1877.37  52
   2   3  -6 42270.9 1811.80  91
   2   3  -5 12319.5 874.111  64
   2   3  -5 12302.3 866.950  63
   2   3  -4 25756.0 1357.34  64
   2   3  -4 26518.4 1359.05  63
   2   3  -3 6848.34 649.114  64
   2   3  -2 13534.6 823.047  83
   2   3  -2 12588.7 903.347  64
   2   3  -1 3817.91 432.126  83
   2   3  -1 3823.97 551.394  64
   2   3   0 44832.3 1730.62  83
   2   3   1 25422.6 1238.37  94
   2   3   2 144817. 4653.41   1
   2   3   2 129837. 4533.17  94
   2   3   2 130688. 4653.76  86
   2   3   3 61338.4 2587.05  84
   2   3   3 60196.2 2358.32  94
   2   3   3 63761.3 2520.75  86
   2   3   4 2580.87 482.158  86
   2   3   4 2952.93 535.303  84
   2   3   4 3255.57 567.983   1
   2   3   5 7514.11 671.877  86
   2   3   5 6299.26 711.760  84
   2   3   5 6690.10 769.438   1
   2   3   6 16577.6 1031.70  86
   2   3   6 15901.0 1122.14  84
   2   3   6 17973.9 1242.52   1
   2   3   7 56925.2 2425.20  86
   2   3   7 55754.0 2585.52  84
   2   3   7 59824.1 1983.96  69
   2   3   7 64422.3 2772.26   1
   2   3   7 59643.1 2014.09  95
   2   3   8 38201.2 1835.19  86
   2   3   8 35631.9 1984.25  84
   2   3   8 41990.4 1443.00  69
   2   3   8 47221.2 2241.39   1
   2   3   8 41662.9 1476.95  95
   2   3   9 703.470 461.645  84
   2   3   9 1447.06 564.541   1
   2   3   9 1143.92 234.869  69
   2   3   9 830.906 256.314  95
   2   3  10 7260.63 451.713  79
   2   3  10 6812.02 396.941  69
   2   3  10 6741.64 426.236  95
   2   3  11 14214.1 649.505  79
   2   3  11 13900.6 619.643  95
   2   3  11 13651.0 570.259  92
   2   3  11 13616.4 648.512  90
   2   3  12 15601.0 663.077  79
   2   3  12 17145.1 671.499  17
   2   3  12 14702.5 629.701  95
   2   3  12 13237.1 648.473  90
   2   3  13 10554.6 489.069  79
   2   3  13 9952.54 488.680  70
   2   3  13 11225.3 491.087  17
   2   3  14 4040.31 257.793   2
   2   3  14 4025.78 247.255  17
   2   4 -17 2543.99 167.581  48
   2   4 -16 5046.49 269.610  48
   2   4 -16 4916.64 280.109  81
   2   4 -16 5173.46 268.853  67
   2   4 -15 5881.14 337.645  81
   2   4 -14 168.824 196.299  81
   2   4 -14 276.376 187.222  98
   2   4 -13 28.0914 133.216  23
   2   4 -13 318.061 221.625  81
   2   4 -13 96.0609 209.239  98
   2   4 -12 12272.1 520.767  23
   2   4 -12 13764.2 585.976  82
   2   4 -12 13833.6 629.029  81
   2   4 -12 13273.3 635.261  98
   2   4 -11 15018.6 632.822  23
   2   4 -11 17076.9 692.263  82
   2   4 -11 18257.1 747.270  81
   2   4 -11 15149.7 1026.42  63
   2   4 -11 18196.8 760.595  98
   2   4 -11 16929.8 1118.80  52
   2   4 -10 60350.2 1978.12  81
   2   4 -10 50373.0 2334.12  63
   2   4 -10 60005.1 1996.72  98
   2   4 -10 51831.9 2404.58  52
   2   4  -9 35670.2 1242.96  81
   2   4  -9 30599.3 1600.40  63
   2   4  -9 33136.9 1246.90  98
   2   4  -9 28938.7 1615.97  52
   2   4  -8 36004.5 1313.20  81
   2   4  -8 33612.3 1722.19  63
   2   4  -8 38191.2 1343.16  98
   2   4  -8 31866.6 1737.27  52
   2   4  -7 81081.5 2656.79  81
   2   4  -7 76218.9 3147.98  63
   2   4  -7 84423.7 2688.09  98
   2   4  -7 78341.4 3203.67  52
   2   4  -6 13058.9 581.978  81
   2   4  -6 13200.3 970.943  63
   2   4  -6 13523.5 601.039  98
   2   4  -6 13443.0 1005.29  52
   2   4  -5 2570.30 512.607  64
   2   4  -5 2341.02 491.268  63
   2   4  -5 2768.10 255.093  98
   2   4  -4 18086.1 1159.32  83
   2   4  -4 18829.5 1204.06  64
   2   4  -4 18670.4 1197.58  63
   2   4  -3 6048.80 654.112  83
   2   4  -3 7004.14 731.868  64
   2   4  -3 7867.67 793.760  63
   2   4  -2 13749.3 891.103  83
   2   4  -2 13376.3 1023.80  64
   2   4  -1 18683.0 1238.94  64
   2   4   0 5522.24 717.560  64
   2   4   0 4104.05 571.402  94
   2   4   1 45111.6 1939.30  94
   2   4   1 43573.3 2021.82  86
   2   4   2 22240.2 1347.12  84
   2   4   2 23644.2 1211.11  94
   2   4   2 22067.7 1297.09  86
   2   4   3 1562.09 484.862  86
   2   4   3 1304.43 470.886  84
   2   4   3 1163.90 370.142  94
   2   4   4 45006.0 2094.18  84
   2   4   4 44752.9 1497.48  80
   2   4   4 47424.2 2040.95  86
   2   4   5 10466.4 822.251  86
   2   4   5 8461.41 825.196  84
   2   4   6 3582.36 549.884  86
   2   4   6 3872.23 625.658  84
   2   4   6 4373.04 351.062  95
   2   4   7 16155.2 1065.15  86
   2   4   7 18083.8 731.653  69
   2   4   7 17708.8 753.236  95
   2   4   8 4793.53 331.551  69
   2   4   8 5250.93 363.972  95
   2   4   9 1288.94 253.342  79
   2   4   9 1523.36 217.005  69
   2   4   9 1370.09 236.254  95
   2   4  10 1811.40 255.134  79
   2   4  10 2198.82 236.814  95
   2   4  11 3412.65 280.008  79
   2   4  11 4680.25 305.811   2
   2   4  12 9108.95 399.227   2
   2   5 -15 6485.80 273.827  48
   2   5 -14 5443.43 299.466  67
   2   5 -13 752.410 185.761  81
   2   5 -13 748.806 180.926  98
   2   5 -12 1884.86 234.397  81
   2   5 -12 2176.69 242.712  98
   2   5 -11 5914.52 295.911  23
   2   5 -11 6749.44 383.942  81
   2   5 -11 6464.25 388.862  98
   2   5 -10 2995.26 291.881  81
   2   5 -10 2757.99 296.561  98
   2   5  -9 5277.69 378.084  98
   2   5  -8 24879.8 1612.24  83
   2   5  -8 21757.5 1276.39  63
   2   5  -8 24553.8 1347.47  52
   2   5  -7 43635.2 2140.12  83
   2   5  -7 37685.0 1842.09  63
   2   5  -7 38285.4 1868.94  52
   2   5  -6 5858.77 787.516  83
   2   5  -6 5664.85 657.358  63
   2   5  -6 4820.28 652.476  52
   2   5  -5 3095.63 290.913  67
   2   5  -5 2414.54 521.492  63
   2   5  -4 8534.29 821.175  63
   2   5  -3 2586.18 553.167  63
   2   5  -2 4638.54 715.193  63
   2   5  -2 5318.78 728.258  94
   2   5  -1 54950.7 2399.34  94
   2   5   0 33614.1 1661.07  94
   2   5   0 34213.7 1756.27  86
   2   5   1 4284.64 616.614  86
   2   5   1 3667.42 638.440  84
   2   5   1 3227.04 520.218  94
   2   5   2 4738.25 655.870  84
   2   5   2 5643.01 655.714  86
   2   5   3 16109.2 630.521  80
   2   5   3 15845.2 1036.09  86
   2   5   4 5084.24 606.714  86
   2   5   5 34757.5 1238.76  95
   2   5   6 8733.31 437.380  69
   2   5   6 9106.04 459.659  95
   2   5   7 240.871 166.696  69
   2   5   7 313.091 188.612  95
   2   5   8 5205.75 286.162  69
   2   5   9 1711.72 204.858  79
   2   5   9 1388.85 175.070  16
   2   6 -11 14305.8 572.734  67
   2   6 -10 16653.6 666.368  67
   2   6  -9 4343.32 306.728  67
   2   6  -8 6171.79 356.091  67
   2   6  -7 2221.36 233.797  67
   2   6  -6 10175.3 488.406  66
   2   6  -5 8476.11 884.909  94
   2   6  -4 21756.7 1340.60  94
   2   6  -3 9935.17 876.329  94
   2   6  -2 6468.24 717.885  94
   2   6  -1 13367.3 557.938  68
   2   6   0 4078.20 255.866  68
   2   6   1 6439.61 335.136  80
   2   6   4 16678.3 640.763  69
   2   6   5 8019.56 367.117  69
   3  -9  -2 6561.05 256.673  12
   3  -9  -2 6896.45 276.436  31
   3  -9  -1 3804.90 183.819  12
   3  -9   0 1564.93 127.352  12
   3  -9   1 18806.2 633.296  12
   3  -9   2 5259.67 233.654  58
   3  -9   2 5249.93 236.896  31
   3  -9   3 3353.16 178.447  58
   3  -9   3 3669.67 181.137  31
   3  -9   4 1901.46 123.730  31
   3  -9   4 1616.60 125.040  58
   3  -8  -7 3640.46 193.315  14
   3  -8  -6 1021.72 150.896  14
   3  -8  -5 997.479 171.910  14
   3  -8  -4 5260.39 277.793  19
   3  -8  -4 5263.13 302.169  14
   3  -8  -3 11888.6 490.806  65
   3  -8  -3 12434.7 493.983  19
   3  -8  -3 12065.0 510.788  14
   3  -8  -2 608.819 175.854  65
   3  -8  -2 570.841 165.633  19
   3  -8  -2 558.453 177.851  14
   3  -8  -1 3777.46 268.305  14
   3  -8  -1 3426.01 278.941  65
   3  -8  -1 3392.66 248.938  19
   3  -8   0 6350.37 331.317  19
   3  -8   1 5493.15 307.988  19
   3  -8   2 196.772 151.047  19
   3  -8   3 3109.33 256.330  12
   3  -8   3 3323.33 279.072  31
   3  -8   3 2725.50 252.855  96
   3  -8   4 16655.2 643.752  12
   3  -8   4 15320.8 671.528  96
   3  -8   4 16498.7 601.289  28
   3  -8   5 14586.3 580.471  12
   3  -8   5 14493.3 628.609  96
   3  -8   6 3085.66 214.002  12
   3  -8   6 3251.92 228.281  31
   3  -8   6 3029.16 258.882  58
   3  -8   6 3123.92 220.611  15
   3  -8   7 2197.56 183.099  31
   3  -8   7 2685.86 228.129  58
   3  -8   7 2290.98 190.084  15
   3  -8   8 430.071 165.434  58
   3  -8   8 650.401 131.477  15
   3  -8   9 7121.30 296.651  58
   3  -8   9 6441.58 261.897  15
   3  -8  10 4117.21 188.551  11
   3  -8  10 3830.25 204.528  58
   3  -7 -11 4403.17 203.615  14
   3  -7 -11 4673.25 236.442  13
   3  -7 -10 1690.63 171.221  14
   3  -7  -9 7840.03 360.459  47
   3  -7  -9 7408.45 370.173  97
   3  -7  -9 8284.48 382.700  14
   3  -7  -8 988.513 199.732  47
   3  -7  -8 1122.14 205.982  97
   3  -7  -8 953.824 216.173  14
   3  -7  -7 19470.6 756.259  47
   3  -7  -7 18150.2 745.257  97
   3  -7  -7 19965.4 784.988  14
   3  -7  -7 18977.1 788.785  13
   3  -7  -6 20795.1 818.292  47
   3  -7  -6 19055.9 844.207  33
   3  -7  -6 19685.8 794.676  97
   3  -7  -6 20867.2 826.795  14
   3  -7  -6 19430.2 812.668  13
   3  -7  -5 4913.91 366.301  47
   3  -7  -5 4619.78 298.177  45
   3  -7  -5 4184.75 286.623  65
   3  -7  -5 4997.33 396.366  33
   3  -7  -5 4481.56 359.938  14
   3  -7  -5 4493.54 374.224  13
   3  -7  -4 3280.78 333.019  47
   3  -7  -4 2966.27 273.585  45
   3  -7  -4 3315.28 284.683  65
   3  -7  -4 3229.77 344.078  33
   3  -7  -4 3253.36 338.649  14
   3  -7  -4 3241.32 332.316  13
   3  -7  -3 15489.9 706.934  47
   3  -7  -3 15595.3 671.719  45
   3  -7  -3 15844.5 735.825  33
   3  -7  -3 16723.5 725.339  14
   3  -7  -3 16603.3 710.904  13
   3  -7  -2 1876.95 284.209  47
   3  -7  -2 1936.30 250.335  45
   3  -7  -2 1821.40 261.150  96
   3  -7  -2 1797.06 457.747  53
   3  -7  -2 1991.64 294.754  14
   3  -7  -1 5903.74 404.699  47
   3  -7  -1 5897.27 370.130  45
   3  -7  -1 4875.64 378.311  96
   3  -7  -1 4311.42 606.624  53
   3  -7  -1 6178.43 416.175  14
   3  -7   0 26259.5 997.618  45
   3  -7   0 27678.4 1045.60  19
   3  -7   0 25293.3 1031.99  96
   3  -7   1 13649.5 586.894  46
   3  -7   1 13743.1 613.717  45
   3  -7   1 14510.2 653.336  19
   3  -7   1 13135.2 661.343  96
   3  -7   2 2601.16 251.526  46
   3  -7   2 2582.15 295.092  19
   3  -7   2 2170.22 520.666  62
   3  -7   3 6607.11 373.298  46
   3  -7   3 6667.30 414.671  19
   3  -7   3 6295.31 706.110  62
   3  -7   3 5894.59 447.382  96
   3  -7   4 11851.6 550.593  12
   3  -7   4 10428.4 509.373  46
   3  -7   4 11345.3 539.968  19
   3  -7   4 10742.1 590.803  96
   3  -7   5 30493.3 1069.73  12
   3  -7   5 28102.4 1055.54  46
   3  -7   5 27059.5 1053.64  19
   3  -7   5 32007.5 1095.62  31
   3  -7   5 28696.9 1143.40  96
   3  -7   6 25999.3 954.656  12
   3  -7   6 25355.9 967.997  46
   3  -7   6 27542.3 975.288  31
   3  -7   6 25896.3 1051.11  96
   3  -7   7 35218.5 1211.25  12
   3  -7   7 34276.5 1243.36  46
   3  -7   7 36643.5 1229.97  31
   3  -7   7 36452.8 1332.93  96
   3  -7   8 17692.0 669.927  31
   3  -7   8 17790.4 712.999  58
   3  -7   8 17160.8 757.442  96
   3  -7   9 8980.66 421.599  15
   3  -7   9 7828.98 438.626  96
   3  -7  10 7345.53 364.148  15
   3  -7  11 8693.87 371.656  11
   3  -7  11 8244.53 377.858  15
   3  -7  12 2456.17 177.691  11
   3  -7  12 2083.99 184.629  15
   3  -7  13 2692.96 159.150  11
   3  -7  13 2386.05 159.581  15
   3  -6 -14 5634.88 238.488  13
   3  -6 -13 1651.91 179.637  33
   3  -6 -13 1537.50 152.021  14
   3  -6 -13 1663.52 183.672  13
   3  -6 -12 1511.63 165.509  47
   3  -6 -12 1391.57 220.457  33
   3  -6 -12 1380.88 188.130  97
   3  -6 -12 1457.96 192.422  14
   3  -6 -12 1739.48 221.646  13
   3  -6 -11 3425.37 261.941  47
   3  -6 -11 3367.24 318.782  33
   3  -6 -11 3465.10 276.412  97
   3  -6 -11 3957.84 301.121  14
   3  -6 -10 6827.78 403.392  47
   3  -6 -10 7937.34 506.956  33
   3  -6 -10 7215.86 434.997  14
   3  -6 -10 8095.83 466.379  48
   3  -6  -9 54269.2 1838.51  47
   3  -6  -9 56280.8 1952.89  33
   3  -6  -9 55619.7 1876.41  14
   3  -6  -9 57224.9 1875.32  48
   3  -6  -8 4487.51 389.564  47
   3  -6  -8 4258.33 311.722  45
   3  -6  -8 5425.65 468.834  33
   3  -6  -8 4318.34 399.814  14
   3  -6  -8 5190.75 444.546  13
   3  -6  -8 4883.80 411.756  48
   3  -6  -7 58590.7 1969.78  47
   3  -6  -7 59213.4 2037.12  33
   3  -6  -7 56562.0 1975.71  14
   3  -6  -7 54935.8 2475.14  51
   3  -6  -7 55852.2 1967.16  13
   3  -6  -6 7295.56 784.304  85
   3  -6  -6 8558.66 525.910  47
   3  -6  -6 8417.75 575.236  33
   3  -6  -6 8039.79 796.302  53
   3  -6  -6 8835.92 536.581  14
   3  -6  -6 7273.56 831.524  51
   3  -6  -6 8479.11 532.799  13
   3  -6  -5 3332.41 587.936  85
   3  -6  -5 4780.59 413.673  47
   3  -6  -5 4543.76 334.214  65
   3  -6  -5 4765.46 663.554  53
   3  -6  -5 4836.92 425.936  14
   3  -6  -5 4213.71 681.428  51
   3  -6  -5 4779.28 423.199  13
   3  -6  -4 30785.1 1682.08  85
   3  -6  -4 38102.7 1327.37  47
   3  -6  -4 36485.8 1299.93  45
   3  -6  -4 27893.5 1727.05  77
   3  -6  -4 35002.2 1785.23  53
   3  -6  -4 31497.3 1244.12  96
   3  -6  -4 37650.5 1337.57  14
   3  -6  -4 33522.8 1801.33  51
   3  -6  -4 35344.9 1309.37  13
   3  -6  -3 1253.73 460.902  85
   3  -6  -3 2481.68 330.527  47
   3  -6  -3 2242.37 293.436  45
   3  -6  -3 1602.23 498.075  77
   3  -6  -3 2308.83 266.569  75
   3  -6  -3 2526.94 293.871  96
   3  -6  -3 2618.88 553.064  53
   3  -6  -3 1639.99 516.580  51
   3  -6  -3 2070.38 334.790  14
   3  -6  -3 2007.66 318.475  13
   3  -6  -2 8639.05 787.916  85
   3  -6  -2 10324.8 531.414  45
   3  -6  -2 8794.08 894.111  77
   3  -6  -2 9220.77 486.815  75
   3  -6  -2 9379.18 861.308  53
   3  -6  -2 9161.48 528.156  96
   3  -6  -2 8256.13 863.873  51
   3  -6  -2 10160.8 535.919  13
   3  -6  -1 800.295 241.380  45
   3  -6  -1 764.832 444.261  77
   3  -6  -1 979.751 221.285  75
   3  -6  -1 897.878 274.816  96
   3  -6  -1 405.918 428.821  53
   3  -6  -1 1044.63 257.539  13
   3  -6   0 6788.06 441.527  47
   3  -6   0 7155.31 445.028  45
   3  -6   0 5267.75 727.761  77
   3  -6   0 6764.53 396.854  75
   3  -6   0 6120.13 414.935  73
   3  -6   0 6952.97 762.419  53
   3  -6   0 7082.64 472.425  96
   3  -6   0 7032.95 455.827  14
   3  -6   0 5516.09 732.416  51
   3  -6   0 6492.08 409.886  13
   3  -6   1 3693.00 335.136  47
   3  -6   1 4191.86 348.235  45
   3  -6   1 3813.65 634.547  77
   3  -6   1 3917.54 305.189  75
   3  -6   1 3323.96 316.510  73
   3  -6   1 3803.68 377.725  96
   3  -6   1 3563.49 347.529  14
   3  -6   2 6335.06 424.963  45
   3  -6   2 7648.64 818.508  77
   3  -6   2 6621.82 423.254  73
   3  -6   2 7421.47 472.062  19
   3  -6   2 6417.64 425.635  14
   3  -6   3 7178.28 431.362  45
   3  -6   3 6125.35 745.694  77
   3  -6   3 6982.11 430.744  73
   3  -6   3 6964.84 445.788  72
   3  -6   3 8081.61 465.351  19
   3  -6   3 7053.28 425.627  14
   3  -6   4 15468.4 663.374  46
   3  -6   4 12128.4 616.622  45
   3  -6   4 13412.3 1046.56  77
   3  -6   4 14161.3 630.757  73
   3  -6   4 13101.6 654.786  72
   3  -6   4 15289.5 668.407  19
   3  -6   4 13141.8 700.924  96
   3  -6   5 32535.7 1126.11  12
   3  -6   5 29823.3 1129.59  46
   3  -6   5 29352.5 1138.57  72
   3  -6   5 28937.2 1119.61  19
   3  -6   5 29723.2 1598.96  62
   3  -6   5 30432.5 1208.52  96
   3  -6   5 29627.4 1168.33  90
   3  -6   5 27100.3 1743.93  87
   3  -6   6 1146.23 223.054  12
   3  -6   6 1099.47 253.985  46
   3  -6   6 1387.08 244.125  72
   3  -6   6 1104.00 237.850  19
   3  -6   6 694.946 419.274  62
   3  -6   6 1318.60 250.628  31
   3  -6   6 863.819 277.617  90
   3  -6   6 1301.88 312.800  96
   3  -6   6 1760.19 617.111  87
   3  -6   7 51505.5 1744.15  12
   3  -6   7 53572.6 1906.91  96
   3  -6   7 51762.9 1806.31  46
   3  -6   7 49231.5 2214.02  62
   3  -6   7 53798.4 1763.50  31
   3  -6   7 55190.7 1887.53  90
   3  -6   7 54350.2 2625.69  87
   3  -6   8 2368.33 216.805  12
   3  -6   8 2381.12 292.602  46
   3  -6   8 2594.57 486.322  62
   3  -6   8 2108.14 229.603  31
   3  -6   8 2850.20 337.383  58
   3  -6   8 3646.53 382.055  96
   3  -6   8 2952.90 340.580  90
   3  -6   8 2313.84 606.500  87
   3  -6   9 3217.76 315.383  46
   3  -6   9 3996.25 333.057  58
   3  -6   9 3721.59 362.116  96
   3  -6   9 3695.06 371.857  90
   3  -6  10 10239.9 498.230  58
   3  -6  10 9993.48 496.812  15
   3  -6  10 9050.17 514.949  96
   3  -6  10 9881.88 558.677  90
   3  -6  10 8666.23 454.737  49
   3  -6  11-7.67312 209.891  58
   3  -6  11 92.1711 208.241  15
   3  -6  11 65.6042 191.355  96
   3  -6  11 166.361 219.066  90
   3  -6  11 255.380 195.222  49
   3  -6  12 15975.0 643.036  58
   3  -6  12 16960.7 650.346  15
   3  -6  12 16166.9 637.662  49
   3  -6  13 3496.03 258.511  58
   3  -6  13 3304.19 255.011  15
   3  -6  13 3229.84 237.497  49
   3  -6  14 2221.22 185.909  11
   3  -6  14 2015.34 198.042  58
   3  -6  14 2379.21 202.498  15
   3  -6  14 2245.08 179.007  49
   3  -6  15 13232.3 470.171  15
   3  -5 -15 1348.29 151.360  33
   3  -5 -15 1421.10 147.132  14
   3  -5 -15 1580.41 174.099  13
   3  -5 -15 1514.42 163.431  48
   3  -5 -14 2180.53 187.308  47
   3  -5 -14 2216.07 236.137  33
   3  -5 -14 2308.14 220.339  14
   3  -5 -14 2503.50 253.546  48
   3  -5 -13 1585.83 280.171  48
   3  -5 -13 1646.08 216.829  47
   3  -5 -13 1455.28 274.079  33
   3  -5 -13 1524.63 212.265  97
   3  -5 -13 1731.38 245.716  14
   3  -5 -12 3532.39 308.703  47
   3  -5 -12 2624.65 273.991  97
   3  -5 -12 3253.42 331.298  14
   3  -5 -12 3221.48 353.075  48
   3  -5 -11 3118.37 321.026  47
   3  -5 -11 2466.85 299.204  97
   3  -5 -11 3304.67 354.424  14
   3  -5 -11 3487.49 383.107  48
   3  -5 -10 8464.64 865.922  85
   3  -5 -10 12021.2 599.371  47
   3  -5 -10 10673.1 570.997  97
   3  -5 -10 9231.34 863.366  51
   3  -5 -10 11673.8 635.861  14
   3  -5 -10 12814.2 651.792  48
   3  -5  -9 7129.03 838.718  85
   3  -5  -9 9046.83 540.459  47
   3  -5  -9 8513.89 834.454  51
   3  -5  -9 9862.30 591.028  14
   3  -5  -9 7911.49 427.618  50
   3  -5  -9 9450.60 581.006  48
   3  -5  -8 24744.2 1528.27  85
   3  -5  -8 29289.6 1141.56  47
   3  -5  -8 26783.8 1490.18  53
   3  -5  -8 26680.2 1563.89  51
   3  -5  -8 28733.1 1152.64  14
   3  -5  -8 27515.4 1039.57  50
   3  -5  -8 29015.1 1138.90  48
   3  -5  -7 97938.2 4024.63  85
   3  -5  -7 108991. 3530.67  47
   3  -5  -7 108371. 4088.14  53
   3  -5  -7 110377. 4204.69  51
   3  -5  -7 107754. 3544.81  14
   3  -5  -7 108877. 3465.11  50
   3  -5  -7 108891. 3520.00  48
   3  -5  -6 37513.5 1946.33  85
   3  -5  -6 42067.6 1540.12  47
   3  -5  -6 36302.4 1985.92  77
   3  -5  -6 40521.9 1494.01  75
   3  -5  -6 46884.4 1646.65  33
   3  -5  -6 42227.8 2045.55  53
   3  -5  -6 41027.5 2062.76  51
   3  -5  -6 42699.5 1556.84  14
   3  -5  -6 43598.7 1502.70  50
   3  -5  -6 42769.9 1528.71  48
   3  -5  -5 19495.2 1256.57  85
   3  -5  -5 20787.8 874.489  47
   3  -5  -5 20707.8 839.815  75
   3  -5  -5 22181.5 952.336  33
   3  -5  -5 21232.5 1313.58  53
   3  -5  -5 17684.5 783.031  96
   3  -5  -5 19104.1 1291.09  51
   3  -5  -5 22041.4 842.069  50
   3  -5  -5 20809.7 863.523  48
   3  -5  -4 23623.5 1367.74  85
   3  -5  -4 19870.1 1366.71  77
   3  -5  -4 23093.2 929.920  75
   3  -5  -4 25801.3 1033.03  33
   3  -5  -4 22697.7 921.996  96
   3  -5  -4 24883.5 1424.59  53
   3  -5  -4 24836.1 1449.47  51
   3  -5  -4 25055.3 941.274  50
   3  -5  -4 24041.0 944.731  48
   3  -5  -3 19436.0 1192.10  85
   3  -5  -3 17915.1 1253.08  77
   3  -5  -3 19291.9 778.345  75
   3  -5  -3 17879.5 778.174  73
   3  -5  -3 19443.1 844.695  33
   3  -5  -3 17983.3 774.545  96
   3  -5  -3 18380.6 1205.02  53
   3  -5  -3 18506.5 811.201  14
   3  -5  -3 17626.1 1187.64  51
   3  -5  -3 18243.4 765.269  50
   3  -5  -3 18775.8 794.201  13
   3  -5  -2 20337.5 1224.22  85
   3  -5  -2 21279.1 847.401  47
   3  -5  -2 18475.5 1274.77  77
   3  -5  -2 19674.7 812.478  75
   3  -5  -2 19972.4 833.587  73
   3  -5  -2 20101.0 863.798  33
   3  -5  -2 18995.5 823.234  96
   3  -5  -2 18679.6 1209.92  53
   3  -5  -2 20814.3 849.869  14
   3  -5  -2 21138.6 819.308  50
   3  -5  -2 19851.5 818.083  13
   3  -5  -1 49426.2 2171.78  85
   3  -5  -1 48453.6 1703.38  47
   3  -5  -1 50405.8 2301.39  77
   3  -5  -1 51246.5 1703.91  75
   3  -5  -1 51220.6 1717.95  73
   3  -5  -1 47698.2 1714.57  72
   3  -5  -1 47234.0 1720.71  33
   3  -5  -1 48675.3 1715.59  96
   3  -5  -1 53122.2 2244.33  53
   3  -5  -1 49926.1 1717.83  14
   3  -5  -1 48545.1 2195.48  51
   3  -5  -1 50430.3 1693.74  50
   3  -5  -1 48838.7 1682.74  13
   3  -5   0 59685.9 2478.63  85
   3  -5   0 61792.7 2011.49  47
   3  -5   0 59373.9 2587.02  77
   3  -5   0 58002.5 2012.38  73
   3  -5   0 58850.5 2019.81  72
   3  -5   0 57274.2 2010.44  33
   3  -5   0 60084.5 2030.76  96
   3  -5   0 60786.9 2011.16  14
   3  -5   0 59125.0 2500.99  51
   3  -5   0 59620.8 1969.65  13
   3  -5   1 10838.4 858.537  85
   3  -5   1 10794.6 527.441  47
   3  -5   1 11144.3 546.249  45
   3  -5   1 11026.4 942.198  77
   3  -5   1 11341.6 551.691  73
   3  -5   1 10748.5 553.624  72
   3  -5   1 10132.0 558.803  71
   3  -5   1 10847.5 567.450  96
   3  -5   1 10856.0 874.028  53
   3  -5   1 11518.2 538.596  14
   3  -5   1 9061.54 817.295  51
   3  -5   1 10129.3 482.269  13
   3  -5   2 23136.2 1282.59  85
   3  -5   2 22319.7 876.164  47
   3  -5   2 23010.5 1390.81  77
   3  -5   2 22993.8 907.562  73
   3  -5   2 23367.4 924.678  72
   3  -5   2 21952.8 924.323  71
   3  -5   2 22284.9 934.791  96
   3  -5   2 22521.8 1288.06  53
   3  -5   2 23044.3 881.098  14
   3  -5   2 20882.8 1230.41  51
   3  -5   2 22940.5 888.687  90
   3  -5   2 23457.1 1441.99  87
   3  -5   3 15613.9 1006.91  85
   3  -5   3 14009.0 1072.16  77
   3  -5   3 14786.8 653.640  73
   3  -5   3 14631.0 668.903  72
   3  -5   3 13731.9 671.532  71
   3  -5   3 14162.3 993.551  53
   3  -5   3 13462.3 605.736  14
   3  -5   3 13783.7 642.249  90
   3  -5   3 14266.5 1136.64  87
   3  -5   4 51129.6 2146.55  85
   3  -5   4 47826.5 1664.91  45
   3  -5   4 51340.2 2302.34  77
   3  -5   4 48794.2 1693.55  73
   3  -5   4 50338.5 1715.98  72
   3  -5   4 49373.7 1727.28  71
   3  -5   4 47028.4 2087.34  53
   3  -5   4 46241.7 1623.68  14
   3  -5   4 48143.5 1694.65  90
   3  -5   4 48746.0 2381.02  87
   3  -5   5 71669.5 2435.03  45
   3  -5   5 74118.5 3085.30  77
   3  -5   5 75737.3 2495.64  72
   3  -5   5 76235.1 2525.07  71
   3  -5   5 77419.5 2537.76  96
   3  -5   5 72932.6 2495.55  90
   3  -5   5 74125.0 3278.13  87
   3  -5   6 7276.78 387.345  12
   3  -5   6 7922.33 464.013  46
   3  -5   6 7012.03 786.390  77
   3  -5   6 6973.09 457.210  72
   3  -5   6 7106.15 482.469  71
   3  -5   6 7100.00 739.050  62
   3  -5   6 7371.55 392.268  31
   3  -5   6 7112.75 503.165  96
   3  -5   6 7025.24 480.235  90
   3  -5   7 107783. 3554.83  12
   3  -5   7 118946. 3669.36  46
   3  -5   7 121860. 3753.77  78
   3  -5   7 114941. 3692.96  72
   3  -5   7 119954. 3736.51  71
   3  -5   7 117531. 4142.75  62
   3  -5   7 107349. 3564.32  31
   3  -5   7 119174. 3753.38  96
   3  -5   7 114716. 3721.20  90
   3  -5   8 15086.0 662.858  46
   3  -5   8 15113.4 748.060  78
   3  -5   8 13533.0 654.740  72
   3  -5   8 14064.1 695.764  71
   3  -5   8 13521.3 926.056  62
   3  -5   8 12110.2 544.332  31
   3  -5   8 13849.4 631.923  58
   3  -5   8 14677.3 738.754  96
   3  -5   8 14086.2 719.943  90
   3  -5   9 11445.4 640.662  78
   3  -5   9 10766.6 547.613  72
   3  -5   9 11286.3 589.129  71
   3  -5   9 11340.0 545.573  58
   3  -5   9 11721.1 639.538  96
   3  -5   9 11722.3 651.506  90
   3  -5  10 2243.33 340.705  78
   3  -5  10 1768.70 264.301  71
   3  -5  10 1497.84 274.845  58
   3  -5  10 1597.03 306.294  96
   3  -5  10 2282.53 359.225  90
   3  -5  11 18798.9 828.673  71
   3  -5  11 20899.1 811.105  18
   3  -5  11 21662.2 816.392  58
   3  -5  11 21251.2 895.891  96
   3  -5  11 21347.6 927.593  90
   3  -5  11 21657.9 843.557  49
   3  -5  12 12745.2 534.450  11
   3  -5  12 12550.7 550.580  18
   3  -5  12 11799.8 542.256  58
   3  -5  12 11871.6 593.245  96
   3  -5  12 11844.2 631.012  90
   3  -5  12 12463.0 571.550  49
   3  -5  13 2312.51 237.215  11
   3  -5  13 2458.10 245.411  18
   3  -5  13 2281.64 258.621  58
   3  -5  13 1994.74 240.429  96
   3  -5  13 2527.72 293.966  90
   3  -5  13 2518.72 278.105  49
   3  -5  14 94.7376 166.233  11
   3  -5  14 86.2722 167.189  18
   3  -5  14 69.9664 192.147  58
   3  -5  14-76.0191 194.551  49
   3  -5  15 3123.93 215.275  11
   3  -5  15 3480.89 218.009  18
   3  -5  15 3217.27 245.156  15
   3  -5  15 3466.84 245.118  49
   3  -5  16 5299.85 245.575  49
   3  -4 -17 15755.8 549.265  13
   3  -4 -16 2732.82 197.634  33
   3  -4 -16 3125.18 218.932  14
   3  -4 -16 2963.60 234.853  48
   3  -4 -15 392.581 226.656  48
   3  -4 -15 264.462 162.195  47
   3  -4 -15 254.597 191.996  14
   3  -4 -14 21287.6 802.189  47
   3  -4 -14 22658.3 849.470  48
   3  -4 -13 27055.3 990.711  76
   3  -4 -13 25644.4 990.225  97
   3  -4 -12 2252.96 275.060  76
   3  -4 -12 2441.55 284.901  97
   3  -4 -12 2895.55 385.297  48
   3  -4 -11 2167.07 380.865  48
   3  -4 -11 1063.06 456.779  85
   3  -4 -11 2067.78 260.829  76
   3  -4 -11 1933.20 296.807  97
   3  -4 -11 2789.56 556.306  51
   3  -4 -11 1695.64 438.450  89
   3  -4 -10 39440.0 1445.35  44
   3  -4 -10 36932.3 1339.64  76
   3  -4 -10 37162.3 1806.76  53
   3  -4 -10 39288.0 1917.51  51
   3  -4 -10 37491.2 1340.27  50
   3  -4 -10 34086.1 1713.80  89
   3  -4 -10 43181.6 1480.90  48
   3  -4  -9 29906.4 1170.00  44
   3  -4  -9 28385.7 1528.33  53
   3  -4  -9 28760.3 1600.20  51
   3  -4  -9 26843.7 1449.13  89
   3  -4  -9 27636.9 1063.12  50
   3  -4  -9 30368.7 1152.82  48
   3  -4  -8 3684.07 633.565  85
   3  -4  -8 4135.21 415.111  44
   3  -4  -8 4242.47 614.611  53
   3  -4  -8 3423.47 634.123  51
   3  -4  -8 4249.46 327.676  50
   3  -4  -8 2921.29 527.473  89
   3  -4  -8 3960.40 396.118  48
   3  -4  -7 30108.4 1666.49  85
   3  -4  -7 31999.0 1213.56  44
   3  -4  -7 29346.7 1655.42  77
   3  -4  -7 32723.1 1199.96  75
   3  -4  -7 31092.3 1665.17  53
   3  -4  -7 35122.6 1768.43  51
   3  -4  -7 29425.4 1508.38  89
   3  -4  -7 33542.1 1187.98  50
   3  -4  -7 32622.0 1209.70  48
   3  -4  -6 21995.6 1366.78  85
   3  -4  -6 24539.7 957.853  44
   3  -4  -6 22115.4 1373.05  77
   3  -4  -6 24501.6 951.014  75
   3  -4  -6 24853.3 1401.73  53
   3  -4  -6 25367.2 1418.19  51
   3  -4  -6 23299.4 1260.13  89
   3  -4  -6 24544.1 940.911  50
   3  -4  -5 602.076 426.722  85
   3  -4  -5 656.202 245.640  44
   3  -4  -5 548.818 387.365  77
   3  -4  -5 478.818 230.376  75
   3  -4  -5 543.982 164.062  96
   3  -4  -5 234.000 384.945  53
   3  -4  -5 522.331 386.665  51
   3  -4  -5 547.250 186.509  50
   3  -4  -5 449.152 390.210  89
   3  -4  -4 23929.0 1346.31  85
   3  -4  -4 23135.8 1362.01  77
   3  -4  -4 23834.5 929.694  75
   3  -4  -4 24994.3 968.035  33
   3  -4  -4 23076.1 879.922  96
   3  -4  -4 22855.2 1305.07  53
   3  -4  -4 23622.4 1252.54  89
   3  -4  -4 23991.1 907.841  50
   3  -4  -3 12720.1 939.929  85
   3  -4  -3 12500.7 582.771  47
   3  -4  -3 13476.4 591.797  75
   3  -4  -3 12810.8 594.068  73
   3  -4  -3 11607.8 581.697  72
   3  -4  -3 12959.8 604.701  33
   3  -4  -3 13043.4 562.759  96
   3  -4  -3 12726.4 904.306  53
   3  -4  -3 12674.4 589.908  14
   3  -4  -3 12888.4 572.091  50
   3  -4  -2 19645.2 1169.88  85
   3  -4  -2 19177.6 773.842  47
   3  -4  -2 19775.7 793.242  73
   3  -4  -2 18798.6 783.153  33
   3  -4  -2 18772.9 760.669  96
   3  -4  -2 19307.6 1151.20  53
   3  -4  -2 20742.9 1177.04  51
   3  -4  -2 20284.6 789.838  14
   3  -4  -2 20606.0 768.589  50
   3  -4  -1 51176.5 2121.54  85
   3  -4  -1 47817.1 1627.25  47
   3  -4  -1 52731.9 2188.34  77
   3  -4  -1 49322.9 1652.68  73
   3  -4  -1 45040.5 1638.48  72
   3  -4  -1 47743.9 1647.55  71
   3  -4  -1 46336.8 1631.20  33
   3  -4  -1 48707.8 1636.85  96
   3  -4  -1 50357.6 1640.33  14
   3  -4  -1 48778.6 2050.32  51
   3  -4   0 58744.8 2350.58  85
   3  -4   0 56190.3 1843.64  47
   3  -4   0 58141.2 2405.85  77
   3  -4   0 57985.9 1882.43  73
   3  -4   0 55962.9 1878.07  72
   3  -4   0 53843.6 1868.19  71
   3  -4   0 50776.1 1830.88  33
   3  -4   0 56709.8 1869.73  96
   3  -4   0 54736.7 2266.50  53
   3  -4   0 56924.8 1847.39  14
   3  -4   0 57163.9 2268.14  51
   3  -4   1 2703.53 502.688  85
   3  -4   1 2246.68 239.291  47
   3  -4   1 2402.04 514.218  77
   3  -4   1 1955.71 254.303  72
   3  -4   1 2421.94 273.508  96
   3  -4   1 2397.61 459.102  53
   3  -4   1 2329.63 236.081  14
   3  -4   1 2749.82 460.424  51
   3  -4   1 2247.78 221.078  90
   3  -4   1 2155.48 234.568  50
   3  -4   1 2083.00 510.757  87
   3  -4   2 16624.3 1048.81  85
   3  -4   2 16530.5 668.054  45
   3  -4   2 16141.6 682.350  78
   3  -4   2 16958.7 1104.95  77
   3  -4   2 16089.3 688.779  72
   3  -4   2 14909.5 676.588  71
   3  -4   2 16347.3 693.435  96
   3  -4   2 16896.1 989.942  53
   3  -4   2 15617.9 633.096  14
   3  -4   2 16358.6 957.997  51
   3  -4   2 14961.4 640.481  90
   3  -4   2 17508.5 1141.13  87
   3  -4   3 26480.7 1379.65  85
   3  -4   3 24071.9 886.070  47
   3  -4   3 27758.1 946.856  45
   3  -4   3 24136.2 959.256  78
   3  -4   3 27283.7 1458.01  77
   3  -4   3 24940.4 972.543  71
   3  -4   3 24393.8 965.407  96
   3  -4   3 25514.8 1270.04  53
   3  -4   3 23468.4 884.189  14
   3  -4   3 23784.4 1223.12  51
   3  -4   3 24295.4 924.541  90
   3  -4   3 25546.8 1452.39  87
   3  -4   4 24627.1 1345.05  85
   3  -4   4 23529.6 888.415  45
   3  -4   4 24611.3 949.186  78
   3  -4   4 24984.3 1407.10  77
   3  -4   4 24462.7 946.498  71
   3  -4   4 24940.6 903.067  19
   3  -4   4 21857.5 1181.99  53
   3  -4   4 21215.7 830.688  14
   3  -4   4 23636.1 908.963  90
   3  -4   4 26525.5 1521.05  87
   3  -4   5 1322.60 443.200  85
   3  -4   5 1280.19 200.500  45
   3  -4   5 1245.12 467.560  77
   3  -4   5 1489.66 222.334  19
   3  -4   5 819.537 324.240  53
   3  -4   5 1414.27 260.430  90
   3  -4   5 1655.41 534.560  87
   3  -4   6 3796.76 279.879  45
   3  -4   6 4508.57 671.761  77
   3  -4   6 3450.41 283.592  19
   3  -4   6 4394.04 402.899  96
   3  -4   6 4249.92 365.641  90
   3  -4   6 4942.66 746.923  87
   3  -4   7 5230.21 373.997  46
   3  -4   7 4819.58 426.447  78
   3  -4   7 4814.95 695.910  77
   3  -4   7 5163.72 560.366  62
   3  -4   7 4295.86 413.940  96
   3  -4   7 4766.00 406.792  90
   3  -4   7 4905.18 802.020  87
   3  -4   8 68341.3 2302.76  46
   3  -4   8 72633.2 2425.01  78
   3  -4   8 74317.2 3045.71  77
   3  -4   8 66514.4 2598.91  62
   3  -4   8 65207.2 2249.68  58
   3  -4   8 73606.1 2421.61  96
   3  -4   8 70508.7 2387.83  90
   3  -4   8 74062.7 3301.17  87
   3  -4   9 31704.0 1166.65  46
   3  -4   9 31442.9 1255.14  78
   3  -4   9 29568.2 1114.32  58
   3  -4   9 29784.9 1240.09  96
   3  -4   9 33342.1 1274.43  90
   3  -4  10 44961.9 1545.85  46
   3  -4  10 43497.2 1630.27  78
   3  -4  10 41317.9 1486.74  58
   3  -4  10 43654.7 1518.05  15
   3  -4  10 42347.2 1618.05  96
   3  -4  10 45745.0 1643.60  90
   3  -4  11 6231.94 464.089  78
   3  -4  11 6356.01 425.539  71
   3  -4  11 5839.43 375.604  58
   3  -4  11 5854.16 385.693  15
   3  -4  11 5944.36 457.635  96
   3  -4  11 6644.16 502.792  90
   3  -4  11 7532.81 1027.46  87
   3  -4  12 2008.46 240.231  11
   3  -4  12 2244.89 311.918  78
   3  -4  12 1839.98 255.991  71
   3  -4  12 1894.59 302.558  18
   3  -4  12 2048.72 254.406  58
   3  -4  12 2032.16 267.224  15
   3  -4  12 1928.92 299.337  96
   3  -4  12 1925.16 323.097  90
   3  -4  12 2667.71 325.655  49
   3  -4  13 8576.27 417.299  11
   3  -4  13 8863.79 494.213  78
   3  -4  13 8966.11 481.264  18
   3  -4  13 8549.02 444.150  58
   3  -4  13 8301.92 442.278  15
   3  -4  13 8450.77 479.757  96
   3  -4  13 8531.96 523.522  90
   3  -4  13 9026.53 494.266  49
   3  -4  14 1274.75 200.887  11
   3  -4  14 1150.32 217.711  78
   3  -4  14 1199.84 244.970  18
   3  -4  14 1508.13 236.122  58
   3  -4  14 1349.32 232.931  15
   3  -4  14 917.844 191.934  96
   3  -4  14 1310.59 255.808  90
   3  -4  14 1074.98 252.346  49
   3  -4  15 243.141 166.794  20
   3  -4  15 425.255 196.437  18
   3  -4  15 465.474 189.761  15
   3  -4  16 2076.73 168.869  20
   3  -4  16 2193.37 199.626  18
   3  -4  16 1860.52 133.996  25
   3  -3 -18 6272.81 255.108  14
   3  -3 -17 4802.59 282.650  48
   3  -3 -16 2795.28 290.128  44
   3  -3 -16 2302.25 276.419  48
   3  -3 -15 17369.3 743.563  44
   3  -3 -15 17483.8 739.138  48
   3  -3 -14 35708.4 1296.68  48
   3  -3 -14 34131.2 1243.85  76
   3  -3 -13 10335.9 567.900  48
   3  -3 -13 10226.1 517.004  76
   3  -3 -13 9845.59 460.397  74
   3  -3 -13 9357.82 456.624  97
   3  -3 -13 8419.06 804.083  51
   3  -3 -13 8500.25 812.427  89
   3  -3 -12 12943.0 659.618  48
   3  -3 -12 11636.1 985.932  85
   3  -3 -12 13013.3 597.082  76
   3  -3 -12 11227.9 530.162  74
   3  -3 -12 11581.1 548.994  97
   3  -3 -12 11695.7 945.385  51
   3  -3 -12 11310.7 934.526  89
   3  -3 -12 12339.2 543.638  50
   3  -3 -11 3095.14 389.740  48
   3  -3 -11 1646.36 519.041  85
   3  -3 -11 2483.46 365.612  44
   3  -3 -11 2630.59 326.057  76
   3  -3 -11 2412.27 296.390  97
   3  -3 -11 2553.06 504.166  53
   3  -3 -11 2656.47 556.193  51
   3  -3 -11 2322.78 550.289  89
   3  -3 -10 8604.34 533.039  48
   3  -3 -10 6999.17 788.399  85
   3  -3 -10 7811.76 508.503  44
   3  -3 -10 7990.68 768.362  53
   3  -3 -10 7175.18 764.660  51
   3  -3 -10 7822.03 803.948  89
   3  -3  -9 79764.9 2593.48  48
   3  -3  -9 75359.1 3129.35  85
   3  -3  -9 77311.7 2594.22  44
   3  -3  -9 83325.3 3132.70  53
   3  -3  -9 76178.5 3117.36  51
   3  -3  -9 76357.9 3051.91  89
   3  -3  -8 14764.3 672.310  48
   3  -3  -8 15029.2 1081.39  85
   3  -3  -8 14872.5 679.636  44
   3  -3  -8 14607.0 663.207  75
   3  -3  -8 15638.6 1052.29  53
   3  -3  -8 16155.0 1081.04  51
   3  -3  -8 15602.3 1045.00  89
   3  -3  -7 4584.71 663.054  85
   3  -3  -7 4362.44 346.483  44
   3  -3  -7 4085.16 567.581  77
   3  -3  -7 4943.71 351.046  75
   3  -3  -7 4984.90 635.237  53
   3  -3  -7 5108.34 651.223  51
   3  -3  -7 4395.32 607.024  89
   3  -3  -6 7910.80 427.481  44
   3  -3  -6 7146.35 690.247  77
   3  -3  -6 7649.95 442.944  75
   3  -3  -6 8090.96 430.319  73
   3  -3  -6 8215.29 754.440  53
   3  -3  -6 8489.07 760.405  51
   3  -3  -6 9565.84 777.754  89
   3  -3  -5 36803.5 1728.30  77
   3  -3  -5 38043.1 1322.04  73
   3  -3  -5 36872.0 1704.38  53
   3  -3  -5 37726.3 1731.81  89
   3  -3  -4 15045.9 986.625  85
   3  -3  -4 14410.0 947.514  77
   3  -3  -4 15828.5 625.163  73
   3  -3  -4 14191.1 605.172  72
   3  -3  -4 13492.0 549.886  96
   3  -3  -4 14999.2 938.973  53
   3  -3  -3 14699.3 962.577  85
   3  -3  -3 13775.5 924.078  77
   3  -3  -3 14447.1 595.142  73
   3  -3  -3 13520.4 576.511  72
   3  -3  -3 13273.1 560.879  71
   3  -3  -3 13174.0 537.985  96
   3  -3  -3 13025.3 873.827  51
   3  -3  -2 17939.8 1071.88  85
   3  -3  -2 17816.9 1047.79  77
   3  -3  -2 17281.8 689.908  72
   3  -3  -2 17197.0 679.282  71
   3  -3  -2 17362.7 660.113  96
   3  -3  -2 16621.6 982.308  51
   3  -3  -1 42402.2 1797.73  85
   3  -3  -1 38950.7 1355.04  72
   3  -3  -1 39730.0 1347.03  71
   3  -3  -1 38802.8 1327.39  96
   3  -3  -1 40377.3 1707.83  53
   3  -3  -1 38613.9 1651.50  51
   3  -3  -1 39469.8 1327.45  50
   3  -3   0 34195.3 1546.41  85
   3  -3   0 30103.6 1091.97  78
   3  -3   0 32309.2 1123.31  71
   3  -3   0 30834.5 1100.71  96
   3  -3   0 32138.4 1430.70  53
   3  -3   0 33272.3 1417.05  51
   3  -3   0 32339.5 1096.22  50
   3  -3   0 32211.0 1473.94  87
   3  -3   1 5661.16 619.605  85
   3  -3   1 4781.18 305.876  78
   3  -3   1 4851.10 590.271  77
   3  -3   1 5315.02 324.158  96
   3  -3   1 5067.93 521.738  53
   3  -3   1 5108.55 497.149  51
   3  -3   1 4881.48 265.267  90
   3  -3   1 4718.67 290.595  50
   3  -3   1 6822.21 626.800  87
   3  -3   2 26101.4 974.155  78
   3  -3   2 27596.5 1414.83  77
   3  -3   2 27458.8 989.751  96
   3  -3   2 26906.2 1248.98  53
   3  -3   2 26198.8 1188.13  51
   3  -3   2 26508.3 935.805  90
   3  -3   2 27387.7 944.316  50
   3  -3   2 27171.7 1386.25  87
   3  -3   3 81777.7 2603.57  78
   3  -3   3 83500.2 3144.60  77
   3  -3   3 82793.2 2614.93  96
   3  -3   3 81405.9 2878.78  53
   3  -3   3 78185.7 2791.08  51
   3  -3   3 80909.4 2557.93  90
   3  -3   3 75940.5 2532.24  50
   3  -3   3 87477.5 3175.96  87
   3  -3   4 16750.7 717.800  78
   3  -3   4 17093.7 1139.04  77
   3  -3   4 15955.7 710.746  96
   3  -3   4 16688.0 892.947  53
   3  -3   4 17305.6 681.741  90
   3  -3   4 19176.8 1194.57  87
   3  -3   5 70889.0 2372.36  78
   3  -3   5 73751.5 2974.12  77
   3  -3   5 68807.9 2274.77  19
   3  -3   5 68515.3 2523.22  53
   3  -3   5 73991.0 2342.76  90
   3  -3   6 51370.7 2245.03  77
   3  -3   6 41262.4 1477.91  19
   3  -3   6 45528.1 1624.12  96
   3  -3   6 48533.1 1592.25  90
   3  -3   6 53354.1 2332.81  87
   3  -3   7 14723.0 609.850  46
   3  -3   7 12418.9 1081.64  77
   3  -3   7 13218.0 768.691  62
   3  -3   7 12787.9 550.687  58
   3  -3   7 14360.8 713.782  96
   3  -3   7 13883.2 667.693  90
   3  -3   7 14029.3 1185.17  87
   3  -3   8 6954.80 399.394  46
   3  -3   8 7223.98 497.714  78
   3  -3   8 7572.95 870.754  77
   3  -3   8 6997.68 375.124  58
   3  -3   8 6332.62 488.761  96
   3  -3   8 7293.19 492.456  90
   3  -3   8 7189.38 935.531  87
   3  -3   9 63174.8 2055.86  46
   3  -3   9 64562.3 2185.56  78
   3  -3   9 67917.3 2902.32  77
   3  -3   9 56503.9 2006.07  58
   3  -3   9 66338.9 2193.43  96
   3  -3   9 58822.7 2028.54  15
   3  -3   9 65935.1 2180.12  90
   3  -3  10 13226.7 595.421  46
   3  -3  10 13909.1 713.716  78
   3  -3  10 14139.5 1137.79  77
   3  -3  10 13056.2 575.922  58
   3  -3  10 12449.1 582.967  15
   3  -3  10 14170.9 727.980  96
   3  -3  10 15055.5 732.332  90
   3  -3  11 68248.7 2283.33  11
   3  -3  11 76893.9 2482.34  78
   3  -3  11 69004.6 2311.48  58
   3  -3  11 68296.2 2309.99  15
   3  -3  11 75867.6 2477.83  96
   3  -3  11 72522.3 2857.09   1
   3  -3  11 74726.7 2474.31  90
   3  -3  12 27801.5 1016.56  11
   3  -3  12 29483.9 1172.66  78
   3  -3  12 28306.3 1052.50  58
   3  -3  12 27951.3 1043.96  15
   3  -3  12 29255.3 1161.11  96
   3  -3  12 30187.1 1191.42  90
   3  -3  12 29983.4 1098.65  49
   3  -3  13 1022.73 207.150  11
   3  -3  13 622.369 250.106  78
   3  -3  13 843.974 274.017  18
   3  -3  13 553.266 237.283  58
   3  -3  13 762.438 230.212  15
   3  -3  13 905.664 251.316  96
   3  -3  13 616.849 271.731  90
   3  -3  13 773.951 268.955  49
   3  -3  14 13369.2 535.019  11
   3  -3  14 12572.2 611.640  78
   3  -3  14 13666.2 601.760  18
   3  -3  14 13221.7 566.001  15
   3  -3  14 11641.0 590.325  96
   3  -3  14 12584.1 638.358  90
   3  -3  14 13692.5 599.650  49
   3  -3  15 1511.77 215.423  78
   3  -3  15 1703.15 248.494  18
   3  -3  15 1465.89 165.029  25
   3  -3  15 1726.31 245.820  49
   3  -3  16 8048.87 377.662  20
   3  -3  16 8275.04 378.142  49
   3  -3  17 7824.72 327.384  20
   3  -3  17 8550.82 323.947  49
   3  -2 -18 666.687 156.631  48
   3  -2 -18 593.774 170.608  44
   3  -2 -17 1255.51 228.599  48
   3  -2 -17 1318.84 234.605  44
   3  -2 -16 3964.64 334.414  48
   3  -2 -16 3822.75 345.135  44
   3  -2 -15 22986.5 885.075  48
   3  -2 -15 20612.7 803.817  82
   3  -2 -15 21792.4 860.968  76
   3  -2 -15 21612.7 822.527  74
   3  -2 -14 201.771 293.628  48
   3  -2 -14 83.5912 248.625  76
   3  -2 -14 439.821 218.063  74
   3  -2 -14 379.428 405.454  89
   3  -2 -13 9272.37 532.675  48
   3  -2 -13 8684.50 499.483  76
   3  -2 -13 8333.67 465.854  74
   3  -2 -13 7339.89 865.405  52
   3  -2 -13 8109.15 789.815  51
   3  -2 -13 7243.66 784.481  89
   3  -2 -12 8044.39 495.380  48
   3  -2 -12 6016.80 700.182  85
   3  -2 -12 8064.09 480.735  76
   3  -2 -12 8005.78 443.992  74
   3  -2 -12 7347.36 751.733  53
   3  -2 -12 7074.85 815.027  52
   3  -2 -12 6920.61 740.025  51
   3  -2 -12 7280.60 789.231  89
   3  -2 -11 84951.6 2760.35  48
   3  -2 -11 78723.6 3239.05  85
   3  -2 -11 86741.7 2758.00  76
   3  -2 -11 84081.2 3275.38  53
   3  -2 -11 80635.8 3316.84  52
   3  -2 -11 80507.2 3272.39  51
   3  -2 -11 84959.0 3329.36  89
   3  -2 -10 26265.4 996.711  48
   3  -2 -10 23139.6 1370.88  85
   3  -2 -10 24789.3 1399.52  53
   3  -2 -10 25346.8 1426.81  52
   3  -2 -10 26966.2 1451.34  51
   3  -2 -10 27514.2 1467.87  89
   3  -2  -9 41742.7 1420.32  48
   3  -2  -9 36303.8 1810.47  85
   3  -2  -9 40293.6 1880.95  53
   3  -2  -9 39472.2 1850.16  52
   3  -2  -9 39405.4 1863.53  51
   3  -2  -9 41309.4 1901.73  89
   3  -2  -8 39108.7 1824.46  85
   3  -2  -8 39852.3 1393.76  75
   3  -2  -8 42435.8 1879.22  53
   3  -2  -8 41347.8 1829.18  52
   3  -2  -8 41319.5 1867.06  51
   3  -2  -8 40411.8 1845.90  89
   3  -2  -7 53820.8 2213.01  85
   3  -2  -7 47766.2 2056.32  77
   3  -2  -7 54466.3 1770.00  75
   3  -2  -7 54484.8 2248.98  53
   3  -2  -7 50019.0 2098.50  52
   3  -2  -7 54280.2 2236.05  51
   3  -2  -7 54251.2 2233.50  89
   3  -2  -6 50948.7 2119.19  85
   3  -2  -6 47430.3 1997.68  77
   3  -2  -6 52443.1 1692.77  75
   3  -2  -6 50042.2 1667.28  73
   3  -2  -6 53041.0 2127.79  53
   3  -2  -6 45918.6 1923.63  52
   3  -2  -6 51283.9 2143.65  89
   3  -2  -5 93326.5 3260.16  85
   3  -2  -5 87757.5 3156.44  77
   3  -2  -5 89936.4 2783.45  73
   3  -2  -5 84731.4 2757.94  72
   3  -2  -5 89734.0 3201.95  53
   3  -2  -5 84014.8 3001.00  52
   3  -2  -4 178493. 5590.68  85
   3  -2  -4 166629. 5485.90  77
   3  -2  -4 169307. 5093.37  73
   3  -2  -4 159958. 5071.50  72
   3  -2  -4 157391. 5247.65  52
   3  -2  -4 164776. 5454.20  51
   3  -2  -3 4882.25 613.019  85
   3  -2  -3 6224.12 572.857  77
   3  -2  -3 5089.85 300.252  72
   3  -2  -3 5335.08 284.646  71
   3  -2  -3 5234.54 535.776  53
   3  -2  -3 6129.11 544.182  51
   3  -2  -2 25590.2 1237.06  77
   3  -2  -2 25085.8 887.181  71
   3  -2  -2 24777.6 862.067  96
   3  -2  -2 28647.5 1230.52  53
   3  -2  -2 26020.5 1166.53  51
   3  -2  -1 132152. 4255.12  78
   3  -2  -1 148833. 4748.76  77
   3  -2  -1 139403. 4270.90  96
   3  -2  -1 146446. 4620.91  53
   3  -2  -1 149609. 4583.24  51
   3  -2   0 57453.3 1916.38  78
   3  -2   0 62886.4 2380.90  77
   3  -2   0 59955.4 1932.55  96
   3  -2   0 65133.8 2233.65  53
   3  -2   0 62921.1 2174.22  51
   3  -2   0 60832.7 2205.35  87
   3  -2   1 34248.7 1186.43  78
   3  -2   1 35458.5 1201.71  96
   3  -2   1 35318.5 1427.33  53
   3  -2   1 34713.7 1375.72  51
   3  -2   1 35382.4 1167.25  50
   3  -2   1 37041.6 1512.91  87
   3  -2   2 14027.3 575.047  96
   3  -2   2 13794.9 731.947  53
   3  -2   2 13177.7 666.537  51
   3  -2   2 13063.4 516.291  90
   3  -2   2 13292.9 508.113  50
   3  -2   2 14865.8 858.993  87
   3  -2   3 115947. 4036.27  77
   3  -2   3 106511. 3407.06  70
   3  -2   3 114863. 3468.20  96
   3  -2   3 111973. 3632.41  53
   3  -2   3 99694.6 3499.98  51
   3  -2   3 111005. 3414.64  90
   3  -2   3 108615. 3376.29  50
   3  -2   3 118921. 3926.19  87
   3  -2   4 44145.3 1944.22  77
   3  -2   4 39023.2 1347.89  70
   3  -2   4 36575.6 1458.32  53
   3  -2   4 41104.1 1356.05  90
   3  -2   4 41190.4 1845.39  87
   3  -2   5 87449.5 3303.84  77
   3  -2   5 78630.1 2616.64  70
   3  -2   5 81465.2 2627.99  90
   3  -2   5 86181.4 3251.27  87
   3  -2   6 36840.8 1290.37  46
   3  -2   6 37945.4 1981.36  77
   3  -2   6 39049.6 1368.56  70
   3  -2   6 38666.2 1372.41  90
   3  -2   6 39019.0 1930.95  87
   3  -2   7 8192.53 410.706  46
   3  -2   7 10608.8 1004.50  77
   3  -2   7 9313.69 512.625  70
   3  -2   7 9313.60 512.942  90
   3  -2   7 9320.76 940.306  87
   3  -2   8 7879.81 400.526  15
   3  -2   8 7612.27 389.699  46
   3  -2   8 8408.07 944.772  77
   3  -2   8 8937.46 518.443  70
   3  -2   8 8250.26 509.378  90
   3  -2   9 2947.11 246.414  46
   3  -2   9 3238.10 682.700  77
   3  -2   9 3661.14 385.585  70
   3  -2   9 3209.72 264.750  15
   3  -2   9 3026.45 382.250  96
   3  -2   9 3202.16 368.939  90
   3  -2   9 2859.36 727.100  87
   3  -2  10 10835.1 887.386   1
   3  -2  10 8935.28 429.804  11
   3  -2  10 10578.7 1043.73  77
   3  -2  10 10571.6 604.921  70
   3  -2  10 10120.3 481.032  58
   3  -2  10 9075.09 457.404  15
   3  -2  10 10452.7 609.532  96
   3  -2  10 10041.0 602.962  90
   3  -2  10 11249.8 1184.32  87
   3  -2  11 17158.6 684.042  11
   3  -2  11 17356.6 1346.57  77
   3  -2  11 20008.1 878.002  70
   3  -2  11 18643.8 740.383  58
   3  -2  11 17725.3 1171.33   1
   3  -2  11 17189.0 711.111  15
   3  -2  11 17476.6 854.028  96
   3  -2  11 18478.6 861.543  90
   3  -2  11 17899.4 753.245  49
   3  -2  11 19906.3 1532.87  87
   3  -2  12 1450.68 305.957  78
   3  -2  12 1634.14 349.383  70
   3  -2  12 1274.17 454.269   1
   3  -2  12 1665.60 248.196  15
   3  -2  12 1363.09 318.629  96
   3  -2  12 2302.63 350.122  90
   3  -2  12 1622.27 275.780  49
   3  -2  12 1643.14 642.627  87
   3  -2  13 1997.00 306.922  78
   3  -2  13 2270.91 299.697  18
   3  -2  13 2479.30 270.883  15
   3  -2  13 2199.82 311.725  96
   3  -2  13 2393.62 334.711  90
   3  -2  13 1792.41 274.937  49
   3  -2  14 27448.4 1060.69  78
   3  -2  14 27252.8 1006.23  18
   3  -2  14 26639.8 1052.44  96
   3  -2  14 26703.2 1073.91  90
   3  -2  14 27520.2 993.817  49
   3  -2  15 3402.03 282.647  78
   3  -2  15 3265.27 287.561  20
   3  -2  15 3818.83 292.582  18
   3  -2  15 3599.66 273.420  49
   3  -2  16 10076.2 440.589  20
   3  -2  16 10047.0 434.321  18
   3  -2  16 10367.8 416.063  49
   3  -2  17 351.246 120.614  20
   3  -2  17 400.635 111.990  18
   3  -1 -19 226.659 112.973  44
   3  -1 -18 1390.22 188.750  48
   3  -1 -18 1283.82 202.984  44
   3  -1 -17 337.539 203.645  48
   3  -1 -17 194.148 159.961  82
   3  -1 -17 107.893 222.237  44
   3  -1 -16 2346.10 286.865  48
   3  -1 -16 1964.79 245.124  82
   3  -1 -16 2622.79 259.457  74
   3  -1 -15 9481.97 510.644  48
   3  -1 -15 9106.29 474.623  82
   3  -1 -15 8989.80 480.953  74
   3  -1 -14 4805.26 396.723  48
   3  -1 -14 4651.61 369.758  74
   3  -1 -14 4200.81 640.459  52
   3  -1 -14 4019.32 589.271  51
   3  -1 -13 35914.3 1318.54  48
   3  -1 -13 36622.8 1311.03  74
   3  -1 -13 36462.8 1753.94  53
   3  -1 -13 36289.0 1833.27  52
   3  -1 -13 36338.8 1783.89  51
   3  -1 -12 74284.3 2431.45  48
   3  -1 -12 76410.0 2985.86  53
   3  -1 -12 71746.7 2988.28  52
   3  -1 -12 70290.1 2942.55  51
   3  -1 -11 24237.7 927.845  48
   3  -1 -11 24187.2 932.847  76
   3  -1 -11 25496.9 1378.60  53
   3  -1 -11 26342.0 1396.42  52
   3  -1 -11 24265.1 1369.86  51
   3  -1 -10 8307.07 444.965  48
   3  -1 -10 8026.34 673.011  85
   3  -1 -10 9333.33 794.828  53
   3  -1 -10 8100.83 729.285  52
   3  -1 -10 7286.84 742.868  51
   3  -1  -9 1236.71 351.920  85
   3  -1  -9 1762.18 444.811  53
   3  -1  -9 1572.75 411.765  52
   3  -1  -9 1610.79 447.779  51
   3  -1  -8 3654.10 463.656  85
   3  -1  -8 3120.29 239.670  75
   3  -1  -8 4077.93 550.455  53
   3  -1  -8 4100.98 489.568  52
   3  -1  -8 3323.96 522.622  51
   3  -1  -7 91301.1 3262.35  85
   3  -1  -7 88070.8 2862.09  75
   3  -1  -7 99093.4 3410.13  53
   3  -1  -7 94274.5 3208.55  52
   3  -1  -6 57995.3 2183.35  85
   3  -1  -6 52466.8 2003.14  77
   3  -1  -6 57595.4 1800.75  75
   3  -1  -6 52882.8 1763.94  73
   3  -1  -6 56826.2 2060.88  52
   3  -1  -5 8142.19 673.866  85
   3  -1  -5 8810.49 585.097  77
   3  -1  -5 9143.87 395.271  73
   3  -1  -5 9334.72 557.170  52
   3  -1  -5 9612.14 693.847  51
   3  -1  -4 57639.6 2158.42  85
   3  -1  -4 54683.6 2049.47  77
   3  -1  -4 53019.6 1742.84  72
   3  -1  -4 59946.4 2160.74  53
   3  -1  -4 54491.5 1887.77  52
   3  -1  -4 55541.5 2095.55  51
   3  -1  -3 73442.0 2721.40  85
   3  -1  -3 73125.3 2648.86  77
   3  -1  -3 75780.6 2668.43  53
   3  -1  -3 72645.1 2613.61  51
   3  -1  -2 134554. 4620.72  85
   3  -1  -2 132854. 4561.77  77
   3  -1  -2 141234. 4519.73  53
   3  -1  -2 136279. 4464.30  51
   3  -1  -1 159064. 5080.74  77
   3  -1  -1 165657. 4961.04  53
   3  -1  -1 162143. 4899.77  51
   3  -1   0 31419.8 1411.23  77
   3  -1   0 30721.2 1217.68  53
   3  -1   0 30654.8 1167.89  51
   3  -1   0 27584.2 1099.87  87
   3  -1   1 27947.6 1332.91  77
   3  -1   1 26680.5 1080.20  53
   3  -1   1 25402.0 995.819  51
   3  -1   1 24367.9 1054.40  87
   3  -1   2 160820. 5155.93  77
   3  -1   2 139155. 4675.97  53
   3  -1   2 147817. 4539.15  90
   3  -1   2 151526. 4836.27  87
   3  -1   3 2005.86 218.571  90
   3  -1   3 2162.10 402.001  87
   3  -1   4 36319.9 1256.27  90
   3  -1   4 34718.2 1606.69  87
   3  -1   5 2154.66 399.878  84
   3  -1   5 3047.28 281.897  90
   3  -1   5 2431.44 501.872  87
   3  -1   6 88099.3 3316.78  84
   3  -1   6 90692.6 2960.06  70
   3  -1   6 91447.1 2974.74  90
   3  -1   7 5711.92 644.741  84
   3  -1   7 6677.12 437.552  70
   3  -1   7 6735.14 443.366  90
   3  -1   8 21388.3 1293.77  84
   3  -1   8 22588.6 950.283  70
   3  -1   8 22945.3 961.828  90
   3  -1   8 24912.4 1603.03  87
   3  -1   9 2290.94 561.576  84
   3  -1   9 3254.93 369.001  70
   3  -1   9 3013.19 363.425  90
   3  -1   9 2127.30 538.720   1
   3  -1   9 3736.69 752.224  87
   3  -1  10 44726.6 1524.09  70
   3  -1  10 39174.2 1929.17   1
   3  -1  10 39971.6 1508.70  90
   3  -1  10 36366.2 1360.32  49
   3  -1  10 46786.1 2345.02  87
   3  -1  11 15516.1 743.099  70
   3  -1  11 13842.0 1048.61   1
   3  -1  11 13670.2 723.186  90
   3  -1  11 12833.0 596.726  49
   3  -1  11 15005.0 1304.34  87
   3  -1  12 28287.2 1552.24   1
   3  -1  12 29849.3 1149.85  70
   3  -1  12 25838.6 1009.66  18
   3  -1  12 27839.8 1135.47  90
   3  -1  12 26351.0 995.303  49
   3  -1  12 30758.8 1841.82  87
   3  -1  13 17630.1 788.200  70
   3  -1  13 15814.2 674.909  18
   3  -1  13 15637.9 764.790  96
   3  -1  13 17069.4 773.993  90
   3  -1  13 15537.7 651.670  49
   3  -1  14 14047.8 647.691  78
   3  -1  14 14366.3 671.297  70
   3  -1  14 14164.6 586.250  18
   3  -1  14 12655.5 627.939  96
   3  -1  14 13543.2 557.096  49
   3  -1  15 4696.82 318.487  78
   3  -1  15 5250.35 318.363  20
   3  -1  15 4944.07 294.723  18
   3  -1  16 1251.25 178.459  20
   3  -1  16 1136.16 146.318  18
   3  -1  17 6805.56 270.520  20
   3   0 -19 333.219 112.461  44
   3   0 -18 1623.74 190.101  48
   3   0 -18 1723.11 176.895  82
   3   0 -18 1509.56 201.771  44
   3   0 -17 1821.85 235.128  48
   3   0 -17 2043.86 221.100  82
   3   0 -17 1504.76 186.022  81
   3   0 -16 8812.84 449.873  48
   3   0 -16 8648.53 439.323  82
   3   0 -16 8680.18 439.838  74
   3   0 -16 7392.38 395.699  98
   3   0 -15 712.617 265.250  48
   3   0 -15 928.872 249.123  82
   3   0 -15 1044.57 249.137  74
   3   0 -14 31278.1 1090.66  48
   3   0 -14 28965.7 1072.57  76
   3   0 -14 28446.3 1075.01  74
   3   0 -14 28879.4 1498.68  53
   3   0 -14 25723.2 1495.82  52
   3   0 -14 27045.2 1480.08  51
   3   0 -14 25138.0 1446.71  89
   3   0 -13 40391.7 1373.40  48
   3   0 -13 37754.6 1358.36  76
   3   0 -13 38175.7 1370.60  74
   3   0 -13 39808.1 1864.33  53
   3   0 -13 35857.8 1824.61  52
   3   0 -13 37785.7 1843.72  51
   3   0 -13 36464.9 1803.97  89
   3   0 -12 19678.4 785.609  48
   3   0 -12 19118.5 778.922  76
   3   0 -12 18648.1 790.337  74
   3   0 -12 19365.5 1210.36  53
   3   0 -12 19083.1 1192.55  52
   3   0 -12 20752.1 1230.37  51
   3   0 -12 18162.0 1176.71  89
   3   0 -11 19228.0 754.172  48
   3   0 -11 18053.6 749.017  76
   3   0 -11 18034.0 1120.90  52
   3   0 -11 20560.4 1211.27  51
   3   0 -11 17049.8 1119.35  89
   3   0 -10 19924.9 776.851  48
   3   0 -10 20123.3 798.423  76
   3   0 -10 20813.5 1162.08  52
   3   0 -10 21529.5 1248.85  51
   3   0 -10 20714.8 1204.77  89
   3   0  -9 1821.02 401.387  52
   3   0  -9 2090.46 483.082  51
   3   0  -9 1380.62 430.906  89
   3   0  -8 47662.6 1908.04  64
   3   0  -8 52354.3 2003.33  52
   3   0  -8 49613.8 2055.14  89
   3   0  -7 118484. 4064.56  85
   3   0  -7 120391. 4067.65  64
   3   0  -7 128528. 4158.12  52
   3   0  -7 123697. 4245.38  89
   3   0  -6 20223.5 1007.26  85
   3   0  -6 23332.9 972.814  64
   3   0  -6 21883.8 1009.43  52
   3   0  -6 22016.1 1139.26  89
   3   0  -5 84018.6 3010.20  85
   3   0  -5 85794.7 2877.50  64
   3   0  -5 91048.7 2963.50  52
   3   0  -5 84595.6 3114.08  89
   3   0  -4 14633.3 840.930  85
   3   0  -4 14482.8 737.250  77
   3   0  -4 17093.6 716.328  64
   3   0  -4 18269.8 791.082  52
   3   0  -3 238934. 7917.52  85
   3   0  -3 220708. 7801.50  77
   3   0  -3 251846. 7658.34  64
   3   0  -3 271640. 7745.63  52
   3   0  -3 250339. 7882.92  51
   3   0  -2 58624.8 1859.38  64
   3   0  -2 57670.3 2055.80  51
   3   0  -1 14486.6 832.924  77
   3   0  -1 14569.6 557.463  64
   3   0  -1 13569.5 736.266  53
   3   0  -1 14207.1 698.197  51
   3   0   0 49281.9 1776.41  53
   3   0   0 49247.1 1715.62  51
   3   0   1 28030.8 1072.49  53
   3   0   2 12675.1 680.308  84
   3   0   3 24634.1 1117.75  84
   3   0   4 2761.03 403.463  84
   3   0   4 1987.38 388.372  87
   3   0   5 28.6846 314.317  84
   3   0   5-70.2123 307.745  87
   3   0   6 16685.2 1070.21  84
   3   0   6 18999.5 796.327  90
   3   0   6 18883.2 1202.46  87
   3   0   7-38.7325 379.626  84
   3   0   7 189.556 248.119  90
   3   0   7 104.416 446.818  87
   3   0   8 605.897 439.901  84
   3   0   8 388.947 234.604  79
   3   0   8 318.358 281.904  90
   3   0   8-56.8183 449.076  87
   3   0   9 17093.8 1237.05  84
   3   0   9 19379.7 806.159  79
   3   0   9 19171.1 880.373  90
   3   0   9 18678.0 1364.11  87
   3   0  10 32321.6 1763.49   1
   3   0  10 33620.9 1316.56  70
   3   0  10 33800.2 1332.68  90
   3   0  10 36094.5 1988.41  87
   3   0  11 82718.7 3401.30   1
   3   0  11 89796.9 2874.60  70
   3   0  11 80653.3 2714.73  18
   3   0  11 89001.4 2880.92  90
   3   0  11 86442.2 3628.54  87
   3   0  12 215.698 265.139  70
   3   0  12 206.749 187.178  18
   3   0  12 161.817 245.593  90
   3   0  13 4925.99 397.778  70
   3   0  13 4232.12 320.367  20
   3   0  13 4682.38 296.441  18
   3   0  13 4546.67 378.283  90
   3   0  14 7095.01 423.613  70
   3   0  14 6331.48 358.299  20
   3   0  14 6801.91 322.288  18
   3   0  14 5848.82 385.830  96
   3   0  15 2283.69 216.980  78
   3   0  15 2566.31 250.593  70
   3   0  15 2458.17 210.992  20
   3   0  16 2094.08 144.993  20
   3   1 -18 3711.72 211.098  48
   3   1 -17 6152.87 321.555  48
   3   1 -17 5723.21 324.564  82
   3   1 -17 5791.65 310.942  81
   3   1 -16 2398.63 254.765  48
   3   1 -16 2080.44 250.569  82
   3   1 -16 2011.01 216.145  98
   3   1 -15 5052.92 352.157  48
   3   1 -15 5621.46 360.441  74
   3   1 -14 7121.38 414.148  48
   3   1 -14 6670.38 409.205  74
   3   1 -14 7025.04 715.523  53
   3   1 -14 6497.13 693.156  51
   3   1 -14 6106.37 662.871  89
   3   1 -13 44349.5 1498.99  48
   3   1 -13 43208.9 1487.74  76
   3   1 -13 44057.6 1518.82  74
   3   1 -13 39789.8 1953.39  52
   3   1 -13 46684.3 2045.87  51
   3   1 -13 40501.3 1901.60  89
   3   1 -12 3370.66 309.415  48
   3   1 -12 3556.49 294.247  76
   3   1 -12 3277.72 314.758  74
   3   1 -12 3181.37 538.282  52
   3   1 -12 3353.73 571.883  51
   3   1 -12 2845.02 517.497  89
   3   1 -11 45125.5 1548.25  76
   3   1 -11 46225.6 1575.28  74
   3   1 -11 47937.5 2055.48  52
   3   1 -11 46822.2 2096.52  51
   3   1 -11 45941.7 1987.16  89
   3   1 -10 41850.6 1407.66  76
   3   1 -10 42989.3 1874.07  52
   3   1 -10 38975.7 1792.20  89
   3   1  -9 9686.64 453.814  76
   3   1  -9 11344.5 798.262  52
   3   1  -9 10188.2 757.817  89
   3   1  -8 10118.1 695.954  64
   3   1  -8 11814.7 794.355  52
   3   1  -8 9408.26 732.751  89
   3   1  -7 44850.7 1792.36  64
   3   1  -7 46590.5 1880.46  52
   3   1  -7 42316.8 1795.09  89
   3   1  -6 99599.2 3460.96  64
   3   1  -6 106854. 3548.29  52
   3   1  -6 96590.2 3486.37  89
   3   1  -5 2038.95 316.327  64
   3   1  -5 1785.55 327.982  52
   3   1  -5 1565.89 356.560  89
   3   1  -4 68445.6 2411.11  64
   3   1  -4 70738.9 2463.62  52
   3   1  -4 63399.2 2443.93  89
   3   1  -3 95686.4 3158.29  64
   3   1  -3 103869. 3216.91  52
   3   1  -2 135427. 4312.70  64
   3   1  -2 146466. 4342.70  52
   3   1  -1 19584.2 927.561  64
   3   1   0 30188.0 1286.19  84
   3   1   0 29683.1 1275.33  64
   3   1   1 64933.0 2303.61  84
   3   1   1 59355.8 2280.11  64
   3   1   2 18757.1 969.761  84
   3   1   3 36492.7 1589.60  84
   3   1   4 6876.80 651.759  84
   3   1   5 1658.35 456.728   1
   3   1   5 1569.27 439.608  84
   3   1   6 10672.4 888.277  84
   3   1   6 11987.4 965.654   1
   3   1   7 24578.6 1471.48  84
   3   1   7 28336.4 1042.37  79
   3   1   7 27742.4 1576.38   1
   3   1   8 5399.14 721.584  84
   3   1   8 6236.37 415.340  79
   3   1   8 4817.43 731.281   1
   3   1   8 6902.31 476.677  90
   3   1   9 23651.5 1442.82   1
   3   1   9 20806.7 872.292  79
   3   1   9 21352.3 941.531  90
   3   1  10 8892.32 503.184  79
   3   1  10 8740.27 902.169   1
   3   1  10 8411.64 545.144  90
   3   1  11 2191.70 299.889  79
   3   1  11 2119.34 325.680  70
   3   1  11 2280.43 258.658  20
   3   1  11 1958.38 314.868  90
   3   1  12 11663.1 585.650  70
   3   1  12 10516.1 490.100  20
   3   1  12 10391.2 569.968  90
   3   1  13 2373.70 280.014  70
   3   1  13 2533.07 224.952  20
   3   1  13 2000.91 262.358  90
   3   1  14 4447.43 302.985  70
   3   1  15 3408.39 212.600  17
   3   2 -17 7772.45 338.379  48
   3   2 -17 8502.41 364.730  82
   3   2 -17 8207.43 363.326  81
   3   2 -16 17941.2 657.412  48
   3   2 -16 18165.6 682.096  82
   3   2 -16 18689.5 686.475  81
   3   2 -15 11053.9 478.050  48
   3   2 -15 10866.6 497.859  82
   3   2 -15 10190.6 496.489  98
   3   2 -14 25897.5 951.616  48
   3   2 -14 26711.4 981.085  82
   3   2 -14 26412.8 975.883  74
   3   2 -14 26468.8 994.173  98
   3   2 -13 7720.07 435.544  82
   3   2 -13 8403.25 437.660  74
   3   2 -13 7057.28 716.951  51
   3   2 -12 12817.9 595.886  82
   3   2 -12 13045.9 592.530  74
   3   2 -12 12525.9 922.386  52
   3   2 -11 29246.5 1078.05  74
   3   2 -11 29689.7 1495.68  52
   3   2 -10 51821.8 1745.43  74
   3   2 -10 52852.4 2236.67  52
   3   2  -9 16254.0 674.112  74
   3   2  -9 17739.3 1088.69  52
   3   2  -8 16509.8 1036.21  52
   3   2  -7 5512.95 564.892  64
   3   2  -7 7228.82 668.957  52
   3   2  -6 12361.6 807.742  64
   3   2  -6 11781.5 823.003  52
   3   2  -5 2486.99 389.275  64
   3   2  -5 2707.31 447.409  52
   3   2  -4 28728.0 1379.33  64
   3   2  -4 29179.5 1330.57  63
   3   2  -4 33049.5 1458.31  52
   3   2  -3 25988.1 1261.65  64
   3   2  -3 25089.0 1208.40  63
   3   2  -2 13801.8 838.116  64
   3   2  -2 12648.8 804.360  63
   3   2  -1 18753.5 1043.65  64
   3   2   0 5657.88 553.980  64
   3   2   1 2321.02 395.339  86
   3   2   1 2815.04 452.503  84
   3   2   2 64614.8 2603.83  84
   3   2   2 71731.8 2725.00   1
   3   2   3 31764.0 1566.42  84
   3   2   3 35889.9 1713.60   1
   3   2   4 18453.3 1136.56  84
   3   2   4 21695.7 1301.70   1
   3   2   5 11117.7 898.141  84
   3   2   5 9452.85 482.006  95
   3   2   6 29768.4 1631.18  84
   3   2   6 31247.2 1145.53  95
   3   2   7 2500.52 557.483  84
   3   2   7 2627.69 603.043   1
   3   2   7 3183.25 294.349  95
   3   2   8 5449.29 389.453  79
   3   2   8 5847.77 791.439   1
   3   2   9 5159.59 380.148  79
   3   2   9 5665.08 781.916   1
   3   2   9 4415.27 387.595  90
   3   2  10 17648.8 717.018  79
   3   2  10 15891.1 751.607  90
   3   2  11 2766.71 267.683  79
   3   2  11 2329.62 283.960  90
   3   2  12 2339.80 253.214  70
   3   2  13 9058.04 397.485  17
   3   3 -16 4215.67 214.203  48
   3   3 -15 1317.40 165.685  48
   3   3 -15 880.121 167.132  82
   3   3 -15 1198.07 191.836  81
   3   3 -14 4838.59 286.598  48
   3   3 -14 5031.17 307.642  82
   3   3 -14 5188.51 330.300  81
   3   3 -14 5098.01 331.374  98
   3   3 -13 17672.3 695.410  82
   3   3 -13 17207.9 730.035  98
   3   3 -12 328.550 200.080  82
   3   3 -12 604.130 229.003  98
   3   3 -11 3425.46 288.318  82
   3   3 -11 2993.87 492.815  52
   3   3 -10 19719.8 772.535  82
   3   3 -10 18661.9 1156.18  52
   3   3  -9 5774.62 359.547  82
   3   3  -9 5374.60 635.799  52
   3   3  -8 88606.0 3375.74  52
   3   3  -7 2379.79 495.673  52
   3   3  -6 49986.9 2167.18  52
   3   3  -5 22901.5 1280.73  52
   3   3  -4 42824.6 1931.74  63
   3   3  -4 48733.0 2052.00  52
   3   3  -3 21840.8 1198.93  63
   3   3  -2 46226.7 2029.84  63
   3   3   0 1755.17 420.233  86
   3   3   1 151.155 384.025  84
   3   3   2 1979.38 477.453  84
   3   3   3 27143.0 1446.82  84
   3   3   4 13897.2 989.496  84
   3   3   5 6090.36 732.510  84
   3   3   5 8077.31 429.508  95
   3   3   6 25660.6 964.910  95
   3   3   8 4967.79 341.873  79
   3   3   9 15739.9 649.481  79
   3   3   9 16302.3 697.712  90
   3   3  10 21987.9 785.992  79
   3   3  10 20059.9 820.013  90
   3   3  11 1501.53 199.947  70
   3   4 -14 4917.78 274.897  81
   3   4 -13 1303.33 199.206  81
   3   4 -13 1452.92 200.681  98
   3   4 -12 805.650 197.981  81
   3   4 -12 847.979 205.034  98
   3   4 -11 21638.8 831.165  81
   3   4 -11 21521.7 847.942  98
   3   4 -10 289.157 207.580  81
   3   4 -10 178.332 206.064  98
   3   4  -9 46050.2 1608.94  98
   3   4  -8 6694.80 679.702  52
   3   4  -7 3969.99 548.999  52
   3   4  -6 23557.6 1313.22  52
   3   4  -5 34232.8 1679.94  52
   3   4  -4 46291.1 2084.63  52
   3   4  -2 18536.6 1120.42  94
   3   4  -1 5756.99 641.807  86
   3   4   0 16228.4 1086.57  84
   3   4   1 14445.2 1018.25  84
   3   4   4 11047.7 505.415  95
   3   4   5 5947.22 351.287  95
   3   4   7 10305.2 461.757  79
   3   4   8 243.482 158.431  79
   3   5 -11 1836.56 199.415  67
   3   5 -10 3622.35 279.418  67
   3   5  -9 7055.60 391.750  67
   3   5  -8 5494.86 331.090  67
   4  -9   1 2841.59 148.458  58
   4  -8  -7 4944.81 212.294  19
   4  -8  -7 5392.01 232.637  14
   4  -8  -6 5789.89 263.061  19
   4  -8  -6 5694.37 272.917  14
   4  -8  -5 9125.51 387.864  19
   4  -8  -5 8801.43 386.364  14
   4  -8  -4 6658.73 326.180  19
   4  -8  -3 1298.66 180.684  19
   4  -8  -2 4914.89 291.706  19
   4  -8  -1 12262.6 516.355  19
   4  -8   0 5379.26 307.732  19
   4  -8   1 2717.16 239.486  12
   4  -8   1 2561.41 223.623  19
   4  -8   2 3425.30 245.742  12
   4  -8   2 3350.89 239.905  19
   4  -8   2 3725.42 244.013  31
   4  -8   3 4794.60 268.941  12
   4  -8   3 4517.33 252.613  46
   4  -8   4 5479.87 261.224  12
   4  -8   4 4958.71 263.991  46
   4  -8   4 5340.31 256.722  31
   4  -8   5 17860.0 622.978  12
   4  -8   5 18244.3 618.566  31
   4  -8   5 19700.0 686.310  58
   4  -8   6 29646.1 975.586  58
   4  -8   6 28125.9 965.482  15
   4  -8   7 19209.1 653.895  58
   4  -8   7 17645.7 638.151  15
   4  -8   8 1953.69 155.160  58
   4  -8   8 2057.30 147.464  15
   4  -8   9 1695.96 111.512  11
   4  -7 -11 3493.46 170.780  14
   4  -7 -10 2080.81 163.364  47
   4  -7 -10 1870.63 172.932  14
   4  -7 -10 1814.76 159.480  13
   4  -7  -9 313.002 147.974  47
   4  -7  -9 99.8240 160.315  14
   4  -7  -9 217.802 152.389  13
   4  -7  -8 756.566 186.255  47
   4  -7  -8 717.164 170.948  97
   4  -7  -8 459.203 197.296  14
   4  -7  -8 614.218 190.043  13
   4  -7  -7 2841.77 287.018  47
   4  -7  -7 2789.36 219.103  45
   4  -7  -7 2909.77 260.876  97
   4  -7  -7 2622.76 255.829  13
   4  -7  -6 3751.11 322.382  47
   4  -7  -6 3631.62 269.986  45
   4  -7  -6 3381.81 287.047  13
   4  -7  -5 12143.4 556.468  45
   4  -7  -5 12322.5 546.335  13
   4  -7  -4 2202.57 267.548  45
   4  -7  -4 2378.61 300.737  14
   4  -7  -3 46281.2 1646.46  47
   4  -7  -3 49211.2 1653.73  45
   4  -7  -3 48340.5 1662.34  14
   4  -7  -2 8465.16 455.595  47
   4  -7  -2 8080.16 449.797  45
   4  -7  -2 7163.22 406.371  96
   4  -7  -2 7849.43 455.225  14
   4  -7  -1 353.572 218.709  45
   4  -7  -1 498.906 172.378  75
   4  -7  -1 322.693 258.313  19
   4  -7  -1 535.539 211.341  96
   4  -7  -1 444.233 224.684  14
   4  -7   0 5033.83 362.147  45
   4  -7   0 5430.48 403.427  19
   4  -7   0 4770.90 357.747  96
   4  -7   0 5271.98 355.828  14
   4  -7   1 7042.83 409.141  46
   4  -7   1 6883.91 417.611  45
   4  -7   1 7656.43 456.178  19
   4  -7   1 6048.66 414.688  96
   4  -7   1 7199.23 394.206  14
   4  -7   2 13718.7 607.406  46
   4  -7   2 13111.6 596.210  45
   4  -7   2 14422.3 633.914  19
   4  -7   2 12348.6 626.643  96
   4  -7   3-110.925 198.779  12
   4  -7   3-9.45239 197.610  46
   4  -7   3 185.429 214.148  19
   4  -7   3-25.1308 211.519  96
   4  -7   4 1120.83 195.612  12
   4  -7   4 1271.80 237.129  46
   4  -7   4 1241.38 233.432  19
   4  -7   4 1161.55 195.477  31
   4  -7   4 1113.81 247.838  96
   4  -7   5 16911.9 646.462  12
   4  -7   5 17798.5 708.278  46
   4  -7   5 17502.0 641.696  31
   4  -7   6 20704.7 737.051  12
   4  -7   6 22952.9 826.278  46
   4  -7   7 7636.78 399.094  46
   4  -7   7 7979.87 392.959  58
   4  -7   7 6811.30 431.803  96
   4  -7   8 12741.6 540.197  46
   4  -7   8 13408.7 543.281  58
   4  -7   8 13761.5 549.582  15
   4  -7   8 12967.3 590.288  96
   4  -7   8 12824.5 505.064  49
   4  -7   9 26448.4 903.423  58
   4  -7   9 26559.4 910.213  15
   4  -7   9 25625.4 878.019  49
   4  -7  10 13011.9 496.807  58
   4  -7  10 13428.9 501.212  15
   4  -7  11 2145.47 148.962  11
   4  -7  11 2160.60 154.772  58
   4  -7  11 1881.47 165.413  15
   4  -6 -13 9180.76 341.692  14
   4  -6 -13 8589.93 333.634  13
   4  -6 -12 432.963 145.967  47
   4  -6 -12 377.349 117.723  33
   4  -6 -12 472.267 162.975  14
   4  -6 -12 424.357 158.630  13
   4  -6 -11 6741.15 358.774  47
   4  -6 -11 7302.97 363.949  33
   4  -6 -11 6077.75 332.774  97
   4  -6 -11 7413.09 379.765  14
   4  -6 -11 7004.49 374.028  13
   4  -6 -10 4124.33 318.931  47
   4  -6 -10 4210.75 314.589  33
   4  -6 -10 3422.44 275.643  97
   4  -6 -10 4403.94 341.155  14
   4  -6 -10 4022.79 319.327  13
   4  -6  -9 14596.6 666.190  47
   4  -6  -9 16518.3 704.151  33
   4  -6  -9 14363.4 641.872  97
   4  -6  -9 14504.8 670.398  13
   4  -6  -8 12685.9 646.572  47
   4  -6  -8 14481.0 673.164  33
   4  -6  -8 13117.0 635.763  13
   4  -6  -7 7241.86 489.833  47
   4  -6  -7 8140.68 510.107  33
   4  -6  -7 7334.24 468.201  13
   4  -6  -6 42615.3 1529.05  33
   4  -6  -6 41379.0 1509.99  14
   4  -6  -6 39974.1 1465.73  13
   4  -6  -5 52929.7 2457.59  85
   4  -6  -5 53435.4 1974.60  75
   4  -6  -5 64031.2 2068.62  33
   4  -6  -5 57199.7 2561.07  53
   4  -6  -5 62812.6 2053.19  14
   4  -6  -5 59388.2 1999.63  13
   4  -6  -4 2689.35 539.965  85
   4  -6  -4 2861.97 354.142  47
   4  -6  -4 2592.90 300.387  75
   4  -6  -4 2744.37 340.084  33
   4  -6  -4 2749.93 572.974  53
   4  -6  -4 3129.32 359.137  14
   4  -6  -4 1930.51 543.354  51
   4  -6  -4 2939.40 309.915  13
   4  -6  -3 11199.1 943.418  85
   4  -6  -3 11947.0 611.720  47
   4  -6  -3 11993.7 586.707  75
   4  -6  -3 11816.0 615.349  33
   4  -6  -3 12025.6 991.513  53
   4  -6  -3 10423.0 541.001  96
   4  -6  -3 13146.1 631.839  14
   4  -6  -3 12412.8 1013.17  51
   4  -6  -3 12321.7 571.035  13
   4  -6  -2 945.731 436.423  85
   4  -6  -2 1033.01 276.446  47
   4  -6  -2 705.131 271.690  45
   4  -6  -2 776.692 239.412  75
   4  -6  -2 608.877 217.331  96
   4  -6  -2 605.223 267.571  14
   4  -6  -2 906.593 476.885  51
   4  -6  -2 792.066 221.835  13
   4  -6  -1 24613.0 1430.91  85
   4  -6  -1 25511.5 1003.56  47
   4  -6  -1 26385.0 1032.42  45
   4  -6  -1 24314.9 1517.98  77
   4  -6  -1 25612.9 995.009  75
   4  -6  -1 25277.1 1018.91  73
   4  -6  -1 24712.4 1001.72  96
   4  -6  -1 25523.1 1006.92  14
   4  -6  -1 23732.3 1436.06  51
   4  -6   0 11281.2 932.997  85
   4  -6   0 13047.7 608.160  47
   4  -6   0 12482.8 632.176  45
   4  -6   0 11541.8 1035.41  77
   4  -6   0 12953.4 610.060  75
   4  -6   0 12547.9 634.290  73
   4  -6   0 12920.7 1012.63  53
   4  -6   0 12467.5 625.509  96
   4  -6   0 12235.8 601.677  14
   4  -6   0 12974.2 981.915  51
   4  -6   1 30157.1 1132.79  47
   4  -6   1 29462.2 1728.12  77
   4  -6   1 32287.6 1170.02  75
   4  -6   1 33119.9 1203.29  73
   4  -6   1 29073.6 1189.67  72
   4  -6   1 30543.9 1621.41  53
   4  -6   1 31336.0 1203.44  96
   4  -6   1 30948.2 1143.75  14
   4  -6   2 6349.45 412.556  75
   4  -6   2 6242.92 434.817  73
   4  -6   2 6426.17 446.972  72
   4  -6   2 5732.16 680.607  53
   4  -6   2 5929.71 445.731  96
   4  -6   2 6182.84 376.959  14
   4  -6   3 15470.4 695.270  45
   4  -6   3 16101.4 724.067  73
   4  -6   3 15334.0 728.504  72
   4  -6   3 16722.0 719.085  19
   4  -6   3 15157.1 1028.90  53
   4  -6   3 15186.0 747.475  96
   4  -6   4 59395.3 1913.89  12
   4  -6   4 61522.0 1998.72  46
   4  -6   4 53725.3 1940.51  45
   4  -6   4 56644.5 1982.61  73
   4  -6   4 58528.0 2010.61  72
   4  -6   4 57662.9 1960.82  19
   4  -6   4 57497.9 2038.06  96
   4  -6   5 6103.44 333.242  12
   4  -6   5 6631.65 433.278  46
   4  -6   5 6279.95 418.320  73
   4  -6   5 6043.88 444.252  72
   4  -6   5 6620.26 463.630  71
   4  -6   5 6335.19 391.674  19
   4  -6   5 5634.25 679.214  62
   4  -6   5 6111.27 468.390  96
   4  -6   6 17494.2 752.630  46
   4  -6   6 17255.6 752.430  73
   4  -6   6 17503.5 780.134  72
   4  -6   6 17403.5 795.468  71
   4  -6   7 2217.67 284.417  46
   4  -6   7 1859.51 264.193  72
   4  -6   7 2425.93 308.070  71
   4  -6   7 2001.01 259.101  58
   4  -6   7 2385.15 343.711  96
   4  -6   8 14957.9 676.423  46
   4  -6   8 14485.1 662.795  72
   4  -6   8 15627.6 708.447  71
   4  -6   8 16958.4 650.793  58
   4  -6   8 16840.6 760.216  96
   4  -6   9 9187.01 425.627  58
   4  -6   9 7850.30 487.447  96
   4  -6  10 11507.6 468.057  18
   4  -6  10 11740.8 478.002  58
   4  -6  10 10828.4 493.035  15
   4  -6  10 10784.8 543.320  96
   4  -6  10 11530.6 499.357  49
   4  -6  11 1929.82 182.170  11
   4  -6  11 2119.07 185.570  18
   4  -6  11 2029.27 194.784  58
   4  -6  11 1855.05 208.454  15
   4  -6  11 2023.69 216.935  49
   4  -6  12 3411.07 202.703  11
   4  -6  12 3549.03 211.965  58
   4  -6  12 3053.03 222.212  15
   4  -6  12 3613.94 232.268  49
   4  -6  13 467.918 119.935  15
   4  -6  13 253.337 113.371  49
   4  -5 -15 5522.73 247.078  14
   4  -5 -15 6200.00 249.262  13
   4  -5 -14 4529.11 252.036  47
   4  -5 -14 4629.71 273.579  14
   4  -5 -14 4485.91 266.902  13
   4  -5 -13 1910.20 224.804  47
   4  -5 -13 1854.42 177.713  33
   4  -5 -13 1810.71 243.771  14
   4  -5 -12 547.342 224.983  47
   4  -5 -12 551.956 159.052  76
   4  -5 -12 476.669 188.688  33
   4  -5 -12 533.471 168.492  97
   4  -5 -11 447.122 253.149  47
   4  -5 -11 531.337 173.991  76
   4  -5 -11 492.979 231.182  33
   4  -5 -11 284.350 198.361  97
   4  -5 -11 257.922 141.706  50
   4  -5 -10 4600.82 393.101  47
   4  -5 -10 4435.49 296.978  76
   4  -5 -10 5358.95 416.130  33
   4  -5 -10 4018.24 296.633  50
   4  -5  -9 25769.3 1048.50  47
   4  -5  -9 24188.1 933.006  76
   4  -5  -9 26298.9 1079.41  14
   4  -5  -9 24214.7 961.576  50
   4  -5  -8 13047.1 1064.82  85
   4  -5  -8 16689.4 780.234  33
   4  -5  -8 14421.7 1100.07  53
   4  -5  -8 17155.2 1221.55  51
   4  -5  -8 16831.5 794.224  14
   4  -5  -8 15475.6 694.871  50
   4  -5  -7 8082.99 878.692  85
   4  -5  -7 8775.61 512.483  75
   4  -5  -7 9751.08 579.077  33
   4  -5  -7 8676.33 897.366  53
   4  -5  -7 10822.3 988.615  51
   4  -5  -7 10446.4 599.227  14
   4  -5  -7 10142.0 535.507  50
   4  -5  -6 17168.9 1245.81  85
   4  -5  -6 19084.2 857.106  47
   4  -5  -6 15633.6 1181.21  77
   4  -5  -6 18006.8 815.115  75
   4  -5  -6 20974.5 880.198  33
   4  -5  -6 18468.6 1284.07  53
   4  -5  -6 19159.1 863.264  14
   4  -5  -6 19810.6 825.765  50
   4  -5  -5 8510.46 885.340  85
   4  -5  -5 9482.46 562.786  47
   4  -5  -5 6968.54 823.823  77
   4  -5  -5 8853.92 526.680  75
   4  -5  -5 9748.86 560.399  33
   4  -5  -5 8770.05 891.089  53
   4  -5  -5 10282.3 572.554  14
   4  -5  -5 8789.48 513.058  50
   4  -5  -5 9027.86 788.963  89
   4  -5  -5 9930.94 532.487  13
   4  -5  -4 31093.4 1762.34  85
   4  -5  -4 34389.7 1299.71  47
   4  -5  -4 31734.2 1808.68  77
   4  -5  -4 33064.0 1285.98  75
   4  -5  -4 35091.5 1301.09  33
   4  -5  -4 33035.4 1810.17  53
   4  -5  -4 36989.7 1321.90  14
   4  -5  -4 33220.5 1821.11  51
   4  -5  -4 34240.5 1283.96  50
   4  -5  -4 33872.9 1657.31  89
   4  -5  -4 34922.5 1259.30  13
   4  -5  -3 11740.0 985.184  85
   4  -5  -3 11039.8 585.335  47
   4  -5  -3 10888.3 979.554  77
   4  -5  -3 11818.8 596.381  75
   4  -5  -3 10499.2 581.308  73
   4  -5  -3 11283.3 572.715  33
   4  -5  -3 9385.21 503.369  96
   4  -5  -3 11312.5 589.929  14
   4  -5  -3 10008.6 936.619  51
   4  -5  -3 10404.4 567.313  50
   4  -5  -3 12038.1 904.390  89
   4  -5  -2-96.9921 428.441  85
   4  -5  -2 261.599 247.582  47
   4  -5  -2 230.966 267.901  75
   4  -5  -2 118.432 245.147  73
   4  -5  -2-65.7421 209.704  96
   4  -5  -2 94.5003 442.377  53
   4  -5  -2 277.211 429.590  51
   4  -5  -2 107.011 245.500  14
   4  -5  -1 4407.02 680.825  85
   4  -5  -1 4684.35 370.846  47
   4  -5  -1 5085.28 738.711  77
   4  -5  -1 4259.96 393.668  73
   4  -5  -1 4426.16 354.595  96
   4  -5  -1 4454.90 660.654  53
   4  -5  -1 4702.46 368.931  14
   4  -5  -1 4512.44 642.943  51
   4  -5   0 489.097 464.183  85
   4  -5   0 189.207 216.206  47
   4  -5   0 544.610 442.625  77
   4  -5   0 79.8163 253.825  73
   4  -5   0 149.065 245.890  72
   4  -5   0 269.697 238.814  71
   4  -5   0 336.376 243.152  96
   4  -5   0 222.340 404.809  53
   4  -5   0 185.330 208.754  14
   4  -5   0 83.9485 384.873  51
   4  -5   0 267.963 213.772  50
   4  -5   1 34932.0 1831.57  85
   4  -5   1 34045.6 1252.67  47
   4  -5   1 38647.4 1324.85  45
   4  -5   1 33294.3 1877.95  77
   4  -5   1 35125.2 1332.80  73
   4  -5   1 34161.2 1332.56  72
   4  -5   1 35111.8 1336.07  71
   4  -5   1 34169.9 1312.75  96
   4  -5   1 34483.7 1755.12  53
   4  -5   1 35769.5 1251.34  14
   4  -5   1 34517.5 1698.34  51
   4  -5   2 45405.3 2148.77  85
   4  -5   2 40904.7 1483.11  47
   4  -5   2 46649.4 1572.56  45
   4  -5   2 42747.9 2200.46  77
   4  -5   2 44989.6 1605.50  73
   4  -5   2 44758.4 1609.18  72
   4  -5   2 49718.4 1598.67  19
   4  -5   2 42157.6 1584.82  96
   4  -5   2 44590.3 2023.73  53
   4  -5   2 41593.5 1482.97  14
   4  -5   3 9455.16 898.739  85
   4  -5   3 8159.76 469.265  45
   4  -5   3 9557.91 944.064  77
   4  -5   3 9212.40 534.557  73
   4  -5   3 8084.48 527.925  72
   4  -5   3 8849.52 484.141  19
   4  -5   3 8286.25 523.545  96
   4  -5   3 7704.33 734.919  53
   4  -5   3 7473.87 392.436  14
   4  -5   4 1046.12 507.060  85
   4  -5   4 894.629 217.444  45
   4  -5   4 1156.48 523.317  77
   4  -5   4 1033.64 289.082  72
   4  -5   4 944.011 281.212  71
   4  -5   4 1166.04 237.999  19
   4  -5   4 1003.18 307.030  96
   4  -5   4 565.635 354.135  53
   4  -5   4 1073.93 539.906  87
   4  -5   5 5700.65 732.237  85
   4  -5   5 4795.40 334.363  45
   4  -5   5 4680.07 726.766  77
   4  -5   5 5615.59 442.077  72
   4  -5   5 4703.91 418.639  71
   4  -5   5 4957.10 340.561  19
   4  -5   5 5215.69 450.879  96
   4  -5   5 5170.04 802.028  87
   4  -5   6 23522.6 1003.61  78
   4  -5   6 23036.8 1511.74  77
   4  -5   6 23880.8 987.210  72
   4  -5   6 22089.8 991.332  71
   4  -5   6 21072.7 1223.87  62
   4  -5   6 24491.9 1619.85  87
   4  -5   7 6201.76 424.430  46
   4  -5   7 6836.96 500.470  78
   4  -5   7 6468.47 470.098  72
   4  -5   7 6860.65 493.806  71
   4  -5   7 6038.19 368.880  58
   4  -5   7 6410.01 438.901  90
   4  -5   7 6293.62 907.260  87
   4  -5   8 12847.4 602.637  46
   4  -5   8 12806.2 649.259  72
   4  -5   8 13153.1 675.337  71
   4  -5   8 12270.8 550.990  58
   4  -5   8 12801.2 693.916  96
   4  -5   8 12403.1 641.378  90
   4  -5   8 13764.3 1237.06  87
   4  -5   9 19142.3 760.924  46
   4  -5   9 17579.3 776.287  72
   4  -5   9 17569.2 800.580  71
   4  -5   9 17178.8 691.988  58
   4  -5   9 17836.1 726.246  15
   4  -5   9 19435.6 849.436  96
   4  -5   9 18298.4 817.447  90
   4  -5  10 7001.33 394.358  46
   4  -5  10 7399.53 474.029  78
   4  -5  10 6553.18 399.895  72
   4  -5  10 7304.50 438.497  71
   4  -5  10 6529.18 351.795  58
   4  -5  10 6741.04 377.679  15
   4  -5  10 6765.99 455.475  96
   4  -5  10 6646.06 443.031  90
   4  -5  11 1456.22 178.475  11
   4  -5  11 1131.64 210.620  71
   4  -5  11 1136.72 189.785  58
   4  -5  11 1502.96 211.837  15
   4  -5  11 1030.04 235.616  96
   4  -5  11 1188.82 248.222  49
   4  -5  12 7776.21 337.433  11
   4  -5  12 8199.16 387.122  18
   4  -5  12 7390.23 344.702  58
   4  -5  12 8126.85 371.174  15
   4  -5  12 7930.04 396.592  49
   4  -5  13 3603.79 195.701  11
   4  -5  13 3538.18 241.932  18
   4  -5  13 3441.46 225.004  15
   4  -5  13 3587.28 254.404  49
   4  -5  14 7742.67 308.536  18
   4  -5  14 7654.10 292.114  15
   4  -5  14 7811.99 322.280  49
   4  -4 -16 3911.28 201.219  47
   4  -4 -16 4583.58 230.801  14
   4  -4 -15 134.671 148.764  47
   4  -4 -15 215.070 178.652  14
   4  -4 -14 2349.18 254.195  47
   4  -4 -14 2591.90 223.707  76
   4  -4 -13 3632.40 324.029  47
   4  -4 -13 3688.04 284.884  76
   4  -4 -12 34799.8 1205.85  76
   4  -4 -12 31408.9 1165.14  97
   4  -4 -12 33168.7 1190.72  50
   4  -4 -11 14274.2 692.750  44
   4  -4 -11 13283.8 605.245  76
   4  -4 -11 15658.9 676.422  33
   4  -4 -11 13071.0 594.000  97
   4  -4 -11 13247.4 598.546  50
   4  -4 -11 11171.5 900.909  89
   4  -4 -10 14288.2 1130.33  85
   4  -4 -10 18465.2 822.195  44
   4  -4 -10 19989.4 831.063  33
   4  -4 -10 16223.5 1151.37  53
   4  -4 -10 15160.2 1169.01  51
   4  -4 -10 17436.6 1124.68  89
   4  -4 -10 17328.7 746.788  50
   4  -4  -9 10002.7 952.431  85
   4  -4  -9 11970.1 645.449  44
   4  -4  -9 12942.3 645.142  33
   4  -4  -9 10525.7 949.204  53
   4  -4  -9 12676.5 1051.14  51
   4  -4  -9 10017.4 882.623  89
   4  -4  -9 11358.3 574.962  50
   4  -4  -8 16272.1 1229.52  85
   4  -4  -8 19685.5 858.997  44
   4  -4  -8 17631.9 821.437  75
   4  -4  -8 21969.7 883.839  33
   4  -4  -8 20091.1 1337.62  53
   4  -4  -8 20253.7 1385.65  51
   4  -4  -8 16829.6 1164.90  89
   4  -4  -8 20184.4 838.861  50
   4  -4  -7 37359.3 1922.64  77
   4  -4  -7 36000.1 1438.40  75
   4  -4  -7 45036.9 1500.50  33
   4  -4  -7 39178.6 2041.44  53
   4  -4  -7 36218.3 1868.57  89
   4  -4  -7 43124.9 1477.94  50
   4  -4  -6 16821.8 1193.08  77
   4  -4  -6 19189.2 805.046  33
   4  -4  -6 18528.1 1275.25  53
   4  -4  -6 17585.0 1246.87  51
   4  -4  -6 18888.8 1213.45  89
   4  -4  -6 18153.7 797.080  50
   4  -4  -5 47920.3 2336.49  85
   4  -4  -5 49965.6 2325.46  77
   4  -4  -5 49240.9 1786.83  73
   4  -4  -5 52646.4 1779.13  33
   4  -4  -5 48876.6 2326.65  53
   4  -4  -5 52347.4 2371.96  51
   4  -4  -5 52424.0 1818.62  14
   4  -4  -5 49841.6 2285.69  89
   4  -4  -5 53031.0 1792.10  50
   4  -4  -4 46881.1 2198.60  85
   4  -4  -4 46744.8 1630.07  47
   4  -4  -4 45355.3 2176.54  77
   4  -4  -4 48480.5 1643.49  75
   4  -4  -4 47502.1 1636.22  73
   4  -4  -4 44080.0 1609.50  72
   4  -4  -4 45681.6 1589.75  33
   4  -4  -4 45397.7 2147.90  51
   4  -4  -4 47688.8 1636.08  14
   4  -4  -4 42398.0 1601.33  50
   4  -4  -3 16131.8 1167.30  85
   4  -4  -3 16570.7 722.248  47
   4  -4  -3 15598.7 1153.21  77
   4  -4  -3 16916.0 743.644  73
   4  -4  -3 16029.5 728.948  72
   4  -4  -3 15749.0 679.137  33
   4  -4  -3 17504.1 1172.16  53
   4  -4  -3 16823.6 722.520  14
   4  -4  -3 18252.4 1175.84  51
   4  -4  -2 5333.95 719.296  85
   4  -4  -2 4880.90 357.762  47
   4  -4  -2 4939.06 685.325  77
   4  -4  -2 4477.21 367.858  72
   4  -4  -2 4856.04 357.485  71
   4  -4  -2 4601.00 317.347  96
   4  -4  -2 4854.51 657.682  53
   4  -4  -2 5444.62 356.588  14
   4  -4  -2 5018.77 635.080  51
   4  -4  -2 5182.64 372.034  50
   4  -4  -1 27944.0 1553.44  85
   4  -4  -1 26004.8 973.981  47
   4  -4  -1 23394.2 1493.68  77
   4  -4  -1 26050.7 1017.52  72
   4  -4  -1 24341.1 994.012  71
   4  -4  -1 25356.4 976.308  96
   4  -4  -1 26545.6 1439.24  53
   4  -4  -1 25652.1 959.315  14
   4  -4  -1 25886.4 1399.12  51
   4  -4  -1 26333.2 979.561  50
   4  -4   0 44703.4 2108.86  85
   4  -4   0 41503.8 1462.96  47
   4  -4   0 41999.9 1526.66  71
   4  -4   0 42284.6 1502.77  96
   4  -4   0 44951.0 1995.86  53
   4  -4   0 44210.4 1925.01  51
   4  -4   0 44257.8 1495.22  50
   4  -4   1 8020.26 844.436  85
   4  -4   1 7818.05 853.336  77
   4  -4   1 8787.74 500.164  71
   4  -4   1 8994.37 485.341  96
   4  -4   1 8551.03 759.624  53
   4  -4   1 8732.29 716.810  51
   4  -4   1 7419.06 427.928  50
   4  -4   2 6357.00 790.729  85
   4  -4   2 6915.52 404.485  45
   4  -4   2 6155.63 405.552  78
   4  -4   2 6010.26 762.587  77
   4  -4   2 5978.50 437.271  71
   4  -4   2 6582.75 391.855  19
   4  -4   2 6027.19 424.052  96
   4  -4   2 5394.68 615.264  53
   4  -4   2 5744.18 574.429  51
   4  -4   2 6445.61 718.506  87
   4  -4   3 472.302 501.336  85
   4  -4   3 296.853 188.513  45
   4  -4   3 202.967 213.163  78
   4  -4   3 501.227 460.765  77
   4  -4   3 18.8175 179.256  19
   4  -4   3 211.982 250.258  96
   4  -4   3 132.376 328.427  53
   4  -4   3 151.137 413.146  87
   4  -4   4 6096.21 819.498  85
   4  -4   4 6129.27 364.389  45
   4  -4   4 6186.44 433.589  78
   4  -4   4 6090.86 803.063  77
   4  -4   4 6579.15 367.847  19
   4  -4   4 6672.38 464.888  96
   4  -4   4 4662.34 528.606  53
   4  -4   4 7463.72 858.132  87
   4  -4   5 19233.1 1351.29  85
   4  -4   5 16461.4 687.633  45
   4  -4   5 18222.5 827.121  78
   4  -4   5 20726.2 1406.05  77
   4  -4   5 16469.4 690.616  19
   4  -4   5 21111.2 865.946  96
   4  -4   5 19448.7 1365.91  87
   4  -4   6 20171.8 1400.72  85
   4  -4   6 19532.4 780.941  46
   4  -4   6 18723.1 851.978  78
   4  -4   6 18773.5 1385.45  77
   4  -4   6 16350.5 678.572  58
   4  -4   6 18451.9 854.404  96
   4  -4   6 16402.8 761.233  90
   4  -4   6 19245.0 1396.69  87
   4  -4   7 15985.1 1271.73  85
   4  -4   7 15137.3 664.858  46
   4  -4   7 15948.0 781.356  78
   4  -4   7 15029.1 1260.02  77
   4  -4   7 13397.2 584.303  58
   4  -4   7 15024.2 705.328  90
   4  -4   8 32591.4 1808.35  85
   4  -4   8 27255.2 1003.26  46
   4  -4   8 27928.1 1142.28  78
   4  -4   8 23803.2 929.302  58
   4  -4   8 27841.9 1091.33  90
   4  -4   8 31495.0 1890.94  87
   4  -4   9 11191.4 528.933  46
   4  -4   9 10022.5 465.988  58
   4  -4   9 11228.6 510.306  15
   4  -4   9 10946.5 652.121  96
   4  -4   9 11451.2 614.242  90
   4  -4   9 12147.2 1227.99  87
   4  -4  10 1159.90 209.573  46
   4  -4  10 1170.98 273.643  71
   4  -4  10 1211.50 196.652  58
   4  -4  10 1377.42 215.736  15
   4  -4  10 1369.15 294.881  96
   4  -4  10 1310.94 286.141  90
   4  -4  11 2066.93 198.175  11
   4  -4  11 2336.68 304.380  78
   4  -4  11 2100.74 284.767  71
   4  -4  11 2043.64 226.603  15
   4  -4  11 2134.08 314.619  96
   4  -4  11 2380.10 301.199  90
   4  -4  12 3423.72 217.567  11
   4  -4  12 2992.79 303.525  78
   4  -4  12 3526.14 288.573  71
   4  -4  12 3771.72 303.343  18
   4  -4  12 3728.67 256.596  15
   4  -4  12 3208.97 310.113  96
   4  -4  13 2371.07 246.478  78
   4  -4  13 2039.28 209.468  71
   4  -4  13 2315.55 245.245  18
   4  -4  13 2323.24 204.437  15
   4  -4  13 2517.05 244.253  49
   4  -4  14 8351.51 369.734  18
   4  -4  14 7666.84 362.801  49
   4  -4  15 7974.23 309.600  18
   4  -4  15 7611.65 298.524  49
   4  -3 -17 7045.93 284.783  47
   4  -3 -16 7726.95 368.781  47
   4  -3 -15 21893.5 840.634  44
   4  -3 -15 21897.3 809.624  76
   4  -3 -14 3744.18 348.531  44
   4  -3 -14 3657.21 296.249  76
   4  -3 -14 3490.87 254.079  74
   4  -3 -13 5890.76 426.689  44
   4  -3 -13 5890.63 380.596  76
   4  -3 -13 5313.45 334.408  74
   4  -3 -13 5588.88 339.160  50
   4  -3 -12 13493.0 661.028  44
   4  -3 -12 13004.0 611.926  76
   4  -3 -12 11725.4 940.252  89
   4  -3 -12 12679.1 589.792  50
   4  -3 -11 15032.5 1101.80  85
   4  -3 -11 18300.4 790.680  44
   4  -3 -11 16912.3 747.639  76
   4  -3 -11 17743.3 1187.56  53
   4  -3 -11 16268.9 1167.69  51
   4  -3 -11 15698.2 1138.72  89
   4  -3 -10 1337.26 481.113  85
   4  -3 -10 1609.09 351.918  44
   4  -3 -10 1992.08 539.963  53
   4  -3 -10 2105.48 551.526  51
   4  -3 -10 1339.61 529.301  89
   4  -3  -9 34398.1 1819.80  85
   4  -3  -9 38964.6 1372.99  44
   4  -3  -9 35011.7 1315.29  75
   4  -3  -9 37886.1 1927.06  53
   4  -3  -9 34685.3 1880.73  51
   4  -3  -9 35678.2 1827.08  89
   4  -3  -8 2217.05 543.265  85
   4  -3  -8 1686.37 315.372  44
   4  -3  -8 1915.58 288.413  75
   4  -3  -8 2218.70 597.719  53
   4  -3  -8 1550.25 532.388  89
   4  -3  -7 20271.8 1307.40  85
   4  -3  -7 20491.7 831.829  44
   4  -3  -7 17359.5 1133.86  77
   4  -3  -7 20497.9 843.790  75
   4  -3  -7 20810.4 1353.57  53
   4  -3  -7 22279.5 1374.51  51
   4  -3  -7 20097.5 1285.70  89
   4  -3  -6 25448.9 1467.42  85
   4  -3  -6 21893.1 1316.73  77
   4  -3  -6 26108.7 977.070  75
   4  -3  -6 23905.9 945.335  73
   4  -3  -6 23250.7 1415.41  51
   4  -3  -6 24140.5 1437.94  89
   4  -3  -5 11353.2 972.192  85
   4  -3  -5 12510.9 925.163  77
   4  -3  -5 12594.9 598.112  75
   4  -3  -5 11360.1 553.653  73
   4  -3  -5 10745.1 527.090  72
   4  -3  -5 11707.7 948.655  51
   4  -3  -4 28681.4 1596.96  85
   4  -3  -4 28744.9 1551.32  77
   4  -3  -4 30188.4 1122.26  73
   4  -3  -4 29928.9 1102.55  72
   4  -3  -4 30690.4 1598.96  53
   4  -3  -4 30206.2 1559.19  51
   4  -3  -3 56650.2 2455.44  77
   4  -3  -3 59240.3 1950.74  73
   4  -3  -3 56993.7 1930.11  72
   4  -3  -3 53753.4 1890.43  71
   4  -3  -3 59882.6 2448.93  53
   4  -3  -3 58923.5 2394.05  51
   4  -3  -3 58815.8 1922.71  50
   4  -3  -2 47277.6 1601.33  47
   4  -3  -2 45589.5 2145.81  77
   4  -3  -2 48063.4 1645.50  72
   4  -3  -2 45540.8 1614.46  71
   4  -3  -2 50799.8 2110.70  53
   4  -3  -2 50071.1 2061.59  51
   4  -3  -2 48188.5 1632.99  50
   4  -3  -1 726.201 497.629  85
   4  -3  -1 1021.62 424.652  77
   4  -3  -1 481.804 210.232  72
   4  -3  -1 678.203 190.616  71
   4  -3  -1 609.020 180.171  96
   4  -3  -1 592.107 370.414  53
   4  -3  -1 347.100 322.951  51
   4  -3  -1 429.236 183.839  50
   4  -3   0 21686.7 1312.44  85
   4  -3   0 16621.8 696.247  78
   4  -3   0 19445.0 1248.69  77
   4  -3   0 18086.4 754.873  71
   4  -3   0 17837.7 723.633  96
   4  -3   0 19480.6 1082.54  53
   4  -3   0 17088.4 993.611  51
   4  -3   0 18699.6 719.946  50
   4  -3   1 1554.44 544.652  85
   4  -3   1 1451.67 213.606  78
   4  -3   1 1890.62 546.144  77
   4  -3   1 1539.66 244.773  96
   4  -3   1 1989.10 431.742  53
   4  -3   1 1073.56 320.009  51
   4  -3   1 1456.89 200.154  50
   4  -3   1 1555.57 381.772  87
   4  -3   2 20695.6 1342.76  85
   4  -3   2 17858.2 742.079  78
   4  -3   2 18454.8 691.239  19
   4  -3   2 18094.0 765.261  96
   4  -3   2 17552.5 992.245  53
   4  -3   2 16371.8 678.289  50
   4  -3   2 18726.0 1101.20  87
   4  -3   3 55522.7 1954.48  78
   4  -3   3 53498.9 2591.18  77
   4  -3   3 59682.5 1983.70  96
   4  -3   3 59330.8 2468.17  87
   4  -3   4 27772.5 1086.94  78
   4  -3   4 29068.9 1739.65  77
   4  -3   4 26582.9 1099.44  96
   4  -3   4 28596.8 1558.02  87
   4  -3   5 2511.22 332.276  78
   4  -3   5 2531.87 666.612  77
   4  -3   5 1797.30 336.782  96
   4  -3   5 2391.96 266.425  90
   4  -3   5 2627.30 579.941  87
   4  -3   6 24987.6 957.217  46
   4  -3   6 24743.9 1068.05  78
   4  -3   6 25725.8 1708.41  77
   4  -3   6 27451.1 1107.83  96
   4  -3   6 24547.1 995.602  90
   4  -3   6 27051.9 1648.71  87
   4  -3   7 6092.89 368.508  46
   4  -3   7 5992.08 487.981  78
   4  -3   7 6594.16 937.093  77
   4  -3   7 5803.43 505.374  96
   4  -3   7 6135.80 441.273  90
   4  -3   7 6212.86 867.310  87
   4  -3   8 21619.1 850.193  46
   4  -3   8 24577.7 1032.99  78
   4  -3   8 25544.6 1704.19  77
   4  -3   8 21383.7 829.963  15
   4  -3   8 23608.4 978.367  90
   4  -3   8 28261.4 1732.92  87
   4  -3   9 9482.67 460.246  46
   4  -3   9 9429.35 445.067  15
   4  -3   9 10237.0 630.988  96
   4  -3   9 10837.8 586.783  90
   4  -3  10 3283.98 538.480   1
   4  -3  10 2281.03 229.195  15
   4  -3  10 2965.69 386.240  96
   4  -3  10 3469.95 360.500  90
   4  -3  11 4998.28 420.737  78
   4  -3  11 4558.04 289.032  15
   4  -3  11 5306.64 436.046  96
   4  -3  11 4906.83 404.078  90
   4  -3  11 5144.34 350.783  49
   4  -3  12 9827.13 551.920  78
   4  -3  12 10359.0 434.906  15
   4  -3  12 10295.4 561.165  96
   4  -3  12 10240.3 542.668  90
   4  -3  12 10165.0 478.688  49
   4  -3  13 3998.59 320.766  78
   4  -3  13 4053.48 320.279  96
   4  -3  13 4154.28 282.374  49
   4  -3  14 18121.2 677.884  18
   4  -3  14 18723.9 663.822  49
   4  -3  15 7778.36 323.863  20
   4  -3  15 7670.05 323.354  18
   4  -2 -17 299.725 159.699  44
   4  -2 -16 8170.07 370.494  82
   4  -2 -16 9701.14 442.428  44
   4  -2 -15 22069.3 814.590  82
   4  -2 -15 24350.2 878.768  44
   4  -2 -15 22443.3 824.597  74
   4  -2 -15 21675.1 808.823  50
   4  -2 -14 7227.20 450.808  44
   4  -2 -14 6911.65 389.873  74
   4  -2 -13 30295.1 1121.06  74
   4  -2 -13 27531.0 1530.49  89
   4  -2 -12 12975.6 637.162  44
   4  -2 -12 11545.2 975.142  53
   4  -2 -12 11381.9 981.912  51
   4  -2 -12 12330.7 988.430  89
   4  -2 -11 363.458 288.486  44
   4  -2 -11 193.793 411.264  53
   4  -2 -11 98.0792 436.596  51
   4  -2 -11-45.4139 450.665  89
   4  -2 -10 949.742 398.137  85
   4  -2 -10 1093.57 298.977  44
   4  -2 -10 939.436 506.160  53
   4  -2 -10 688.854 470.901  51
   4  -2 -10 884.799 497.563  89
   4  -2  -9 5565.93 674.320  85
   4  -2  -9 7384.92 463.020  44
   4  -2  -9 6516.34 385.467  75
   4  -2  -9 6880.55 805.387  53
   4  -2  -9 6021.95 756.552  89
   4  -2  -8 952.496 392.280  85
   4  -2  -8 842.953 252.457  44
   4  -2  -8 865.711 210.347  75
   4  -2  -8 888.849 516.845  53
   4  -2  -8 959.797 471.079  51
   4  -2  -7 11242.0 914.595  85
   4  -2  -7 12157.7 564.742  75
   4  -2  -7 13179.8 1027.28  51
   4  -2  -6 36460.1 1790.84  85
   4  -2  -6 34991.6 1633.23  77
   4  -2  -6 39550.9 1342.70  75
   4  -2  -6 36317.9 1299.79  73
   4  -2  -6 41917.5 1935.64  53
   4  -2  -6 37364.3 1830.14  51
   4  -2  -5 5086.96 648.666  85
   4  -2  -5 5852.81 580.535  77
   4  -2  -5 5420.95 342.185  73
   4  -2  -5 5021.19 306.262  72
   4  -2  -5 5558.70 677.003  53
   4  -2  -5 5870.58 655.896  51
   4  -2  -4 14400.9 1006.06  85
   4  -2  -4 12670.8 890.042  77
   4  -2  -4 13622.1 594.163  73
   4  -2  -4 13020.6 567.782  72
   4  -2  -4 14175.4 978.970  53
   4  -2  -4 14217.8 944.955  51
   4  -2  -3 1955.49 527.987  85
   4  -2  -3 1938.14 437.751  77
   4  -2  -3 1997.94 227.711  72
   4  -2  -3 1863.60 451.857  53
   4  -2  -3 2594.87 454.934  51
   4  -2  -2 6370.27 720.040  85
   4  -2  -2 6838.65 693.804  77
   4  -2  -2 6431.13 352.786  71
   4  -2  -2 7480.66 663.191  53
   4  -2  -2 6794.95 603.689  51
   4  -2  -1 14900.5 1106.15  85
   4  -2  -1 15898.5 1066.94  77
   4  -2  -1 17537.7 999.104  53
   4  -2  -1 17328.3 925.169  51
   4  -2   0 144667. 5095.20  85
   4  -2   0 149962. 5072.52  77
   4  -2   0 132587. 4360.07  96
   4  -2   0 146095. 4766.29  53
   4  -2   0 137764. 4634.28  51
   4  -2   0 142986. 4350.70  50
   4  -2   1 112460. 3662.33  78
   4  -2   1 124524. 4416.35  77
   4  -2   1 120221. 3688.69  96
   4  -2   1 113166. 3965.31  53
   4  -2   1 115929. 3623.72  50
   4  -2   2 27915.7 1044.57  78
   4  -2   2 29110.1 1636.34  77
   4  -2   2 28180.6 1068.27  96
   4  -2   3 32939.8 1815.81  77
   4  -2   3 30215.9 1165.87  96
   4  -2   4 23862.7 993.659  96
   4  -2   5 9165.62 560.335  96
   4  -2   5 8191.13 465.658  90
   4  -2   6 42435.5 2324.72  77
   4  -2   6 39195.4 1461.04  70
   4  -2   6 39049.8 1468.11  90
   4  -2   7 27479.1 1875.35  77
   4  -2   7 26418.6 1066.09  70
   4  -2   7 26378.5 1134.97  96
   4  -2   7 25857.6 1065.20  90
   4  -2   8 1127.82 648.945  77
   4  -2   8 480.949 279.941  70
   4  -2   8 534.316 283.567  90
   4  -2   9 7435.59 510.106  70
   4  -2   9 7644.19 503.390  90
   4  -2  10 7648.23 542.164  96
   4  -2  10 6108.28 689.645   1
   4  -2  10 7943.66 496.980  90
   4  -2  10 6703.98 390.575  49
   4  -2  11 4332.90 416.464  96
   4  -2  11 4136.87 375.787  90
   4  -2  11 3860.72 290.337  49
   4  -2  12 565.060 255.984  78
   4  -2  12 511.132 201.769  18
   4  -2  12 297.949 238.137  96
   4  -2  12 234.112 217.543  90
   4  -2  12 234.696 176.459  49
   4  -2  13 10934.8 530.554  78
   4  -2  13 10797.0 463.684  18
   4  -2  13 9979.01 526.672  96
   4  -2  13 10288.1 431.059  49
   4  -2  14 3404.02 236.081  20
   4  -2  14 3752.02 231.950  18
   4  -2  15 12547.4 455.928  20
   4  -2  15 12407.3 435.829  18
   4  -1 -17 729.267 173.099  44
   4  -1 -16 8409.86 390.938  82
   4  -1 -16 9119.85 429.095  44
   4  -1 -16 8446.98 395.576  74
   4  -1 -15 2131.75 231.516  82
   4  -1 -15 2516.40 286.775  44
   4  -1 -15 1801.28 236.351  76
   4  -1 -15 2165.98 235.309  74
   4  -1 -14 8469.69 474.750  44
   4  -1 -14 7956.08 431.550  76
   4  -1 -14 8818.97 444.963  74
   4  -1 -13 12844.1 583.758  76
   4  -1 -13 12479.5 575.138  74
   4  -1 -13 11630.5 912.240  89
   4  -1 -12 45202.3 1573.07  76
   4  -1 -12 50730.6 2229.37  53
   4  -1 -12 46065.5 2168.96  51
   4  -1 -12 44117.7 2047.13  89
   4  -1 -11 23550.8 916.151  76
   4  -1 -11 23065.8 1431.89  53
   4  -1 -11 22759.8 1363.93  89
   4  -1 -10 39157.9 1965.18  53
   4  -1 -10 34408.7 1763.23  89
   4  -1  -9 48131.5 2163.98  51
   4  -1  -9 38525.2 1928.62  89
   4  -1  -8 15605.0 954.365  85
   4  -1  -8 17755.5 1197.29  51
   4  -1  -8 15216.6 1074.24  89
   4  -1  -7 3514.46 494.278  85
   4  -1  -7 3556.89 259.691  75
   4  -1  -7 3829.74 653.966  53
   4  -1  -7 3880.99 646.393  51
   4  -1  -7 3483.52 602.470  89
   4  -1  -6 14739.3 947.785  85
   4  -1  -6 14399.1 599.999  75
   4  -1  -6 15495.8 1089.38  53
   4  -1  -6 15027.2 1047.05  51
   4  -1  -6 13543.5 1027.73  89
   4  -1  -5 12637.3 877.625  85
   4  -1  -5 11309.7 896.481  53
   4  -1  -5 11596.4 882.456  51
   4  -1  -4 46659.9 1975.22  85
   4  -1  -4 39225.9 1764.77  77
   4  -1  -4 42975.7 1474.22  73
   4  -1  -4 50395.7 2026.38  53
   4  -1  -4 47283.4 1939.07  51
   4  -1  -3 4310.08 586.065  85
   4  -1  -3 4767.43 515.641  77
   4  -1  -3 6178.62 605.793  53
   4  -1  -3 5142.40 540.038  51
   4  -1  -2 103632. 3751.96  85
   4  -1  -2 97170.0 3635.39  77
   4  -1  -2 102740. 3605.83  53
   4  -1  -2 98963.7 3495.60  51
   4  -1  -1 15771.4 1076.84  85
   4  -1  -1 15566.6 1014.54  77
   4  -1  -1 15340.4 887.732  53
   4  -1   0 32372.9 1643.03  77
   4  -1   0 30538.1 1092.85  96
   4  -1   0 31948.1 1347.99  53
   4  -1   1 9143.30 853.348  77
   4  -1   1 8682.03 448.470  96
   4  -1   2 22160.4 1421.48  77
   4  -1   3 22544.7 1488.71  77
   4  -1   4 13928.4 1204.60  77
   4  -1   5 53462.1 2708.68  77
   4  -1   5 52401.8 1820.38  90
   4  -1   6 87070.3 3836.03  77
   4  -1   6 83971.3 2750.55  70
   4  -1   6 81802.3 2762.00  90
   4  -1   7 14616.8 699.077  70
   4  -1   7 14453.8 714.680  90
   4  -1   8 36840.5 2252.96  77
   4  -1   8 35588.8 1365.23  70
   4  -1   8 36693.9 1380.85  90
   4  -1   9 10194.3 570.650  70
   4  -1   9 8553.81 819.946   1
   4  -1   9 10305.3 580.810  90
   4  -1   9 8919.79 431.563  49
   4  -1  10 1472.91 298.572  70
   4  -1  10 1508.80 290.226  90
   4  -1  11 4867.12 390.763  70
   4  -1  11 4244.91 293.839  18
   4  -1  11 3975.41 400.495  96
   4  -1  11 4146.15 368.200  90
   4  -1  12 311.288 225.742  70
   4  -1  12 244.590 160.146  18
   4  -1  12 128.205 221.360  96
   4  -1  12 322.007 212.500  90
   4  -1  13 8874.62 461.327  78
   4  -1  13 8692.83 397.206  20
   4  -1  13 9282.94 379.670  18
   4  -1  14 359.622 129.282  20
   4   0 -17 526.448 152.962  44
   4   0 -16 18495.2 705.618  82
   4   0 -16 20151.1 722.846  44
   4   0 -15 1018.48 202.851  82
   4   0 -14 7195.64 377.551  76
   4   0 -13 1673.05 227.517  76
   4   0 -13 1577.40 245.396  74
   4   0 -12 29689.0 1075.25  76
   4   0 -12 30940.5 1099.61  74
   4   0 -12 31923.5 1676.39  53
   4   0 -11 3938.51 310.538  76
   4   0 -11 4014.02 667.887  53
   4   0 -11 3416.97 619.419  51
   4   0 -11 4195.09 605.507  89
   4   0 -10 14826.0 644.863  76
   4   0 -10 16455.6 1165.53  51
   4   0 -10 16019.7 1044.62  89
   4   0  -9 24842.9 1498.21  53
   4   0  -9 24355.6 1448.90  51
   4   0  -9 20020.6 1215.88  89
   4   0  -8 36722.3 1854.90  53
   4   0  -8 36327.8 1788.33  51
   4   0  -7 60316.6 2564.01  53
   4   0  -7 60373.6 2486.83  51
   4   0  -6 59665.1 2548.19  53
   4   0  -6 63138.6 2526.56  51
   4   0  -5 15012.7 1042.47  53
   4   0  -5 15847.8 1005.02  51
   4   0  -5 12421.2 919.157  89
   4   0  -4 17359.5 1069.08  53
   4   0  -4 18904.4 1052.98  51
   4   0  -3 8488.51 701.503  85
   4   0  -3 10125.0 767.765  53
   4   0  -3 9734.75 691.007  51
   4   0  -2 50236.4 2176.01  85
   4   0  -2 55758.7 2120.47  53
   4   0  -1 18740.3 1088.86  77
   4   0   0 71186.6 2865.42  77
   4   0   1 15653.7 1113.52  77
   4   0   2 786.500 467.360  77
   4   0   3 6968.28 883.589  77
   4   0   4 5661.62 881.998  77
   4   0   4 6202.57 410.507  90
   4   0   5 11970.4 609.938  90
   4   0   6 37512.0 1907.75   1
   4   0   6 38793.7 1435.93  70
   4   0   6 40187.5 1460.03  90
   4   0   7 4719.23 408.264  70
   4   0   7 5323.06 419.249  90
   4   0   7 4403.33 643.331   1
   4   0   8 19857.3 862.708  70
   4   0   8 18571.2 1237.18   1
   4   0   8 19743.0 878.075  90
   4   0   9 13637.1 669.953  70
   4   0   9 13716.8 681.619  90
   4   0  10 260.313 233.360  70
   4   0  10 116.828 219.507  90
   4   0  11 16101.8 678.920  70
   4   0  11 13937.7 663.160  90
   4   0  12 1852.52 235.252  70
   4   0  12 1952.94 186.607  20
   4   0  12 1425.66 237.265  96
   4   1 -17 427.319 113.773  44
   4   1 -16 4346.05 253.251  82
   4   1 -16 4806.89 266.132  44
   4   1 -15 5929.89 321.299  82
   4   1 -15 5783.56 315.183  74
   4   1 -14 14322.1 582.649  82
   4   1 -14 13660.5 574.240  74
   4   1 -13 203.002 181.798  74
   4   1 -12 935.738 224.374  74
   4   1 -11 9776.88 489.415  74
   4   1 -11 11288.5 970.272  53
   4   1 -11 10963.5 938.075  51
   4   1 -10 752.162 446.679  51
   4   1  -9 1968.74 534.588  51
   4   1  -8 23450.6 1413.78  51
   4   1  -7 44528.0 2103.66  51
   4   1  -6 6003.06 687.682  51
   4   1  -5 58974.0 2426.83  51
   4   1  -4 61986.8 2451.22  51
   4   1  -3 13941.8 879.281  53
   4   1   1 76093.1 3071.96  77
   4   1   2 14154.2 1122.58  77
   4   1   2 17548.6 1128.03   1
   4   1   3 42430.9 2022.08   1
   4   1   4 14745.2 1095.84   1
   4   1   4 14651.4 686.354  90
   4   1   5 2962.70 336.611  90
   4   1   5 3569.86 636.288   1
   4   1   6 4252.15 674.021   1
   4   1   6 4359.72 384.985  90
   4   1   7 8538.99 883.700   1
   4   1   7 8902.89 533.651  90
   4   1   8 4626.11 379.353  70
   4   1   8 5218.75 400.460  90
   4   1   9 1154.19 246.727  70
   4   1   9 1469.63 262.706  90
   4   1  10 1320.07 232.825  70
   4   1  11 12170.4 531.042  70
   4   2 -16 2836.76 159.353  44
   4   2 -15 2712.41 203.512  81
   4   2 -14 2071.61 197.670  82
   4   2 -14 1717.13 198.226  98
   4   2 -13 2356.24 225.389  82
   4   2 -13 1834.83 203.475  74
   4   2 -12 8397.52 408.978  82
   4   2 -12 7929.98 394.161  74
   4   2 -11 6251.62 364.531  82
   4   2 -11 6774.74 360.663  74
   4   2 -10 442.931 187.164  74
   4   2  -9 24936.0 1420.06  51
   4   2  -8 17864.8 1165.57  51
   4   2  -7 40037.9 1913.53  51
   4   2  -6 27059.4 1434.27  51
   4   2   5 10899.9 560.640  90
   4   2   6 23248.8 934.598  90
   4   2   7 1635.01 248.590  90
   4   2   8 1566.33 229.965  70
   4   2   9 4302.48 293.321  70
   4   3 -13 1109.76 160.336  81
   4   3 -12 7668.02 371.389  81
   4   3 -12 7450.20 378.436  98
   4   3 -11 12797.0 554.207  98
   4   3 -10 10567.6 503.059  98
   4   3  -9 11117.1 526.628  98
   5  -8  -5 3727.69 189.189  19
   5  -8  -4 708.106 120.048  19
   5  -8  -3 14106.5 520.808  19
   5  -8  -2 3104.08 190.885  12
   5  -8  -2 3568.19 210.194  19
   5  -8  -1 14388.1 515.282  12
   5  -8  -1 14986.3 545.768  19
   5  -8   0 890.130 111.622  12
   5  -8   1 6619.95 281.046  46
   5  -8   2 531.054 113.959  46
   5  -8   2 889.364 143.611  58
   5  -8   3 11767.9 450.180  46
   5  -8   3 13073.5 452.134  58
   5  -8   4 9005.48 358.378  46
   5  -8   4 10134.3 354.597  58
   5  -8   5 6208.78 267.245  15
   5  -7  -9 17566.0 597.632  14
   5  -7  -8 1682.72 171.152  47
   5  -7  -8 1553.73 138.958  45
   5  -7  -8 1517.22 161.937  14
   5  -7  -7 4723.04 287.831  47
   5  -7  -7 4460.18 263.228  45
   5  -7  -7 5256.19 288.900  14
   5  -7  -6 19552.8 733.523  47
   5  -7  -6 19552.0 730.756  45
   5  -7  -6 19602.3 726.161  14
   5  -7  -5 5422.40 329.841  47
   5  -7  -5 6202.50 345.134  45
   5  -7  -5 5899.74 326.293  14
   5  -7  -4 19764.6 749.171  47
   5  -7  -4 20035.9 764.796  45
   5  -7  -4 19601.0 741.753  14
   5  -7  -3 5503.79 353.137  45
   5  -7  -3 6059.95 332.388  14
   5  -7  -2 393.428 187.485  45
   5  -7  -2 606.280 166.290  75
   5  -7  -2 635.422 223.261  19
   5  -7  -2 578.588 177.858  14
   5  -7  -1 1971.04 213.567  75
   5  -7  -1 2671.47 280.862  19
   5  -7  -1 2262.66 204.924  14
   5  -7   0 965.249 178.566  75
   5  -7   0 1536.70 233.981  19
   5  -7   1 562.363 159.337  12
   5  -7   1 538.869 211.176  46
   5  -7   1 343.112 179.437  45
   5  -7   1 512.845 159.523  75
   5  -7   1 650.662 197.516  19
   5  -7   2 6714.19 380.129  46
   5  -7   2 6711.51 359.505  19
   5  -7   3 493.965 179.089  46
   5  -7   3 319.653 150.991  19
   5  -7   4 3653.16 281.003  46
   5  -7   4 3825.42 250.788  58
   5  -7   5 671.081 174.916  46
   5  -7   5 603.286 154.989  58
   5  -7   6 8376.41 391.282  46
   5  -7   6 8697.48 350.758  58
   5  -7   7 7107.89 333.718  46
   5  -7   7 6903.15 317.398  49
   5  -7   8 8651.28 339.014  15
   5  -7   8 8220.71 329.828  49
   5  -7   9 4920.96 208.686  15
   5  -6 -12 348.233 84.8379  47
   5  -6 -11 1273.28 127.261  45
   5  -6 -11 1766.52 161.607  14
   5  -6 -10 228.409 132.577  45
   5  -6 -10 165.570 159.695  14
   5  -6  -9 25510.1 889.704  47
   5  -6  -9 26530.2 896.385  14
   5  -6  -8 6268.24 395.633  47
   5  -6  -8 6477.59 391.504  14
   5  -6  -7 1437.93 256.491  47
   5  -6  -7 1610.39 257.908  14
   5  -6  -6 15819.6 704.346  47
   5  -6  -6 17267.5 711.225  14
   5  -6  -5 1896.04 275.650  47
   5  -6  -5 1832.81 248.970  75
   5  -6  -5 1983.23 273.046  14
   5  -6  -4 3329.56 310.141  47
   5  -6  -4 3284.41 356.772  45
   5  -6  -4 3351.06 307.021  75
   5  -6  -4 3344.58 307.273  14
   5  -6  -3 15449.6 682.659  47
   5  -6  -3 15538.0 696.149  75
   5  -6  -3 16754.1 682.050  14
   5  -6  -2 660.730 220.545  47
   5  -6  -2 706.743 228.114  75
   5  -6  -2 613.565 227.672  73
   5  -6  -2 662.802 204.782  14
   5  -6  -1 2486.93 260.226  47
   5  -6  -1 2707.69 318.319  45
   5  -6  -1 2140.47 291.994  75
   5  -6  -1 2434.87 304.762  73
   5  -6  -1 2889.96 328.653  19
   5  -6  -1 2481.40 237.963  14
   5  -6   0 23727.8 908.936  45
   5  -6   0 23481.0 911.347  75
   5  -6   0 22213.8 921.162  73
   5  -6   0 26427.6 925.919  19
   5  -6   0 19332.3 847.407  96
   5  -6   0 20889.3 803.515  14
   5  -6   1 7749.96 438.990  45
   5  -6   1 7349.40 451.714  75
   5  -6   1 7442.63 458.964  73
   5  -6   1 8015.97 471.888  72
   5  -6   1 8136.40 447.795  19
   5  -6   1 6894.61 424.956  96
   5  -6   2 11390.5 549.899  45
   5  -6   2 12021.7 590.377  75
   5  -6   2 12637.1 610.517  73
   5  -6   2 11759.9 600.871  72
   5  -6   2 12657.8 561.234  19
   5  -6   2 11086.0 571.219  96
   5  -6   3 6135.87 356.507  45
   5  -6   3 6118.18 411.678  73
   5  -6   3 6239.52 421.911  72
   5  -6   3 6339.84 360.581  19
   5  -6   3 5779.42 406.024  96
   5  -6   4 13856.9 634.626  73
   5  -6   4 12801.2 631.026  72
   5  -6   4 12914.9 630.310  96
   5  -6   5 2412.69 284.686  73
   5  -6   5 2355.86 290.223  72
   5  -6   5 2776.37 221.314  58
   5  -6   5 2288.78 289.847  96
   5  -6   6 7070.63 413.346  73
   5  -6   6 7577.38 439.364  72
   5  -6   6 6997.79 332.182  58
   5  -6   6 6824.96 435.850  96
   5  -6   7 8364.98 411.278  46
   5  -6   7 7425.83 402.111  73
   5  -6   7 7932.30 431.241  72
   5  -6   7 8561.75 389.101  15
   5  -6   7 8222.33 473.043  96
   5  -6   8 3470.40 247.047  46
   5  -6   8 3124.78 246.674  72
   5  -6   8 3687.58 238.613  15
   5  -6   9 5125.42 227.231  11
   5  -6   9 5547.51 265.760  18
   5  -6   9 4951.84 257.228  15
   5  -6   9 5429.47 292.730  49
   5  -6  10 922.687 123.904  18
   5  -6  10 886.956 122.987  15
   5  -6  10 973.491 150.893  49
   5  -6  11 14620.5 506.462  49
   5  -5 -13 7018.72 310.308  14
   5  -5 -12 1124.27 191.543  14
   5  -5 -12 805.003 138.168  13
   5  -5 -11 6473.04 322.060  76
   5  -5 -11 6394.73 327.225  50
   5  -5 -11 6800.41 337.109  13
   5  -5 -10 1912.16 281.696  47
   5  -5 -10 2013.55 209.160  76
   5  -5 -10 1647.35 202.323  97
   5  -5 -10 1930.08 277.220  14
   5  -5 -10 1842.79 216.427  50
   5  -5 -10 2141.78 233.897  13
   5  -5  -9 3411.80 354.255  47
   5  -5  -9 3399.74 351.357  14
   5  -5  -9 2786.90 270.262  50
   5  -5  -8 231.350 253.919  47
   5  -5  -8 140.825 239.608  14
   5  -5  -8 196.096 198.761  50
   5  -5  -7 1805.18 318.498  47
   5  -5  -7 1991.33 308.361  14
   5  -5  -7 1884.35 282.666  50
   5  -5  -6 4113.33 383.590  47
   5  -5  -6 3585.51 350.660  14
   5  -5  -6 3579.82 339.971  50
   5  -5  -5 4030.64 649.278  85
   5  -5  -5 4745.98 399.888  47
   5  -5  -5 4826.48 697.527  53
   5  -5  -5 5356.47 383.704  14
   5  -5  -5 4431.90 688.317  51
   5  -5  -5 4788.47 634.688  89
   5  -5  -4 16757.6 1193.90  85
   5  -5  -4 17408.8 733.344  47
   5  -5  -4 15055.8 724.765  75
   5  -5  -4 14256.2 710.898  73
   5  -5  -4 14996.9 1151.93  53
   5  -5  -4 16502.4 697.997  14
   5  -5  -4 15718.6 1153.94  51
   5  -5  -4 13715.0 1032.75  89
   5  -5  -3 13525.4 1101.12  85
   5  -5  -3 15286.4 667.619  47
   5  -5  -3 15295.0 706.290  75
   5  -5  -3 13889.3 687.028  73
   5  -5  -3 13829.4 1088.27  53
   5  -5  -3 14837.3 641.029  14
   5  -5  -3 13229.8 1045.50  51
   5  -5  -3 14074.2 673.746  50
   5  -5  -3 13713.9 1040.55  89
   5  -5  -2 2806.77 629.852  85
   5  -5  -2 3468.48 309.379  47
   5  -5  -2 3373.78 366.688  75
   5  -5  -2 3064.66 321.161  72
   5  -5  -2 3180.02 598.240  53
   5  -5  -2 3203.18 285.969  14
   5  -5  -2 2897.93 552.958  51
   5  -5  -2 3353.56 334.701  50
   5  -5  -1 16402.8 1196.91  85
   5  -5  -1 15547.0 656.281  47
   5  -5  -1 18238.5 763.044  45
   5  -5  -1 15334.8 732.497  72
   5  -5  -1 15859.5 709.925  50
   5  -5   0 6862.77 844.079  85
   5  -5   0 9379.64 511.122  45
   5  -5   0 9209.29 539.774  73
   5  -5   0 8168.50 525.492  72
   5  -5   0 10039.4 503.958  19
   5  -5   0 8092.81 462.731  96
   5  -5   0 7092.12 760.239  53
   5  -5   1 7017.47 834.659  85
   5  -5   1 5763.51 391.045  45
   5  -5   1 6012.54 461.432  73
   5  -5   1 5560.76 421.020  71
   5  -5   1 5932.23 384.365  19
   5  -5   1 5466.08 392.472  96
   5  -5   1 4777.54 620.761  53
   5  -5   2 15074.5 1177.88  85
   5  -5   2 14220.5 643.296  45
   5  -5   2 16489.5 754.624  73
   5  -5   2 14140.7 711.397  71
   5  -5   2 15269.4 636.855  19
   5  -5   2 14143.5 686.592  96
   5  -5   3 23275.6 1490.78  85
   5  -5   3 21896.2 880.022  45
   5  -5   3 25319.7 1021.19  73
   5  -5   3 24310.6 1010.17  72
   5  -5   3 25154.2 1012.88  71
   5  -5   3 23352.1 878.135  19
   5  -5   3 23259.5 972.186  96
   5  -5   4 16017.4 755.489  73
   5  -5   4 16149.3 758.525  72
   5  -5   4 14877.3 739.141  71
   5  -5   4 13914.9 711.800  96
   5  -5   5 3155.26 314.613  46
   5  -5   5 2772.90 339.461  73
   5  -5   5 2677.55 342.483  72
   5  -5   5 2933.36 344.066  96
   5  -5   6 1099.66 239.274  46
   5  -5   6 1142.09 278.840  72
   5  -5   6 1212.48 294.646  71
   5  -5   6 858.022 274.208  96
   5  -5   7 6014.10 360.442  46
   5  -5   7 6235.82 443.408  72
   5  -5   7 6660.60 450.350  71
   5  -5   7 6066.74 338.876  15
   5  -5   7 6735.80 461.185  96
   5  -5   8 3078.79 250.417  46
   5  -5   8 2907.50 300.799  73
   5  -5   8 3430.95 311.579  72
   5  -5   8 3683.25 336.587  71
   5  -5   8 3087.66 230.053  15
   5  -5   8 3305.23 329.199  96
   5  -5   9 994.491 196.621  73
   5  -5   9 1057.33 208.649  72
   5  -5   9 1141.81 218.645  71
   5  -5   9 1197.96 162.286  15
   5  -5   9 1057.56 229.124  96
   5  -5  10 1274.38 192.196  71
   5  -5  10 1097.04 138.213  15
   5  -5  11 5229.38 270.172  18
   5  -5  12 1354.53 129.578  18
   5  -5  12 1145.64 128.033  49
   5  -4 -15 1096.26 105.860  47
   5  -4 -14 189.046 129.795  14
   5  -4 -13 1251.87 168.594  76
   5  -4 -13 1047.83 203.713  14
   5  -4 -12 3778.73 320.429  47
   5  -4 -12 3524.56 256.702  76
   5  -4 -12 3806.56 315.645  14
   5  -4 -12 3587.38 254.829  50
   5  -4 -11 409.464 254.191  47
   5  -4 -11 386.067 193.002  76
   5  -4 -11 693.808 248.736  14
   5  -4 -11 475.983 188.726  50
   5  -4 -10 17915.3 784.147  47
   5  -4 -10 18543.9 787.662  14
   5  -4 -10 16017.0 720.714  50
   5  -4  -9 25451.0 1033.20  47
   5  -4  -9 26005.0 1021.51  14
   5  -4  -9 23885.5 980.385  50
   5  -4  -8 3440.36 373.711  47
   5  -4  -8 3006.47 305.101  75
   5  -4  -8 4020.51 373.881  14
   5  -4  -8 3494.59 342.396  50
   5  -4  -7 9281.76 903.693  85
   5  -4  -7 11361.4 606.304  47
   5  -4  -7 10266.6 551.210  75
   5  -4  -7 11864.5 591.691  14
   5  -4  -7 11066.0 1012.28  51
   5  -4  -7 10241.5 898.204  89
   5  -4  -7 11419.7 604.893  50
   5  -4  -6 22840.4 1446.92  85
   5  -4  -6 24520.3 997.661  47
   5  -4  -6 23267.3 977.077  75
   5  -4  -6 23730.5 1495.16  53
   5  -4  -6 25988.6 979.832  14
   5  -4  -6 23424.6 1473.08  51
   5  -4  -6 24027.5 1436.36  89
   5  -4  -5 4027.79 672.323  85
   5  -4  -5 4732.20 386.883  47
   5  -4  -5 4204.36 381.267  75
   5  -4  -5 4037.37 349.552  73
   5  -4  -5 4426.60 707.161  53
   5  -4  -5 4160.53 344.281  14
   5  -4  -5 4487.83 684.422  51
   5  -4  -5 4489.95 390.584  50
   5  -4  -5 4012.83 678.256  89
   5  -4  -4 11367.9 1027.40  85
   5  -4  -4 11831.9 590.405  47
   5  -4  -4 10215.9 954.947  77
   5  -4  -4 12659.1 638.242  75
   5  -4  -4 11139.8 597.153  73
   5  -4  -4 10751.7 967.513  53
   5  -4  -4 10510.5 946.590  51
   5  -4  -4 13560.1 1096.84  89
   5  -4  -4 13239.5 627.674  50
   5  -4  -3 15184.8 659.080  47
   5  -4  -3 14257.7 1120.79  77
   5  -4  -3 14713.0 701.109  73
   5  -4  -3 13646.5 675.870  72
   5  -4  -3 16549.2 1162.27  53
   5  -4  -3 14906.5 1082.09  51
   5  -4  -3 15732.5 702.069  50
   5  -4  -2 6413.10 789.410  77
   5  -4  -2 7426.86 482.793  73
   5  -4  -2 7380.73 469.285  72
   5  -4  -2 7092.33 786.823  53
   5  -4  -2 7824.85 459.990  50
   5  -4  -1 13232.6 1132.56  85
   5  -4  -1 12183.2 1074.42  77
   5  -4  -1 14159.8 694.308  73
   5  -4  -1 14336.2 677.738  72
   5  -4  -1 13060.3 639.878  71
   5  -4  -1 13076.5 1015.75  53
   5  -4  -1 13541.8 629.301  50
   5  -4   0 14753.0 1216.26  85
   5  -4   0 12245.4 1104.89  77
   5  -4   0 13741.9 700.637  73
   5  -4   0 14049.6 686.483  72
   5  -4   0 12499.2 647.662  71
   5  -4   0 13861.8 599.932  19
   5  -4   0 11598.1 925.964  53
   5  -4   0 14075.1 620.671  50
   5  -4   1 17726.5 1318.94  85
   5  -4   1 15775.4 676.554  45
   5  -4   1 14322.4 1218.04  77
   5  -4   1 15973.6 765.333  72
   5  -4   1 15691.5 738.881  71
   5  -4   1 15621.0 635.391  19
   5  -4   1 14670.6 687.839  96
   5  -4   2 6679.26 891.295  85
   5  -4   2 6523.39 383.368  45
   5  -4   2 5762.25 834.264  77
   5  -4   2 7727.90 511.719  72
   5  -4   2 7578.64 485.894  71
   5  -4   2 6601.93 353.235  19
   5  -4   2 6388.71 438.249  96
   5  -4   3 32739.7 1874.26  85
   5  -4   3 30182.7 1142.57  78
   5  -4   3 32938.8 1217.66  71
   5  -4   3 31079.5 1170.87  96
   5  -4   4 5125.85 848.054  85
   5  -4   4 5398.63 407.293  78
   5  -4   4 6061.92 469.714  71
   5  -4   4 5833.72 444.401  96
   5  -4   5 8521.91 983.113  85
   5  -4   5 8270.71 445.524  46
   5  -4   5 7680.30 490.951  78
   5  -4   5 7995.92 535.965  71
   5  -4   5 6876.61 498.632  96
   5  -4   6 12794.3 592.194  46
   5  -4   6 15110.9 714.158  78
   5  -4   6 14891.3 731.644  96
   5  -4   7 6499.14 359.471  46
   5  -4   7 7591.20 494.554  78
   5  -4   7 6464.99 329.569  15
   5  -4   7 7122.85 502.063  96
   5  -4   8 7227.67 362.211  46
   5  -4   8 7964.70 494.364  78
   5  -4   8 7907.00 501.430  71
   5  -4   8 7295.67 492.606  96
   5  -4   9 5641.71 399.299  78
   5  -4   9 5739.62 411.195  71
   5  -4   9 5392.85 403.309  96
   5  -4  10 13939.5 637.631  78
   5  -4  10 14648.0 639.647  72
   5  -4  10 14957.0 651.440  71
   5  -4  10 13744.5 646.642  96
   5  -4  10 14117.0 567.570  49
   5  -4  11 1514.67 198.526  71
   5  -4  11 1527.00 196.057  18
   5  -4  11 1432.01 178.388  49
   5  -4  12 2162.41 160.732  49
   5  -4  13 11552.7 401.102  20
   5  -3 -15 1207.52 141.333  14
   5  -3 -14 7099.60 374.571  47
   5  -3 -14 6923.14 334.799  76
   5  -3 -14 7206.90 357.186  14
   5  -3 -13 2071.61 219.374  76
   5  -3 -13 2191.64 201.132  74
   5  -3 -13 2654.26 266.077  14
   5  -3 -13 2071.48 213.466  50
   5  -3 -12 565.106 199.458  76
   5  -3 -12 695.181 194.880  50
   5  -3 -11 7464.55 429.781  76
   5  -3 -11 7780.70 444.040  50
   5  -3 -10 23526.0 952.685  50
   5  -3  -9 13386.1 1141.53  51
   5  -3  -9 13109.4 1001.91  89
   5  -3  -9 15219.5 707.745  50
   5  -3  -8 6492.44 725.982  85
   5  -3  -8 6034.40 392.213  75
   5  -3  -8 6858.25 880.927  53
   5  -3  -8 7483.74 456.290  14
   5  -3  -8 6199.56 812.681  51
   5  -3  -8 6138.03 747.873  89
   5  -3  -7 43289.5 2109.55  85
   5  -3  -7 44832.5 1588.67  75
   5  -3  -7 46239.3 2277.35  53
   5  -3  -7 49226.3 2279.73  51
   5  -3  -7 46166.2 2163.22  89
   5  -3  -6 4738.27 699.207  85
   5  -3  -6 4191.87 347.717  75
   5  -3  -6 3517.74 299.774  73
   5  -3  -6 4407.11 709.617  53
   5  -3  -6 3900.37 681.416  51
   5  -3  -6 4534.43 393.922  50
   5  -3  -6 3682.86 665.657  89
   5  -3  -5 5916.17 746.941  85
   5  -3  -5 5717.36 416.792  75
   5  -3  -5 5560.57 386.159  73
   5  -3  -5 6200.26 776.666  53
   5  -3  -5 6498.73 774.699  51
   5  -3  -5 6717.74 443.895  50
   5  -3  -5 6530.35 823.403  89
   5  -3  -4 21274.7 1388.46  85
   5  -3  -4 18321.1 1216.19  77
   5  -3  -4 19998.2 838.035  73
   5  -3  -4 18223.8 796.337  72
   5  -3  -4 24398.6 1418.85  53
   5  -3  -4 20590.1 1269.22  51
   5  -3  -4 22565.8 878.201  50
   5  -3  -3 38557.4 1993.30  85
   5  -3  -3 36817.1 1883.21  77
   5  -3  -3 37595.0 1386.11  73
   5  -3  -3 35876.7 1355.43  72
   5  -3  -3 40929.5 1938.97  53
   5  -3  -3 38012.5 1808.44  51
   5  -3  -3 39596.3 1387.05  50
   5  -3  -2 25790.2 1583.38  85
   5  -3  -2 25009.2 1503.92  77
   5  -3  -2 27638.6 1035.75  73
   5  -3  -2 25153.9 991.524  72
   5  -3  -2 22298.3 931.991  71
   5  -3  -2 25161.9 1420.41  53
   5  -3  -2 26029.6 981.167  50
   5  -3  -1 2440.70 650.432  85
   5  -3  -1 1896.96 542.679  77
   5  -3  -1 2849.68 322.619  72
   5  -3  -1 2310.65 268.423  71
   5  -3  -1 2037.14 479.684  53
   5  -3  -1 2474.23 263.122  50
   5  -3   0 3771.73 736.495  85
   5  -3   0 3716.43 689.915  77
   5  -3   0 4563.92 385.111  72
   5  -3   0 3481.05 331.027  71
   5  -3   0 3588.41 282.847  50
   5  -3   1 19591.1 1378.64  77
   5  -3   1 18525.6 803.738  71
   5  -3   1 16471.8 732.830  96
   5  -3   2 10741.1 1068.54  77
   5  -3   2 10568.9 553.963  96
   5  -3   3 23848.6 1619.81  85
   5  -3   3 20989.0 877.425  78
   5  -3   3 24843.7 1636.25  77
   5  -3   3 20896.0 908.719  96
   5  -3   4 11610.3 1164.91  85
   5  -3   4 10248.8 558.369  78
   5  -3   4 10153.7 1092.19  77
   5  -3   4 9623.83 574.137  96
   5  -3   5 45007.7 2432.47  85
   5  -3   5 40459.0 1458.17  46
   5  -3   5 46171.5 1607.27  78
   5  -3   5 46106.4 1630.62  96
   5  -3   6 19929.6 1545.49  85
   5  -3   6 20720.6 880.637  78
   5  -3   6 22060.3 923.438  96
   5  -3   7 9146.04 563.342  78
   5  -3   7 8159.55 553.509  96
   5  -3   8 29991.9 1200.27  78
   5  -3   8 30732.0 1218.60  96
   5  -3   9 10542.5 576.092  78
   5  -3   9 11247.5 597.470  96
   5  -3  10 1190.12 243.014  78
   5  -3  10 1509.24 256.702  96
   5  -3  10 1267.29 188.067  49
   5  -3  11 77.9504 157.714  78
   5  -3  11 145.658 169.981  71
   5  -3  11 291.095 155.038  18
   5  -3  11 128.690 130.942  49
   5  -3  12 319.815 126.719  18
   5  -3  12 457.384 97.5278  49
   5  -3  13 1470.67 114.914  20
   5  -2 -16 3890.93 197.960  47
   5  -2 -15 1326.05 146.495  14
   5  -2 -14 12694.9 486.567  44
   5  -2 -14 11503.3 485.812  76
   5  -2 -14 12186.3 505.512  50
   5  -2 -13 11753.1 487.952  44
   5  -2 -13 10370.6 468.641  76
   5  -2 -13 10307.1 465.868  74
   5  -2 -12 1414.40 221.905  76
   5  -2 -11 1969.20 265.364  76
   5  -2 -10 8723.42 794.954  89
   5  -2  -9 8776.96 956.522  53
   5  -2  -9 9227.97 951.606  51
   5  -2  -9 7036.02 753.109  89
   5  -2  -8 8876.01 446.366  75
   5  -2  -8 11878.8 1079.10  53
   5  -2  -8 11560.7 1043.33  51
   5  -2  -8 11824.3 929.173  89
   5  -2  -7 31148.0 1650.70  85
   5  -2  -7 34404.5 1239.26  75
   5  -2  -7 38584.9 1973.34  53
   5  -2  -7 40368.1 1953.29  51
   5  -2  -7 37372.1 1827.58  89
   5  -2  -6 2020.20 509.367  85
   5  -2  -6 2700.44 274.341  75
   5  -2  -6 2577.61 628.572  53
   5  -2  -6 3161.97 612.902  51
   5  -2  -6 2915.01 607.299  89
   5  -2  -5 45050.4 2091.07  85
   5  -2  -5 47657.6 1568.89  75
   5  -2  -5 40275.0 1500.29  73
   5  -2  -5 51715.5 2258.61  53
   5  -2  -5 49739.7 2138.96  51
   5  -2  -5 43583.7 2135.06  89
   5  -2  -4 34160.0 1758.27  85
   5  -2  -4 32774.3 1212.17  73
   5  -2  -3 13416.3 1040.64  85
   5  -2  -3 11200.0 569.280  73
   5  -2  -3 11761.1 548.337  72
   5  -2  -3 13799.5 976.601  53
   5  -2  -3 13204.9 591.892  50
   5  -2  -2 25959.4 1560.67  85
   5  -2  -2 24171.7 1419.41  77
   5  -2  -2 23733.5 964.741  72
   5  -2  -2 25898.8 1363.05  53
   5  -2  -2 26766.6 966.380  50
   5  -2  -1 37024.1 1925.76  85
   5  -2  -1 34466.5 1799.88  77
   5  -2  -1 33217.1 1192.60  50
   5  -2   0 141230. 5085.48  85
   5  -2   0 124414. 4896.39  77
   5  -2   1 16494.8 1311.09  85
   5  -2   1 17695.4 1311.06  77
   5  -2   2 15433.4 1296.09  85
   5  -2   2 17535.5 1338.58  77
   5  -2   2 15329.9 698.699  96
   5  -2   3 2658.03 745.569  85
   5  -2   3 1988.42 270.271  78
   5  -2   3 1613.76 587.983  77
   5  -2   3 2091.84 297.212  96
   5  -2   4 23592.9 994.884  78
   5  -2   4 25061.3 1716.01  77
   5  -2   4 25418.5 1036.28  96
   5  -2   5 15642.9 759.270  78
   5  -2   5 16404.7 799.034  96
   5  -2   6 9979.57 600.623  78
   5  -2   6 10697.7 636.730  96
   5  -2   7 13893.3 713.486  78
   5  -2   7 14324.1 742.621  96
   5  -2   8 18250.6 838.636  78
   5  -2   8 19077.7 864.480  96
   5  -2   9 1455.72 268.245  78
   5  -2   9 1579.49 289.083  96
   5  -2   9 1427.87 171.555  49
   5  -2  10 13545.2 615.731  78
   5  -2  10 12470.1 618.347  96
   5  -2  11 1376.61 210.917  78
   5  -2  11 1400.93 161.295  18
   5  -2  12 4163.45 208.029  20
   5  -2  12 4184.66 194.666  18
   5  -1 -14 7128.98 327.051  76
   5  -1 -13 828.381 166.960  76
   5  -1 -12 3942.45 273.536  76
   5  -1 -11 5122.53 323.605  76
   5  -1 -10 3959.23 562.773  89
   5  -1  -9 2388.74 602.453  53
   5  -1  -9 2082.96 593.219  51
   5  -1  -9 1678.06 457.045  89
   5  -1  -8 18389.4 1301.74  53
   5  -1  -8 16999.1 1232.11  51
   5  -1  -8 13987.3 1014.60  89
   5  -1  -7 2785.19 642.324  53
   5  -1  -7 2470.70 562.221  51
   5  -1  -7 2602.41 541.199  89
   5  -1  -6 21491.3 1353.83  53
   5  -1  -6 21894.4 1302.36  51
   5  -1  -5 31899.2 1689.43  53
   5  -1  -5 30829.8 1627.80  89
   5  -1  -4 25409.2 1407.32  85
   5  -1  -4 29550.9 1519.67  53
   5  -1  -3 9853.83 848.485  85
   5  -1  -2 90265.4 3528.94  85
   5  -1  -1 3315.72 598.495  85
   5  -1   0 12909.4 1081.06  85
   5  -1   1 69411.3 3018.06  85
   5  -1   1 65444.0 2923.33  77
   5  -1   2 1462.14 639.360  85
   5  -1   2 2290.25 615.087  77
   5  -1   3 10844.9 1095.52  77
   5  -1   3 11624.3 599.315  96
   5  -1   4 6120.60 421.770  78
   5  -1   4 5710.03 437.892  96
   5  -1   5 5372.70 421.484  78
   5  -1   5 4671.11 426.405  96
   5  -1   6 5466.88 432.021  78
   5  -1   6 5314.52 449.024  96
   5  -1   7 12383.8 640.960  78
   5  -1   7 12018.0 656.002  96
   5  -1   8 7619.50 468.294  78
   5  -1   8 6698.36 474.149  96
   5  -1   9 7938.77 357.399  18
   5  -1   9 8797.68 498.706  96
   5  -1  10 3996.19 300.254  78
   5   0 -14 3300.76 213.634  82
   5   0 -13 5668.83 302.607  74
   5   0 -12 9372.57 427.055  74
   5   0 -11 4404.72 290.927  74
   5   0  -9 1951.41 216.644  76
   5   0  -8 9990.75 984.773  53
   5   0  -7 495.197 450.978  53
   5   0  -6 4034.18 629.050  53
   5   0  -5 34307.9 1625.90  89
   5   0  -4 2384.28 507.102  89
   5   0  -3 27204.9 1428.02  89
   5   0   2 1843.38 550.292  85
   5   0   4 4796.31 398.527  96
   5   0   5 3598.81 371.277  96
   5   0   6 7442.89 485.842  96
   5   0   7 3401.82 342.215  96
   5   0   8 4111.58 343.106  96
   5   0   9 5080.08 324.783  78
   5   1 -12 4139.31 251.163  82
   5   1 -11 224.675 148.937  74
   5   1 -10 662.775 168.375  74
   5   1  -9 2023.04 210.803  74
   6  -7  -6 18511.1 617.623  45
   6  -7  -5 12730.6 450.631  46
   6  -7  -4 12841.0 460.326  19
   6  -7  -3 4129.38 239.588  46
   6  -7  -3 3779.80 222.668  45
   6  -7  -3 4018.94 204.278  19
   6  -7  -2 3140.46 198.995  45
   6  -7  -2 3029.39 181.173  19
   6  -7  -1 1035.08 168.552  46
   6  -7   0 676.335 157.283  46
   6  -7   1 344.932 140.307  46
   6  -7   2 5885.17 286.112  46
   6  -7   3 2699.81 158.848  15
   6  -6  -9 776.200 111.012  45
   6  -6  -8 3048.63 203.774  45
   6  -6  -8 2490.69 164.267  19
   6  -6  -7 6722.97 301.455  47
   6  -6  -7 8973.33 352.604  19
   6  -6  -6 15565.5 592.832  19
   6  -6  -5 6322.90 362.580  45
   6  -6  -5 6986.21 342.846  19
   6  -6  -4 5052.84 323.017  45
   6  -6  -4 4566.41 294.604  75
   6  -6  -4 5678.02 301.527  19
   6  -6  -3 21559.1 800.256  45
   6  -6  -3 22160.6 767.019  19
   6  -6  -2 191.843 168.734  45
   6  -6  -2 431.194 172.062  75
   6  -6  -2 117.504 145.552  19
   6  -6  -1 6716.89 353.139  45
   6  -6  -1 6966.86 384.976  75
   6  -6  -1 6949.71 323.828  19
   6  -6   0 2968.98 221.975  45
   6  -6   0 3333.31 273.732  75
   6  -6   0 2650.72 259.501  73
   6  -6   0 2963.42 193.022  19
   6  -6   1 978.278 204.012  75
   6  -6   1 1022.67 202.899  73
   6  -6   2 19930.0 731.621  46
   6  -6   2 18718.1 736.968  75
   6  -6   2 17405.9 735.872  73
   6  -6   3 10908.6 466.515  46
   6  -6   3 10511.3 491.117  75
   6  -6   3 10584.0 496.245  73
   6  -6   4 25015.3 884.084  46
   6  -6   4 25823.0 925.804  75
   6  -6   4 25473.1 839.201  15
   6  -6   5 3032.88 204.862  46
   6  -6   6 5795.78 256.105  46
   6  -6   7 8079.39 323.868  49
   6  -5 -11 805.561 119.202  45
   6  -5 -10 3604.79 198.654  47
   6  -5  -9 3378.13 223.034  47
   6  -5  -8 8457.86 384.509  47
   6  -5  -7 289.246 156.318  47
   6  -5  -7 429.061 194.501  50
   6  -5  -6 1955.17 221.075  75
   6  -5  -6 2123.09 246.150  50
   6  -5  -5 10264.8 508.086  75
   6  -5  -5 10933.9 520.545  50
   6  -5  -4 17935.0 738.269  45
   6  -5  -4 18275.2 671.638  19
   6  -5  -3 2563.60 277.413  45
   6  -5  -3 2451.51 260.137  73
   6  -5  -3 2463.32 216.466  19
   6  -5  -2 2943.82 266.452  45
   6  -5  -2 2607.51 272.299  73
   6  -5  -1 1375.99 203.547  45
   6  -5  -1 1360.60 268.499  75
   6  -5  -1 1407.98 244.813  73
   6  -5   0 1433.92 185.630  45
   6  -5   0 1365.72 269.717  75
   6  -5   0 1518.57 252.810  73
   6  -5   0 1471.60 238.657  72
   6  -5   1 5345.49 279.572  45
   6  -5   1 5871.77 390.740  72
   6  -5   2 19045.8 800.168  72
   6  -5   3 4953.66 320.347  46
   6  -5   3 5504.78 377.439  73
   6  -5   3 5117.00 371.986  72
   6  -5   4 7504.49 371.865  46
   6  -5   4 8485.02 457.615  73
   6  -5   4 7371.71 426.063  71
   6  -5   5 29516.2 1020.55  46
   6  -5   5 32855.6 1146.92  73
   6  -5   5 29763.4 1116.08  71
   6  -5   6 2093.99 162.067  46
   6  -5   6 2212.50 241.653  73
   6  -5   6 2446.42 249.480  72
   6  -5   6 2125.05 239.883  71
   6  -5   8 282.015 116.938  49
   6  -5   9 407.585 84.7418  18
   6  -4 -11 473.051 135.193  47
   6  -4 -10 5314.86 294.208  47
   6  -4 -10 5116.01 286.088  76
   6  -4 -10 5763.83 314.973  50
   6  -4  -9 4662.10 295.590  47
   6  -4  -8 5854.26 334.125  47
   6  -4  -8 6439.79 389.170  50
   6  -4  -7 3893.85 277.396  75
   6  -4  -7 4740.49 339.037  50
   6  -4  -6 8334.77 433.830  75
   6  -4  -6 9112.37 477.409  50
   6  -4  -5 2844.20 279.302  75
   6  -4  -5 2876.85 291.772  50
   6  -4  -4 6680.17 406.698  75
   6  -4  -4 5966.04 370.971  73
   6  -4  -4 6821.02 401.115  50
   6  -4  -3 25575.9 968.357  75
   6  -4  -3 24667.2 922.037  50
   6  -4  -2 11387.9 507.487  45
   6  -4  -2 11451.9 578.563  75
   6  -4  -2 10648.3 542.374  73
   6  -4  -2 10375.9 509.222  72
   6  -4  -2 10179.5 491.621  50
   6  -4  -1 2423.27 220.839  45
   6  -4  -1 2296.76 277.970  73
   6  -4  -1 2448.15 272.067  72
   6  -4   0 5358.92 389.806  73
   6  -4   0 4527.12 362.173  72
   6  -4   1 27999.5 1066.69  73
   6  -4   1 27758.9 1051.85  72
   6  -4   1 24561.7 992.139  71
   6  -4   2 257.289 240.237  73
   6  -4   2 12.9429 233.099  72
   6  -4   2 263.582 196.627  71
   6  -4   3 12801.7 553.791  46
   6  -4   3 15126.6 690.112  73
   6  -4   3 14261.9 669.781  72
   6  -4   3 13832.9 638.773  71
   6  -4   4 24173.2 878.999  46
   6  -4   4 27903.5 1037.44  72
   6  -4   4 26333.8 1004.21  71
   6  -4   5 13775.5 654.853  72
   6  -4   5 13493.2 634.061  71
   6  -4   6 4655.12 347.966  71
   6  -4   7 1907.37 237.638  73
   6  -4   7 1856.45 222.595  71
   6  -4   8 486.197 123.534  49
   6  -4   9 5616.46 249.580  18
   6  -3 -11 7016.41 329.206  47
   6  -3 -11 7527.21 335.987  76
   6  -3 -10 268.832 164.820  47
   6  -3 -10 395.868 165.244  76
   6  -3 -10 298.394 179.658  50
   6  -3  -9 567.670 202.805  50
   6  -3  -8 9222.61 496.947  50
   6  -3  -7 6348.04 340.759  75
   6  -3  -7 8750.22 457.390  50
   6  -3  -6 6567.09 368.862  75
   6  -3  -6 8277.99 445.019  50
   6  -3  -5 34412.2 1262.98  75
   6  -3  -5 38034.4 1306.75  50
   6  -3  -4 4744.91 345.107  75
   6  -3  -4 4591.24 329.082  50
   6  -3  -3 9804.08 480.961  73
   6  -3  -3 9108.09 464.204  50
   6  -3  -2 10478.4 522.271  73
   6  -3  -1 8697.30 475.268  73
   6  -3  -1 8151.73 442.988  72
   6  -3   0 1567.83 269.610  73
   6  -3   0 1457.20 239.998  72
   6  -3   1 8103.99 484.754  73
   6  -3   1 7581.50 459.417  72
   6  -3   2 39422.4 1365.98  72
   6  -3   2 34201.5 1300.77  71
   6  -3   3 37303.6 1316.60  72
   6  -3   3 32547.9 1260.35  71
   6  -3   4 6925.67 452.778  72
   6  -3   4 6682.20 422.807  71
   6  -3   5 6814.44 442.048  72
   6  -3   5 6014.19 406.605  71
   6  -3   6 16094.2 720.115  72
   6  -3   6 15440.2 696.407  71
   6  -3   7 11016.7 509.119  72
   6  -3   7 10413.1 492.212  71
   6  -3   9 4957.35 215.653  18
   6  -2 -11 13850.4 534.432  76
   6  -2 -11 15883.3 605.272  50
   6  -2 -10 5288.70 293.603  76
   6  -2 -10 6541.51 361.303  50
   6  -2  -9 9032.31 472.945  50
   6  -2  -8 3626.04 310.908  50
   6  -2  -7 3252.36 298.439  50
   6  -2  -6 2897.81 282.537  50
   6  -2  -5 3102.55 274.641  50
   6  -2  -4 2482.56 231.961  75
   6  -2  -3 14426.4 620.307  75
   6  -2  -1 9705.95 479.807  73
   6  -2   0 19120.3 785.223  73
   6  -2   1 1990.91 244.388  72
   6  -2   2 8182.22 456.402  72
   6  -2   3 15888.5 677.647  71
   6  -2   4 6675.56 400.836  71
   6  -2   5 21.7656 181.637  71
   6  -2   6 50.8993 177.083  71
   6  -1 -10 23204.2 859.831  50
   6  -1  -9 15682.5 651.616  50
   6  -1  -8 14764.8 622.641  50
   6  -1  -7 5079.24 321.375  50
   7  -5  -2 468.553 114.950  46
   0   0   0    0.00    0.00   0

TITL PN180914_UO_Eph_1_180814_G4_2 in P1
REM P1 (#1 in standard setting)
CELL 1.54184   5.821302   7.270884  15.902143  94.7215  96.6693 109.5246
ZERR    1.00   0.000072   0.000083   0.000130   0.0008   0.0008   0.0011
LATT -1
SFAC C H N O
UNIT 24.00 38.00 2.00 8.00
TREF
HKLF 4
END
;
_shelx_hkl_checksum              13594
_olex2_submission_special_instructions 'No special instructions were received'
_oxdiff_exptl_absorpt_empirical_details
;
Empirical correction (ABSPACK) includes:
- Absorption correction using spherical harmonics
- Frame scaling
;
_oxdiff_exptl_absorpt_empirical_full_max 1.673
_oxdiff_exptl_absorpt_empirical_full_min 0.681
loop_
_space_group_symop_operation_xyz
'x, y, z'
loop_
_atom_site_label
_atom_site_type_symbol
_atom_site_fract_x
_atom_site_fract_y
_atom_site_fract_z
_atom_site_U_iso_or_equiv
_atom_site_adp_type
_atom_site_occupancy
_atom_site_site_symmetry_order
_atom_site_calc_flag
_atom_site_refinement_flags_posn
O1 O 0.3528(3) 0.7437(2) 0.71174(9) 0.0280(3) Uani 1 1 d .
H1 H 0.3828 0.6429 0.6946 0.042 Uiso 1 1 calc GR
O11 O 0.0273(3) 0.2787(2) 0.31283(9) 0.0279(3) Uani 1 1 d .
H11 H 0.0322 0.1910 0.3435 0.042 Uiso 1 1 calc GR
O21 O 0.4190(3) 0.4004(2) 0.66616(8) 0.0297(3) Uani 1 1 d .
O22 O 0.3495(3) 0.13593(19) 0.57188(8) 0.0266(3) Uani 1 1 d .
O23 O 0.5910(3) 0.65204(18) 0.55313(8) 0.0219(3) Uani 1 1 d .
H23 H 0.4607 0.6786 0.5477 0.033 Uiso 1 1 calc GR
O24 O 1.1434(3) 0.6384(2) 0.47409(9) 0.0298(3) Uani 1 1 d .
O25 O 0.8005(3) 0.6055(2) 0.38907(8) 0.0253(3) Uani 1 1 d .
O26 O 0.0579(4) 0.0217(3) 0.41762(12) 0.0467(5) Uani 1 1 d .
H26A H 0.163(7) 0.053(5) 0.467(2) 0.050(8) Uiso 1 1 d .
H26B H -0.008(7) -0.090(6) 0.408(2) 0.052(9) Uiso 1 1 d .
N1 N -0.0068(3) 0.9289(2) 0.66287(9) 0.0219(3) Uani 1 1 d .
H1A H 0.1386 0.9812 0.6429 0.026 Uiso 1 1 calc R
H1B H -0.1003 0.8193 0.6264 0.026 Uiso 1 1 calc R
N11 N 0.3851(3) 0.6649(2) 0.33349(10) 0.0232(3) Uani 1 1 d .
H11A H 0.2625 0.6384 0.3662 0.028 Uiso 1 1 calc R
H11B H 0.5093 0.6315 0.3604 0.028 Uiso 1 1 calc R
C1 C 0.1194(4) 0.6869(3) 0.73851(11) 0.0211(4) Uani 1 1 d .
H1C H -0.0018 0.5907 0.6919 0.025 Uiso 1 1 calc R
C2 C 0.0450(4) 0.8697(3) 0.74950(11) 0.0222(4) Uani 1 1 d .
H2 H -0.1105 0.8339 0.7751 0.027 Uiso 1 1 calc R
C3 C 0.2385(5) 1.0414(3) 0.80709(13) 0.0301(4) Uani 1 1 d .
H3A H 0.3864 1.0885 0.7798 0.045 Uiso 1 1 calc GR
H3B H 0.2810 0.9987 0.8618 0.045 Uiso 1 1 calc GR
H3C H 0.1733 1.1481 0.8169 0.045 Uiso 1 1 calc GR
C4 C -0.1364(4) 1.0741(3) 0.66229(15) 0.0332(5) Uani 1 1 d .
H4A H -0.1833 1.0927 0.6032 0.050 Uiso 1 1 calc GR
H4B H -0.0265 1.2001 0.6941 0.050 Uiso 1 1 calc GR
H4C H -0.2847 1.0252 0.6892 0.050 Uiso 1 1 calc GR
C5 C 0.1096(4) 0.5891(2) 0.81996(11) 0.0194(4) Uani 1 1 d .
C6 C -0.1179(4) 0.4745(3) 0.83863(12) 0.0252(4) Uani 1 1 d .
H6 H -0.2643 0.4600 0.8013 0.030 Uiso 1 1 calc R
C7 C -0.1322(4) 0.3808(3) 0.91181(13) 0.0300(5) Uani 1 1 d .
H7 H -0.2883 0.3031 0.9244 0.036 Uiso 1 1 calc R
C8 C 0.0811(5) 0.4008(3) 0.96636(12) 0.0299(5) Uani 1 1 d .
H8 H 0.0715 0.3371 1.0163 0.036 Uiso 1 1 calc R
C9 C 0.3070(4) 0.5135(3) 0.94768(12) 0.0298(5) Uani 1 1 d .
H9 H 0.4532 0.5264 0.9848 0.036 Uiso 1 1 calc R
C10 C 0.3228(4) 0.6089(3) 0.87479(12) 0.0250(4) Uani 1 1 d .
H10 H 0.4792 0.6873 0.8627 0.030 Uiso 1 1 calc R
C11 C 0.2283(4) 0.3227(3) 0.26709(11) 0.0226(4) Uani 1 1 d .
H11C H 0.3737 0.3129 0.3041 0.027 Uiso 1 1 calc R
C12 C 0.2881(4) 0.5375(3) 0.24936(11) 0.0234(4) Uani 1 1 d .
H12 H 0.4210 0.5691 0.2127 0.028 Uiso 1 1 calc R
C13 C 0.0666(4) 0.5759(3) 0.20437(13) 0.0291(4) Uani 1 1 d .
H13A H -0.0573 0.5609 0.2425 0.044 Uiso 1 1 calc GR
H13B H -0.0045 0.4816 0.1525 0.044 Uiso 1 1 calc GR
H13C H 0.1190 0.7101 0.1891 0.044 Uiso 1 1 calc GR
C14 C 0.4785(5) 0.8794(3) 0.32894(16) 0.0371(5) Uani 1 1 d .
H14A H 0.6054 0.9097 0.2917 0.056 Uiso 1 1 calc GR
H14B H 0.5497 0.9502 0.3863 0.056 Uiso 1 1 calc GR
H14C H 0.3422 0.9204 0.3059 0.056 Uiso 1 1 calc GR
C15 C 0.1768(4) 0.1836(3) 0.18465(12) 0.0232(4) Uani 1 1 d .
C16 C 0.3703(4) 0.1792(3) 0.14115(13) 0.0306(4) Uani 1 1 d .
H16 H 0.5338 0.2641 0.1629 0.037 Uiso 1 1 calc R
C17 C 0.3256(5) 0.0516(4) 0.06610(14) 0.0361(5) Uani 1 1 d .
H17 H 0.4586 0.0510 0.0368 0.043 Uiso 1 1 calc R
C18 C 0.0899(5) -0.0741(3) 0.03400(13) 0.0349(5) Uani 1 1 d .
H18 H 0.0601 -0.1622 -0.0168 0.042 Uiso 1 1 calc R
C19 C -0.1021(5) -0.0702(3) 0.07664(13) 0.0330(5) Uani 1 1 d .
H19 H -0.2652 -0.1558 0.0548 0.040 Uiso 1 1 calc R
C20 C -0.0590(4) 0.0581(3) 0.15145(13) 0.0275(4) Uani 1 1 d .
H20 H -0.1932 0.0594 0.1800 0.033 Uiso 1 1 calc R
C21 C 0.4244(4) 0.3198(3) 0.59479(11) 0.0200(4) Uani 1 1 d .
C22 C 0.5342(4) 0.4477(2) 0.52644(11) 0.0194(4) Uani 1 1 d .
H22 H 0.4122 0.4077 0.4727 0.023 Uiso 1 1 calc R
C23 C 0.7722(4) 0.4180(3) 0.50804(11) 0.0213(4) Uani 1 1 d .
H23A H 0.8790 0.4299 0.5629 0.026 Uiso 1 1 calc R
H23B H 0.7312 0.2831 0.4786 0.026 Uiso 1 1 calc R
C24 C 0.9147(4) 0.5647(3) 0.45332(11) 0.0201(4) Uani 1 1 d .
loop_
_atom_site_aniso_label
_atom_site_aniso_U_11
_atom_site_aniso_U_22
_atom_site_aniso_U_33
_atom_site_aniso_U_23
_atom_site_aniso_U_13
_atom_site_aniso_U_12
O1 0.0328(9) 0.0230(6) 0.0352(7) 0.0089(5) 0.0184(6) 0.0131(7)
O11 0.0340(10) 0.0255(7) 0.0297(6) 0.0110(5) 0.0135(6) 0.0129(7)
O21 0.0395(10) 0.0278(7) 0.0247(6) 0.0060(5) 0.0100(6) 0.0131(7)
O22 0.0314(9) 0.0185(6) 0.0293(6) 0.0064(5) 0.0081(6) 0.0059(6)
O23 0.0188(7) 0.0163(6) 0.0316(6) 0.0024(5) 0.0042(5) 0.0074(5)
O24 0.0200(9) 0.0329(7) 0.0364(7) 0.0100(6) 0.0030(6) 0.0081(7)
O25 0.0251(8) 0.0292(7) 0.0245(6) 0.0087(5) 0.0050(5) 0.0114(6)
O26 0.0580(13) 0.0214(8) 0.0461(9) 0.0114(7) -0.0162(9) 0.0009(8)
N1 0.0210(9) 0.0184(7) 0.0260(7) 0.0057(5) 0.0028(6) 0.0058(7)
N11 0.0208(9) 0.0210(7) 0.0284(7) 0.0076(6) 0.0054(6) 0.0065(7)
C1 0.0236(11) 0.0169(8) 0.0220(8) 0.0035(6) 0.0048(7) 0.0055(8)
C2 0.0280(12) 0.0186(8) 0.0223(8) 0.0050(6) 0.0073(7) 0.0093(8)
C3 0.0418(14) 0.0197(9) 0.0257(8) -0.0004(7) 0.0020(8) 0.0083(9)
C4 0.0288(14) 0.0253(10) 0.0506(12) 0.0151(8) 0.0085(9) 0.0129(10)
C5 0.0211(11) 0.0157(8) 0.0217(8) 0.0019(6) 0.0052(7) 0.0062(8)
C6 0.0236(12) 0.0244(9) 0.0281(9) 0.0057(7) 0.0052(7) 0.0082(9)
C7 0.0318(14) 0.0270(10) 0.0321(10) 0.0099(8) 0.0127(8) 0.0072(10)
C8 0.0468(15) 0.0239(9) 0.0230(8) 0.0066(7) 0.0082(8) 0.0158(10)
C9 0.0366(14) 0.0268(9) 0.0274(9) 0.0012(7) -0.0024(8) 0.0159(10)
C10 0.0229(11) 0.0211(8) 0.0294(9) 0.0022(7) 0.0026(7) 0.0063(8)
C11 0.0233(11) 0.0242(9) 0.0230(8) 0.0072(6) 0.0034(7) 0.0108(8)
C12 0.0262(12) 0.0230(9) 0.0235(8) 0.0076(7) 0.0064(7) 0.0099(9)
C13 0.0354(13) 0.0278(10) 0.0269(8) 0.0085(7) 0.0006(8) 0.0148(10)
C14 0.0386(15) 0.0201(9) 0.0481(12) 0.0086(8) 0.0023(10) 0.0050(10)
C15 0.0249(11) 0.0233(9) 0.0247(8) 0.0070(7) 0.0032(7) 0.0119(9)
C16 0.0250(12) 0.0344(10) 0.0338(10) 0.0019(8) 0.0040(8) 0.0128(10)
C17 0.0409(15) 0.0432(13) 0.0343(10) 0.0055(9) 0.0117(9) 0.0256(12)
C18 0.0511(16) 0.0286(10) 0.0289(10) 0.0024(8) 0.0015(9) 0.0209(11)
C19 0.0363(14) 0.0233(9) 0.0344(10) 0.0018(8) -0.0030(9) 0.0072(10)
C20 0.0265(13) 0.0249(9) 0.0320(9) 0.0068(7) 0.0046(8) 0.0096(10)
C21 0.0189(10) 0.0202(8) 0.0227(8) 0.0051(6) 0.0045(7) 0.0079(8)
C22 0.0200(10) 0.0152(8) 0.0220(7) 0.0032(6) 0.0025(6) 0.0050(7)
C23 0.0239(11) 0.0201(8) 0.0229(8) 0.0055(6) 0.0065(7) 0.0099(8)
C24 0.0202(12) 0.0191(8) 0.0231(8) 0.0025(6) 0.0051(7) 0.0090(8)
loop_
_atom_type_symbol
_atom_type_description
_atom_type_scat_dispersion_real
_atom_type_scat_dispersion_imag
_atom_type_scat_source
C C 0.0181 0.0091 'International Tables Vol C Tables 4.2.6.8 and 6.1.1.4'
H H 0.0000 0.0000 'International Tables Vol C Tables 4.2.6.8 and 6.1.1.4'
N N 0.0311 0.0180 'International Tables Vol C Tables 4.2.6.8 and 6.1.1.4'
O O 0.0492 0.0322 'International Tables Vol C Tables 4.2.6.8 and 6.1.1.4'
loop_
_exptl_crystal_face_index_h
_exptl_crystal_face_index_k
_exptl_crystal_face_index_l
_exptl_crystal_face_perp_dist
4 0 0 0.0829
0 -4 2 0.0912
0 5 -2 0.1587
-3 3 -1 0.1419
-3 -1 1 0.1036
0 0 -10 0.0098
0 0 10 0.0038
3 -4 1 0.1382
loop_
_geom_angle_atom_site_label_1
_geom_angle_atom_site_label_2
_geom_angle_atom_site_label_3
_geom_angle
C4 N1 C2 113.94(15)
C14 N11 C12 115.28(15)
O1 C1 C2 107.95(15)
O1 C1 C5 113.82(15)
C5 C1 C2 110.96(13)
N1 C2 C1 108.71(13)
N1 C2 C3 109.97(15)
C3 C2 C1 113.25(17)
C6 C5 C1 119.05(17)
C6 C5 C10 119.42(17)
C10 C5 C1 121.52(18)
C5 C6 C7 120.33(19)
C8 C7 C6 120.1(2)
C9 C8 C7 119.65(17)
C8 C9 C10 120.6(2)
C5 C10 C9 119.9(2)
O11 C11 C12 106.96(14)
O11 C11 C15 112.85(17)
C15 C11 C12 111.30(14)
N11 C12 C11 107.10(13)
N11 C12 C13 110.83(15)
C13 C12 C11 112.99(17)
C16 C15 C11 120.06(19)
C20 C15 C11 121.55(18)
C20 C15 C16 118.39(18)
C17 C16 C15 120.5(2)
C18 C17 C16 120.5(2)
C17 C18 C19 119.19(19)
C18 C19 C20 120.6(2)
C15 C20 C19 120.8(2)
O21 C21 O22 125.48(17)
O21 C21 C22 119.58(16)
O22 C21 C22 114.93(14)
O23 C22 C21 111.93(13)
O23 C22 C23 107.75(15)
C23 C22 C21 110.30(13)
C24 C23 C22 113.30(14)
O24 C24 O25 122.83(18)
O24 C24 C23 117.53(16)
O25 C24 C23 119.64(18)
loop_
_geom_bond_atom_site_label_1
_geom_bond_atom_site_label_2
_geom_bond_distance
O1 C1 1.409(2)
O11 C11 1.410(2)
O21 C21 1.242(2)
O22 C21 1.266(2)
O23 C22 1.426(2)
O24 C24 1.249(3)
O25 C24 1.264(2)
N1 C2 1.504(2)
N1 C4 1.489(2)
N11 C12 1.496(2)
N11 C14 1.481(3)
C1 C2 1.533(2)
C1 C5 1.526(2)
C2 C3 1.516(3)
C5 C6 1.389(3)
C5 C10 1.389(3)
C6 C7 1.393(3)
C7 C8 1.387(3)
C8 C9 1.378(3)
C9 C10 1.396(3)
C11 C12 1.540(2)
C11 C15 1.523(2)
C12 C13 1.520(3)
C15 C16 1.396(3)
C15 C20 1.382(3)
C16 C17 1.392(3)
C17 C18 1.378(4)
C18 C19 1.380(4)
C19 C20 1.393(3)
C21 C22 1.544(2)
C22 C23 1.528(3)
C23 C24 1.520(3)
loop_
_exptl_oxdiff_crystal_face_indexfrac_h
_exptl_oxdiff_crystal_face_indexfrac_k
_exptl_oxdiff_crystal_face_indexfrac_l
_exptl_oxdiff_crystal_face_x
_exptl_oxdiff_crystal_face_y
_exptl_oxdiff_crystal_face_z
4.0017 0.0004 0.0035 -0.1066 0.3219 -1.0853
-0.0028 -3.9970 1.9999 -0.1531 0.7165 0.5266
0.0033 4.9962 -2.0002 0.1425 -0.8979 -0.6620
-2.9994 2.9974 -1.0028 0.1458 -0.7811 0.4153
-3.0021 -0.9996 0.9971 -0.0073 -0.0646 0.9420
0.0032 0.0015 -9.9949 0.9791 0.0452 0.0740
-0.0032 -0.0015 9.9949 -0.9791 -0.0452 -0.0740
2.9988 -3.9965 1.0031 -0.1352 0.9625 -0.2800
