#------------------------------------------------------------------------------
#$Date: 2019-02-02 06:04:30 +0200 (Sat, 02 Feb 2019) $
#$Revision: 213449 $
#$URL: file:///home/coder/svn-repositories/cod/cif/1/55/05/1550543.cif $
#------------------------------------------------------------------------------
#
# This file is available in the Crystallography Open Database (COD),
# http://www.crystallography.net/. The original data for this entry
# were provided by IUCr Journals, http://journals.iucr.org/.
#
# The file may be used within the scientific community so long as
# proper attribution is given to the journal article from which the
# data were obtained.
#
data_1550543
loop_
_publ_author_name
'Dhatchaiyini, M. K.'
'NizamMohideen, M.'
'Rajasekar, G.'
'Bhaskaran, A.'
_publ_section_title
;
 Dipotassium tetrahydroxidopentaoxidotetraborate monohydrate
;
_journal_coeditor_code           WM5482
_journal_issue                   1
_journal_name_full               IUCrData
_journal_page_first              x190128
_journal_paper_doi               10.1107/S2414314619001287
_journal_volume                  4
_journal_year                    2019
_chemical_formula_iupac          'K2 (B4 O5 (O H)4), H2 O'
_chemical_formula_moiety         'B4 H4 O9, H2 O, 2(K)'
_chemical_formula_sum            'B4 H6 K2 O10'
_chemical_formula_weight         287.49
_chemical_name_systematic
;
Dipotassium tetrahydroxidopentaoxidotetraborate monohydrate
;
_space_group_crystal_system      triclinic
_space_group_IT_number           2
_space_group_name_Hall           '-P 1'
_space_group_name_H-M_alt        'P -1'
_symmetry_space_group_name_Hall  '-P 1'
_symmetry_space_group_name_H-M   'P -1'
_atom_sites_solution_hydrogens   difmap
_audit_creation_method           SHELXL-2014/7
_cell_angle_alpha                68.5720(10)
_cell_angle_beta                 88.393(2)
_cell_angle_gamma                74.9750(10)
_cell_formula_units_Z            2
_cell_length_a                   7.1850(6)
_cell_length_b                   7.8479(7)
_cell_length_c                   8.9932(8)
_cell_measurement_reflns_used    9535
_cell_measurement_temperature    296(2)
_cell_measurement_theta_max      72.85
_cell_measurement_theta_min      5.30
_cell_volume                     454.66(7)
_computing_cell_refinement
;
SAINT (Bruker, 2014)
;
_computing_data_collection
;
APEX3 (Bruker, 2014)
;
_computing_data_reduction
;
SAINT (Bruker, 2014)
;
_computing_molecular_graphics
;
ORTEP-3 for Windows (Farrugia, 2012) and PLATON (Spek, 2009)
;
_computing_publication_material
;
publCIF (Westrip, 2010)
;
_computing_structure_refinement
;
<i>SHELXL2014/7</i> (Sheldrick, 2015)
;
_computing_structure_solution
;
SHELXS97 (Sheldrick, 2008)
;
_diffrn_ambient_temperature      296(2)
_diffrn_measured_fraction_theta_full 0.996
_diffrn_measured_fraction_theta_max 0.990
_diffrn_measurement_device_type  'Bruker APEX3 CMOS'
_diffrn_measurement_method       '\w and \f scan'
_diffrn_radiation_source         'micro-focus sealed tube'
_diffrn_radiation_type           CuK\a
_diffrn_radiation_wavelength     1.54178
_diffrn_reflns_av_R_equivalents  0.0481
_diffrn_reflns_av_unetI/netI     0.0288
_diffrn_reflns_limit_h_max       8
_diffrn_reflns_limit_h_min       -8
_diffrn_reflns_limit_k_max       9
_diffrn_reflns_limit_k_min       -9
_diffrn_reflns_limit_l_max       11
_diffrn_reflns_limit_l_min       -11
_diffrn_reflns_number            12205
_diffrn_reflns_theta_full        67.679
_diffrn_reflns_theta_max         72.460
_diffrn_reflns_theta_min         5.298
_exptl_absorpt_coefficient_mu    9.682
_exptl_absorpt_correction_T_max  0.7548
_exptl_absorpt_correction_T_min  0.4276
_exptl_absorpt_correction_type   multi-scan
_exptl_absorpt_process_details
;
(<i>SADABS</i>; Bruker, 2014)
;
_exptl_crystal_colour            colourless
_exptl_crystal_density_diffrn    2.100
_exptl_crystal_description       block
_exptl_crystal_F_000             288
_exptl_crystal_size_max          0.150
_exptl_crystal_size_mid          0.150
_exptl_crystal_size_min          0.100
_refine_diff_density_max         0.261
_refine_diff_density_min         -0.406
_refine_ls_extinction_method     none
_refine_ls_goodness_of_fit_ref   1.079
_refine_ls_hydrogen_treatment    refall
_refine_ls_matrix_type           full
_refine_ls_number_parameters     169
_refine_ls_number_reflns         1782
_refine_ls_number_restraints     8
_refine_ls_restrained_S_all      1.080
_refine_ls_R_factor_all          0.0307
_refine_ls_R_factor_gt           0.0287
_refine_ls_shift/su_max          0.000
_refine_ls_shift/su_mean         0.000
_refine_ls_structure_factor_coef Fsqd
_refine_ls_weighting_details
'w=1/[\s^2^(Fo^2^)+(0.0364P)^2^+0.3324P] where P=(Fo^2^+2Fc^2^)/3'
_refine_ls_weighting_scheme      calc
_refine_ls_wR_factor_gt          0.0715
_refine_ls_wR_factor_ref         0.0729
_reflns_number_gt                1685
_reflns_number_total             1782
_reflns_threshold_expression     'I > 2\s(I)'
_cod_data_source_file            wm5482sup1.cif
_cod_data_source_block           I
_cod_database_code               1550543
_shelx_space_group_comment
;
The symmetry employed for this shelxl refinement is uniquely defined
by the following loop, which should always be used as a source of
symmetry information in preference to the above space-group names.
They are only intended as comments.
;
_shelx_estimated_absorpt_t_min   0.325
_shelx_estimated_absorpt_t_max   0.444
_shelx_hkl_file
;
  -1   0   0   16.50    2.00
  -1   0   0   16.30    1.30
  -1   0   0   20.80    4.10
  -1   0   0   16.90    1.20
   1   0   0   14.60    1.50
   1   0   0   18.90    1.10
   1   0   0   17.50    1.30
   1   0   0   17.80    1.70
  -2   0   0 1739.63  105.39
  -2   0   0 1520.45   96.49
  -2   0   0 1564.74   95.89
   2   0   0 1547.75   96.79
   2   0   0 1511.95   95.99
   2   0   0 1637.44   97.59
   2   0   0 1658.73   95.89
  -3   0   0  754.72   48.00
  -3   0   0  799.22   48.30
  -3   0   0  745.63   47.10
  -3   0   0  766.62   47.50
   3   0   0  796.52   48.90
   3   0   0  764.32   47.60
   3   0   0  838.82   47.40
  -4   0   0  270.57   20.20
  -4   0   0  286.47   19.70
  -4   0   0  276.87   21.90
  -4   0   0  315.97   39.70
  -4   0   0  304.17   18.20
   4   0   0  298.97   21.60
  -5   0   0    4.30    3.90
  -5   0   0    2.50    7.70
  -5   0   0    5.50    7.60
  -5   0   0    2.70    2.50
   5   0   0   14.40    9.00
   5   0   0    6.20    4.90
   5   0   0   15.90   12.90
   5   0   0    4.80    5.90
   5   0   0    2.40   10.70
   5   0   0    5.60    8.40
   5   0   0    1.20    6.80
  -6   0   0  470.85   33.30
  -6   0   0  515.75   30.10
  -6   0   0  424.16   35.90
  -6   0   0  450.15   33.40
  -6   0   0  500.05   30.20
   6   0   0  487.55   34.40
   6   0   0  511.55   36.30
   6   0   0  473.75   33.10
   6   0   0  538.45   32.20
   6   0   0  514.25   32.20
   6   0   0  501.35   33.40
   6   0   0  402.76   34.90
  -7   0   0   62.79    7.00
  -7   0   0   70.29   10.10
  -7   0   0   68.29   18.80
  -7   0   0   68.99    7.10
   7   0   0   86.89   13.60
   7   0   0   64.59   15.60
   7   0   0   82.09   10.50
  -8   0   0   19.90    4.00
  -8   0   0   30.50    4.40
  -8   0   0   17.50    4.90
   8   0   0   15.40    9.00
   8   0   0   28.00    7.10
   8  -1   0  183.08   17.90
   8  -1   0  132.69   12.60
  -8   1   0  152.68   13.20
  -8   1   0  124.29   11.40
  -8   1   0  166.58   10.60
   7  -1   0   58.19   12.20
   7  -1   0   66.69   16.10
   7  -1   0   55.69   10.60
   7  -1   0   60.09    9.90
   7  -1   0   80.49   16.50
  -7   1   0   42.80   11.70
  -7   1   0   57.29    6.70
  -7   1   0   42.60    7.80
  -7   1   0   58.69    8.90
   6  -1   0 2030.10  121.49
   6  -1   0 2020.70  122.69
   6  -1   0 1977.40  124.09
   6  -1   0 2170.58  123.19
   6  -1   0 2094.69  122.09
   6  -1   0 2056.89  121.89
  -6   1   0 1918.61  121.29
  -6   1   0 1982.20  120.69
  -6   1   0 1983.70  120.59
  -6   1   0 1950.50  121.59
  -6   1   0 1800.52  122.79
   5  -1   0  383.66   26.80
   5  -1   0  422.46   28.40
   5  -1   0  385.96   28.60
   5  -1   0  459.55   27.00
   5  -1   0  417.56   26.70
   5  -1   0  394.86   32.60
  -5   1   0  363.16   28.00
  -5   1   0  358.76   28.90
  -5   1   0  386.26   25.00
  -5   1   0  367.86   26.60
  -5   1   0  408.16   24.80
   4  -1   0  217.58   18.30
  -4   1   0  228.08   14.10
  -4   1   0  222.68   42.40
  -4   1   0  213.68   14.60
  -4   1   0  224.98   15.60
  -4   1   0  203.68   16.10
   3  -1   0 2468.65  151.18
   3  -1   0 2468.95  149.69
   3  -1   0 2770.12  155.88
  -3   1   0 2474.35  149.09
  -3   1   0 2321.97  149.69
  -3   1   0 2525.05  168.28
  -3   1   0 2536.15  148.99
  -3   1   0 2300.67  149.99
   2  -1   0 5366.46  337.87
  -2   1   0 5338.27  324.97
  -2   1   0 5461.05  324.37
  -2   1   0 5698.13  337.67
  -2   1   0 5219.28  324.77
  -1   1   0 3729.23  219.78
  -1   1   0 3599.24  219.68
   0  -1   0   28.90    2.10
   0  -1   0   27.70    5.80
   0  -1   0   32.30    2.10
   0  -1   0   25.80    2.00
   0  -1   0   26.40    2.00
   0   1   0   27.50    2.10
   0   1   0   29.50    1.90
   0   1   0   27.90    2.50
   0   1   0   23.40    5.50
  -1  -1   0  278.77   17.90
  -1  -1   0  285.77   17.90
  -1  -1   0  301.57   17.80
   1   1   0  311.67   17.90
   1   1   0  283.67   17.90
   1   1   0  299.87   18.00
   1   1   0  282.97   17.80
   1   1   0  318.77   17.90
  -2  -1   0  671.33   44.00
  -2  -1   0  781.72   43.90
  -2  -1   0  759.02   44.00
  -2  -1   0  721.43   45.60
  -2  -1   0  695.13   43.90
   2   1   0  797.82   44.10
   2   1   0  697.23   43.90
   2   1   0  722.53   44.60
   2   1   0  781.62   44.00
   2   1   0  665.73   43.90
  -3  -1   0 5013.30  284.97
  -3  -1   0 3889.61  268.17
  -3  -1   0 4535.05  267.87
   3   1   0 4681.93  268.27
   3   1   0 4228.08  267.97
   3   1   0 4499.65  269.57
  -4  -1   0  683.63   43.50
  -4  -1   0  773.82   65.89
   4   1   0  730.23   43.80
   4   1   0  676.33   45.90
  -5  -1   0 4133.29  241.78
  -5  -1   0 4071.19  244.48
  -5  -1   0 4216.28  246.08
  -5  -1   0 3981.80  241.88
   5   1   0 3887.21  244.08
   5   1   0 3840.72  242.88
   5   1   0 4122.49  242.98
   5   1   0 4199.98  243.58
   5   1   0 4228.58  244.88
   5   1   0 3644.04  244.28
  -6  -1   0  301.47   30.30
  -6  -1   0  361.56   22.20
  -6  -1   0  382.46   26.40
  -6  -1   0  350.36   22.50
   6   1   0  344.17   26.80
   6   1   0  347.57   28.20
   6   1   0  354.26   25.50
   6   1   0  371.46   29.20
  -7  -1   0    5.10   11.40
  -7  -1   0    6.10    3.40
  -7  -1   0    6.80    6.00
  -7  -1   0    0.40    3.30
   7   1   0   13.60    6.20
   7   1   0    5.10    6.20
   7   1   0   15.80    9.00
   7   1   0   -8.70    8.70
   7   1   0    4.40    8.80
  -8  -1   0  105.09    8.80
  -8  -1   0  112.19    9.50
   8   1   0   98.59   14.30
   8   1   0  107.39   10.70
   7  -2   0  141.99   13.20
   7  -2   0  119.49   17.00
   7  -2   0  120.19   11.20
  -7   2   0  141.79   10.80
  -7   2   0  124.89   12.60
  -7   2   0  161.18   11.20
   6  -2   0  454.75   28.50
   6  -2   0  385.96   29.80
   6  -2   0  425.96   28.90
   6  -2   0  485.55   29.40
   6  -2   0  470.55   30.40
   6  -2   0  371.86   32.40
  -6   2   0  420.16   28.90
  -6   2   0  425.16   27.20
  -6   2   0  423.46   28.10
  -6   2   0  427.06   27.20
  -6   2   0  402.66   34.20
   5  -2   0  322.87   22.50
   5  -2   0  299.07   24.20
   5  -2   0  319.17   21.90
   5  -2   0  293.27   22.00
   5  -2   0  331.87   23.70
   5  -2   0  310.37   28.20
  -5   2   0  292.57   22.80
  -5   2   0  315.17   20.20
  -5   2   0  296.57   22.20
  -5   2   0  329.57   20.10
  -5   2   0  272.37   26.90
  -5   2   0  278.37   23.10
   4  -2   0   17.20    5.40
   4  -2   0   11.30    5.10
   4  -2   0   24.30    6.30
   4  -2   0   13.30   13.10
   4  -2   0   13.20    7.70
   4  -2   0   18.00    6.80
   4  -2   0    8.80    9.10
  -4   2   0    8.40    7.10
  -4   2   0   17.40    8.80
  -4   2   0    7.90    5.20
  -4   2   0   12.00    3.80
  -4   2   0   11.00    3.00
  -4   2   0   18.00    8.00
   3  -2   0  110.79   11.30
   3  -2   0  129.29   21.00
  -3   2   0  121.69    9.50
  -3   2   0  132.09   10.50
  -3   2   0  125.59    8.60
  -3   2   0  121.09    9.70
  -3   2   0  115.49   28.10
   2  -2   0  780.72   48.50
   2  -2   0  817.22   50.19
   2  -2   0  835.82   49.20
   2  -2   0  807.62   48.40
  -2   2   0  776.72   49.20
  -2   2   0  816.82   49.50
  -2   2   0  784.62   48.90
  -2   2   0  809.22   65.69
   1  -2   0 2567.64  150.58
   1  -2   0 2465.15  151.48
   1  -2   0 2655.63  150.58
   1  -2   0 2737.03  167.28
   1  -2   0 2590.64  150.88
  -1   2   0 2387.86  150.58
  -1   2   0 2503.75  151.08
  -1   2   0 2534.25  150.68
  -1   2   0 2405.26  150.88
  -1   2   0 2481.25  150.58
  -1   2   0 2282.17  163.08
   0  -2   0 1342.47   76.59
   0  -2   0 1381.66   76.39
   0  -2   0 1217.38   87.59
   0  -2   0 1307.27   76.39
   0  -2   0 1316.57   76.29
   0  -2   0 1290.47   76.49
   0   2   0 1233.78   76.49
   0   2   0 1240.48   76.69
   0   2   0 1261.77   76.39
   0   2   0 1258.17   76.49
   0   2   0 1131.79   86.99
   0   2   0 1251.27   76.79
  -1  -2   0 2533.45  178.98
  -1  -2   0 2953.30  169.48
  -1  -2   0 2927.11  169.18
   1   2   0 2928.11  169.48
   1   2   0 2820.02  169.38
   1   2   0 2765.32  169.18
   1   2   0 2842.42  169.38
  -3  -2   0 1472.15  101.39
  -3  -2   0 1620.54   95.39
  -3  -2   0 1552.44   95.89
  -3  -2   0 1587.74   95.79
   3   2   0 1703.23   95.89
   3   2   0 1455.85   95.69
   3   2   0 1645.54   96.79
   3   2   0 1678.83   95.79
  -4  -2   0  491.25   29.00
  -4  -2   0  451.65   30.00
   4   2   0  459.85   29.40
   4   2   0  494.35   32.10
  -5  -2   0  152.08    9.70
  -5  -2   0  141.69   10.30
  -5  -2   0  144.89   15.20
   5   2   0  152.58   16.40
   5   2   0  138.99   14.40
   5   2   0  165.18   20.20
   5   2   0  123.69   19.00
   5   2   0  104.39   18.90
  -6  -2   0  686.23   41.60
  -6  -2   0  613.64   41.90
  -6  -2   0  770.22   45.70
  -6  -2   0  582.94   48.00
   6   2   0  697.83   45.10
   6   2   0  692.83   43.90
   6   2   0  717.23   46.70
   6   2   0  658.33   45.50
  -7  -2   0   92.79    7.80
  -7  -2   0   75.39   11.50
  -7  -2   0   65.39   16.30
  -7  -2   0   77.79   26.50
   7   2   0   97.09   12.00
   7   2   0   96.19   16.80
   7   2   0   81.69   15.90
   7   2   0   87.79   16.00
  -8  -2   0  843.12   49.50
  -8  -2   0  841.82   49.70
  -8  -2   0  846.92   49.40
   8   2   0  732.93   51.09
   8   2   0  764.12   51.99
   8   2   0  823.32   50.79
  -7   3   0  334.17   20.60
  -7   3   0  310.97   21.10
  -7   3   0  319.97   20.60
   6  -3   0   24.90    6.90
   6  -3   0   11.30    9.80
   6  -3   0   24.00    9.60
   6  -3   0   26.40    6.80
   6  -3   0   25.80    5.70
  -6   3   0   40.20    6.40
  -6   3   0   36.20    7.70
  -6   3   0   37.60    6.20
  -6   3   0   42.80    7.60
   5  -3   0   29.30    7.20
   5  -3   0   24.80   11.50
   5  -3   0   19.50    5.30
   5  -3   0   18.40    7.40
  -5   3   0   18.60    4.70
  -5   3   0   24.10    5.30
  -5   3   0   27.10    6.40
  -5   3   0   20.90    7.20
   4  -3   0 2789.82  167.08
   4  -3   0 2786.22  164.78
   4  -3   0 2625.14  165.48
   4  -3   0 3011.90  165.48
  -4   3   0 2561.54  164.78
  -4   3   0 2588.24  164.78
  -4   3   0 2485.55  164.38
  -4   3   0 2752.82  163.58
  -4   3   0 2594.94  165.68
  -4   3   0 2832.02  164.28
  -4   3   0 2805.12  163.68
   3  -3   0 4515.65  259.27
   3  -3   0 4392.56  259.57
   3  -3   0 4468.95  258.87
   3  -3   0 4173.38  259.27
   3  -3   0 4323.67  259.17
  -3   3   0 4414.96  258.37
  -3   3   0 4380.46  258.47
  -3   3   0 4000.20  258.97
  -3   3   0 4379.46  259.87
  -3   3   0 4197.28  259.27
  -3   3   0 4229.48  261.17
  -3   3   0 4182.38  259.07
  -3   3   0 4252.07  258.77
   2  -3   0 1933.71  119.09
   2  -3   0 1992.20  118.99
   2  -3   0 2093.39  121.49
  -2   3   0 1759.02  143.79
  -2   3   0 2004.10  120.29
  -2   3   0 2118.39  119.29
  -2   3   0 2016.50  119.59
  -2   3   0 1943.31  119.89
  -2   3   0 1953.90  119.39
   1  -3   0 1987.40  115.09
   1  -3   0 2087.99  114.69
   1  -3   0 2053.19  114.79
   1  -3   0 1989.50  115.89
  -1   3   0 1834.62  115.19
  -1   3   0 1854.01  114.89
  -1   3   0 1970.90  114.69
  -1   3   0 1838.32  114.89
  -1   3   0 1819.42  114.89
  -1   3   0 1652.93  134.89
  -1   3   0 1872.51  115.49
   0  -3   0  279.87   16.60
   0  -3   0  265.07   16.90
   0  -3   0  294.97   16.60
   0  -3   0  269.97   17.00
   0  -3   0  249.58   16.50
   0   3   0  234.98   32.20
   0   3   0  264.97   16.70
   0   3   0  242.18   17.00
   0   3   0  275.07   16.30
   0   3   0  264.77   16.80
   0   3   0  270.87   16.90
  -1  -3   0  598.64   35.30
  -1  -3   0  574.44   35.30
   1   3   0  560.84   35.40
   1   3   0  577.34   35.00
  -2  -3   0  251.27   15.90
  -2  -3   0  248.38   16.20
  -2  -3   0  263.47   16.20
   2   3   0  257.87   16.10
   2   3   0  259.17   16.30
   2   3   0  262.47   15.90
   2   3   0  253.17   16.10
  -3  -3   0 3770.72  228.58
  -3  -3   0 3609.24  229.08
   3   3   0 3748.12  228.98
   3   3   0 4026.60  229.08
   3   3   0 3913.21  228.98
  -4  -3   0  138.69   11.70
  -4  -3   0  145.89   11.30
  -4  -3   0  149.59   10.70
   4   3   0  166.68   10.60
   4   3   0  146.29   10.90
  -5  -3   0 1645.54   98.39
  -5  -3   0 1828.42  102.29
   5   3   0 1652.13  100.79
   5   3   0 1429.56  100.19
   5   3   0 1512.95  101.89
   5   3   0 1639.94  100.09
   5   3   0 1705.03  102.09
  -6  -3   0 1611.94  108.19
  -6  -3   0 1768.62  103.49
   6   3   0 1749.53  107.19
   6   3   0 1777.42  105.19
   6   3   0 1770.32  107.29
   6   3   0 1672.63  106.89
   6   3   0 1490.65  105.59
   6   3   0 1854.71  106.39
  -7  -3   0  405.66   27.10
  -7  -3   0  408.66   25.50
  -7  -3   0  389.86   25.60
  -7  -3   0  380.76   31.30
   7   3   0  409.56   31.90
   7   3   0  410.46   30.70
   7   3   0  408.36   27.90
   7   3   0  430.16   31.00
  -8  -3   0   52.89    6.90
  -8  -3   0   50.99    7.70
   8   3   0   51.89   12.70
   8   3   0   64.09    8.90
   8   3   0   80.09   11.30
   6  -4   0 1014.40   62.09
   6  -4   0  918.61   62.09
   6  -4   0 1027.40   62.79
  -6   4   0 1047.60   61.99
  -6   4   0 1025.70   61.99
  -6   4   0 1057.09   62.19
   5  -4   0  267.57   18.80
   5  -4   0  231.68   19.90
   5  -4   0  261.77   21.60
  -5   4   0  274.57   18.00
  -5   4   0  277.67   18.50
  -5   4   0  275.77   18.90
  -5   4   0  217.68   22.20
   4  -4   0   37.50    6.90
   4  -4   0   47.20   13.70
   4  -4   0   53.59    9.70
   4  -4   0   34.70    8.90
   4  -4   0   42.80   10.70
   4  -4   0   28.60    7.00
  -4   4   0   39.60    8.50
  -4   4   0   35.50    9.10
  -4   4   0   30.10    7.20
  -4   4   0   26.20    5.80
  -4   4   0   40.00    9.40
  -4   4   0   39.90    7.50
  -4   4   0   33.20   11.30
   3  -4   0   -1.00    5.50
   3  -4   0    5.20    5.10
  -3   4   0   -0.30    9.00
  -3   4   0    5.40    9.90
  -3   4   0   13.20    8.60
  -3   4   0   14.10    5.30
  -3   4   0    4.80    7.40
  -3   4   0    2.20    4.50
  -3   4   0    6.20    4.20
  -3   4   0    3.70    4.30
   2  -4   0  550.84   36.90
   2  -4   0  563.04   35.40
   2  -4   0  591.84   35.80
   2  -4   0  580.24   37.10
   2  -4   0  484.95   37.00
   2  -4   0  562.54   36.10
  -2   4   0  554.44   34.90
  -2   4   0  539.75   36.40
  -2   4   0  555.94   34.60
  -2   4   0  502.75   36.00
  -2   4   0  570.94   36.70
  -2   4   0  572.44   35.90
  -2   4   0  563.74   34.90
  -2   4   0  550.34   34.70
  -2   4   0  532.65   39.80
   1  -4   0   22.80   12.00
   1  -4   0   15.90    3.40
   1  -4   0   18.00    3.50
  -1   4   0    9.70    3.80
  -1   4   0   20.60    5.50
  -1   4   0   19.50   31.60
  -1   4   0   15.90    4.10
  -1   4   0   20.20    3.90
  -1   4   0   13.70    3.60
   0  -4   0  702.63   42.00
   0  -4   0  693.03   42.00
   0  -4   0  686.83   41.60
   0  -4   0  688.43   41.90
   0   4   0  702.43   42.30
   0   4   0  617.04   42.00
   0   4   0  654.63   41.90
   0   4   0  695.83   42.30
   0   4   0  707.23   41.60
  -1  -4   0 3731.13  212.28
  -1  -4   0 3143.49  212.38
  -1  -4   0 3419.56  211.88
  -1  -4   0 3582.44  211.68
   1   4   0 3455.35  212.28
   1   4   0 3490.55  212.28
   1   4   0 3882.91  211.78
  -2  -4   0   50.69    4.80
  -2  -4   0   45.20    5.10
  -2  -4   0   38.60    4.90
  -2  -4   0   51.19    4.10
   2   4   0   43.50    5.10
   2   4   0   47.10    5.10
   2   4   0   46.60    5.10
   2   4   0   47.30    4.60
  -3  -4   0 2519.95  155.68
  -3  -4   0 2511.65  155.48
  -3  -4   0 2570.94  156.28
  -3  -4   0 2618.24  156.18
   3   4   0 2563.84  155.68
   3   4   0 2731.33  156.08
   3   4   0 2466.75  155.98
   3   4   0 2727.03  156.08
  -4  -4   0  365.16   29.20
  -4  -4   0  491.05   27.00
  -4  -4   0  462.65   28.20
   4   4   0  424.36   33.50
   4   4   0  451.35   33.70
   4   4   0  427.66   30.70
   4   4   0  475.75   27.80
   4   4   0  369.76   31.20
  -5  -4   0  107.89   18.90
  -5  -4   0   98.79   15.60
  -5  -4   0  129.39    8.70
  -5  -4   0  139.69   16.70
   5   4   0  100.69   18.20
   5   4   0  103.09   16.70
   5   4   0  139.39   19.50
   5   4   0  132.99   13.60
  -6  -4   0  293.47   22.10
  -6  -4   0  316.87   19.60
  -6  -4   0  298.27   28.50
   6   4   0  291.27   24.80
   6   4   0  336.27   27.70
   6   4   0  312.87   23.10
   6   4   0  272.77   26.90
   6   4   0  322.87   28.20
  -7  -4   0    9.30   14.30
  -7  -4   0   29.60    5.30
   7   4   0   36.90    9.80
  -8  -4   0  314.67   20.50
  -8  -4   0  309.37   20.20
   8   4   0  306.07   21.50
   8   4   0  350.26   24.00
   8   4   0  295.67   23.70
   5  -5   0  522.35   33.30
   5  -5   0  499.25   35.10
   5  -5   0  546.95   33.70
  -5   5   0  534.75   34.10
  -5   5   0  572.14   33.70
   4  -5   0   46.50    7.60
   4  -5   0   35.40    6.50
   4  -5   0   43.20   10.60
   4  -5   0   18.00    7.30
  -4   5   0   16.20    7.00
  -4   5   0   25.10    5.70
  -4   5   0   38.30    7.40
  -4   5   0   36.90    8.30
   3  -5   0    6.40    6.80
   3  -5   0    0.20    5.40
   3  -5   0    1.20    6.00
   3  -5   0   -3.10    5.40
   3  -5   0    5.70    6.70
  -3   5   0    0.30    6.00
  -3   5   0   -4.90    6.00
  -3   5   0    1.40    4.90
  -3   5   0    6.20    7.20
  -3   5   0    5.20    6.90
  -3   5   0    2.80    6.50
  -3   5   0    1.80    9.80
   2  -5   0 1458.75   88.69
   2  -5   0 1528.25   88.29
   2  -5   0 1401.96   88.59
   2  -5   0 1586.74   89.09
  -2   5   0 1408.76   88.29
  -2   5   0 1381.36   87.79
  -2   5   0 1327.77   88.29
  -2   5   0 1420.06   89.09
  -2   5   0 1436.06   88.09
   1  -5   0  881.31   54.79
   1  -5   0  899.91   53.89
   1  -5   0  914.51   54.69
   1  -5   0  837.62   54.49
   1  -5   0  845.52   53.69
   1  -5   0  956.30   54.39
   1  -5   0  860.31   54.69
  -1   5   0  921.51   54.09
  -1   5   0  902.51   53.79
  -1   5   0  807.62   54.09
  -1   5   0  874.01   53.59
  -1   5   0  850.51   54.99
  -1   5   0  791.52   56.69
  -1   5   0  733.53   58.79
  -1   5   0  959.70   53.89
  -1   5   0  791.12   56.39
   0  -5   0  151.08   16.80
   0  -5   0  151.38   11.50
   0  -5   0  140.19   12.20
   0  -5   0  131.09   15.60
   0  -5   0  140.99   13.50
   0  -5   0  152.68   11.80
   0  -5   0  161.68   11.30
   0   5   0  140.89   13.90
   0   5   0  163.28   12.20
   0   5   0  162.38   12.80
   0   5   0  157.58   23.90
   0   5   0  124.29   15.90
   0   5   0  170.88   18.20
   0   5   0  156.38   12.30
  -1  -5   0  242.98   14.70
  -1  -5   0  218.48   17.20
  -1  -5   0  224.08   15.40
  -1  -5   0  237.38   15.80
   1   5   0  181.38   22.00
   1   5   0  211.78   19.30
   1   5   0  218.08   22.30
   1   5   0  223.48   19.70
   1   5   0  220.48   15.50
   1   5   0  229.48   15.90
   1   5   0  231.08   16.20
  -2  -5   0    9.40    3.10
  -2  -5   0    6.40    5.80
  -2  -5   0    9.30    4.40
  -2  -5   0    8.30    3.20
  -2  -5   0    1.20    8.30
  -2  -5   0   17.80    3.60
   2   5   0   28.10   10.70
   2   5   0   16.60    6.20
   2   5   0   17.20    7.80
   2   5   0   11.30    4.70
   2   5   0   10.00    9.40
   2   5   0    8.30    4.50
  -3  -5   0  459.75   29.30
  -3  -5   0  503.75   30.50
  -3  -5   0  457.65   32.00
  -3  -5   0  494.15   31.60
  -3  -5   0  460.25   30.50
  -3  -5   0  478.35   29.60
   3   5   0  504.05   35.10
   3   5   0  391.56   33.00
   3   5   0  498.85   30.60
   3   5   0  487.75   31.70
   3   5   0  460.55   33.10
  -4  -5   0 1108.59   69.89
  -4  -5   0 1106.29   71.09
  -4  -5   0 1134.99   70.79
  -4  -5   0 1134.29   69.69
   4   5   0 1159.08   72.59
   4   5   0 1176.58   73.49
   4   5   0 1072.79   71.89
   4   5   0 1291.07   74.19
   4   5   0 1120.49   72.09
   4   5   0 1184.88   70.59
  -5  -5   0  843.32   51.09
  -5  -5   0  845.02   51.39
  -5  -5   0  688.73   56.59
  -5  -5   0  839.02   53.09
   5   5   0  834.42   53.49
   5   5   0  875.11   58.59
   5   5   0  775.92   53.69
   5   5   0  937.31   56.39
   5   5   0  871.21   56.29
  -6  -5   0  120.79   22.60
  -6  -5   0  145.69   10.80
  -6  -5   0  134.39   15.80
  -6  -5   0  137.49   10.20
   6   5   0  135.09   15.00
   6   5   0   99.99   25.70
   6   5   0  138.09   19.70
   6   5   0  152.38   17.80
   6   5   0  122.69   20.70
   6   5   0  117.19   16.20
  -7  -5   0  679.13   40.70
  -7  -5   0  612.54   44.90
  -7  -5   0  614.84   42.30
   7   5   0  680.93   42.10
   7   5   0  652.53   44.70
   7   5   0  702.93   44.50
  -8  -5   0  218.68   13.70
  -8  -5   0  212.68   13.70
   8   5   0  176.78   16.40
   8   5   0  193.08   18.10
   4  -6   0  197.38   14.40
   4  -6   0  207.08   14.60
  -4   6   0  238.98   14.40
  -4   6   0  234.88   16.00
  -4   6   0  168.98   17.30
   3  -6   0   34.30   10.70
   3  -6   0   35.80    6.10
   3  -6   0   26.60   10.70
   3  -6   0   33.50    6.60
  -3   6   0   32.20   11.60
  -3   6   0   40.30    9.40
  -3   6   0   54.69    9.90
   2  -6   0   -0.70    4.60
   2  -6   0    2.70    7.10
   2  -6   0    8.30    5.60
   2  -6   0   -3.30    4.90
  -2   6   0   -3.80    6.70
  -2   6   0    1.80    6.20
  -2   6   0    0.20    9.10
  -2   6   0    8.70    7.60
  -2   6   0   16.20   11.00
  -2   6   0    5.10    5.40
   1  -6   0  791.22   48.90
   1  -6   0  875.21   49.00
   1  -6   0  769.12   49.60
   1  -6   0  813.92   48.50
   1  -6   0  743.63   49.20
  -1   6   0  721.93   51.79
  -1   6   0  798.52   49.30
  -1   6   0  776.92   49.90
  -1   6   0  718.83   50.09
  -1   6   0  739.33   55.29
  -1   6   0  748.93   48.80
   0  -6   0 3870.31  212.08
   0  -6   0 3450.05  212.58
   0  -6   0 3485.85  212.18
   0  -6   0 3633.44  211.88
   0  -6   0 3819.02  211.08
   0   6   0 3322.87  213.48
   0   6   0 3653.73  212.18
   0   6   0 3348.57  212.78
   0   6   0 3015.10  213.88
   0   6   0 3497.15  211.58
  -1  -6   0 2977.60  173.98
  -1  -6   0 3064.99  174.28
  -1  -6   0 2813.32  174.78
  -1  -6   0 2784.12  173.78
  -1  -6   0 2941.51  174.88
  -1  -6   0 3149.88  175.18
   1   6   0 2748.32  176.38
   1   6   0 2767.62  175.18
   1   6   0 2762.12  174.98
  -2  -6   0  731.93   41.80
  -2  -6   0  741.33   43.00
  -2  -6   0  664.43   42.70
  -2  -6   0  697.53   41.70
  -2  -6   0  566.84   45.80
  -2  -6   0  722.93   42.10
   2   6   0  650.13   43.50
   2   6   0  642.24   44.90
   2   6   0  603.94   45.80
   2   6   0  700.23   43.30
  -3  -6   0  468.65   29.20
  -3  -6   0  467.55   28.80
  -3  -6   0  478.35   28.40
  -3  -6   0  458.65   30.70
  -3  -6   0  477.95   30.40
   3   6   0  459.05   30.60
   3   6   0  394.16   32.80
   3   6   0  429.26   31.00
   3   6   0  462.35   46.20
   3   6   0  447.56   32.30
   3   6   0  436.56   34.80
  -4  -6   0   76.59    7.40
  -4  -6   0   64.19    6.40
  -4  -6   0   73.09   11.70
  -4  -6   0   49.60   10.60
  -4  -6   0   72.49   11.10
  -4  -6   0   69.49    8.50
   4   6   0   67.79   18.40
   4   6   0   46.50   11.00
   4   6   0   60.99   15.40
   4   6   0   64.79   11.80
   4   6   0   74.19   17.90
  -5  -6   0    5.40    4.10
  -5  -6   0    1.70    5.80
  -5  -6   0    1.40    6.30
  -5  -6   0    1.60    4.10
  -5  -6   0    2.60    3.40
   5   6   0    5.80   10.20
   5   6   0    0.10   12.40
   5   6   0    8.10    9.30
  -6  -6   0    2.40    6.70
  -6  -6   0    6.40    3.90
  -6  -6   0   11.00    3.70
  -6  -6   0    0.30    5.70
   6   6   0  -13.60    8.40
   6   6   0  -26.90   17.50
   6   6   0   12.60   10.20
   6   6   0   -6.40    7.40
  -7  -6   0   19.20    4.10
  -7  -6   0   21.00    6.50
  -7  -6   0   24.30    5.20
  -7  -6   0   15.00    4.30
  -7  -6   0   12.10    5.10
   7   6   0   18.70    6.80
   3  -7   0  382.86   32.00
   3  -7   0  451.35   27.10
   3  -7   0  482.95   27.30
  -3   7   0  370.56   27.90
  -3   7   0  476.25   28.60
   2  -7   0  402.16   28.00
   2  -7   0  439.46   30.40
   2  -7   0  432.76   27.90
   2  -7   0  442.56   28.00
   2  -7   0  448.06   27.50
  -2   7   0  402.96   35.90
  -2   7   0  442.76   28.70
   1  -7   0  127.59   12.70
   1  -7   0  145.49   12.30
   1  -7   0  143.59   12.60
  -1   7   0  140.69   19.50
  -1   7   0   80.49   20.50
  -1   7   0  135.89   22.00
   0  -7   0 1449.26   82.79
   0  -7   0 1326.27   83.19
   0  -7   0 1344.87   83.59
   0  -7   0 1422.06   82.69
   0  -7   0 1422.76   82.99
   0   7   0 1296.47   85.59
   0   7   0 1234.98   84.59
   0   7   0 1312.77   83.79
  -1  -7   0  101.69    8.60
  -1  -7   0   81.89    9.70
  -1  -7   0   85.59   10.40
  -1  -7   0   64.19   14.70
  -1  -7   0   93.49   12.80
  -1  -7   0   86.29   13.80
   1   7   0   99.69   14.70
   1   7   0   62.39   12.50
   1   7   0   97.39   20.10
   1   7   0   95.89   14.50
  -2  -7   0   27.80    6.10
  -2  -7   0   39.80    7.30
  -2  -7   0   35.80    5.70
  -2  -7   0   17.00    7.40
  -2  -7   0   38.90    6.90
  -2  -7   0   21.60    7.20
  -2  -7   0   38.80    6.80
   2   7   0   29.40   12.60
   2   7   0   31.80    8.60
   2   7   0   50.19   12.70
  -3  -7   0  447.46   26.20
  -3  -7   0  406.76   28.50
  -3  -7   0  446.36   27.60
  -3  -7   0  398.06   26.00
  -3  -7   0  360.16   28.60
  -3  -7   0  422.66   26.30
   3   7   0  390.16   29.70
   3   7   0  410.46   31.30
  -4  -7   0   91.09    7.60
  -4  -7   0   74.69    9.40
  -4  -7   0   75.59    7.30
  -4  -7   0   86.59   14.80
  -4  -7   0   67.19    7.30
   4   7   0   59.69   13.70
   4   7   0   64.59   15.10
   4   7   0   58.49   15.00
  -5  -7   0  530.55   30.30
  -5  -7   0  487.95   30.80
  -5  -7   0  469.05   29.80
  -5  -7   0  422.36   31.20
   5   7   0  444.16   32.20
   5   7   0  490.95   35.70
  -6  -7   0 1055.49   66.99
  -6  -7   0 1084.79   67.59
  -6  -7   0 1120.29   66.99
  -6  -7   0 1054.29   67.09
   6   7   0 1152.88   69.99
   6   7   0 1161.78   70.29
  -7  -7   0  166.48   10.30
  -7  -7   0  126.59   11.30
   1  -8   0   32.00    8.90
   1  -8   0   27.80    6.20
   1  -8   0   30.30    4.10
  -1   8   0   50.19   10.70
  -1   8   0   17.40    6.20
  -1   8   0   34.40    9.00
   0  -8   0   72.69    9.90
   0  -8   0   65.59    8.00
   0  -8   0   65.69    8.90
   0  -8   0   70.89    6.80
   0   8   0   76.69   10.30
   0   8   0   77.59   11.10
   0   8   0   41.50   11.50
  -1  -8   0  644.84   43.50
  -1  -8   0  685.83   42.30
  -1  -8   0  685.73   42.30
  -1  -8   0  679.73   42.60
   1   8   0  716.43   45.10
   1   8   0  688.63   44.10
  -2  -8   0  782.22   48.90
  -2  -8   0  753.92   48.80
  -2  -8   0  780.52   48.10
   2   8   0  814.22   51.29
   2   8   0  848.52   51.19
   2   8   0  807.32   50.79
   2   8   0  758.72   53.69
  -3  -8   0  188.88   12.50
  -3  -8   0  188.38   13.60
  -3  -8   0  185.38   13.50
  -3  -8   0  182.78   16.80
   3   8   0  182.68   16.40
   3   8   0  175.58   17.80
  -4  -8   0  965.40   51.49
  -4  -8   0  801.52   50.69
  -4  -8   0  730.43   51.19
  -4  -8   0  783.82   51.19
   4   8   0  818.22   52.49
   4   8   0  858.71   55.89
   4   8   0  879.31   52.59
  -5  -8   0   -0.60    3.50
  -5  -8   0    2.40    1.80
  -5  -8   0    5.20    3.60
  -5  -8   0   -1.30    3.40
   5   8   0    7.10   10.00
   5   8   0   17.90    7.60
  -6  -8   0    4.90    2.50
  -6  -8   0   10.30    3.60
  -6  -8   0    7.50    2.80
   6   8   0    7.40    8.10
   6   8   0   11.30    5.00
  -2  -9   0   64.79    5.80
   2   9   0   64.59    7.10
  -3  -9   0   18.40    3.80
   3   9   0   22.40    8.20
   5   8  -1   -5.30   10.20
  -5  -8   1    1.20    3.70
  -5  -8   1   -4.80    3.90
  -5  -8   1    1.20    3.60
   4   8  -1   55.89   10.40
   4   8  -1   64.89   12.80
  -4  -8   1   64.49    7.10
  -4  -8   1   63.09    5.50
  -4  -8   1   60.19    6.70
   3   8  -1  603.34   44.60
   3   8  -1  714.93   42.70
   3   8  -1  702.63   42.40
  -3  -8   1  659.63   41.00
  -3  -8   1  691.13   40.40
  -3  -8   1  587.24   41.60
  -3  -8   1  671.33   41.10
   2   8  -1  165.38   23.10
   2   8  -1  196.28   17.30
   2   8  -1  177.68   15.10
  -2  -8   1  173.38   12.40
  -2  -8   1  179.28   12.60
  -2  -8   1  169.18   13.30
  -2  -8   1  165.88   12.30
   1   8  -1  134.49   12.60
   1   8  -1  158.28   14.00
  -1  -8   1  125.79    9.80
  -1  -8   1  107.69   19.00
  -1  -8   1  143.19   10.10
  -1  -8   1  117.69   10.40
   0   8  -1  545.65   36.50
   0  -8   1  585.54   34.70
   0  -8   1  618.44   35.10
   0  -8   1  491.85   35.80
  -1   8  -1  496.25   28.10
   1  -8   1  380.96   26.70
   6   7  -1  300.77   22.00
   6   7  -1  286.67   22.30
  -6  -7   1  274.87   17.80
  -6  -7   1  251.97   17.60
   5   7  -1  485.45   35.50
   5   7  -1  454.65   34.90
   5   7  -1  500.45   31.90
  -5  -7   1  460.75   31.00
  -5  -7   1  503.15   30.30
  -5  -7   1  487.55   30.10
  -5  -7   1  472.55   29.90
   4   7  -1  769.12   52.09
   4   7  -1  714.13   47.90
   4   7  -1  762.42   53.79
  -4  -7   1  701.13   45.70
  -4  -7   1  778.82   45.80
   3   7  -1  197.18   21.40
   3   7  -1  227.98   19.10
  -3  -7   1  243.68   16.90
  -3  -7   1  245.08   17.40
  -3  -7   1  236.58   15.60
  -3  -7   1  215.38   15.60
  -3  -7   1  232.78   15.70
   2   7  -1  221.28   20.70
   2   7  -1  189.38   26.70
   2   7  -1  214.18   23.30
  -2  -7   1  210.48   16.60
  -2  -7   1  262.67   16.60
  -2  -7   1  265.37   17.60
  -2  -7   1  255.47   18.10
  -2  -7   1  270.97   16.50
   1   7  -1    2.40   11.70
   1   7  -1   13.00    8.80
   1   7  -1   -5.70    6.20
  -1  -7   1    6.80    4.70
  -1  -7   1   -2.40    3.40
  -1  -7   1    3.20    4.20
   0   7  -1   37.70   15.00
   0   7  -1   49.00   12.10
   0  -7   1   61.39   13.80
   0  -7   1   52.89    9.70
   0  -7   1   75.29   12.80
  -1   7  -1   89.49   11.60
  -1   7  -1   69.69   12.70
   1  -7   1  109.59    9.60
   1  -7   1   98.79    8.70
   1  -7   1   88.49   10.10
   1  -7   1  100.29   11.90
  -2   7  -1  537.05   40.80
  -2   7  -1  579.94   38.40
  -2   7  -1  659.93   37.50
   2  -7   1  591.34   36.70
   2  -7   1  596.74   36.90
   2  -7   1  575.64   37.10
  -3   7  -1  118.09    8.30
  -3   7  -1  109.99    9.80
   3  -7   1   85.69    7.30
   7   6  -1   23.00    7.20
  -7  -6   1   31.80    5.40
  -7  -6   1   34.20    6.00
   6   6  -1   10.70    9.30
   6   6  -1    9.80    8.30
   6   6  -1   21.10    9.80
  -6  -6   1    4.70    4.20
  -6  -6   1    4.40    3.80
  -6  -6   1   15.80    6.90
  -6  -6   1    7.40    3.80
   5   6  -1  770.92   49.10
   5   6  -1  729.63   53.19
   5   6  -1  738.93   51.89
   5   6  -1  795.52   53.69
  -5  -6   1  742.63   48.80
  -5  -6   1  750.22   48.00
  -5  -6   1  804.02   47.80
  -5  -6   1  833.22   47.50
   4   6  -1   29.40    7.90
   4   6  -1   31.00   10.40
   4   6  -1   44.30   17.10
   4   6  -1   57.09   18.10
  -4  -6   1   29.60    5.60
  -4  -6   1   28.70    8.50
  -4  -6   1   32.80    5.20
  -4  -6   1   19.90    8.60
  -4  -6   1   27.70    5.60
   3   6  -1    2.40    6.70
   3   6  -1    2.00   20.20
   3   6  -1   13.10   10.30
  -3  -6   1    5.60    4.00
  -3  -6   1   15.10    6.70
  -3  -6   1    7.70    2.90
  -3  -6   1    7.00    4.40
  -3  -6   1   12.40    6.40
   2   6  -1   25.70   11.50
   2   6  -1   34.80    8.00
   2   6  -1   50.59   11.70
  -2  -6   1   67.79    9.70
  -2  -6   1   41.80    8.60
  -2  -6   1   59.09    6.60
  -2  -6   1   41.30    7.60
  -2  -6   1   47.10    9.90
  -2  -6   1   57.49    5.90
   1   6  -1  649.43   46.10
   1   6  -1  685.13   46.90
  -1  -6   1  761.02   45.40
  -1  -6   1  598.04   44.50
  -1  -6   1  743.83   44.00
  -1  -6   1  746.43   45.00
  -1  -6   1  764.52   43.80
  -1  -6   1  708.83   43.60
   0   6  -1   35.30    9.60
   0   6  -1   12.40   13.90
   0   6  -1   28.40   10.30
   0  -6   1   46.10   11.60
   0  -6   1   42.30    5.60
   0  -6   1   21.40    7.20
   0  -6   1   34.70    6.60
   0  -6   1   38.50    7.50
   0  -6   1   22.60    6.50
  -1   6  -1  502.15   37.20
  -1   6  -1  477.45   40.90
  -1   6  -1  509.35   35.80
   1  -6   1  514.05   35.60
   1  -6   1  563.14   34.80
   1  -6   1  569.94   34.80
   1  -6   1  563.74   34.20
  -2   6  -1  341.97   24.00
  -2   6  -1  296.07   31.40
   2  -6   1  347.07   22.30
   2  -6   1  352.06   22.50
   2  -6   1  303.77   23.40
  -3   6  -1   51.29   23.00
  -3   6  -1   14.10    7.10
  -3   6  -1   19.60    7.70
  -3   6  -1   11.50    5.50
   3  -6   1   11.40    4.80
   3  -6   1    6.80    4.90
   3  -6   1   10.50    4.40
  -4   6  -1    4.30    3.40
  -4   6  -1   -6.30    6.60
   4  -6   1    0.30    3.20
   4  -6   1    3.30    4.30
   4  -6   1    5.50    4.10
   8   5  -1    9.00    4.90
   8   5  -1    2.20    4.40
  -8  -5   1    3.50    3.20
  -8  -5   1    3.40    4.20
   7   5  -1  625.44   41.80
   7   5  -1  591.44   39.60
   7   5  -1  673.93   41.50
  -7  -5   1  618.34   38.60
  -7  -5   1  603.14   38.40
  -7  -5   1  609.24   39.90
  -7  -5   1  602.24   38.20
   6   5  -1  360.76   29.50
   6   5  -1  313.77   27.30
   6   5  -1  336.47   27.70
   6   5  -1  333.77   24.00
  -6  -5   1  332.07   21.20
  -6  -5   1  319.37   21.60
  -6  -5   1  303.97   22.50
   5   5  -1  304.17   25.20
   5   5  -1  356.76   24.60
   5   5  -1  349.47   28.60
   5   5  -1  286.37   29.60
  -5  -5   1  277.77   24.30
  -5  -5   1  300.97   22.30
  -5  -5   1  294.57   24.80
  -5  -5   1  325.97   20.40
  -5  -5   1  326.27   20.90
   4   5  -1  399.36   32.10
   4   5  -1  385.06   36.50
   4   5  -1  411.96   27.20
   4   5  -1  392.86   35.00
  -4  -5   1  429.16   26.30
  -4  -5   1  423.56   27.50
   3   5  -1  397.76   26.20
   3   5  -1  372.56   27.60
   3   5  -1  377.76   31.70
   3   5  -1  357.06   39.50
   3   5  -1  332.07   28.00
   3   5  -1  420.46   26.30
  -3  -5   1  370.66   26.10
  -3  -5   1  437.26   26.00
  -3  -5   1  404.66   27.40
  -3  -5   1  402.96   24.60
  -3  -5   1  400.76   25.00
   2   5  -1   32.80    8.20
   2   5  -1   14.70    8.20
   2   5  -1    5.50   25.70
   2   5  -1   16.00    6.40
   2   5  -1   21.70   10.90
   2   5  -1   15.30   10.80
   2   5  -1   25.30    6.30
  -2  -5   1   13.80    4.00
  -2  -5   1   26.70    5.80
  -2  -5   1   23.70    4.30
  -2  -5   1   29.30    5.50
  -2  -5   1   14.80    6.90
   1   5  -1  411.36   32.70
   1   5  -1  434.56   31.80
   1   5  -1  449.46   32.00
   1   5  -1  457.25   30.30
   1   5  -1  430.96   30.20
  -1  -5   1  472.15   31.00
  -1  -5   1  484.35   29.90
  -1  -5   1  484.25   29.80
  -1  -5   1  497.35   29.00
  -1  -5   1  510.45   29.40
  -1  -5   1  477.85   30.70
   0   5  -1  184.28   21.10
   0   5  -1  170.68   16.50
   0   5  -1  175.68   15.60
   0   5  -1  184.28   18.20
   0   5  -1  166.98   18.50
   0  -5   1  201.38   14.80
   0  -5   1  189.58   13.40
   0  -5   1  193.28   13.90
   0  -5   1  198.98   13.70
   0  -5   1  189.98   14.10
   0  -5   1  194.48   15.60
   0  -5   1  196.48   18.70
  -1   5  -1  562.74   42.50
  -1   5  -1  715.63   41.70
  -1   5  -1  659.33   41.60
  -1   5  -1  646.54   41.80
  -1   5  -1  568.34   44.50
  -1   5  -1  658.43   53.29
   1  -5   1  650.43   41.40
   1  -5   1  729.53   40.70
  -2   5  -1   67.49   11.20
  -2   5  -1   66.29   10.10
  -2   5  -1   74.89   13.20
  -2   5  -1   53.69   11.90
  -2   5  -1   61.89   10.50
  -2   5  -1   71.39   18.50
  -2   5  -1   61.29   11.60
   2  -5   1   55.99   10.90
   2  -5   1   49.20   10.80
   2  -5   1   88.19   12.20
   2  -5   1   51.29    9.40
  -3   5  -1  759.92   48.90
  -3   5  -1  844.62   50.19
  -3   5  -1  801.72   48.70
   3  -5   1  694.93   49.20
   3  -5   1  704.93   53.69
   3  -5   1  817.12   49.40
   3  -5   1  813.32   49.70
   3  -5   1  809.92   49.20
  -4   5  -1 2075.29  123.29
  -4   5  -1 2069.19  123.19
  -4   5  -1 1832.72  124.59
  -4   5  -1 2158.88  124.29
   4  -5   1 2133.89  123.79
   4  -5   1 2006.90  123.59
   4  -5   1 1982.50  123.59
  -5   5  -1  398.96   24.10
  -5   5  -1  412.96   24.60
   5  -5   1  357.86   23.90
   5  -5   1  374.66   24.50
   5  -5   1  351.86   24.10
   8   4  -1  181.48   14.30
   8   4  -1  206.08   17.30
  -8  -4   1  171.38   13.10
   7   4  -1    3.40   10.30
   7   4  -1    7.50    8.10
  -7  -4   1    2.90    4.00
  -7  -4   1   -1.90    4.60
  -7  -4   1   12.20    7.00
  -7  -4   1    8.90   14.20
   6   4  -1  987.80   64.89
   6   4  -1 1034.90   66.79
   6   4  -1  978.70   62.09
   6   4  -1  978.30   64.19
   6   4  -1  999.40   64.29
  -6  -4   1  957.00   60.09
  -6  -4   1 1029.60   60.59
  -6  -4   1  926.51   66.19
   5   4  -1  241.78   23.10
   5   4  -1  259.47   22.30
   5   4  -1  201.18   23.50
  -5  -4   1  226.18   21.80
  -5  -4   1  263.07   16.70
   4   4  -1   55.29   16.30
   4   4  -1   58.39   12.80
   4   4  -1   64.29    7.10
   4   4  -1   55.39   16.90
   4   4  -1   45.00   10.80
   4   4  -1   50.59   10.00
  -4  -4   1   60.19    5.40
  -4  -4   1   67.79    8.10
  -4  -4   1   54.69    6.70
   3   4  -1  209.08   30.00
   3   4  -1  166.88   23.00
   3   4  -1  203.58   13.20
   3   4  -1  183.98   13.80
   3   4  -1  185.18   24.50
   3   4  -1  208.78   13.40
   3   4  -1  186.68   13.80
  -3  -4   1  186.88   14.60
  -3  -4   1  205.18   13.50
  -3  -4   1  178.68   12.50
  -3  -4   1  184.58   13.10
   2   4  -1 4632.54  276.17
   2   4  -1 4691.23  276.27
   2   4  -1 4685.73  276.17
   2   4  -1 4710.13  275.97
  -2  -4   1 4696.83  276.57
  -2  -4   1 4623.74  276.47
  -2  -4   1 4440.66  275.87
  -2  -4   1 4321.97  275.97
   1   4  -1   26.80    4.70
   1   4  -1   30.90    5.00
   1   4  -1   32.00    4.40
  -1  -4   1   30.50    3.90
  -1  -4   1   31.10    4.10
  -1  -4   1   24.10    4.80
  -1  -4   1   30.10    4.90
   0   4  -1  266.97   20.50
   0   4  -1  345.47   22.80
   0   4  -1  282.77   19.80
   0   4  -1  309.67   19.20
   0   4  -1  290.77   19.70
   0  -4   1  290.77   18.90
   0  -4   1  304.57   19.60
   0  -4   1  303.57   19.30
   0  -4   1  308.87   19.40
  -1   4  -1  571.54   37.40
  -1   4  -1  583.54   43.00
  -1   4  -1  585.14   36.20
  -1   4  -1  591.94   35.80
  -1   4  -1  540.85   36.40
  -1   4  -1  560.14   36.10
  -1   4  -1  521.65   38.70
  -1   4  -1  561.44   36.90
  -1   4  -1  571.44   35.70
   1  -4   1  569.64   37.90
   1  -4   1  566.54   36.80
   1  -4   1  509.55   36.10
   1  -4   1  605.94   36.50
   1  -4   1  652.13   36.10
   1  -4   1  574.24   37.40
   1  -4   1  603.04   35.70
   1  -4   1  594.64   35.80
  -2   4  -1  784.62   51.09
  -2   4  -1  777.32   50.19
  -2   4  -1  809.32   50.89
  -2   4  -1  821.22   49.70
  -2   4  -1  814.22   52.59
  -2   4  -1  767.02   56.79
  -2   4  -1  836.12   49.80
  -2   4  -1  799.42   50.39
  -2   4  -1  791.32   50.19
   2  -4   1  796.72   50.59
   2  -4   1  878.21   51.19
   2  -4   1  691.93   52.69
   2  -4   1  798.12   51.09
   2  -4   1  875.71   51.29
   2  -4   1  850.71   50.99
  -3   4  -1   19.50    5.20
  -3   4  -1   30.50    6.40
  -3   4  -1   26.00   13.20
  -3   4  -1    8.60    6.50
  -3   4  -1    7.00    8.70
  -3   4  -1   20.40    4.80
  -3   4  -1   32.50   10.10
  -3   4  -1   29.80    7.20
   3  -4   1   28.20    7.70
   3  -4   1   15.20    6.00
   3  -4   1   16.10    5.60
   3  -4   1   19.30    6.60
   3  -4   1   43.70   15.80
   3  -4   1   19.10    6.70
  -4   4  -1  367.96   23.70
  -4   4  -1  395.56   25.60
  -4   4  -1  329.47   27.50
  -4   4  -1  297.87   24.30
  -4   4  -1  295.87   26.70
  -4   4  -1  371.56   24.30
   4  -4   1  347.37   25.40
   4  -4   1  351.36   31.50
   4  -4   1  379.36   25.20
   4  -4   1  358.86   24.60
   4  -4   1  375.86   25.00
  -5   4  -1   54.19    8.40
  -5   4  -1   73.59    8.20
  -5   4  -1   75.49    8.50
  -5   4  -1   68.19   10.00
   5  -4   1   81.99    9.50
   5  -4   1   48.30    9.30
   5  -4   1   59.89    9.60
   5  -4   1   60.99   19.00
   5  -4   1   48.70    8.30
  -6   4  -1  178.68   11.90
  -6   4  -1  127.99   14.60
  -6   4  -1  179.38   11.30
   6  -4   1  169.48   11.70
   6  -4   1  136.89   11.60
   6  -4   1  146.39   12.60
   8   3  -1  178.28   16.00
   8   3  -1  146.69   12.70
  -8  -3   1  133.89   12.80
  -8  -3   1  142.79   11.90
  -8  -3   1  135.89   11.50
   7   3  -1  393.46   29.80
   7   3  -1  416.46   28.30
   7   3  -1  419.76   31.20
   7   3  -1  396.16   30.40
  -7  -3   1  434.96   26.00
  -7  -3   1  402.56   26.20
   6   3  -1  137.09   20.00
   6   3  -1  125.09   18.40
   6   3  -1  161.08   15.00
   6   3  -1  131.79   20.30
  -6  -3   1  148.89   10.20
  -6  -3   1  138.99   11.20
  -6  -3   1  133.89   20.50
   5   3  -1  507.95   35.90
   5   3  -1  639.24   44.70
   5   3  -1  552.24   39.00
   5   3  -1  505.75   38.40
   5   3  -1  559.44   38.50
  -5  -3   1  552.44   33.30
  -5  -3   1  506.75   33.70
   4   3  -1 2302.77  129.49
   4   3  -1 1966.20  128.89
  -4  -3   1 2005.20  126.29
  -4  -3   1 1958.60  125.59
  -4  -3   1 2097.79  126.19
  -4  -3   1 2186.08  125.39
   3   3  -1 1013.70   56.79
   3   3  -1  960.60   56.79
   3   3  -1  897.41   56.59
  -3  -3   1  943.41   56.99
  -3  -3   1  968.40   56.99
  -3  -3   1  814.22   56.39
   2   3  -1  684.83   40.40
   2   3  -1  674.13   40.40
   2   3  -1  691.13   40.50
   2   3  -1  624.84   40.30
  -2  -3   1  661.83   40.60
  -2  -3   1  610.94   40.20
  -2  -3   1  693.53   40.70
   1   3  -1 3636.64  226.08
   1   3  -1 3827.42  225.98
   1   3  -1 3711.73  226.18
  -1  -3   1 3831.72  226.28
  -1  -3   1 3742.43  226.48
  -1  -3   1 3860.51  226.28
   0   3  -1 1057.79   67.99
   0   3  -1 1079.29   68.19
   0   3  -1 1032.60   92.79
   0   3  -1 1069.79   68.59
   0   3  -1 1140.19   67.79
   0   3  -1 1093.69   68.09
   0  -3   1 1137.59   68.29
   0  -3   1 1192.98   67.99
   0  -3   1 1167.08   68.09
   0  -3   1 1156.58   67.79
   0  -3   1 1156.98   67.99
   0  -3   1 1180.08   67.99
  -1   3  -1   63.29   25.70
  -1   3  -1   61.89    5.80
  -1   3  -1   67.69    6.30
  -1   3  -1   60.99    6.80
  -1   3  -1   68.19    7.70
  -1   3  -1   69.79    6.10
   1  -3   1   74.79    6.10
   1  -3   1   66.29    5.50
   1  -3   1   68.29    6.80
   1  -3   1   66.19    5.40
   1  -3   1   66.29    7.90
  -2   3  -1  121.09   10.80
  -2   3  -1  126.39    9.40
  -2   3  -1  132.19    9.40
  -2   3  -1  126.09    9.60
  -2   3  -1  129.79   11.70
   2  -3   1  127.79   12.10
   2  -3   1  147.89   10.40
   2  -3   1  124.39    9.50
  -3   3  -1  881.71   55.99
  -3   3  -1  898.71   57.69
  -3   3  -1  924.51   55.19
  -3   3  -1  896.01   56.29
  -3   3  -1  876.81   55.69
  -3   3  -1  962.20   55.19
   3  -3   1  933.21   56.29
   3  -3   1  875.41   56.59
   3  -3   1  887.91   56.89
   3  -3   1  865.31   58.19
   3  -3   1  918.91   56.29
   3  -3   1  897.51   56.19
  -4   3  -1    8.40    3.90
  -4   3  -1    2.20    6.40
  -4   3  -1    0.60   16.00
  -4   3  -1    1.90    3.70
  -4   3  -1    6.50    6.10
  -4   3  -1    1.80    5.40
  -4   3  -1   30.30   13.50
   4  -3   1    6.00    5.00
   4  -3   1    7.70    6.30
   4  -3   1   -5.70   14.60
   4  -3   1    1.60    6.00
   4  -3   1   17.50    6.70
  -5   3  -1  180.48   26.40
  -5   3  -1  203.98   14.20
  -5   3  -1  207.98   13.90
  -5   3  -1  186.28   16.60
  -5   3  -1  184.18   15.00
   5  -3   1  167.88   16.20
   5  -3   1  201.98   16.10
   5  -3   1  187.98   17.00
   5  -3   1  187.68   24.10
   5  -3   1  186.08   15.50
  -6   3  -1  330.37   20.60
  -6   3  -1  331.67   21.60
  -6   3  -1  284.37   21.10
  -6   3  -1  337.97   20.90
   6  -3   1  322.57   22.30
   6  -3   1  287.97   21.50
   6  -3   1  287.27   21.70
   6  -3   1  313.67   21.20
  -7   3  -1    3.40    2.90
  -7   3  -1    6.20    4.00
  -7   3  -1    2.20    3.70
   7  -3   1   -5.60    4.10
   8   2  -1  197.38   14.50
   8   2  -1  151.58   16.40
  -8  -2   1  206.18   14.90
  -8  -2   1  166.48   14.80
  -8  -2   1  181.88   13.20
   7   2  -1  162.68   19.90
   7   2  -1  180.18   17.60
   7   2  -1  185.08   15.70
  -7  -2   1  189.18   12.70
  -7  -2   1  129.59   19.30
   6   2  -1   23.70    9.20
   6   2  -1   25.60   13.00
   6   2  -1   38.10   10.80
   6   2  -1   44.20   11.70
  -6  -2   1   64.29   19.20
  -6  -2   1   44.40    5.30
  -6  -2   1   42.90    7.10
   5   2  -1  190.68   20.00
   5   2  -1  149.59   16.30
   5   2  -1  189.48   20.00
   5   2  -1  198.18   23.30
   5   2  -1  185.88   19.90
  -5  -2   1  193.18   17.20
  -5  -2   1  188.88   12.10
   4   2  -1   96.79    7.80
  -4  -2   1  107.89    8.60
  -4  -2   1   96.59    8.80
   3   2  -1  133.89    9.60
   3   2  -1  151.38    9.20
   3   2  -1  148.59    9.10
  -3  -2   1  117.49   16.40
  -3  -2   1  134.79    8.70
  -3  -2   1  134.19    9.10
  -3  -2   1  126.39    9.10
   2   2  -1  459.45   30.30
   2   2  -1  535.75   30.20
   2   2  -1  509.25   30.10
   2   2  -1  463.05   30.00
   2   2  -1  527.85   30.20
  -2  -2   1  485.45   30.20
  -2  -2   1  479.35   30.30
   1   2  -1   61.69    3.90
   1   2  -1   52.49    4.00
   1   2  -1   56.29    3.90
   1   2  -1   51.79    4.20
   1   2  -1   61.69    4.40
  -1  -2   1   56.39    4.20
  -1  -2   1   60.69    4.20
  -1  -2   1   56.59   14.30
  -1  -2   1   57.69    4.00
  -1   2  -1 1395.06  110.29
  -1   2  -1 1661.23   95.09
  -1   2  -1 1595.24   95.29
  -1   2  -1 1574.34   96.09
  -1   2  -1 1569.64   95.79
   1  -2   1 1640.84   95.49
   1  -2   1 1462.15   95.09
   1  -2   1 1625.64   95.19
   1  -2   1 1567.74   95.19
   1  -2   1 1658.63  113.19
   1  -2   1 1651.83   96.19
  -2   2  -1 3115.39  231.48
  -2   2  -1 3374.36  212.78
  -2   2  -1 3547.34  211.68
  -2   2  -1 3378.76  212.38
  -2   2  -1 3610.54  211.58
   2  -2   1 3640.24  211.48
   2  -2   1 3587.84  212.18
   2  -2   1 3495.05  211.58
   2  -2   1 4000.30  216.88
  -3   2  -1  594.24   36.00
  -3   2  -1  580.04   37.20
  -3   2  -1  610.44   37.80
  -3   2  -1  617.24   35.90
  -3   2  -1  539.25   64.29
   3  -2   1  515.45   38.80
   3  -2   1  642.34   36.90
  -4   2  -1  144.99   13.60
  -4   2  -1  145.69   13.30
  -4   2  -1  146.59   14.30
  -4   2  -1  157.68   10.70
  -4   2  -1  144.29   15.90
  -4   2  -1  151.78   10.90
   4  -2   1  145.69   12.80
   4  -2   1  139.29   14.70
   4  -2   1  148.29   13.40
   4  -2   1  163.08   13.30
   4  -2   1  169.48   24.90
   4  -2   1  156.88   13.40
  -5   2  -1  288.67   20.10
  -5   2  -1  285.37   18.60
  -5   2  -1  296.67   21.00
  -5   2  -1  275.57   18.50
  -5   2  -1  263.87   22.80
  -5   2  -1  234.88   26.60
   5  -2   1  280.77   21.00
   5  -2   1  305.17   21.10
   5  -2   1  293.37   22.30
   5  -2   1  285.97   20.80
   5  -2   1  267.17   28.10
  -6   2  -1  102.89   10.60
  -6   2  -1   90.99    8.30
  -6   2  -1   81.49    9.50
  -6   2  -1   93.19    9.00
   6  -2   1   84.19   11.30
   6  -2   1   97.89   11.70
   6  -2   1  113.29   13.50
   6  -2   1   89.79   11.40
   6  -2   1  135.09   33.30
  -7   2  -1  238.98   17.00
  -7   2  -1  263.37   16.50
  -7   2  -1  258.67   17.10
  -7   2  -1  232.08   17.30
   7  -2   1  231.28   17.90
   8   1  -1  671.33   45.60
   8   1  -1  708.73   44.00
  -8  -1   1  760.72   43.40
  -8  -1   1  643.64   42.70
   7   1  -1    4.50    8.40
   7   1  -1    5.30    9.30
   7   1  -1    6.50    5.50
   7   1  -1   -4.20    9.70
  -7  -1   1    1.40    3.60
  -7  -1   1   19.50   12.50
  -7  -1   1    3.50    4.00
   6   1  -1 1552.04   89.49
   6   1  -1 1329.97   89.79
   6   1  -1 1488.25   90.19
   6   1  -1 1531.95   91.19
  -6  -1   1 1427.16   87.29
  -6  -1   1 1332.57   87.19
   5   1  -1  571.34   35.10
   5   1  -1  497.05   40.80
   5   1  -1  442.56   37.40
   5   1  -1  514.95   36.50
   5   1  -1  535.55   36.90
  -5  -1   1  548.35   32.10
  -5  -1   1  547.05   35.40
   4   1  -1 1383.46   88.99
   4   1  -1 1381.36   86.49
  -4  -1   1 1582.04  110.49
  -4  -1   1 1378.76   85.99
   3   1  -1 2332.57  132.19
   3   1  -1 2325.17  133.79
  -3  -1   1 2128.59  132.09
  -3  -1   1 2156.18  137.29
  -3  -1   1 2210.18  132.09
  -3  -1   1 2039.60  132.59
   2   1  -1 1933.41  119.49
   2   1  -1 2196.68  119.59
   2   1  -1 2046.90  119.49
   2   1  -1 1995.40  119.39
   2   1  -1 1986.90  120.49
  -2  -1   1 2087.09  119.59
  -2  -1   1 1974.00  119.79
  -2  -1   1 1914.81  119.99
  -2  -1   1 1966.70  119.39
  -2  -1   1 1866.01  119.49
  -2  -1   1 2102.99  123.69
  -2  -1   1 1816.72  119.49
   1   1  -1  339.57   24.60
   1   1  -1  444.06   24.20
   1   1  -1  394.66   24.10
   1   1  -1  427.16   24.20
  -1  -1   1  388.76   24.20
  -1  -1   1  397.06   24.30
  -1  -1   1  415.96   24.60
  -1  -1   1  396.06   24.50
  -1  -1   1  394.86   24.10
   0   1  -1  370.16   25.80
   0   1  -1  410.76   26.30
   0   1  -1  433.36   26.40
   0   1  -1  455.25   25.80
   0   1  -1  427.26   25.80
   0  -1   1  400.16   32.40
   0  -1   1  448.36   25.80
   0  -1   1  442.46   25.80
   0  -1   1  450.95   25.90
  -1   1  -1   25.80    1.80
  -1   1  -1   21.60    3.30
  -1   1  -1   25.00    1.80
  -1   1  -1   21.70    8.20
  -1   1  -1   26.80    3.20
   1  -1   1   28.20    2.50
   1  -1   1   21.60    7.70
   1  -1   1   22.80    1.90
  -2   1  -1 3178.78  197.08
  -2   1  -1 3188.58  197.28
  -2   1  -1 3297.07  196.38
  -2   1  -1 3258.57  196.28
  -2   1  -1 3374.66  211.68
   2  -1   1 3247.68  196.28
   2  -1   1 3029.10  209.68
   2  -1   1 3298.87  196.78
   2  -1   1 3393.46  196.18
   2  -1   1 3489.45  197.98
  -3   1  -1   40.70    3.90
  -3   1  -1   40.10   19.30
  -3   1  -1   38.00    5.40
  -3   1  -1   40.30    3.60
  -3   1  -1   41.90    5.00
  -3   1  -1   48.40    6.20
   3  -1   1   38.30   12.10
  -4   1  -1 1361.46  132.49
  -4   1  -1 1372.36   79.89
  -4   1  -1 1338.17   82.09
  -4   1  -1 1219.98   81.19
  -4   1  -1 1296.67   79.99
   4  -1   1 1360.16   81.09
   4  -1   1 1338.77   80.79
   4  -1   1 1323.67   81.09
   4  -1   1 1369.76   80.99
   4  -1   1 1244.98   81.99
  -5   1  -1 1139.09   66.29
  -5   1  -1 1099.49   67.29
  -5   1  -1 1037.90   69.59
  -5   1  -1 1088.19   66.99
  -5   1  -1 1059.39   68.19
  -5   1  -1 1173.78   66.19
   5  -1   1 1119.19   68.59
   5  -1   1 1138.49   68.59
   5  -1   1  982.80   69.99
   5  -1   1 1034.90   69.49
   5  -1   1 1134.59   70.79
   5  -1   1 1054.09   67.69
  -6   1  -1   42.70   10.00
  -6   1  -1   33.40    8.70
  -6   1  -1   45.50    5.90
  -6   1  -1   52.69   20.10
  -6   1  -1   18.60   11.00
   6  -1   1   35.50    7.90
   6  -1   1   37.40    9.20
   6  -1   1   53.69   12.00
   6  -1   1   35.70    9.40
   6  -1   1   30.40   11.70
   6  -1   1   46.30   11.60
   6  -1   1   31.00    8.60
  -7   1  -1  124.59    9.20
  -7   1  -1  111.29   11.20
  -7   1  -1  129.79    9.90
  -7   1  -1  113.49    9.80
   7  -1   1  114.19   11.20
   7  -1   1   97.19   13.50
   7  -1   1  125.69   14.00
   7  -1   1  110.39   11.60
   7  -1   1   98.29   19.40
  -8   1  -1   95.19    8.10
  -8   1  -1  101.59    7.50
   8  -1   1   84.79    9.30
   8   0  -1  396.26   31.60
   8   0  -1  481.45   30.20
  -8   0   1  519.65   29.70
  -8   0   1  464.75   28.80
  -8   0   1  439.66   29.80
   7   0  -1   92.79   13.50
   7   0  -1  114.99   12.20
   7   0  -1   94.69   12.10
   7   0  -1   70.79   15.70
  -7   0   1   86.39    8.40
  -7   0   1   91.59    8.10
   6   0  -1   18.10   10.40
   6   0  -1   -8.00    9.20
   6   0  -1    6.00    7.50
   6   0  -1    6.40    6.00
   6   0  -1    4.90    5.70
  -6   0   1   12.10    4.00
  -6   0   1   10.10    3.30
  -6   0   1   45.10   17.60
   5   0  -1   20.20   10.30
   5   0  -1   33.10   10.70
   5   0  -1    7.90    7.00
   5   0  -1    8.30    5.30
   5   0  -1   14.90   10.00
  -5   0   1   17.00    3.10
  -5   0   1   39.10   10.40
  -5   0   1   19.60    8.30
   4   0  -1 1382.46   87.39
  -4   0   1 1322.57   84.19
  -4   0   1 1556.64  110.19
  -4   0   1 1369.76   85.39
  -4   0   1 1373.56   85.79
   3   0  -1 1195.68   75.99
   3   0  -1 1233.38   74.39
  -3   0   1 1341.37   89.49
  -3   0   1 1156.78   75.09
  -3   0   1 1241.28   74.69
   2   0  -1  128.99    7.50
   2   0  -1  119.99    8.60
   2   0  -1  123.19   10.50
  -2   0   1  104.09   11.20
  -2   0   1  115.89    7.60
  -2   0   1  110.49    7.30
  -2   0   1  123.59    7.60
  -2   0   1  120.09    8.80
  -2   0   1  114.49    7.50
   1   0  -1  148.09   11.10
   1   0  -1  140.39    8.80
   1   0  -1  145.69    8.80
   1   0  -1  142.89    9.60
  -1   0   1  152.88    9.60
  -1   0   1  146.09    8.90
  -1   0   1  129.79    8.80
  -1   0   1  153.48   11.30
  -1   0   1  136.39    8.90
  -1   0   1  145.89    8.80
   0   0  -1  191.08   10.80
   0   0  -1  174.88   11.00
   0   0  -1  154.28   11.90
   0   0   1  173.98   10.80
   0   0   1  182.68   11.90
   0   0   1  178.18   10.70
  -1   0  -1  234.88   16.90
  -1   0  -1  274.57   16.50
  -1   0  -1  266.67   17.10
  -1   0  -1  298.07   21.60
   1   0   1  273.47   16.70
   1   0   1  269.37   20.80
   1   0   1  289.77   16.50
  -2   0  -1 8545.25  512.15
  -3   0  -1 2461.15  153.18
  -3   0  -1 2059.79  135.49
  -3   0  -1 2193.98  134.89
  -3   0  -1 2206.38  135.99
  -3   0  -1 2251.57  134.59
   3   0   1 2350.86  134.79
   3   0   1 2239.68  136.59
   3   0   1 2177.58  135.09
  -4   0  -1  426.76   26.00
  -4   0  -1  412.06   26.20
  -4   0  -1  435.36   51.69
  -4   0  -1  422.56   28.40
  -4   0  -1  416.66   27.70
   4   0   1  403.36   29.30
   4   0   1  440.56   27.20
  -5   0  -1   78.19   10.40
  -5   0  -1   89.89   11.80
  -5   0  -1   77.09   13.40
  -5   0  -1   88.69    7.20
  -5   0  -1   77.69   12.40
  -5   0  -1   90.39    6.80
   5   0   1  102.99   11.30
   5   0   1   95.19    9.80
   5   0   1  104.29   20.10
   5   0   1   95.79   14.80
   5   0   1   72.59   10.10
   5   0   1   77.89   13.50
   5   0   1   86.79   19.20
  -6   0  -1 2777.72  170.38
  -6   0  -1 2865.11  169.88
  -6   0  -1 2903.01  169.98
  -6   0  -1 2752.12  170.68
  -6   0  -1 2450.25  173.48
  -6   0  -1 2742.33  172.28
   6   0   1 2840.72  173.08
   6   0   1 2876.81  171.68
   6   0   1 3021.20  171.18
   6   0   1 2849.01  172.38
   6   0   1 2999.80  170.98
   6   0   1 2599.64  172.18
   6   0   1 3040.10  171.28
  -7   0  -1  198.58   24.10
  -7   0  -1  210.18   14.80
  -7   0  -1  216.98   14.90
  -7   0  -1  228.38   15.90
  -7   0  -1  273.67   20.90
   7   0   1  231.98   21.50
   7   0   1  194.08   21.90
   7   0   1  230.78   20.50
   7   0   1  217.98   19.80
  -8   0  -1  464.95   27.30
  -8   0  -1  379.56   27.80
  -8   0  -1  463.55   27.20
   8   0   1  435.36   28.90
   8  -1  -1   -0.50    6.10
   8  -1  -1    6.80    6.00
  -8   1   1    2.80    3.80
  -8   1   1    4.70    3.90
   7  -1  -1  297.37   32.40
   7  -1  -1  378.26   26.80
   7  -1  -1  327.17   24.60
   7  -1  -1  366.66   25.00
  -7   1   1  376.16   22.90
  -7   1   1  318.37   23.20
  -7   1   1  312.97   21.90
   6  -1  -1   20.90    6.10
   6  -1  -1   23.70    7.10
   6  -1  -1   28.80   11.20
   6  -1  -1    5.30    8.70
   6  -1  -1   21.70    8.40
  -6   1   1   23.80    5.20
  -6   1   1   29.60    6.00
   5  -1  -1   32.50   11.80
   5  -1  -1   21.10    7.30
   5  -1  -1   46.40   15.50
   5  -1  -1   30.70    5.80
   5  -1  -1   34.00    9.10
  -5   1   1   32.10    9.30
  -5   1   1   34.90    4.80
  -5   1   1   14.80    9.60
  -5   1   1   33.20    5.20
   4  -1  -1  725.33   48.80
  -4   1   1  756.12   45.00
  -4   1   1  820.32   74.99
  -4   1   1  659.53   45.80
   3  -1  -1  945.91   63.49
  -3   1   1 1026.30   60.69
  -3   1   1  965.50   61.29
  -3   1   1 1087.49   61.59
   2  -1  -1 1943.51  122.69
   2  -1  -1 2047.60  133.99
   2  -1  -1 2274.87  127.89
  -2   1   1 2204.48  132.99
  -2   1   1 1897.21  121.79
  -2   1   1 1842.82  121.69
  -2   1   1 1936.01  121.29
  -2   1   1 2064.89  123.39
  -2   1   1 2001.60  121.59
   1  -1  -1 1399.16   87.09
   1  -1  -1 1553.64   91.89
   1  -1  -1 1508.15   94.19
   1  -1  -1 1640.24   87.19
   1  -1  -1 1419.86   87.89
  -1   1   1 1307.17   87.19
  -1   1   1 1460.55   93.09
  -1   1   1 1332.67   87.19
   0   1   1 2420.76  160.38
   0   1   1 2832.72  157.38
  -1  -1  -1  114.69    9.40
  -1  -1  -1  119.39    8.00
  -1  -1  -1  144.09    7.60
   1   1   1  112.69    7.90
   1   1   1  133.89    7.80
   1   1   1  124.49    7.90
   1   1   1  131.89    8.00
  -2  -1  -1  356.86   23.60
  -2  -1  -1  356.66   22.90
   2   1   1  396.36   22.80
   2   1   1  391.86   22.90
   2   1   1  369.26   22.80
  -3  -1  -1 2593.04  157.58
  -3  -1  -1 2366.56  140.69
  -3  -1  -1 2372.56  140.79
  -3  -1  -1 2332.97  140.99
  -3  -1  -1 2392.06  142.19
  -3  -1  -1 2232.28  140.79
   3   1   1 2430.16  140.89
   3   1   1 2216.08  140.69
   3   1   1 2206.28  140.99
   3   1   1 2316.67  142.29
  -4  -1  -1 1117.29   66.39
  -4  -1  -1 1131.99   68.79
  -4  -1  -1 1190.08   91.19
  -4  -1  -1 1140.79   68.19
  -4  -1  -1 1044.70   66.49
   4   1   1 1100.09   66.89
   4   1   1 1083.39   69.09
   4   1   1 1008.10   66.99
  -5  -1  -1  451.85   33.40
  -5  -1  -1  532.35   35.10
  -5  -1  -1  515.35   30.80
  -5  -1  -1  524.35   34.30
  -5  -1  -1  513.45   30.90
   5   1   1  511.15   32.50
   5   1   1  525.65   34.20
   5   1   1  515.75   34.20
   5   1   1  488.45   32.60
   5   1   1  493.15   33.20
   5   1   1  487.85   38.20
   5   1   1  448.96   36.70
  -6  -1  -1   22.50    6.00
  -6  -1  -1   32.20   16.20
  -6  -1  -1   30.10   10.10
  -6  -1  -1   27.30    4.50
  -6  -1  -1   29.70    5.30
  -6  -1  -1   24.40    7.50
   6   1   1   43.40   11.30
   6   1   1    9.70    9.20
   6   1   1   30.70    6.30
   6   1   1   36.40    9.00
   6   1   1   21.60   10.50
   6   1   1   25.30    7.40
   6   1   1   51.09   12.50
  -7  -1  -1  447.66   30.70
  -7  -1  -1  481.85   35.10
  -7  -1  -1  491.85   29.50
  -7  -1  -1  476.35   28.90
  -7  -1  -1  469.95   30.70
  -7  -1  -1  473.85   28.90
   7   1   1  444.36   33.60
   7   1   1  500.75   33.20
   7   1   1  428.36   32.30
   7   1   1  463.65   31.20
   7   1   1  416.36   31.30
  -8  -1  -1    2.10    6.70
  -8  -1  -1   -2.20    3.00
  -8  -1  -1    4.80    3.30
   8   1   1   -6.30    9.40
   8   1   1    1.10    4.60
   8   1   1    8.30    8.10
   8   1   1   -5.70    7.00
   7  -2  -1  669.23   41.80
   7  -2  -1  681.43   41.70
   7  -2  -1  625.04   42.10
   7  -2  -1  568.44   43.80
   7  -2  -1  662.23   42.20
  -7   2   1  668.73   40.90
  -7   2   1  686.53   41.30
  -7   2   1  723.23   40.90
   6  -2  -1  326.97   23.00
   6  -2  -1  331.87   23.30
   6  -2  -1  346.27   24.40
   6  -2  -1  305.47   27.70
   6  -2  -1  338.47   24.40
  -6   2   1  289.67   22.70
  -6   2   1  334.47   20.90
  -6   2   1  309.07   20.70
  -6   2   1  260.27   23.00
   5  -2  -1  247.48   18.40
   5  -2  -1  243.28   20.70
   5  -2  -1  231.48   18.30
   5  -2  -1  218.58   24.50
  -5   2   1  241.68   16.80
   4  -2  -1  103.49   12.80
   4  -2  -1  122.99   16.60
   4  -2  -1  148.19   16.10
   4  -2  -1  140.99   13.10
   4  -2  -1  140.99   11.70
   4  -2  -1  123.39   14.40
   4  -2  -1  137.09   21.30
  -4   2   1  123.89   11.70
  -4   2   1  136.39   13.20
  -4   2   1  127.39    9.50
  -4   2   1  122.29   10.70
   3  -2  -1  539.05   36.30
   3  -2  -1  615.24   45.50
  -3   2   1  565.64   34.60
  -3   2   1  553.64   33.70
  -3   2   1  525.75   34.20
  -3   2   1  545.45   55.19
  -3   2   1  493.85   35.50
   2  -2  -1 2134.89  112.99
   2  -2  -1 2033.60  145.89
   2  -2  -1 1886.91  114.69
   2  -2  -1 1890.91  120.99
  -2   2   1 1850.71  113.49
  -2   2   1 1736.53  112.79
  -2   2   1 1861.21  128.39
  -2   2   1 1723.13  113.09
  -2   2   1 1812.22  113.29
   1  -2  -1    3.40    5.00
   1  -2  -1    2.50    3.20
   1  -2  -1    2.40    1.10
  -1   2   1    3.40    5.50
  -1   2   1    4.30    7.00
  -1   2   1    2.00    2.00
  -1   2   1    1.40    1.50
  -1   2   1    0.60    1.00
   0  -2  -1  728.43   41.70
   0  -2  -1  731.43   41.60
   0  -2  -1  649.83   50.39
   0   2   1  604.64   49.99
   0   2   1  659.33   41.70
   0   2   1  766.12   42.60
   0   2   1  670.73   41.70
   0   2   1  694.63   41.80
  -1  -2  -1 2478.35  170.18
  -1  -2  -1 2784.92  162.18
  -1  -2  -1 2714.23  162.28
   1   2   1 2936.81  162.38
   1   2   1 2647.64  162.18
   1   2   1 2657.33  161.88
   1   2   1 2706.33  162.18
  -2  -2  -1 2240.98  132.69
  -2  -2  -1 2189.38  133.09
  -2  -2  -1 2202.28  133.09
   2   2   1 2216.88  132.99
   2   2   1 2086.89  132.79
   2   2   1 2283.37  132.99
   2   2   1 2235.28  132.99
   2   2   1 2259.17  133.09
  -3  -2  -1 3983.00  226.78
  -3  -2  -1 3629.44  227.18
  -3  -2  -1 4000.60  226.68
   3   2   1 3894.41  227.08
   3   2   1 3522.95  226.88
   3   2   1 3604.44  226.98
   3   2   1 3864.01  226.98
   3   2   1 3769.12  228.08
  -4  -2  -1  532.45   31.30
  -4  -2  -1  470.05   32.10
  -4  -2  -1  490.25   31.60
  -4  -2  -1  539.55   34.10
  -4  -2  -1  578.34   56.39
   4   2   1  498.65   31.90
   4   2   1  496.15   34.10
  -5  -2  -1  469.35   28.10
  -5  -2  -1  448.26   26.60
  -5  -2  -1  438.66   31.10
  -5  -2  -1  428.96   30.80
  -5  -2  -1  441.36   30.90
   5   2   1  435.16   33.30
   5   2   1  429.56   29.50
   5   2   1  360.16   29.40
   5   2   1  426.06   30.30
  -6  -2  -1   44.00   19.20
  -6  -2  -1   40.20   10.80
  -6  -2  -1   62.79   10.50
  -6  -2  -1   56.29    5.40
  -6  -2  -1   46.70    5.80
   6   2   1   66.19   11.30
   6   2   1   37.30    9.40
   6   2   1   59.79   15.40
   6   2   1   39.30    9.60
   6   2   1   49.00   15.70
  -7  -2  -1  689.33   41.10
  -7  -2  -1  574.64   54.79
  -7  -2  -1  671.43   40.50
  -7  -2  -1  633.64   42.20
   7   2   1  662.73   45.10
   7   2   1  717.13   44.00
   7   2   1  714.33   42.80
   7   2   1  671.33   44.40
   7   2   1  571.44   42.60
  -8  -2  -1  997.50   65.59
  -8  -2  -1 1113.79   64.79
  -8  -2  -1 1131.59   64.79
  -8  -2  -1 1113.69   64.89
   8   2   1 1038.20   66.49
   8   2   1  966.30   67.19
   8   2   1 1106.49   65.99
   7  -3  -1   10.10    5.80
   7  -3  -1    9.00    8.30
   7  -3  -1   22.10    5.80
  -7   3   1   16.30    3.80
  -7   3   1   16.20    3.90
   6  -3  -1  227.68   19.70
   6  -3  -1  256.67   19.70
   6  -3  -1  203.98   29.40
  -6   3   1  254.07   18.10
  -6   3   1  259.67   16.90
  -6   3   1  248.18   18.80
  -6   3   1  235.58   16.80
   5  -3  -1 1287.47   76.79
   5  -3  -1 1259.57   77.09
   5  -3  -1 1288.87   76.19
   5  -3  -1 1303.37   77.19
   5  -3  -1 1247.18   78.09
   5  -3  -1 1195.78   79.69
   5  -3  -1 1328.37   76.99
  -5   3   1 1280.57   75.89
  -5   3   1 1081.39   76.39
  -5   3   1 1172.28   76.89
  -5   3   1 1251.37   75.69
  -5   3   1 1171.88   76.89
   4  -3  -1  808.92   48.40
   4  -3  -1  767.62   52.89
   4  -3  -1  730.93   48.70
   4  -3  -1  817.62   50.49
   4  -3  -1  791.22   48.50
   4  -3  -1  783.92   49.50
   4  -3  -1  779.82   48.60
  -4   3   1  763.82   47.70
  -4   3   1  699.73   49.40
  -4   3   1  816.12   48.10
  -4   3   1  680.43   49.50
  -4   3   1  752.52   47.40
   3  -3  -1  182.58   19.10
   3  -3  -1  219.28   36.00
   3  -3  -1  191.78   18.60
   3  -3  -1  217.78   16.60
   3  -3  -1  249.48   17.20
   3  -3  -1  239.08   16.90
  -3   3   1  226.88   60.49
  -3   3   1  198.78   16.30
  -3   3   1  217.18   15.30
  -3   3   1  208.88   14.70
  -3   3   1  234.28   17.40
  -3   3   1  224.78   14.70
   2  -3  -1   92.69    9.10
   2  -3  -1   76.09   15.90
   2  -3  -1   98.79    6.90
  -2   3   1   88.89    8.00
  -2   3   1   89.29    8.30
  -2   3   1   86.59    7.20
  -2   3   1   92.59    9.00
  -2   3   1   78.49   24.20
  -2   3   1   98.79    8.50
   1  -3  -1 3271.97  187.28
   1  -3  -1 3270.47  187.28
   1  -3  -1 3181.78  188.58
  -1   3   1 2742.73  203.68
  -1   3   1 3037.50  187.48
  -1   3   1 3125.09  187.48
  -1   3   1 3330.67  189.98
  -1   3   1 3081.09  187.58
  -1   3   1 3092.49  187.68
  -1   3   1 3060.89  187.48
   0  -3  -1  847.42   50.69
   0  -3  -1  817.32   66.19
   0  -3  -1  858.01   50.69
   0   3   1  770.22   50.99
   0   3   1  850.71   50.89
   0   3   1  839.42   50.79
   0   3   1  904.11   50.29
   0   3   1  793.72   50.69
   0   3   1  780.32   65.69
   0   3   1  895.81   51.99
  -1  -3  -1   50.39    4.40
  -1  -3  -1   57.89   15.80
  -1  -3  -1   60.69    4.50
  -1  -3  -1   57.79    4.60
   1   3   1   59.99    4.70
   1   3   1   61.29    4.80
   1   3   1   62.49    4.00
   1   3   1   66.29    4.90
  -2  -3  -1  158.18    9.70
  -2  -3  -1  161.68   10.40
  -2  -3  -1  158.38   10.30
   2   3   1  135.59   11.00
   2   3   1  155.58   10.30
   2   3   1  158.88   10.40
   2   3   1  160.08    9.80
  -3  -3  -1 4378.36  258.87
  -3  -3  -1 4236.48  259.47
  -3  -3  -1 4215.78  259.47
   3   3   1 4386.26  259.87
   3   3   1 4278.57  259.27
   3   3   1 4397.26  259.37
   3   3   1 4350.26  259.37
  -4  -3  -1  347.47   21.60
  -4  -3  -1  345.27   22.60
   4   3   1  352.66   22.00
   4   3   1  333.97   22.10
  -5  -3  -1 2727.63  156.88
  -5  -3  -1 2572.64  157.58
  -5  -3  -1 2337.07  157.98
  -5  -3  -1 2946.41  160.68
   5   3   1 2453.25  159.78
   5   3   1 2718.53  158.98
   5   3   1 2320.77  158.18
   5   3   1 2752.42  160.38
   5   3   1 2661.83  158.48
  -6  -3  -1  605.04   37.20
  -6  -3  -1  609.34   38.20
  -6  -3  -1  525.85   39.10
  -6  -3  -1  651.63   41.80
  -6  -3  -1  657.03   44.70
   6   3   1  528.45   40.20
   6   3   1  619.64   39.50
   6   3   1  636.44   42.40
   6   3   1  565.94   42.20
   6   3   1  624.24   40.50
  -7  -3  -1   44.30   32.40
  -7  -3  -1   50.79    6.40
  -7  -3  -1   54.49    8.20
  -7  -3  -1   98.59   17.20
  -7  -3  -1   49.10   11.90
  -7  -3  -1   73.29    6.30
   7   3   1   64.59   16.10
   7   3   1   62.09   12.90
   7   3   1   67.49   14.50
   7   3   1   86.89   20.20
   7   3   1   61.99   16.00
   7   3   1   61.79   10.60
  -8  -3  -1  450.25   28.70
  -8  -3  -1  489.05   28.80
   8   3   1  459.55   31.20
   8   3   1  424.06   31.70
   8   3   1  468.65   30.10
   6  -4  -1    6.60    4.40
   6  -4  -1    7.10    7.00
   6  -4  -1    2.10    3.30
  -6   4   1    4.90    5.60
  -6   4   1    4.00    3.90
  -6   4   1   10.70    4.50
  -6   4   1    9.20    4.00
   5  -4  -1   42.60    8.90
   5  -4  -1   36.80   12.50
   5  -4  -1   32.30    8.80
   5  -4  -1   39.90    6.40
   5  -4  -1   30.00    9.70
  -5   4   1   50.99    7.60
  -5   4   1   45.00    7.50
  -5   4   1   37.20    7.30
  -5   4   1   54.79    8.10
   4  -4  -1   32.40    8.70
   4  -4  -1   40.80   10.00
   4  -4  -1   38.00    7.00
   4  -4  -1   58.19   13.80
   4  -4  -1   54.59   16.30
   4  -4  -1   43.80    9.30
   4  -4  -1   47.50   11.20
  -4   4   1   41.40    7.90
  -4   4   1   58.79    8.90
  -4   4   1   53.69   12.90
  -4   4   1   52.79    9.30
  -4   4   1   50.89    8.10
  -4   4   1   52.29    8.60
   3  -4  -1    3.10    7.70
   3  -4  -1   -2.90    5.50
   3  -4  -1    3.00    6.10
   3  -4  -1   13.50   10.90
   3  -4  -1    1.20    5.40
   3  -4  -1    0.20    5.00
  -3   4   1    5.70    5.00
  -3   4   1    8.80    4.20
  -3   4   1    9.10    4.40
  -3   4   1    5.20    8.90
  -3   4   1    5.90    3.90
  -3   4   1   -7.10    7.20
   2  -4  -1  223.18   19.00
   2  -4  -1  264.37   17.60
   2  -4  -1  245.68   18.20
   2  -4  -1  207.58   34.80
   2  -4  -1  218.98   20.20
  -2   4   1  243.98   21.10
  -2   4   1  247.48   16.40
  -2   4   1  198.48   21.50
  -2   4   1  263.07   16.20
  -2   4   1  255.37   16.30
   1  -4  -1  749.23   64.39
   1  -4  -1  892.01   53.49
   1  -4  -1  984.50   53.59
  -1   4   1  801.92   78.49
  -1   4   1  836.02   53.79
  -1   4   1  897.11   53.59
  -1   4   1  887.01   53.69
  -1   4   1  914.71   53.69
  -1   4   1  914.31   54.09
   0  -4  -1 4002.90  241.38
   0  -4  -1 4101.69  241.78
   0  -4  -1 4107.39  241.88
   0   4   1 4190.98  241.98
   0   4   1 3928.61  241.68
   0   4   1 3759.82  241.88
   0   4   1 3922.91  241.98
   0   4   1 4189.68  241.28
  -1  -4  -1  170.98   11.40
  -1  -4  -1  175.98   11.80
  -1  -4  -1  164.48   11.90
  -1  -4  -1  177.08   11.80
   1   4   1  187.38   12.60
   1   4   1  189.28   11.20
   1   4   1  177.18   12.20
   1   4   1  175.58   12.10
  -2  -4  -1 1202.58   70.69
  -2  -4  -1 1200.38   70.79
  -2  -4  -1 1063.89   70.19
  -2  -4  -1 1148.69   70.19
   2   4   1 1191.78   70.79
   2   4   1 1165.88   70.69
  -3  -4  -1  230.88   16.30
  -3  -4  -1  253.67   15.20
  -3  -4  -1  238.18   15.50
  -3  -4  -1  240.88   15.90
   3   4   1  243.28   16.00
   3   4   1  230.28   16.10
   3   4   1  250.67   16.10
  -4  -4  -1 1719.13  105.89
  -4  -4  -1 1797.52  104.99
   4   4   1 1572.94  106.89
   4   4   1 1767.52  105.69
   4   4   1 1827.02  108.99
   4   4   1 1792.92  108.59
   4   4   1 1723.63  106.79
  -5  -4  -1  106.79    8.70
  -5  -4  -1  104.19    7.90
  -5  -4  -1   96.69   12.20
  -5  -4  -1  116.29   20.10
  -5  -4  -1  127.19   15.40
   5   4   1   98.49   18.50
   5   4   1  121.89   17.70
  -6  -4  -1   39.10   15.40
  -6  -4  -1   33.60    4.90
  -6  -4  -1   33.20    6.30
   6   4   1   49.60   11.30
   6   4   1   19.60   10.40
   6   4   1   42.30   12.10
   6   4   1    9.60   10.00
  -7  -4  -1   32.40    7.30
  -7  -4  -1   43.10    5.40
  -7  -4  -1   35.70   13.60
   7   4   1   66.09   12.30
   7   4   1   25.60    9.30
   7   4   1   50.19   10.20
   7   4   1   39.30    9.90
  -8  -4  -1   94.69   14.10
  -8  -4  -1   60.19    6.70
  -8  -4  -1   63.79    6.60
  -8  -4  -1   58.89    7.00
   8   4   1   52.09   10.80
   8   4   1   77.59   12.60
   8   4   1   74.99   16.40
   5  -5  -1   -2.80    7.10
   5  -5  -1   -4.00    4.10
   5  -5  -1    0.00    4.00
   5  -5  -1   -4.10    4.30
  -5   5   1    1.40    4.40
  -5   5   1    0.00    4.50
  -5   5   1   -1.80    5.90
  -5   5   1   -2.00    4.40
   4  -5  -1  713.03   41.80
   4  -5  -1  644.84   42.10
   4  -5  -1  733.43   41.90
   4  -5  -1  663.43   45.00
   4  -5  -1  636.64   42.10
  -4   5   1  610.64   41.50
  -4   5   1  648.54   41.60
  -4   5   1  658.93   42.50
  -4   5   1  629.64   42.70
   3  -5  -1   85.39   13.00
   3  -5  -1   91.89   10.90
   3  -5  -1  104.59   12.30
   3  -5  -1   79.79   13.70
   3  -5  -1   99.59   10.60
  -3   5   1   90.69   13.90
  -3   5   1   65.49   13.10
  -3   5   1   74.09   10.00
  -3   5   1  117.79   10.90
  -3   5   1   99.79   10.50
  -3   5   1   98.59   13.80
   2  -5  -1  702.13   45.30
  -2   5   1  766.02   47.60
  -2   5   1  622.74   44.00
  -2   5   1  758.02   59.99
  -2   5   1  688.33   44.20
  -2   5   1  662.33   44.30
  -2   5   1  747.63   44.30
   1  -5  -1   10.90    5.90
   1  -5  -1   12.70    9.20
   1  -5  -1   13.80    6.70
   1  -5  -1   13.20    5.20
   1  -5  -1   10.00    6.90
   1  -5  -1   10.90    4.90
  -1   5   1    3.20    7.90
  -1   5   1    5.80    6.40
  -1   5   1    3.30    5.20
  -1   5   1    3.40    4.80
  -1   5   1    3.40    3.60
  -1   5   1    5.60    3.80
  -1   5   1   11.00   11.20
   0  -5  -1  442.66   29.30
   0  -5  -1  430.56   31.20
   0  -5  -1  457.25   30.00
   0  -5  -1  494.05   29.00
   0  -5  -1  478.95   29.10
   0  -5  -1  525.25   29.80
   0  -5  -1  440.76   29.60
   0  -5  -1  482.75   30.50
   0   5   1  452.25   29.30
   0   5   1  390.26   31.90
   0   5   1  491.65   29.20
   0   5   1  430.46   29.20
   0   5   1  381.36   33.50
   0   5   1  494.35   29.20
   0   5   1  407.46   30.60
  -1  -5  -1   57.39    7.70
  -1  -5  -1   58.99    6.00
  -1  -5  -1   64.59    5.40
  -1  -5  -1   42.10    9.10
  -1  -5  -1   59.89    6.00
   1   5   1   44.70    6.50
   1   5   1   36.70   10.10
   1   5   1   58.59   14.90
   1   5   1   46.20    9.80
   1   5   1   58.59    6.70
   1   5   1   46.20    5.60
  -2  -5  -1   23.70    4.60
  -2  -5  -1   21.30    4.80
  -2  -5  -1   18.20    6.20
  -2  -5  -1   22.10    4.20
  -2  -5  -1   20.40    5.60
  -2  -5  -1   23.20    3.80
   2   5   1   17.60    9.80
   2   5   1   32.40    4.40
   2   5   1   15.70    4.30
   2   5   1   23.90   10.50
   2   5   1   25.70   11.50
   2   5   1   28.10    5.60
  -3  -5  -1 1225.58   74.69
  -3  -5  -1 1156.38   75.19
  -3  -5  -1 1191.38   74.79
  -3  -5  -1 1238.48   75.99
  -3  -5  -1 1200.18   75.99
  -3  -5  -1 1304.17   75.69
   3   5   1 1296.87   78.79
   3   5   1 1308.97   75.89
   3   5   1 1277.47   78.79
   3   5   1 1161.08   77.59
   3   5   1 1301.17   75.79
   3   5   1 1157.98   77.09
  -4  -5  -1 1399.66   88.09
  -4  -5  -1 1379.56   87.99
  -4  -5  -1 1443.46   87.09
  -4  -5  -1 1429.46   86.89
   4   5   1 1476.55   90.79
   4   5   1 1575.64   90.99
   4   5   1 1447.46   88.99
   4   5   1 1435.86   87.89
   4   5   1 1354.56   88.99
  -5  -5  -1  202.28   16.00
  -5  -5  -1  201.98   16.90
  -5  -5  -1  202.78   14.10
  -5  -5  -1  240.38   14.80
   5   5   1  220.88   19.90
   5   5   1  192.28   18.40
   5   5   1  247.48   22.60
   5   5   1  185.58   22.50
   5   5   1  218.08   16.30
  -6  -5  -1  130.49   22.20
  -6  -5  -1  182.18   12.00
  -6  -5  -1  180.98   13.90
  -6  -5  -1  188.78   15.90
   6   5   1  167.08   19.40
   6   5   1  168.48   20.70
   6   5   1  159.88   18.40
   6   5   1  165.48   16.10
  -7  -5  -1  838.62   53.19
  -7  -5  -1  730.73   52.89
  -7  -5  -1  941.11   57.29
  -7  -5  -1  932.61   53.19
  -7  -5  -1  913.21   54.09
   7   5   1  846.72   61.59
  -8  -5  -1    6.20    2.70
  -8  -5  -1    8.40    3.50
  -8  -5  -1    6.40    6.80
   8   5   1    5.20    4.20
   8   5   1   20.70    6.90
   8   5   1   -3.20    6.50
   5  -6  -1    2.40    2.10
  -5   6   1    7.40    2.90
  -5   6   1    5.40    2.60
   4  -6  -1  108.09    9.60
   4  -6  -1  124.69   14.60
   4  -6  -1  107.89    9.20
   4  -6  -1  123.79    9.90
  -4   6   1  109.49   11.30
  -4   6   1  134.99   10.20
  -4   6   1  122.29   13.00
  -4   6   1  112.29   10.10
   3  -6  -1  159.58   13.20
   3  -6  -1  158.58   18.50
   3  -6  -1  182.78   13.60
   3  -6  -1  186.08   12.70
  -3   6   1  166.18   13.40
  -3   6   1  132.69   13.90
  -3   6   1  168.28   15.20
  -3   6   1  141.89   15.20
  -3   6   1  167.78   14.20
   2  -6  -1  204.08   15.90
   2  -6  -1  199.58   14.80
   2  -6  -1  210.98   16.90
   2  -6  -1  219.88   17.80
  -2   6   1  169.18   17.70
  -2   6   1  236.68   19.90
  -2   6   1  162.98   16.70
  -2   6   1  161.68   24.90
  -2   6   1  201.98   15.40
  -2   6   1  172.78   16.40
   1  -6  -1    2.60    5.00
   1  -6  -1   -6.10    6.60
   1  -6  -1    2.10    7.40
   1  -6  -1    4.60    5.30
   1  -6  -1    5.60    7.00
  -1   6   1   18.00   16.80
  -1   6   1   -2.80    6.20
  -1   6   1   -1.90    5.40
  -1   6   1    5.50   11.20
  -1   6   1   -3.50    7.50
  -1   6   1    1.50    6.20
  -1   6   1    2.10    5.80
  -1   6   1   -4.20    9.70
  -1   6   1   14.70    7.40
   0  -6  -1  128.79   13.10
   0  -6  -1  109.89   11.40
   0   6   1   84.29   20.00
   0   6   1  116.89   10.60
   0   6   1   98.69   12.80
   0   6   1  110.59   11.30
  -1  -6  -1 2976.20  167.58
  -1  -6  -1 2923.71  168.38
  -1  -6  -1 2963.10  168.28
  -1  -6  -1 2951.60  167.38
  -1  -6  -1 2741.13  168.18
  -1  -6  -1 2880.01  168.08
  -1  -6  -1 2695.63  169.08
   1   6   1 2530.45  169.98
   1   6   1 2504.65  167.98
   1   6   1 2723.53  170.38
   1   6   1 3077.09  168.68
   1   6   1 2574.84  169.98
   1   6   1 2860.81  168.58
   1   6   1 2525.35  169.28
  -2  -6  -1 3587.74  203.08
  -2  -6  -1 3145.69  203.88
  -2  -6  -1 3368.26  202.98
  -2  -6  -1 3467.75  202.28
  -2  -6  -1 3309.57  201.88
  -2  -6  -1 3536.45  202.18
  -2  -6  -1 3502.35  202.88
   2   6   1 3200.68  203.78
   2   6   1 3440.06  203.38
   2   6   1 3434.16  203.18
   2   6   1 3289.27  204.38
   2   6   1 3050.29  204.28
   2   6   1 3357.66  205.18
  -3  -6  -1   -1.70    4.70
  -3  -6  -1    6.20    3.80
  -3  -6  -1    0.10    6.10
  -3  -6  -1    3.60    3.00
  -3  -6  -1    1.80    5.60
   3   6   1    0.80    6.10
   3   6   1   -1.20    6.70
  -4  -6  -1 1196.68   73.19
  -4  -6  -1 1166.38   73.39
  -4  -6  -1 1088.59   74.19
  -4  -6  -1 1205.68   74.19
  -4  -6  -1 1253.97   74.19
  -4  -6  -1 1187.88   72.89
   4   6   1 1203.48   74.39
   4   6   1 1240.48   77.79
   4   6   1 1265.17   75.89
   4   6   1 1210.78   76.09
  -5  -6  -1   25.80    5.40
  -5  -6  -1   23.70   10.70
  -5  -6  -1   38.20    9.20
  -5  -6  -1   36.30    7.30
  -5  -6  -1   36.20    9.40
  -5  -6  -1   29.00    5.90
   5   6   1   51.89   16.20
   5   6   1   35.00    9.70
   5   6   1   25.10    7.60
  -6  -6  -1  754.02   46.30
  -6  -6  -1  771.92   47.00
  -6  -6  -1  739.73   46.00
  -6  -6  -1  752.42   46.90
  -6  -6  -1  746.13   46.20
   6   6   1  715.83   51.09
   6   6   1  765.72   49.80
   6   6   1  722.23   47.80
  -7  -6  -1  360.46   22.70
  -7  -6  -1  316.57   22.50
  -7  -6  -1  353.96   22.70
  -7  -6  -1  386.56   23.80
   7   6   1  371.96   27.10
   7   6   1  347.67   25.70
  -8  -6  -1  313.57   20.70
  -8  -6  -1  349.67   20.80
   8   6   1  303.37   22.50
   8   6   1  361.96   23.20
   3  -7  -1   15.80    3.80
   3  -7  -1    9.70    3.00
   3  -7  -1   16.30    6.30
  -3   7   1    4.80    6.10
  -3   7   1   11.90    3.60
  -3   7   1    8.90    4.20
   2  -7  -1  599.84   38.10
   2  -7  -1  538.55   37.70
   2  -7  -1  599.04   37.60
  -2   7   1  610.74   38.90
  -2   7   1  660.03   37.80
   1  -7  -1   84.19   11.40
   1  -7  -1  100.39    9.00
   1  -7  -1  101.69    9.80
  -1   7   1   93.29   12.00
  -1   7   1   97.39   15.20
  -1   7   1   49.80   19.70
  -1   7   1  106.59   10.60
  -1   7   1  105.49   12.70
   0  -7  -1    8.90    5.70
   0  -7  -1   18.30    6.40
   0  -7  -1   20.90    7.50
   0  -7  -1   12.60    8.20
   0  -7  -1   32.60    7.20
   0   7   1   17.00    8.30
   0   7   1    6.50   10.10
   0   7   1   17.10    7.20
   0   7   1   15.40   11.80
   0   7   1   13.10    8.00
   0   7   1   23.20    6.60
   0   7   1   14.30   10.30
  -1  -7  -1 1025.70   57.19
  -1  -7  -1  978.50   57.99
  -1  -7  -1  940.81   58.29
  -1  -7  -1  861.21   58.59
  -1  -7  -1  953.70   59.49
  -1  -7  -1  993.20   58.09
   1   7   1  823.32   59.39
   1   7   1  946.21   61.69
   1   7   1  869.91   59.49
   1   7   1  998.00   58.99
   1   7   1  892.81   60.59
  -2  -7  -1  316.57   20.90
  -2  -7  -1  295.17   25.60
  -2  -7  -1  320.67   19.60
  -2  -7  -1  305.37   21.00
  -2  -7  -1  296.07   20.90
  -2  -7  -1  300.97   19.80
  -2  -7  -1  280.07   21.50
   2   7   1  321.37   22.50
   2   7   1  281.07   24.20
   2   7   1  301.17   25.40
   2   7   1  278.17   24.90
   2   7   1  236.78   29.30
   2   7   1  271.47   24.30
  -3  -7  -1    7.40    5.10
  -3  -7  -1   17.60    6.50
  -3  -7  -1   -1.60    6.60
  -3  -7  -1   10.80    4.00
  -3  -7  -1    9.10    5.60
  -3  -7  -1   11.50    4.00
   3   7   1   11.60    9.80
   3   7   1   33.40   23.00
   3   7   1    7.60    9.00
   3   7   1   13.90    9.00
   3   7   1   14.40   11.10
  -4  -7  -1    1.50    9.70
  -4  -7  -1    3.60    5.00
  -4  -7  -1    1.60    3.60
  -4  -7  -1    7.80    5.20
  -4  -7  -1    6.40    3.60
  -4  -7  -1    5.10    3.70
   4   7   1    8.30    8.80
   4   7   1    6.10    8.60
   4   7   1    8.80   13.30
   4   7   1    0.50    7.80
  -5  -7  -1  176.78   13.80
  -5  -7  -1  158.08   12.10
  -5  -7  -1  171.18   12.40
  -5  -7  -1  169.28   12.40
   5   7   1  195.08   18.30
   5   7   1  155.18   18.10
   5   7   1  193.28   24.00
  -6  -7  -1  876.71   55.29
  -6  -7  -1  876.31   55.19
  -6  -7  -1  926.11   55.89
  -6  -7  -1  889.91   55.19
  -6  -7  -1  870.81   55.69
   6   7   1  909.21   58.09
   6   7   1  950.80   59.79
   6   7   1  935.51   56.39
   6   7   1  926.21   58.59
  -7  -7  -1  288.77   18.90
  -7  -7  -1  242.48   17.00
  -7  -7  -1  273.07   17.00
   7   7   1  265.37   20.40
   2  -8  -1    1.80    2.60
   2  -8  -1    1.00    2.60
   2  -8  -1    5.00    4.40
   2  -8  -1    4.10    6.10
  -2   8   1    3.00    3.80
  -2   8   1    3.50    4.50
   1  -8  -1  124.69    9.10
   1  -8  -1  118.89    9.80
   1  -8  -1  120.89    9.70
  -1   8   1   89.99   12.20
  -1   8   1  106.19   10.40
  -1   8   1  134.29   12.40
   0  -8  -1  201.08   15.00
   0  -8  -1  197.58   15.10
   0  -8  -1  201.08   15.90
   0  -8  -1  206.08   14.30
   0   8   1  252.87   18.10
   0   8   1  207.28   16.40
   0   8   1  197.38   18.30
  -1  -8  -1   64.19    7.30
  -1  -8  -1   45.80   10.30
  -1  -8  -1   50.19    8.60
  -1  -8  -1   82.49   10.00
  -1  -8  -1   57.89    7.90
   1   8   1   57.89   15.50
   1   8   1   69.19   12.40
   1   8   1   74.99   14.00
   1   8   1   67.09   10.20
  -2  -8  -1   21.50    6.50
  -2  -8  -1   46.30   10.10
  -2  -8  -1   23.00    4.80
  -2  -8  -1   32.30    8.80
   2   8   1   22.40    9.70
   2   8   1   27.20    9.70
   2   8   1   22.60   14.50
  -3  -8  -1  933.91   61.79
  -3  -8  -1  969.50   62.09
  -3  -8  -1  997.40   61.09
  -3  -8  -1  986.90   61.79
   3   8   1 1031.10   63.59
   3   8   1 1132.09   65.89
  -4  -8  -1  267.87   19.90
  -4  -8  -1  287.07   19.10
  -4  -8  -1  291.87   18.70
  -4  -8  -1  286.87   19.60
   4   8   1  321.77   31.90
   4   8   1  314.17   22.50
   4   8   1  295.87   22.50
  -5  -8  -1   22.70    4.00
  -5  -8  -1   20.30    4.90
  -5  -8  -1   20.50    4.80
  -5  -8  -1   24.50    5.80
   5   8   1   24.40    7.00
   5   8   1   19.90    8.60
  -6  -8  -1   43.70    4.30
  -6  -8  -1   47.30    6.10
  -6  -8  -1   31.90    7.20
   6   8   1   29.70    9.60
   6   8   1   26.20   13.10
  -1  -9  -1   40.80   10.80
  -1  -9  -1   22.40    4.20
  -1  -9  -1   22.20    5.50
   1   9   1   21.30    5.30
   1   9   1   22.00    5.50
  -2  -9  -1   -2.20    7.00
  -2  -9  -1    1.30    2.60
  -2  -9  -1   10.50    3.30
   2   9   1   11.10    6.20
   2   9   1    4.90    3.80
   2   9   1   17.90   11.30
  -3  -9  -1    5.90    2.90
  -3  -9  -1    5.10    2.80
   3   9   1    3.50    9.70
   3   9   1   -3.20    6.80
   3   9   1    6.00    5.10
  -4  -9  -1  447.86   27.20
   4   9   1  368.86   32.90
   4   9   1  407.46   28.10
   4   9   1  474.85   27.50
   4   8  -2  181.68   15.10
   4   8  -2  160.48   12.90
  -4  -8   2  169.08   10.60
  -4  -8   2  152.78   11.20
  -4  -8   2  153.88   11.20
   3   8  -2  175.08   15.50
   3   8  -2  123.19   14.20
   3   8  -2  170.68   17.30
  -3  -8   2  157.68   11.00
  -3  -8   2  143.59   12.40
  -3  -8   2  155.58   10.20
  -3  -8   2  146.99   11.50
   2   8  -2  266.17   18.50
   2   8  -2  260.27   19.30
  -2  -8   2  289.27   17.70
   1   8  -2  486.45   28.30
   1   8  -2  379.26   26.20
   1   8  -2  355.16   27.90
  -1  -8   2  456.55   26.10
  -1  -8   2  412.66   26.40
  -1  -8   2  419.86   26.20
   6   7  -2  941.51   53.69
   6   7  -2  846.32   52.89
  -6  -7   2  802.82   50.89
  -6  -7   2  854.41   50.99
  -6  -7   2  749.42   51.09
   5   7  -2   24.00    9.80
   5   7  -2   30.20    8.70
  -5  -7   2   45.60    8.10
  -5  -7   2   32.30    6.10
  -5  -7   2   42.70    7.60
  -5  -7   2   46.80    5.10
  -5  -7   2   42.80    6.90
   4   7  -2   32.60    9.80
   4   7  -2   44.80   11.50
   4   7  -2   18.30   11.60
  -4  -7   2   29.20    4.90
  -4  -7   2   35.80    5.80
  -4  -7   2   26.90    6.00
  -4  -7   2   27.20    6.10
  -4  -7   2   36.40    8.00
   3   7  -2   16.00    9.70
   3   7  -2    2.80    5.60
   3   7  -2    9.90   11.30
  -3  -7   2   10.50    5.60
  -3  -7   2   18.20    5.70
  -3  -7   2   10.30    3.90
  -3  -7   2   10.80    3.20
  -3  -7   2    7.10    4.40
   2   7  -2   35.10   11.00
   2   7  -2   25.80    6.80
   2   7  -2   26.50    8.80
   2   7  -2   23.10   14.30
  -2  -7   2   43.10    8.10
  -2  -7   2   31.90    6.30
  -2  -7   2   36.10    5.40
  -2  -7   2   21.00    5.10
  -2  -7   2   29.90    6.50
   1   7  -2  125.49   15.50
   1   7  -2  120.39   12.90
  -1  -7   2  116.99   10.70
  -1  -7   2  134.89   11.80
  -1  -7   2  126.49   10.90
  -1  -7   2  122.29    9.60
   0   7  -2  342.87   26.10
   0   7  -2  398.36   26.70
   0  -7   2  413.26   24.90
   0  -7   2  393.66   24.90
   0  -7   2  378.16   24.60
   0  -7   2  338.97   27.40
  -1   7  -2   94.69   11.40
  -1   7  -2  113.59   16.10
  -1   7  -2  111.79   11.60
   1  -7   2   94.69   12.90
   1  -7   2  116.69    9.40
   1  -7   2  125.09    9.60
   1  -7   2  104.19    8.90
  -2   7  -2   20.80    8.70
  -2   7  -2   12.50    4.30
   2  -7   2   11.00    3.20
   2  -7   2   22.00    5.30
   2  -7   2   18.50    4.30
   7   6  -2   20.30    5.80
   7   6  -2   11.40    7.40
  -7  -6   2   17.20    3.20
  -7  -6   2   25.80    5.90
   6   6  -2   -1.30    7.80
   6   6  -2   -2.80   10.00
   6   6  -2    8.40    7.70
  -6  -6   2    9.30    4.20
  -6  -6   2    7.10    4.20
  -6  -6   2    1.90    3.30
   5   6  -2  431.96   33.10
  -5  -6   2  309.67   25.60
  -5  -6   2  373.66   24.00
  -5  -6   2  386.56   23.60
  -5  -6   2  354.46   24.20
   4   6  -2 1182.98   70.79
   4   6  -2 1031.70   74.89
   4   6  -2 1086.29   70.69
   4   6  -2 1072.89   73.59
  -4  -6   2 1114.09   70.49
  -4  -6   2 1203.58   69.29
  -4  -6   2 1214.38   69.59
  -4  -6   2 1177.08   69.89
   3   6  -2 1543.55   95.79
   3   6  -2 1462.95   98.69
   3   6  -2 1538.65   96.09
  -3  -6   2 1503.45   95.29
  -3  -6   2 1651.43   95.29
  -3  -6   2 1599.54   93.99
  -3  -6   2 1632.54   94.59
  -3  -6   2 1474.45   95.49
   2   6  -2 1460.35  105.09
   2   6  -2 1597.84  101.49
   2   6  -2 1563.04  102.29
   2   6  -2 1717.13  101.99
  -2  -6   2 1716.03  101.09
  -2  -6   2 1622.24  100.99
  -2  -6   2 1548.05  101.09
  -2  -6   2 1736.63   99.69
  -2  -6   2 1694.53  100.79
  -2  -6   2 1799.02  100.29
   1   6  -2  421.76   28.70
   1   6  -2  347.77   30.20
   1   6  -2  387.06   39.90
   1   6  -2  352.06   32.10
  -1  -6   2  446.16   27.40
  -1  -6   2  342.57   27.70
  -1  -6   2  419.16   25.90
  -1  -6   2  447.66   26.30
  -1  -6   2  429.96   27.90
   0   6  -2  251.57   21.70
   0   6  -2  231.88   25.60
   0   6  -2  244.18   21.50
   0  -6   2  259.57   19.00
   0  -6   2  208.68   23.00
   0  -6   2  245.38   24.90
   0  -6   2  277.87   19.60
   0  -6   2  294.57   18.90
   0  -6   2  285.97   18.20
   0  -6   2  291.87   20.00
  -1   6  -2   59.49   13.60
  -1   6  -2   55.89   12.10
   1  -6   2   57.19    8.90
   1  -6   2   67.49   13.20
   1  -6   2   63.59    9.10
   1  -6   2   71.69    9.90
  -2   6  -2  124.39   13.60
  -2   6  -2  109.59   12.70
  -2   6  -2  116.79   20.90
   2  -6   2  113.29   10.20
   2  -6   2  113.49   11.90
   2  -6   2  121.09   10.70
   2  -6   2  113.49   12.80
  -3   6  -2   98.49   19.70
  -3   6  -2   68.09   11.10
  -3   6  -2   89.19    9.20
   3  -6   2   71.79    7.50
   3  -6   2   66.39    7.70
   3  -6   2   76.49    8.90
   7   5  -2  297.67   22.50
   7   5  -2  315.17   24.20
  -7  -5   2  281.37   20.40
  -7  -5   2  283.87   20.10
  -7  -5   2  313.97   19.70
   6   5  -2    0.40    7.80
   6   5  -2    2.60   13.60
   6   5  -2   -0.20   11.80
  -6  -5   2    3.60    4.90
  -6  -5   2    1.40    5.70
  -6  -5   2   10.40    4.20
   5   5  -2   77.29   20.00
   5   5  -2   78.09   14.20
   5   5  -2   88.09   14.40
  -5  -5   2   72.59    7.80
  -5  -5   2   90.29   12.30
  -5  -5   2   77.59   18.40
  -5  -5   2   78.99    9.40
   4   5  -2 2284.27  149.39
   4   5  -2 2381.26  146.39
   4   5  -2 2362.36  148.39
   4   5  -2 2375.16  148.99
   4   5  -2 2383.56  146.09
  -4  -5   2 2366.46  146.39
  -4  -5   2 2423.76  146.59
  -4  -5   2 2592.34  145.19
  -4  -5   2 2465.25  145.49
  -4  -5   2 2426.76  145.99
   3   5  -2  438.56   40.60
   3   5  -2  328.17   40.40
   3   5  -2  406.96   29.10
   3   5  -2  412.26   28.30
  -3  -5   2  411.46   27.80
  -3  -5   2  390.86   30.30
  -3  -5   2  396.36   27.60
  -3  -5   2  441.46   26.50
  -3  -5   2  423.56   26.10
   2   5  -2   81.49   17.80
   2   5  -2   95.49   24.70
  -2  -5   2   98.39   10.00
  -2  -5   2  135.99   13.90
  -2  -5   2   98.49   14.30
  -2  -5   2  100.19    8.20
  -2  -5   2  103.19    9.30
   1   5  -2    4.00    8.00
  -1  -5   2   11.40    4.60
  -1  -5   2   11.40    7.90
  -1  -5   2   14.70    3.70
  -1  -5   2    6.60    4.20
   0   5  -2   35.70   11.30
   0   5  -2   26.00    7.00
   0   5  -2   21.20    8.00
   0  -5   2   46.10    7.60
   0  -5   2   37.70    8.10
   0  -5   2   47.70   10.60
   0  -5   2   45.80    9.70
  -1   5  -2  333.47   23.60
  -1   5  -2  310.77   30.40
  -1   5  -2  305.77   25.10
   1  -5   2  285.27   24.90
   1  -5   2  342.27   23.40
   1  -5   2  320.27   21.90
   1  -5   2  381.66   24.90
   1  -5   2  306.77   22.70
   1  -5   2  315.47   23.20
  -2   5  -2 1820.12  106.79
  -2   5  -2 1790.82  105.59
  -2   5  -2 1505.65  109.89
  -2   5  -2 1763.92  107.79
   2  -5   2 1809.42  106.59
   2  -5   2 1750.32  106.79
   2  -5   2 1674.83  106.19
   2  -5   2 1799.62  106.49
  -3   5  -2  306.47   25.70
  -3   5  -2  362.36   23.90
  -3   5  -2  278.77   37.20
   3  -5   2  323.17   25.80
   3  -5   2  328.57   22.50
   3  -5   2  344.67   23.10
   3  -5   2  341.97   23.40
  -4   5  -2  103.79   10.80
  -4   5  -2   98.69   13.80
   4  -5   2  110.09   10.50
   4  -5   2   97.39    9.70
   4  -5   2  114.29   10.30
  -5   5  -2  410.96   22.80
   5  -5   2  377.36   22.30
   5  -5   2  324.87   22.40
   5  -5   2  309.37   22.10
   8   4  -2   16.00    6.90
   8   4  -2   20.50    7.70
   8   4  -2    5.80    6.60
   7   4  -2  118.99   15.30
   7   4  -2  143.09   17.60
   7   4  -2  117.09   13.40
  -7  -4   2  128.89   10.70
  -7  -4   2  126.09   11.80
   6   4  -2  113.39   22.00
   6   4  -2  141.49   18.00
   6   4  -2  125.89   19.40
   6   4  -2  114.89   15.70
  -6  -4   2  153.08   27.00
  -6  -4   2  133.49   12.20
  -6  -4   2  132.79   10.30
   5   4  -2   51.69   11.70
   5   4  -2   19.70   10.40
   5   4  -2   29.50   13.40
   5   4  -2   18.70   11.60
  -5  -4   2   25.10    5.70
  -5  -4   2   29.40    4.30
   4   4  -2 1030.90   66.39
   4   4  -2 1088.99   69.79
   4   4  -2 1114.59   69.89
  -4  -4   2 1029.20   65.39
  -4  -4   2 1044.50   64.99
  -4  -4   2 1112.39   66.19
   3   4  -2 1170.48   70.59
   3   4  -2 1084.59   70.39
   3   4  -2 1131.59   74.89
   3   4  -2 1133.99   73.89
  -3  -4   2 1247.08   69.89
  -3  -4   2 1076.79   69.19
  -3  -4   2 1170.88   68.99
  -3  -4   2 1070.99   71.29
   2   4  -2  105.59   12.40
   2   4  -2  135.69   14.60
   2   4  -2  185.88   35.50
  -2  -4   2  122.29   16.20
  -2  -4   2  126.99    9.00
   1   4  -2  483.35   34.40
   1   4  -2  494.65   33.30
  -1  -4   2  549.15   31.50
  -1  -4   2  498.95   34.20
  -1  -4   2  468.25   33.20
  -1  -4   2  550.74   32.20
   0   4  -2 2217.98  142.29
   0   4  -2 2021.60  142.69
   0   4  -2 2248.08  141.49
   0   4  -2 2304.77  141.99
   0  -4   2 2201.78  141.69
   0  -4   2 2397.06  141.29
   0  -4   2 2523.95  140.69
   0  -4   2 2520.95  141.39
   0  -4   2 2418.36  141.79
   0  -4   2 2501.05  140.99
  -1   4  -2 1177.08   76.99
  -1   4  -2 1223.48   77.19
  -1   4  -2 1279.27   79.29
  -1   4  -2 1057.09   76.59
  -1   4  -2 1207.58   76.29
  -1   4  -2 1234.08   78.39
  -1   4  -2 1209.18   75.69
   1  -4   2 1322.97   75.69
   1  -4   2 1226.88   76.89
   1  -4   2 1310.57   75.39
   1  -4   2 1237.98   75.89
   1  -4   2 1302.87   76.59
   1  -4   2 1244.98   76.89
   1  -4   2 1339.77   75.99
   1  -4   2 1236.68   76.49
  -2   4  -2  107.79   12.80
  -2   4  -2  121.09   11.40
  -2   4  -2  121.49   17.40
  -2   4  -2  122.29   14.70
   2  -4   2  123.29   13.10
  -3   4  -2   92.69   16.60
  -3   4  -2  129.39   13.60
  -3   4  -2  147.09   28.70
  -3   4  -2  172.48   18.20
  -3   4  -2  115.69   17.20
  -3   4  -2  140.79   24.40
  -3   4  -2  145.29   12.40
  -3   4  -2  130.19   11.50
   3  -4   2  136.09   14.70
   3  -4   2  125.69   13.60
   3  -4   2  169.78   17.10
   3  -4   2  162.88   28.00
   3  -4   2  113.39   12.60
  -4   4  -2  189.98   15.20
  -4   4  -2  174.08   13.90
  -4   4  -2  155.48   17.90
  -4   4  -2  173.78   13.60
  -4   4  -2  133.49   22.90
   4  -4   2  181.58   15.00
   4  -4   2  150.18   13.70
   4  -4   2  186.68   15.10
  -5   4  -2  330.07   19.40
  -5   4  -2  259.67   22.90
  -5   4  -2  317.77   20.30
   5  -4   2  269.97   20.00
   5  -4   2  299.37   20.30
   5  -4   2  260.47   19.60
   8   3  -2  497.35   30.50
   8   3  -2  452.55   32.10
  -8  -3   2  447.56   30.00
   7   3  -2   44.00   12.50
   7   3  -2   10.40   11.80
   7   3  -2   25.00    9.80
  -7  -3   2    2.90   14.40
  -7  -3   2   38.10    8.30
   6   3  -2 2984.50  172.18
   6   3  -2 2757.12  170.88
   6   3  -2 2864.41  173.08
  -6  -3   2 2780.32  169.28
  -6  -3   2 2689.03  173.38
   5   3  -2  137.69   24.50
   5   3  -2  193.78   25.30
   5   3  -2  119.59   22.00
   5   3  -2  134.79   26.90
   5   3  -2  170.58   16.80
  -5  -3   2  151.78   10.50
   4   3  -2  386.56   29.30
   4   3  -2  320.27   27.70
   4   3  -2  359.86   30.10
   4   3  -2  316.77   28.00
  -4  -3   2  348.27   22.30
  -4  -3   2  339.17   21.20
  -4  -3   2  308.37   23.80
   3   3  -2  333.77   20.60
   3   3  -2  310.57   20.40
  -3  -3   2  338.67   20.70
  -3  -3   2  286.27   21.00
  -3  -3   2  321.27   20.00
  -3  -3   2  327.57   21.20
   2   3  -2    4.60    2.50
   2   3  -2    3.40    2.70
   2   3  -2    7.60    2.20
  -2  -3   2    2.80    2.10
  -2  -3   2   15.30    4.20
  -2  -3   2    3.60    2.20
  -2  -3   2    6.40    2.10
   1   3  -2 1918.31  117.89
   1   3  -2 1929.11  117.79
   1   3  -2 1892.21  117.79
   1   3  -2 2109.89  117.69
  -1  -3   2 1940.81  117.79
  -1  -3   2 1780.82  118.09
  -1  -3   2 1968.30  117.99
  -1  -3   2 2130.39  118.39
   0   3  -2 1942.11  121.09
   0   3  -2 1900.41  119.89
   0   3  -2 1905.21  119.89
   0   3  -2 1978.10  120.59
   0  -3   2 1973.40  120.49
   0  -3   2 2037.20  120.29
   0  -3   2 2009.30  119.79
   0  -3   2 2048.70  120.79
   0  -3   2 2190.98  120.29
   0  -3   2 1929.51  120.09
  -1   3  -2  442.96   28.00
  -1   3  -2  375.66   59.09
  -1   3  -2  415.06   28.30
  -1   3  -2  457.35   30.20
  -1   3  -2  421.56   28.40
  -1   3  -2  448.76   28.10
  -1   3  -2  454.25   29.40
   1  -3   2  517.95   28.70
   1  -3   2  469.05   28.40
   1  -3   2  477.55   29.00
   1  -3   2  465.85   27.90
   1  -3   2  431.46   29.60
   1  -3   2  456.45   28.20
  -2   3  -2  673.93   44.00
  -2   3  -2  663.93   42.10
  -2   3  -2  605.24   41.60
  -2   3  -2  667.33   42.80
  -2   3  -2  668.73   41.10
  -2   3  -2  729.13   41.50
  -2   3  -2  648.44   41.60
  -2   3  -2  642.04   41.80
   2  -3   2  572.04   44.00
   2  -3   2  727.43   42.20
   2  -3   2  693.53   42.30
   2  -3   2  719.63   42.90
   2  -3   2  645.54   44.90
   2  -3   2  697.23   42.40
   2  -3   2  620.74   43.10
   2  -3   2  707.33   42.90
   2  -3   2  686.03   42.50
   2  -3   2  663.73   42.80
  -3   3  -2   12.90   10.40
  -3   3  -2    5.20    6.00
  -3   3  -2   23.30   18.80
  -3   3  -2    3.10    6.40
  -3   3  -2    9.00    7.10
  -3   3  -2    7.40    3.80
  -3   3  -2   17.80    5.70
  -3   3  -2   15.30    4.60
   3  -3   2    9.20    6.90
   3  -3   2    0.60    6.40
   3  -3   2   34.50   13.10
   3  -3   2    7.60    6.30
   3  -3   2   10.80    8.50
   3  -3   2   13.30    5.10
   3  -3   2    7.10    6.50
  -4   3  -2  598.84   43.50
  -4   3  -2  575.94   46.80
  -4   3  -2  609.94   43.40
  -4   3  -2  708.93   41.90
  -4   3  -2  700.33   40.50
  -4   3  -2  669.53   40.60
  -4   3  -2  688.13   41.20
   4  -3   2  688.03   42.70
   4  -3   2  631.64   41.70
   4  -3   2  698.23   41.90
   4  -3   2  580.94   44.60
   4  -3   2  649.24   42.10
  -5   3  -2  769.12   47.50
  -5   3  -2  677.33   51.59
  -5   3  -2  792.92   47.60
  -5   3  -2  816.22   47.30
  -5   3  -2  789.42   48.20
   5  -3   2  759.12   49.00
   5  -3   2  739.83   48.20
   5  -3   2  766.82   48.10
  -6   3  -2   15.80    5.70
  -6   3  -2    6.40    3.60
  -6   3  -2    7.20    4.60
   6  -3   2   13.00    5.10
   6  -3   2   14.50    5.00
   6  -3   2   14.60    5.20
   8   2  -2  952.70   55.09
   8   2  -2  808.12   56.19
   7   2  -2  306.57   21.60
   7   2  -2  280.87   24.90
  -7  -2   2  288.47   20.10
  -7  -2   2  309.27   19.00
  -7  -2   2  235.68   24.60
   6   2  -2  188.88   20.20
   6   2  -2  188.88   22.10
   6   2  -2  206.88   17.40
   6   2  -2  177.58   22.60
   5   2  -2   47.60    8.50
   5   2  -2   48.40   15.80
   5   2  -2   59.79   12.80
  -5  -2   2   49.00    5.70
   4   2  -2  127.39   10.00
  -4  -2   2  127.59   10.20
  -4  -2   2  138.49   11.20
   3   2  -2  399.76   25.40
   3   2  -2  427.86   25.60
  -3  -2   2  413.26   26.00
  -3  -2   2  407.66   25.80
   2   2  -2 2489.75  138.79
   2   2  -2 2341.27  138.79
   2   2  -2 2558.74  138.79
  -2  -2   2 2453.05  139.19
  -2  -2   2 2056.79  138.59
  -2  -2   2 2400.66  139.19
  -2  -2   2 2233.98  139.09
  -2  -2   2 1956.50  156.98
   1   2  -2 9222.58  522.65
  -1  -2   2 7659.93  538.05
  -1  -2   2 9187.08  522.05
  -1  -2   2 8772.42  521.45
   0   2  -2   99.89    7.70
   0   2  -2  117.79    8.80
   0   2  -2  101.19    7.40
   0   2  -2  109.69    7.30
   0   2  -2  111.29    9.40
   0  -2   2  125.79    7.60
   0  -2   2  102.49    7.90
   0  -2   2  120.49    7.70
   0  -2   2  110.69   22.50
  -1   2  -2 1442.16   92.19
  -1   2  -2 1417.96   90.89
  -1   2  -2 1496.65   90.69
  -1   2  -2 1491.45   90.49
  -1   2  -2 1457.75   91.79
   1  -2   2 1577.14   90.99
   1  -2   2 1543.15   90.99
   1  -2   2 1622.54   92.39
   1  -2   2 1521.15   91.29
  -2   2  -2 1002.20   94.89
  -2   2  -2 1139.39   71.09
  -2   2  -2 1202.48   70.19
  -2   2  -2 1231.28   69.89
  -2   2  -2 1146.29   69.89
  -2   2  -2 1155.28   71.69
   2  -2   2 1271.37   70.69
   2  -2   2 1035.10   70.49
   2  -2   2 1181.88   69.99
   2  -2   2 1186.68   69.89
  -3   2  -2 1186.38   75.69
  -3   2  -2 1237.98  155.78
  -3   2  -2 1070.59   73.99
  -3   2  -2 1250.17   73.09
  -3   2  -2 1206.18   74.09
  -3   2  -2 1169.38   73.59
  -3   2  -2 1122.69   74.59
   3  -2   2 1229.08   74.09
   3  -2   2 1309.97   74.39
   3  -2   2 1209.48   74.29
   3  -2   2 1326.67   75.39
   3  -2   2 1143.69   74.99
   3  -2   2 1244.88   74.49
  -4   2  -2    6.70    9.60
  -4   2  -2    7.60    7.40
  -4   2  -2    8.90    3.50
  -4   2  -2    3.30    5.40
  -4   2  -2    4.70    4.60
  -4   2  -2   13.90    3.80
   4  -2   2   22.20    8.00
   4  -2   2   11.70   11.90
   4  -2   2   18.40    6.70
   4  -2   2    4.10    5.90
   4  -2   2    4.00    4.10
   4  -2   2   13.80    6.70
  -5   2  -2  186.88   12.60
  -5   2  -2  164.18   18.40
  -5   2  -2  179.78   12.80
  -5   2  -2  158.98   16.70
  -5   2  -2  182.88   13.60
  -5   2  -2  183.88   15.00
  -5   2  -2  144.39   26.30
   5  -2   2  176.98   15.30
   5  -2   2  176.08   21.10
   5  -2   2  162.08   17.10
   5  -2   2  167.08   15.30
   5  -2   2  179.88   15.10
  -6   2  -2  787.22   48.40
  -7   2  -2  123.39   10.50
  -7   2  -2  122.99   10.20
  -7   2  -2  123.99   10.70
  -7   2  -2  137.79    9.60
   7  -2   2  127.99   11.50
  -8  -1   2   38.40    8.80
   7   1  -2  725.73   43.30
   7   1  -2  639.74   45.70
  -7  -1   2  657.23   41.80
  -7  -1   2  630.94   40.80
   6   1  -2 1288.17   79.79
   6   1  -2 1353.16   78.99
   6   1  -2 1139.99   78.19
   6   1  -2 1341.97   77.59
  -6  -1   2 1283.77   75.09
  -6  -1   2 1158.08   77.29
  -6  -1   2 1129.29   78.79
   5   1  -2  375.76   31.60
   5   1  -2  344.47   28.30
   5   1  -2  295.37   27.80
   5   1  -2  346.17   24.20
   5   1  -2  340.17   27.40
  -5  -1   2  308.07   24.50
  -5  -1   2  315.07   20.60
   4   1  -2  430.96   29.70
  -4  -1   2  525.05   54.19
   3   1  -2 5207.18  301.57
  -3  -1   2 4857.31  303.07
  -3  -1   2 5207.18  310.57
  -3  -1   2 4798.12  301.57
  -3  -1   2 5078.29  301.57
   2   1  -2  535.85   32.60
   2   1  -2  546.75   32.60
  -2  -1   2  558.94   32.80
  -2  -1   2  587.34   40.00
  -2  -1   2  460.25   32.60
  -2  -1   2  536.05   33.70
  -2  -1   2  574.94   32.80
  -2  -1   2  506.15   32.70
   1   1  -2  474.35   27.70
   1   1  -2  467.25   28.20
   1   1  -2  456.45   27.80
  -1  -1   2  419.86   28.10
  -1  -1   2  480.05   28.10
   0   1  -2  229.58   23.30
   0   1  -2  269.47   16.10
   0   1  -2  258.57   17.10
   0   1  -2  247.98   16.80
   0   1  -2  260.17   15.90
   0   1  -2  242.38   15.70
   0  -1   2  281.87   16.10
   0  -1   2  274.67   16.30
   0  -1   2  275.57   16.20
  -1   1  -2 1299.97   78.59
  -1   1  -2 1287.77   79.99
  -1   1  -2 1331.57   78.99
  -1   1  -2 1310.77   79.99
  -1   1  -2 1193.78   90.99
   1  -1   2 1368.06   89.49
   1  -1   2 1340.17   78.99
   1  -1   2 1358.86   79.29
   1  -1   2 1317.47   78.89
  -2   1  -2 1829.32  108.39
  -2   1  -2 1844.52  109.69
  -2   1  -2 1816.32  127.49
  -2   1  -2 1832.72  108.59
  -2   1  -2 1791.22  109.99
   2  -1   2 1607.64  130.89
   2  -1   2 1879.61  108.59
   2  -1   2 1803.32  108.69
   2  -1   2 1848.42  109.19
  -3   1  -2 1913.01  144.79
  -3   1  -2 1905.41  116.99
  -3   1  -2 1970.20  116.89
  -3   1  -2 1827.52  118.29
  -3   1  -2 1953.30  118.99
   3  -1   2 2050.49  117.89
   3  -1   2 1991.00  119.99
  -4   1  -2 1145.89   78.69
  -4   1  -2 1219.58   78.39
  -4   1  -2 1303.37   75.59
  -4   1  -2 1212.08   76.19
  -4   1  -2 1295.47   75.69
  -4   1  -2 1213.88   76.49
   4  -1   2 1298.47   76.99
   4  -1   2 1244.48   77.59
   4  -1   2 1312.67   76.69
   4  -1   2 1336.47   76.99
   4  -1   2 1087.89   79.69
   4  -1   2 1314.77   76.59
  -5   1  -2   -2.50    9.10
  -5   1  -2    3.50   14.40
  -5   1  -2    3.60    3.30
  -5   1  -2    0.40    4.70
  -5   1  -2    3.80    5.50
  -5   1  -2    7.30    3.40
   5  -1   2   10.60    7.00
   5  -1   2   -1.50    5.80
   5  -1   2    6.20    5.80
   5  -1   2   -7.90   10.50
   5  -1   2    2.80    4.20
  -6   1  -2  625.44   46.50
  -6   1  -2  699.13   43.40
  -6   1  -2  671.83   42.40
  -6   1  -2  741.33   64.29
  -6   1  -2  700.73   42.30
  -6   1  -2  709.33   42.80
   6  -1   2  685.53   43.60
   6  -1   2  750.52   44.00
   6  -1   2  696.83   43.70
   6  -1   2  643.84   45.00
   6  -1   2  642.84   45.50
  -7   1  -2  231.88   18.10
  -7   1  -2  270.47   18.20
  -7   1  -2  290.17   17.30
  -7   1  -2  287.47   17.40
  -7   1  -2  265.27   17.80
   7  -1   2  235.18   18.60
   7  -1   2  247.78   20.20
   8   0  -2   -6.70    7.40
  -8   0   2    7.00    5.10
   7   0  -2  113.19   16.70
  -7   0   2  106.39   10.10
  -7   0   2   94.89    9.10
   6   0  -2  469.05   32.10
   6   0  -2  463.35   35.50
   6   0  -2  498.35   33.90
   6   0  -2  480.65   31.60
  -6   0   2  408.16   33.60
  -6   0   2  452.55   28.70
   5   0  -2   13.50   10.80
   5   0  -2   20.90    7.00
   5   0  -2   -1.20   10.20
   5   0  -2   40.80    9.50
   5   0  -2   11.60    6.40
  -5   0   2   19.80    7.70
  -5   0   2   19.20    3.50
   4   0  -2   91.69   12.70
  -4   0   2   99.49    9.60
  -4   0   2  115.89   31.90
   3   0  -2 9563.34  561.64
  -3   0   2 9999.00  559.64
  -3   0   2 9446.75  559.04
  -3   0   2 9141.38  559.04
  -3   0   2 8533.95  567.84
  -2   0   2   12.10    4.10
  -2   0   2   14.60    2.00
  -2   0   2   11.50    1.60
  -2   0   2   12.50    2.10
  -2   0   2   15.30    7.00
  -2   0   2   13.30    2.20
   1   0  -2   12.50    1.00
   1   0  -2   11.50    1.50
  -1   0   2   12.40    1.20
  -1   0   2   12.10    4.70
  -1   0   2   11.10    1.60
  -1   0   2   10.60    2.90
   0   0  -2 4763.62  274.47
   0   0   2 4387.76  274.17
  -1   0  -2  402.16   27.50
  -1   0  -2  444.66   33.60
  -1   0  -2  470.55   27.20
  -1   0  -2  414.06   27.60
   1   0   2  473.45   26.70
   1   0   2  452.15   32.20
   1   0   2  448.66   27.20
  -2   0  -2 5690.73  334.17
  -2   0  -2 5379.96  335.37
  -2   0  -2 5289.57  335.07
  -2   0  -2 5899.41  348.47
   2   0   2 5645.84  334.77
  -3   0  -2  631.14   35.90
  -3   0  -2  628.54   37.50
  -3   0  -2  614.44   37.90
  -3   0  -2  550.84   36.00
  -3   0  -2  578.74   36.20
   3   0   2  621.24   38.40
   3   0   2  518.55   36.20
   3   0   2  623.14   36.70
   3   0   2  562.84   35.80
  -4   0  -2  711.73   45.80
  -4   0  -2  743.43   43.80
  -4   0  -2  746.53   46.80
  -4   0  -2  679.43   75.29
  -4   0  -2  720.03   43.90
   4   0   2  770.12   47.10
   4   0   2  654.13   47.50
   4   0   2  739.93   44.90
  -5   0  -2   92.49    7.40
  -5   0  -2   94.19    9.70
  -5   0  -2   88.59   16.20
  -5   0  -2   94.99    7.70
  -5   0  -2   84.29   11.80
  -5   0  -2   97.19   11.00
   5   0   2  104.69   13.60
   5   0   2   98.89   11.00
   5   0   2   94.59   18.40
   5   0   2  116.89   10.70
   5   0   2   90.29   12.70
   5   0   2  113.09   10.60
  -6   0  -2  578.14   49.00
  -6   0  -2  685.43   41.60
  -6   0  -2  679.33   41.00
  -6   0  -2  653.63   42.00
  -6   0  -2  671.93   45.40
  -6   0  -2  654.93   41.00
   6   0   2  676.73   44.60
   6   0   2  687.33   42.50
   6   0   2  693.73   42.50
   6   0   2  697.23   42.90
   6   0   2  632.04   45.50
  -7   0  -2  174.78   14.20
  -7   0  -2  199.48   14.30
  -7   0  -2  174.78   13.00
  -7   0  -2  139.39   23.50
  -7   0  -2  197.48   12.50
  -7   0  -2  193.88   13.40
   7   0   2  162.78   16.20
   7   0   2  167.68   17.10
   7   0   2  199.88   21.40
   7   0   2  163.08   15.10
  -8   0  -2  417.76   25.10
  -8   0  -2  459.15   25.10
  -8   0  -2  365.56   25.40
   8   0   2  358.76   26.30
   8  -1  -2   26.30    7.00
  -8   1   2   43.20    8.30
   7  -1  -2   11.30    8.70
   7  -1  -2   10.40    5.20
   7  -1  -2   -0.20   13.10
   7  -1  -2   -2.40   10.30
  -7   1   2    3.40    4.40
  -7   1   2   -0.70    4.50
   6  -1  -2  267.77   21.40
   6  -1  -2  263.27   23.30
   6  -1  -2  264.57   20.00
   6  -1  -2  284.77   20.40
   6  -1  -2  269.17   26.10
  -6   1   2  243.08   17.00
  -6   1   2  221.58   17.90
   5  -1  -2 2358.56  134.59
   5  -1  -2 2241.08  134.79
   5  -1  -2 2230.58  135.59
   5  -1  -2 2206.18  135.19
   5  -1  -2 2189.48  136.69
  -5   1   2 2041.40  132.99
   4  -1  -2 5726.13  352.96
  -4   1   2 6131.49  379.46
  -4   1   2 5724.13  348.97
  -4   1   2 5638.24  349.67
  -4   1   2 5898.11  350.16
   3  -1  -2 3777.52  220.08
   3  -1  -2 3285.37  212.88
  -3   1   2 4009.70  230.18
  -3   1   2 3245.68  210.98
  -3   1   2 3489.25  210.88
  -3   1   2 3266.27  211.18
   2  -1  -2 1317.47   79.59
  -2   1   2 1111.59   78.09
  -2   1   2 1308.57   77.79
  -2   1   2 1300.97   78.09
  -2   1   2 1431.76   88.49
  -2   1   2 1353.16   80.59
  -2   1   2 1238.78   77.89
   1  -1  -2   89.89    6.00
   1  -1  -2  103.69   11.40
   1  -1  -2   96.29   10.90
  -1   1   2   98.69    7.90
  -1   1   2   88.09    6.00
  -1   1   2   91.69    9.90
  -1   1   2   82.89   10.60
  -1   1   2   89.09    5.80
   0  -1  -2  222.58   16.20
   0  -1  -2  186.88   13.60
   0  -1  -2  196.48   11.60
   0  -1  -2  195.68   12.10
   0  -1  -2  175.38   12.00
   0   1   2  216.98   16.00
   0   1   2  164.98   11.90
  -1  -1  -2   13.20    1.80
  -1  -1  -2    9.50    2.80
  -1  -1  -2    9.70    2.40
  -1  -1  -2   10.10    3.20
   1   1   2   10.60    1.70
   1   1   2   10.60    3.90
   1   1   2    6.80    1.70
  -2  -1  -2 7093.29  420.56
  -2  -1  -2 6598.24  421.56
  -2  -1  -2 6615.74  421.36
   2   1   2 7397.66  420.76
   2   1   2 7421.46  420.96
  -3  -1  -2 1304.57   88.09
  -3  -1  -2 1120.49   70.59
  -3  -1  -2 1112.79   70.99
   3   1   2 1107.39   69.49
   3   1   2 1167.78   69.39
   3   1   2 1089.59   69.69
  -4  -1  -2  830.92   49.80
  -4  -1  -2  802.82   47.50
  -4  -1  -2  776.82   50.29
  -4  -1  -2  768.12   47.60
  -4  -1  -2  837.22   75.89
   4   1   2  762.32   48.00
   4   1   2  758.82   48.30
   4   1   2  739.33   50.69
  -5  -1  -2 5640.84  345.17
  -5  -1  -2 5705.63  342.17
  -5  -1  -2 5670.93  341.77
  -5  -1  -2 5650.73  341.77
  -5  -1  -2 6019.80  344.37
  -5  -1  -2 5579.04  342.37
   5   1   2 5780.12  342.67
   5   1   2 5314.77  342.77
   5   1   2 6013.30  345.57
   5   1   2 5876.81  343.67
   5   1   2 5756.52  343.37
   5   1   2 6157.48  342.87
   5   1   2 5841.42  342.57
   5   1   2 4806.12  343.97
  -6  -1  -2   10.70    9.50
  -6  -1  -2    3.80    2.90
  -6  -1  -2    6.40   15.20
  -6  -1  -2    5.90    3.20
  -6  -1  -2    7.20    4.80
  -6  -1  -2    6.60    5.70
   6   1   2   11.00    9.90
   6   1   2    3.70    4.50
   6   1   2   -2.00    8.10
   6   1   2    7.90    7.60
   6   1   2   -0.20    6.50
   6   1   2   -6.50   10.70
   6   1   2    9.00    6.90
  -7  -1  -2  261.77   18.80
  -7  -1  -2  228.48   17.30
  -7  -1  -2  243.88   16.00
  -7  -1  -2  233.78   25.40
  -7  -1  -2  242.08   15.60
  -7  -1  -2  242.88   15.60
   7   1   2  246.58   19.30
   7   1   2  209.18   19.00
   7   1   2  222.58   19.50
   7   1   2  213.68   20.40
   7   1   2  258.67   32.40
  -8  -1  -2  319.37   20.50
  -8  -1  -2  368.26   20.50
  -8  -1  -2  346.67   21.30
  -8  -1  -2  289.17   22.20
   8   1   2  297.57   23.80
   8   1   2  310.07   22.40
   8   1   2  303.67   22.30
   7  -2  -2  364.36   24.40
   7  -2  -2  313.77   26.00
   7  -2  -2  367.76   23.70
  -7   2   2  338.87   22.70
  -7   2   2  363.56   22.70
  -7   2   2  356.26   23.60
   6  -2  -2  224.28   18.00
   6  -2  -2  212.38   19.10
   6  -2  -2  248.48   18.10
   6  -2  -2  203.58   23.50
   6  -2  -2  210.58   22.80
  -6   2   2  210.28   15.50
  -6   2   2  206.48   15.10
   5  -2  -2 1096.09   67.09
   5  -2  -2 1131.09   68.39
   5  -2  -2 1063.09   70.39
   5  -2  -2 1117.99   67.29
  -5   2   2  976.10   65.99
   4  -2  -2  145.59   20.40
   4  -2  -2  155.28   15.10
   4  -2  -2  162.88   14.10
   4  -2  -2  168.88   14.30
   4  -2  -2  182.48   17.30
  -4   2   2  161.48   11.80
   3  -2  -2    2.80   13.00
   3  -2  -2   12.00    8.50
  -3   2   2    3.00   19.50
  -3   2   2    5.00    3.10
  -3   2   2    2.40    3.70
  -3   2   2    2.50    4.60
   2  -2  -2  917.41   55.79
   2  -2  -2  895.01   72.19
  -2   2   2  825.02   53.99
  -2   2   2  921.71   67.79
   0  -2  -2 3936.91  244.88
   0  -2  -2 4184.68  251.57
   0  -2  -2 4355.36  245.38
   0   2   2 3750.12  245.28
   0   2   2 4369.46  246.78
   0   2   2 4291.97  245.48
   0   2   2 3750.12  245.28
  -1  -2  -2   46.60    2.70
  -1  -2  -2   43.90    3.80
  -1  -2  -2   47.60    7.80
   1   2   2   44.90    3.90
   1   2   2   40.00    3.50
   1   2   2   40.90    3.40
  -2  -2  -2 4172.88  259.07
  -2  -2  -2 4361.86  255.67
  -2  -2  -2 4585.04  256.87
  -2  -2  -2 4412.66  256.37
   2   2   2 4164.78  256.07
   2   2   2 4174.78  255.97
   2   2   2 4191.58  256.07
   2   2   2 4422.76  256.37
   2   2   2 3958.00  256.07
  -3  -2  -2   25.50    3.20
  -3  -2  -2   18.70    4.10
  -3  -2  -2   29.50    5.70
   3   2   2   24.10    2.90
   3   2   2   23.10    4.70
   3   2   2   30.50    3.60
   3   2   2   24.80    3.10
  -4  -2  -2  956.30   53.69
  -4  -2  -2  875.91   53.89
  -4  -2  -2  921.11   79.89
  -4  -2  -2  814.92   51.39
  -4  -2  -2  874.11   51.29
   4   2   2  758.32   51.89
   4   2   2  814.22   51.89
   4   2   2  781.12   54.19
  -5  -2  -2   97.09   12.30
  -5  -2  -2   94.39   12.00
  -5  -2  -2   91.29    7.40
  -5  -2  -2   96.49    7.10
  -5  -2  -2   97.79   10.70
  -5  -2  -2   93.99   15.30
  -5  -2  -2  118.69   14.60
   5   2   2  110.69   11.90
   5   2   2   79.29   22.10
   5   2   2   96.39   13.30
   5   2   2   72.89   13.80
   5   2   2   88.59   13.20
  -6  -2  -2 1619.64  109.59
  -6  -2  -2 1815.12  114.09
  -6  -2  -2 1783.92  109.69
  -6  -2  -2 1786.62  108.79
  -6  -2  -2 1974.50  112.79
  -6  -2  -2 1856.81  109.29
  -6  -2  -2 1858.71  108.89
   6   2   2 1851.51  110.69
   6   2   2 1719.13  110.09
   6   2   2 1682.13  112.29
   6   2   2 1818.12  112.39
   6   2   2 1886.61  111.29
  -7  -2  -2  116.79   19.10
  -7  -2  -2  135.19   10.00
  -7  -2  -2  120.69   11.40
  -7  -2  -2  117.89    9.10
   7   2   2  120.99   12.90
   7   2   2  124.99   16.70
   7   2   2   85.59   14.00
   7   2   2  138.29   20.10
   7   2   2  120.49   14.30
  -8  -2  -2   11.80    3.00
  -8  -2  -2   10.60    5.00
  -8  -2  -2   17.50    3.60
   8   2   2   13.20    6.20
   8   2   2    2.40    5.80
   8   2   2    5.20    4.10
   7  -3  -2  213.08   15.20
   7  -3  -2  192.18   17.80
   7  -3  -2  206.98   16.10
  -7   3   2  255.77   16.00
  -7   3   2  232.68   14.70
   6  -3  -2  318.27   25.40
   6  -3  -2  356.06   31.10
  -6   3   2  367.06   23.10
  -6   3   2  326.27   24.40
  -6   3   2  383.06   23.20
   5  -3  -2  211.18   17.10
   5  -3  -2  205.98   23.70
   5  -3  -2  206.28   16.70
   5  -3  -2  235.58   17.30
   5  -3  -2  197.58   19.10
  -5   3   2  183.28   20.30
  -5   3   2  178.98   14.80
  -5   3   2  195.28   16.30
  -5   3   2  184.88   14.60
   4  -3  -2  824.92   54.19
   4  -3  -2  865.11   52.49
   4  -3  -2  873.01   52.79
   4  -3  -2  900.41   52.79
   4  -3  -2  770.32   52.59
   4  -3  -2  831.92   56.19
  -4   3   2  860.91   52.09
  -4   3   2  787.92   51.39
  -4   3   2  800.42   51.89
   3  -3  -2 1841.62  107.99
   3  -3  -2 1680.53  110.09
   3  -3  -2 1718.23  106.59
   3  -3  -2 1864.91  106.49
   3  -3  -2 1812.32  122.49
  -3   3   2 1570.24  135.29
  -3   3   2 1901.71  105.79
  -3   3   2 1679.13  105.39
  -3   3   2 1613.04  105.69
   2  -3  -2 1376.66   86.29
   2  -3  -2 1178.48   75.99
  -2   3   2 1103.29   73.89
  -2   3   2 1245.38   75.49
  -2   3   2 1204.58   75.49
  -2   3   2 1209.68   94.69
   1  -3  -2 2385.96  160.58
   1  -3  -2 2610.54  140.49
   1  -3  -2 2464.05  150.28
  -1   3   2 2615.84  144.59
  -1   3   2 2297.87  140.89
  -1   3   2 1992.70  141.09
  -1   3   2 2259.97  140.89
  -1   3   2 2102.19  155.38
   0  -3  -2 4518.45  256.77
   0  -3  -2 4306.47  271.67
   0  -3  -2 3720.73  263.17
   0   3   2 4700.03  258.87
   0   3   2 4056.99  257.07
   0   3   2 4308.17  256.77
   0   3   2 4344.97  256.77
  -1  -3  -2   84.79    6.00
  -1  -3  -2   73.09   10.90
  -1  -3  -2   71.39   15.80
   1   3   2   81.49    6.10
   1   3   2   79.79    6.00
   1   3   2   91.59    5.10
   1   3   2   93.09    7.50
   1   3   2   79.59    6.80
  -2  -3  -2  313.77   18.60
  -2  -3  -2  310.47   18.40
  -2  -3  -2  313.57   19.20
  -2  -3  -2  273.07   24.20
   2   3   2  311.97   19.10
   2   3   2  301.07   20.10
   2   3   2  291.17   19.10
   2   3   2  299.57   19.50
   2   3   2  311.07   19.10
  -3  -3  -2 1815.52   99.89
  -3  -3  -2 1776.22   98.69
  -3  -3  -2 1539.45  102.09
  -3  -3  -2 1711.43   98.99
  -3  -3  -2 1567.54   98.29
   3   3   2 1444.36   98.39
   3   3   2 1585.24   98.69
   3   3   2 1652.33   98.79
   3   3   2 1615.14   98.59
  -4  -3  -2  799.82   45.40
  -4  -3  -2  678.73   42.60
  -4  -3  -2  668.23   43.60
   4   3   2  693.13   43.20
   4   3   2  661.73   43.30
  -5  -3  -2   85.09    6.60
  -5  -3  -2   56.49    8.90
  -5  -3  -2   57.79    9.80
  -5  -3  -2   77.09   14.20
  -5  -3  -2   80.69   11.10
   5   3   2   75.69   11.70
   5   3   2   78.09   12.80
   5   3   2   73.99   20.80
   5   3   2   89.19   15.50
  -6  -3  -2  279.27   18.20
  -6  -3  -2  333.27   25.10
  -6  -3  -2  266.07   20.50
  -6  -3  -2  303.27   27.20
  -6  -3  -2  280.07   19.20
   6   3   2  270.87   21.60
   6   3   2  285.57   24.60
   6   3   2  279.07   26.50
   6   3   2  277.07   22.30
   6   3   2  251.57   22.10
  -7  -3  -2  360.76   22.90
  -7  -3  -2  375.66   23.90
  -7  -3  -2  360.46   22.40
  -7  -3  -2  357.46   22.40
   7   3   2  352.06   24.80
   7   3   2  338.97   27.30
   7   3   2  345.47   25.40
   7   3   2  296.17   27.30
   7   3   2  377.76   25.70
  -8  -3  -2    7.80    2.90
  -8  -3  -2    3.70    3.80
   8   3   2    4.70    6.50
   8   3   2    6.20    3.90
   8   3   2    0.20   10.00
   6  -4  -2 1211.68   71.99
   6  -4  -2 1158.48   71.59
   6  -4  -2 1084.59   72.19
   6  -4  -2 1144.19   73.49
  -6   4   2 1219.68   71.89
  -6   4   2 1138.59   71.59
  -6   4   2 1269.87   71.49
  -6   4   2 1171.28   71.89
   5  -4  -2   19.40    9.70
   5  -4  -2   11.90    5.70
   5  -4  -2    8.80    5.10
   5  -4  -2    7.60    6.90
   5  -4  -2    5.80    4.90
  -5   4   2   -0.10    5.00
  -5   4   2    4.00    6.60
  -5   4   2   -6.50    6.40
  -5   4   2    1.50    4.70
  -5   4   2    6.00    6.90
   4  -4  -2    8.80    6.90
   4  -4  -2   -1.40    4.80
   4  -4  -2    6.20    8.10
   4  -4  -2    0.60    5.00
   4  -4  -2   20.60   12.50
   4  -4  -2    5.20    6.30
  -4   4   2    0.50   15.00
  -4   4   2    5.20    5.20
  -4   4   2   -3.00    9.30
  -4   4   2    9.90    5.00
  -4   4   2   13.10    8.30
  -4   4   2   -1.90    5.00
  -4   4   2   14.80    5.90
   3  -4  -2    2.10    4.70
   3  -4  -2    7.40    6.30
   3  -4  -2    2.30    6.20
   3  -4  -2   -4.30    5.90
   3  -4  -2   23.70    9.70
  -3   4   2   13.20   11.20
  -3   4   2    5.60    5.10
  -3   4   2    9.10    4.20
  -3   4   2   10.70    3.80
  -3   4   2   11.50    4.40
  -3   4   2    8.80    9.30
   2  -4  -2 1357.96  100.29
   2  -4  -2 1435.66   84.69
   2  -4  -2 1509.75   84.99
  -2   4   2 1268.47   83.99
  -2   4   2 1455.05   84.29
  -2   4   2 1496.85   84.29
  -2   4   2 1267.27  116.99
  -2   4   2 1267.77   84.29
   1  -4  -2   38.30    4.80
  -1   4   2   37.50    6.20
  -1   4   2   37.50    5.70
  -1   4   2   43.30    4.20
  -1   4   2   28.40   26.80
  -1   4   2   42.30    4.70
   0  -4  -2 4756.22  345.47
   0  -4  -2 5851.41  336.67
   0   4   2 5099.19  336.77
   0   4   2 5804.62  336.77
   0   4   2 5869.11  339.47
   0   4   2 5842.22  336.77
   0   4   2 6047.40  335.87
  -1  -4  -2 3998.10  243.18
  -1  -4  -2 4014.50  243.18
  -1  -4  -2 4014.00  242.68
   1   4   2 4207.08  244.48
   1   4   2 4099.29  243.38
   1   4   2 4102.99  243.08
   1   4   2 3622.14  243.18
   1   4   2 4233.98  242.38
   1   4   2 4139.39  243.38
  -2  -4  -2 1487.25   91.89
  -2  -4  -2 1556.04   92.59
  -2  -4  -2 1493.25   92.09
   2   4   2 1498.35   92.59
   2   4   2 1553.54   92.69
   2   4   2 1578.84   92.49
  -3  -4  -2  156.48   21.40
  -3  -4  -2  180.58   12.60
  -3  -4  -2  189.78   11.70
  -3  -4  -2  200.68   12.10
   3   4   2  179.08   12.50
   3   4   2  181.68   12.90
   3   4   2  179.38   12.60
  -4  -4  -2  426.16   28.20
  -4  -4  -2  454.65   26.80
  -4  -4  -2  459.65   28.00
  -4  -4  -2  374.36   29.60
  -4  -4  -2  480.25   29.70
   4   4   2  450.05   34.00
   4   4   2  419.16   27.60
   4   4   2  400.36   34.10
   4   4   2  434.56   30.20
   4   4   2  425.66   29.90
  -5  -4  -2    5.00    2.50
  -5  -4  -2    4.60    3.20
  -5  -4  -2    3.70    5.10
  -5  -4  -2   -7.30    8.70
  -5  -4  -2   -3.60    6.90
   5   4   2   12.70    8.10
   5   4   2    4.90    9.60
   5   4   2    0.20    5.50
   5   4   2    3.10    7.10
  -6  -4  -2  340.97   21.80
  -6  -4  -2  344.57   21.80
  -6  -4  -2  393.86   30.00
  -6  -4  -2  343.17   22.80
  -6  -4  -2  334.47   24.30
   6   4   2  336.57   25.10
   6   4   2  294.47   28.70
   6   4   2  350.26   28.20
   6   4   2  345.87   26.20
  -7  -4  -2   60.69   16.60
  -7  -4  -2   70.49    6.70
  -7  -4  -2   68.29    7.70
   7   4   2   61.89   11.20
   7   4   2   65.49   13.30
   7   4   2   73.49   13.50
   7   4   2   56.59   15.20
  -8  -4  -2  305.07   19.40
  -8  -4  -2  328.07   20.30
  -8  -4  -2  322.97   19.10
  -8  -4  -2  270.87   19.40
   8   4   2  317.87   22.00
   8   4   2  277.77   20.30
   8   4   2  255.57   23.70
   6  -5  -2   33.80    5.00
   6  -5  -2   33.60    8.10
   6  -5  -2   32.50    5.10
  -6   5   2   43.50    4.90
  -6   5   2   48.40    5.10
   5  -5  -2  722.63   46.60
   5  -5  -2  772.62   44.60
   5  -5  -2  646.44   44.70
   5  -5  -2  651.83   45.60
  -5   5   2  747.63   45.10
  -5   5   2  734.23   45.00
  -5   5   2  701.93   44.70
  -5   5   2  770.82   44.50
   4  -5  -2  895.91   52.89
   4  -5  -2  769.42   54.39
   4  -5  -2  899.81   52.69
   4  -5  -2  888.71   53.49
   4  -5  -2  844.82   53.29
   4  -5  -2  912.21   55.99
  -4   5   2  776.72   53.69
  -4   5   2  993.00   59.39
  -4   5   2  798.62   53.79
  -4   5   2  854.11   53.29
  -4   5   2  800.22   52.79
  -4   5   2  785.12   52.79
   3  -5  -2   50.89   12.30
   3  -5  -2  100.69   10.50
   3  -5  -2   87.59   15.90
   3  -5  -2   67.89   10.00
  -3   5   2   83.19   10.20
  -3   5   2   79.29    9.70
  -3   5   2   73.29   14.60
  -3   5   2   76.49   13.90
  -3   5   2   80.69    9.00
  -3   5   2   54.99    9.40
   2  -5  -2 3859.41  224.68
   2  -5  -2 3806.42  225.98
   2  -5  -2 4156.08  225.18
   2  -5  -2 4053.09  224.58
   2  -5  -2 3645.24  225.08
  -2   5   2 3413.36  225.68
  -2   5   2 3698.83  224.68
  -2   5   2 3470.15  224.48
  -2   5   2 3492.25  228.58
  -2   5   2 3453.05  224.38
  -2   5   2 3910.21  224.68
   1  -5  -2 1561.24   87.39
   1  -5  -2 1277.77   90.79
   1  -5  -2 1484.75   86.59
   1  -5  -2 1523.35   86.99
   1  -5  -2 1451.25   87.39
  -1   5   2 1536.55   86.99
  -1   5   2 1522.95   86.89
  -1   5   2 1355.86   86.79
  -1   5   2 1222.88   88.69
  -1   5   2 1279.47   86.79
   0  -5  -2  247.68   15.30
   0  -5  -2  236.28   18.40
   0  -5  -2  227.08   16.60
   0   5   2  167.88   22.40
   0   5   2  224.68   15.80
   0   5   2  234.48   15.30
   0   5   2  246.58   15.30
   0   5   2  177.08   19.20
   0   5   2  193.48   15.90
  -1  -5  -2  657.93   41.30
  -1  -5  -2  668.13   41.80
   1   5   2  724.33   42.10
   1   5   2  629.84   42.10
   1   5   2  658.83   41.90
   1   5   2  698.33   41.90
  -2  -5  -2   68.09    6.50
  -2  -5  -2   57.49    5.60
  -2  -5  -2   54.29   21.80
  -2  -5  -2   51.09    8.00
  -2  -5  -2   85.29   15.00
  -2  -5  -2   72.29    6.20
  -2  -5  -2   59.09    9.00
   2   5   2   71.59    6.70
   2   5   2   62.79    7.30
   2   5   2   65.19   12.00
   2   5   2   50.49   19.30
  -3  -5  -2    6.80    3.10
  -3  -5  -2    2.60    4.80
  -3  -5  -2    6.60    2.70
  -3  -5  -2   12.20    4.10
  -3  -5  -2    8.00    4.10
   3   5   2    1.10    3.80
   3   5   2   15.00    8.90
   3   5   2   12.40   12.20
   3   5   2   20.80   11.80
   3   5   2   12.60    4.40
   3   5   2   10.70   10.60
  -4  -5  -2   22.30    4.30
  -4  -5  -2   18.80    3.90
  -4  -5  -2   28.80    6.10
  -4  -5  -2   20.50    5.70
  -4  -5  -2   26.70    5.50
   4   5   2   38.20   11.90
   4   5   2   26.20   11.90
   4   5   2   16.20    8.30
   4   5   2   38.00   10.90
   4   5   2   22.70    5.80
   4   5   2   27.40    5.70
  -5  -5  -2  389.66   31.10
  -5  -5  -2  447.66   29.20
  -5  -5  -2  469.85   28.40
  -5  -5  -2  413.46   29.70
  -5  -5  -2  472.75   28.70
  -5  -5  -2  506.35   35.20
   5   5   2  475.25   31.90
   5   5   2  455.95   30.10
   5   5   2  462.35   31.30
   5   5   2  442.46   34.50
   5   5   2  472.15   33.60
  -6  -5  -2 1222.98   77.69
  -6  -5  -2 1287.37   80.29
  -6  -5  -2 1213.68   75.29
  -6  -5  -2 1239.98   74.99
  -6  -5  -2 1176.38   75.99
   6   5   2 1269.77   76.99
   6   5   2 1224.68   76.89
   6   5   2 1300.87   78.49
   6   5   2 1182.08   78.79
  -7  -5  -2   78.69   17.10
  -7  -5  -2   50.29    6.40
  -7  -5  -2   44.40    8.60
  -7  -5  -2   54.09    7.10
  -7  -5  -2   49.90    8.20
   7   5   2   69.59   15.50
   7   5   2   75.69   12.00
   7   5   2   33.90   14.20
  -8  -5  -2   87.59   11.70
  -8  -5  -2  100.89    8.30
   8   5   2  113.89   12.10
   8   5   2  129.49   17.30
   8   5   2  124.49   17.70
   5  -6  -2    0.90    2.80
   5  -6  -2    8.20    6.80
  -5   6   2    4.10    2.70
  -5   6   2   11.40    3.90
  -5   6   2    6.90    3.40
   4  -6  -2  171.98   13.90
   4  -6  -2  177.78   16.10
   4  -6  -2  166.78   12.50
   4  -6  -2  168.68   12.90
   4  -6  -2  179.08   13.00
  -4   6   2  134.69   17.30
  -4   6   2  175.18   14.20
  -4   6   2  183.48   14.00
  -4   6   2  172.88   13.40
  -4   6   2  189.38   12.90
   3  -6  -2    0.90    5.00
   3  -6  -2    3.10    4.90
   3  -6  -2    8.60   12.50
   3  -6  -2    0.30    3.70
   3  -6  -2  -13.10   10.00
  -3   6   2    2.20    5.90
  -3   6   2    4.30    6.00
  -3   6   2   -9.90    9.30
  -3   6   2   -1.20    4.60
  -3   6   2    2.20    5.30
  -3   6   2   -1.20    5.10
   2  -6  -2  114.99   12.20
   2  -6  -2  100.69   10.50
   2  -6  -2  128.69   11.40
   2  -6  -2   93.69   16.90
  -2   6   2   93.49   13.90
  -2   6   2  120.49   10.80
  -2   6   2  131.59   14.80
  -2   6   2   99.09   21.00
  -2   6   2  103.49   11.70
  -2   6   2  108.09   11.50
  -2   6   2  102.69   11.00
   1  -6  -2    8.30    6.30
   1  -6  -2   10.10    5.10
   1  -6  -2    9.00    4.80
  -1   6   2   -2.40    9.70
  -1   6   2    4.60    7.70
  -1   6   2    4.30    6.90
  -1   6   2    0.60    4.80
  -1   6   2    6.00    5.90
  -1   6   2    7.90    5.60
   0  -6  -2 1011.00   61.29
   0  -6  -2 1010.40   60.39
   0  -6  -2 1038.10   60.69
   0  -6  -2 1021.00   60.69
   0  -6  -2  999.70   60.39
   0   6   2  947.11   60.69
   0   6   2  902.41   61.29
   0   6   2  897.91   64.09
   0   6   2  978.00   60.69
   0   6   2 1019.70   60.49
   0   6   2  864.11   63.19
   0   6   2 1030.80   60.79
  -1  -6  -2  410.66   27.90
  -1  -6  -2  405.66   25.90
  -1  -6  -2  378.16   25.70
  -1  -6  -2  383.86   25.80
  -1  -6  -2  376.56   25.70
  -1  -6  -2  386.06   25.10
   1   6   2  428.16   25.90
   1   6   2  420.36   26.10
   1   6   2  377.26   26.80
   1   6   2  365.26   27.90
   1   6   2  415.06   29.70
   1   6   2  354.26   30.30
   1   6   2  387.66   31.10
   1   6   2  367.86   26.50
  -2  -6  -2   27.80    5.60
  -2  -6  -2   23.70    9.90
  -2  -6  -2   20.70    4.00
  -2  -6  -2   25.20    6.50
  -2  -6  -2   23.30    5.00
  -2  -6  -2   25.10    4.40
  -2  -6  -2   17.00    4.50
   2   6   2   21.40    6.30
   2   6   2   19.70    9.70
   2   6   2    7.90    8.80
   2   6   2   16.90    9.10
   2   6   2   23.30    8.00
   2   6   2   20.70    5.40
  -3  -6  -2 1387.76   94.79
  -3  -6  -2 1346.37   94.09
  -3  -6  -2 1576.04   93.79
  -3  -6  -2 1608.24   94.99
  -3  -6  -2 1655.53   93.99
  -3  -6  -2 1608.24   94.99
   3   6   2 1577.14   95.39
   3   6   2 1452.05   96.29
   3   6   2 1688.73  100.89
   3   6   2 1647.84   95.29
   3   6   2 1522.25   96.59
  -4  -6  -2  586.94   35.60
  -4  -6  -2  553.44   34.40
  -4  -6  -2  556.14   34.20
  -4  -6  -2  577.84   35.90
  -4  -6  -2  555.44   34.70
   4   6   2  553.44   40.20
   4   6   2  547.85   38.30
   4   6   2  555.64   36.10
   4   6   2  568.94   37.50
   4   6   2  516.25   40.00
   4   6   2  475.45   38.30
  -5  -6  -2   21.30    4.80
  -5  -6  -2   26.00   12.70
  -5  -6  -2   12.40    9.50
  -5  -6  -2   12.10    4.00
  -5  -6  -2   10.80    5.60
  -5  -6  -2   12.50    3.60
   5   6   2   20.40   11.10
   5   6   2   21.80    9.50
   5   6   2   10.10    6.50
   5   6   2   17.20    8.40
  -6  -6  -2   13.60    4.10
  -6  -6  -2   16.50    3.80
  -6  -6  -2    9.10    3.70
  -6  -6  -2    8.80    4.90
  -6  -6  -2    4.00   10.70
   6   6   2   17.50    9.30
   6   6   2   12.90    7.50
   6   6   2    3.80    7.30
  -7  -6  -2    9.00    3.70
  -7  -6  -2   13.70    4.50
  -7  -6  -2   17.90    3.80
  -7  -6  -2   10.20    3.00
  -7  -6  -2   13.50    4.80
   7   6   2   12.20    6.90
   7   6   2   21.00    6.90
   7   6   2   21.80    8.50
  -8  -6  -2  198.48   13.20
  -8  -6  -2  228.08   14.10
  -8  -6  -2  174.08   13.20
  -8  -6  -2  194.38   13.80
   8   6   2  211.68   17.10
   4  -7  -2   10.20    5.70
   4  -7  -2    7.50    2.60
  -4   7   2    8.80    2.50
  -4   7   2    9.70    2.60
   3  -7  -2 1604.34  100.79
   3  -7  -2 1613.64  101.99
   3  -7  -2 1646.44  100.89
  -3   7   2 1755.82  101.59
  -3   7   2 1727.33  101.09
  -2   7   2  167.88   13.00
  -2   7   2  166.78   14.40
  -2   7   2  118.49   15.40
  -2   7   2  184.78   20.30
  -2   7   2  163.78   18.90
  -2   7   2  162.28   15.40
   1  -7  -2   89.19    8.50
   1  -7  -2   74.79   10.40
   1  -7  -2   83.59    9.20
  -1   7   2   87.29   10.30
  -1   7   2   61.59   11.00
  -1   7   2   82.89   15.60
  -1   7   2   74.69   15.90
  -1   7   2   74.19   10.00
  -1   7   2   62.49   10.40
   0  -7  -2  307.07   22.20
   0  -7  -2  326.57   22.60
   0  -7  -2  304.27   21.30
   0  -7  -2  288.87   24.10
   0  -7  -2  322.27   21.70
   0   7   2  328.37   25.90
   0   7   2  320.87   24.40
   0   7   2  299.17   21.80
   0   7   2  331.07   22.50
   0   7   2  300.97   29.10
   0   7   2  306.77   23.00
   0   7   2  338.97   28.80
  -1  -7  -2   31.50    7.70
  -1  -7  -2   33.60    6.70
  -1  -7  -2   37.40    8.10
  -1  -7  -2   39.50    7.90
   1   7   2   24.40   14.00
   1   7   2   35.00   10.20
   1   7   2   29.90    7.00
   1   7   2   19.70    6.30
   1   7   2   17.00    9.90
   1   7   2   34.20    8.60
  -2  -7  -2  523.45   34.40
  -2  -7  -2  535.15   33.50
  -2  -7  -2  523.95   34.30
  -2  -7  -2  504.95   34.70
  -2  -7  -2  544.55   36.40
  -2  -7  -2  563.54   34.60
  -2  -7  -2  568.04   36.80
   2   7   2  514.95   37.70
   2   7   2  502.95   36.70
   2   7   2  624.44   42.30
   2   7   2  555.04   35.30
   2   7   2  480.35   35.50
   2   7   2  543.85   38.50
  -3  -7  -2 1042.00   62.19
  -3  -7  -2 1070.49   62.39
  -3  -7  -2 1039.40   61.49
  -3  -7  -2 1031.00   64.79
  -3  -7  -2  921.91   62.49
  -3  -7  -2 1030.70   61.29
  -3  -7  -2  889.41   61.19
   3   7   2 1012.20   64.89
   3   7   2 1037.30   63.69
   3   7   2 1021.20   63.09
   3   7   2 1010.00   64.19
   3   7   2  954.80   63.99
  -4  -7  -2  301.67   24.70
  -4  -7  -2  308.27   22.00
  -4  -7  -2  342.37   23.10
  -4  -7  -2  350.76   22.10
  -4  -7  -2  327.97   21.90
  -4  -7  -2  335.27   23.00
   4   7   2  351.06   26.30
   4   7   2  329.67   28.10
   4   7   2  401.06   26.40
  -5  -7  -2  352.06   22.50
  -5  -7  -2  355.86   22.50
  -5  -7  -2  350.86   22.60
  -5  -7  -2  342.67   23.30
  -5  -7  -2  365.96   23.60
   5   7   2  364.46   25.50
   5   7   2  304.07   25.30
  -6  -7  -2  920.51   56.19
  -6  -7  -2  812.52   56.09
  -6  -7  -2  944.51   56.69
  -6  -7  -2  777.72   56.49
  -6  -7  -2  919.81   56.09
   6   7   2 1007.70   57.49
   6   7   2 1072.59   60.19
  -7  -7  -2   14.00    3.60
  -7  -7  -2   16.50    3.70
  -7  -7  -2   12.90    3.80
  -7  -7  -2   19.20    4.80
   7   7   2   26.90    7.60
   2  -8  -2   19.50    6.00
   2  -8  -2   17.80    3.10
   2  -8  -2   20.30    4.40
   2  -8  -2   11.90    2.80
  -2   8   2   18.70    4.10
  -2   8   2   16.40    4.60
   1  -8  -2  387.46   26.10
   1  -8  -2  416.56   25.90
   1  -8  -2  391.06   25.90
  -1   8   2  418.36   27.60
  -1   8   2  431.66   26.70
   0  -8  -2   36.80    6.10
   0  -8  -2   48.90    9.90
   0  -8  -2   35.30    6.40
   0  -8  -2   52.69    8.10
   0   8   2   51.99   11.30
   0   8   2   67.09   16.00
   0   8   2   38.20    8.70
   0   8   2   31.60    8.50
  -1  -8  -2  178.68   16.40
   1   8   2  208.88   26.50
   1   8   2  136.69   26.20
   1   8   2  178.08   16.40
   1   8   2  176.38   19.70
  -2  -8  -2  836.12   48.70
  -2  -8  -2  826.52   48.80
  -2  -8  -2  647.24   50.89
   2   8   2  887.61   50.89
   2   8   2  807.12   50.19
   2   8   2  686.33   52.09
  -3  -8  -2   24.50    9.20
  -3  -8  -2   19.20    6.00
  -3  -8  -2   14.60    4.30
  -3  -8  -2   26.10    5.80
   3   8   2   -3.90    8.10
  -4  -8  -2   21.30    4.60
  -4  -8  -2   25.90    4.60
  -4  -8  -2   15.20    6.00
  -4  -8  -2   18.80    5.30
  -4  -8  -2   24.20    6.10
   4   8   2   11.10    7.10
   4   8   2   16.40    7.90
   4   8   2   27.50   13.10
  -5  -8  -2  319.67   20.50
  -5  -8  -2  313.07   21.30
  -5  -8  -2  295.67   21.20
  -5  -8  -2  356.86   22.00
   5   8   2  315.37   22.30
   5   8   2  368.76   25.80
  -6  -8  -2  314.47   20.90
  -6  -8  -2  320.17   20.00
  -6  -8  -2  322.87   20.50
  -6  -8  -2  274.87   21.00
   6   8   2  287.57   27.10
   6   8   2  354.06   21.70
   6   8   2  365.56   22.80
   0  -9  -2  840.72   58.69
   0  -9  -2  991.50   58.29
   0  -9  -2  941.71   58.29
   0   9   2 1001.50   59.09
   0   9   2 1088.19   58.49
   0   9   2  898.41   59.19
  -1  -9  -2  214.28   15.20
  -1  -9  -2  217.08   15.80
   1   9   2  248.58   16.80
   1   9   2  245.18   16.70
   1   9   2  254.07   19.30
  -2  -9  -2   20.00    5.10
  -2  -9  -2   15.90    3.50
  -2  -9  -2   29.00    5.70
  -2  -9  -2   25.20    5.30
   2   9   2   28.60    5.40
   2   9   2   33.20    7.60
  -3  -9  -2   39.30    5.30
  -3  -9  -2   42.80    6.70
  -3  -9  -2   52.79    5.70
  -3  -9  -2   60.09   10.30
   3   9   2   35.10    6.10
   3   9   2   49.40    8.30
  -4  -9  -2    3.20    2.30
  -4  -9  -2    1.40    2.60
  -4  -9  -2    0.90    3.40
   4   9   2   15.90    7.20
   4   9   2    3.20    3.70
  -5  -9  -2  114.19    8.40
  -5  -9  -2   95.79    8.00
   5   9   2  133.79    9.40
   5   9   2  131.49   13.10
   5   7  -3  129.99   15.70
   5   7  -3  146.79   16.90
  -5  -7   3  144.29   11.30
  -5  -7   3  149.29   10.30
   4   7  -3  850.61   63.49
   4   7  -3 1118.79   64.09
  -4  -7   3 1125.49   61.69
  -4  -7   3  933.41   61.99
  -4  -7   3 1040.20   61.69
   3   7  -3   50.79   11.00
   3   7  -3   44.20    9.40
  -3  -7   3   54.29    9.30
  -3  -7   3   66.89    8.40
  -3  -7   3   55.09    5.80
  -3  -7   3   48.50    7.80
   2   7  -3  199.28   16.70
   2   7  -3  211.78   16.00
   2   7  -3  164.08   24.60
  -2  -7   3  210.78   15.20
  -2  -7   3  185.88   14.60
  -2  -7   3  215.58   15.50
  -2  -7   3  214.88   13.80
  -2  -7   3  207.38   14.40
   1   7  -3  137.39   14.30
   1   7  -3  131.59   15.50
   1   7  -3  152.98   13.90
  -1  -7   3  158.38   10.70
  -1  -7   3  153.48   11.80
  -1  -7   3  139.39   11.80
  -1  -7   3  167.98   12.10
   0   7  -3   91.99   11.10
   0   7  -3   88.89   12.60
   0   7  -3  101.89   10.60
   0  -7   3  108.29    9.00
   0  -7   3  113.89   12.10
   0  -7   3  105.29    9.00
  -1   7  -3   -0.20    3.60
  -1   7  -3   15.30    8.80
   1  -7   3    5.10    4.60
   1  -7   3    1.90    2.80
   1  -7   3   -3.20    6.50
   6   6  -3   23.20    6.90
   6   6  -3   24.90    8.30
  -6  -6   3   39.50    6.40
  -6  -6   3   29.50    6.50
  -6  -6   3   46.30    9.80
   5   6  -3   14.80    8.70
   5   6  -3    2.40    7.00
  -5  -6   3   19.30    7.40
  -5  -6   3   13.20    4.10
  -5  -6   3   10.80    4.00
  -5  -6   3    6.50    3.90
  -5  -6   3   12.70    6.30
   4   6  -3  159.98   21.80
   4   6  -3  101.99   20.20
   4   6  -3  135.09   14.10
  -4  -6   3  160.48   11.90
  -4  -6   3  134.09   11.00
  -4  -6   3  137.49   11.30
  -4  -6   3  146.09   14.00
  -4  -6   3  123.39   13.70
   3   6  -3  548.45   52.79
   3   6  -3  649.24   41.00
  -3  -6   3  541.45   40.60
  -3  -6   3  689.63   39.60
  -3  -6   3  698.23   39.40
   2   6  -3  147.99   14.70
   2   6  -3  113.09   24.00
  -2  -6   3  178.48   12.80
  -2  -6   3  176.38   12.60
  -2  -6   3  157.58   14.70
  -2  -6   3  186.28   12.90
  -2  -6   3  169.08   14.80
   1   6  -3  410.56   29.70
   1   6  -3  410.36   28.90
  -1  -6   3  447.96   27.10
  -1  -6   3  423.06   27.20
  -1  -6   3  388.96   27.80
  -1  -6   3  422.46   28.20
  -1  -6   3  440.76   27.20
   0   6  -3  617.64   41.10
   0  -6   3  597.94   37.30
   0  -6   3  493.65   37.90
   0  -6   3  561.94   38.50
   0  -6   3  683.93   40.00
  -1   6  -3  385.66   25.90
  -1   6  -3  362.86   25.90
   1  -6   3  356.76   24.20
   1  -6   3  335.17   26.20
   1  -6   3  320.17   26.80
   1  -6   3  370.76   24.10
   1  -6   3  392.26   24.30
  -2   6  -3  642.14   42.00
  -2   6  -3  647.74   42.70
   2  -6   3  692.83   40.60
   2  -6   3  631.04   40.60
   2  -6   3  622.24   41.50
   2  -6   3  670.03   40.70
  -3   6  -3    1.20    4.60
   3  -6   3   -2.20    4.40
   3  -6   3   -6.00    4.10
   3  -6   3    2.10    2.70
   7   5  -3    3.20    9.30
   7   5  -3    4.60    5.00
  -7  -5   3   -2.30    5.30
  -7  -5   3    8.30    5.50
   6   5  -3  606.94   40.50
   6   5  -3  541.15   37.30
   6   5  -3  539.95   37.70
  -6  -5   3  573.54   35.00
  -6  -5   3  579.24   35.50
  -6  -5   3  524.05   35.80
   5   5  -3  641.04   46.40
   5   5  -3  667.43   45.80
  -5  -5   3  690.53   42.60
  -5  -5   3  710.73   42.10
   4   5  -3  410.36   32.30
   4   5  -3  414.16   28.40
   4   5  -3  427.96   36.70
   4   5  -3  358.76   34.30
  -4  -5   3  398.56   27.30
  -4  -5   3  425.36   27.00
  -4  -5   3  402.16   29.00
  -4  -5   3  350.36   28.60
  -4  -5   3  404.96   25.60
   3   5  -3  133.09   16.80
   3   5  -3  137.59   13.90
   3   5  -3  116.49   21.40
   3   5  -3   98.19   26.50
  -3  -5   3  145.49   10.10
  -3  -5   3  132.49   13.50
  -3  -5   3  121.39   11.00
  -3  -5   3  115.59   12.90
  -3  -5   3  118.49   15.00
   2   5  -3  247.28   27.10
   2   5  -3  238.28   37.70
   2   5  -3  265.27   21.80
   2   5  -3  252.87   21.90
   2   5  -3  262.87   19.70
  -2  -5   3  254.77   17.60
  -2  -5   3  264.87   17.10
  -2  -5   3  278.07   19.20
  -2  -5   3  215.78   20.60
  -2  -5   3  259.17   18.80
  -2  -5   3  256.47   20.20
   1   5  -3   25.10    7.60
   1   5  -3   33.80   10.70
   1   5  -3   45.10   10.50
  -1  -5   3   36.20    6.30
  -1  -5   3   35.60    8.50
  -1  -5   3   39.30    9.00
  -1  -5   3   39.20    7.00
  -1  -5   3   53.19   11.00
  -1  -5   3   33.40    8.50
   0   5  -3   79.49   12.10
   0   5  -3   73.69   14.00
   0  -5   3   77.99    9.60
   0  -5   3   68.99    8.70
   0  -5   3   64.09   11.90
   0  -5   3   82.19    9.10
   0  -5   3   75.39   12.00
   0  -5   3   62.19   11.20
  -1   5  -3  151.18   15.90
  -1   5  -3  169.18   17.00
  -1   5  -3  165.98   16.10
   1  -5   3  152.18   14.70
   1  -5   3  176.08   18.80
   1  -5   3  180.28   13.60
   1  -5   3  161.18   15.10
   1  -5   3  159.68   15.30
   1  -5   3  170.48   15.00
  -2   5  -3   83.69   19.30
  -2   5  -3  114.59   12.60
  -2   5  -3  107.19   14.20
   2  -5   3  119.39   14.30
   2  -5   3   96.99   11.10
   2  -5   3  119.59   12.40
   2  -5   3  113.99   11.60
  -3   5  -3  161.38   15.40
  -3   5  -3  119.99   22.10
  -3   5  -3  177.48   14.10
   3  -5   3  131.89   14.50
   3  -5   3  168.88   13.10
   3  -5   3  168.78   14.60
   3  -5   3  184.38   13.20
  -4   5  -3  274.37   17.90
  -4   5  -3  244.78   19.80
   4  -5   3  248.08   17.80
   4  -5   3  278.67   17.70
   7   4  -3  227.88   18.00
   7   4  -3  201.18   20.40
  -7  -4   3  253.67   17.30
  -7  -4   3  217.08   16.20
   6   4  -3  159.88   18.00
  -6  -4   3  144.49   14.20
  -6  -4   3  168.18   12.40
   5   4  -3   17.50   12.20
   5   4  -3   22.60   12.20
   5   4  -3    9.70    9.80
  -5  -4   3   27.30    9.70
  -5  -4   3   15.50    4.10
   4   4  -3  167.18   21.50
   4   4  -3  129.69   20.00
   4   4  -3  140.19   16.30
   4   4  -3  190.58   25.80
  -4  -4   3  141.79   13.00
  -4  -4   3  159.38   11.40
  -4  -4   3  178.68   16.50
   3   4  -3  405.56   27.00
   3   4  -3  421.86   28.20
   3   4  -3  382.56   37.40
   3   4  -3  393.06   33.60
   3   4  -3  351.66   31.50
  -3  -4   3  428.96   26.70
  -3  -4   3  382.56   25.90
  -3  -4   3  415.26   25.30
   2   4  -3  610.94   52.19
   2   4  -3  706.23   44.80
   2   4  -3  711.03   45.40
   2   4  -3  682.13   48.00
   2   4  -3  709.23   44.40
  -2  -4   3  733.23   42.90
  -2  -4   3  700.63   44.80
  -2  -4   3  751.02   44.00
  -2  -4   3  688.63   43.40
  -2  -4   3  661.33   44.70
   1   4  -3 1713.33  102.69
   1   4  -3 1660.93  102.39
   1   4  -3 1547.95  104.89
   1   4  -3 1685.03  102.79
  -1  -4   3 1584.34  101.99
  -1  -4   3 1726.03  101.29
  -1  -4   3 1808.22  102.29
  -1  -4   3 1630.64  102.79
  -1  -4   3 1695.83  101.59
  -1  -4   3 1686.13  102.39
   0   4  -3   73.19   12.50
   0   4  -3  100.29   13.60
   0   4  -3  100.89   15.90
   0   4  -3  100.49   12.00
   0   4  -3   89.49   13.90
   0  -4   3  103.69    9.70
   0  -4   3  100.19    8.60
   0  -4   3   99.09   10.80
   0  -4   3  112.99    9.90
   0  -4   3   97.09   12.10
   0  -4   3  116.19   12.40
   0  -4   3  114.19   12.90
  -1   4  -3 1599.84  107.19
   1  -4   3 1774.12  106.09
   1  -4   3 1905.91  105.39
   1  -4   3 1710.33  106.29
   1  -4   3 1704.73  106.69
   1  -4   3 1800.22  104.99
   1  -4   3 1740.23  105.49
   1  -4   3 1668.33  106.49
   1  -4   3 1698.03  105.69
  -2   4  -3   21.30   12.10
  -2   4  -3   16.50    8.00
  -2   4  -3   23.20    7.30
  -2   4  -3   32.10    7.00
  -2   4  -3   45.30   12.50
   2  -4   3   49.40   10.00
   2  -4   3   40.20   10.20
   2  -4   3   30.80    7.60
   2  -4   3   46.00   10.10
   2  -4   3   28.20    7.40
  -3   4  -3   25.40    6.00
  -3   4  -3   44.80   11.90
  -3   4  -3   40.40   13.30
  -3   4  -3   11.70   13.20
  -3   4  -3   32.60    7.10
   3  -4   3   34.50    9.40
   3  -4   3   41.30    9.20
   3  -4   3   35.50    8.70
   3  -4   3   30.10    7.40
   3  -4   3   42.70    9.40
  -4   4  -3    5.40    8.30
  -4   4  -3   12.20    6.80
  -4   4  -3    6.30    9.60
  -4   4  -3   17.20   19.10
  -4   4  -3    6.10    5.80
   4  -4   3    7.30    7.00
   4  -4   3   11.90    5.60
   4  -4   3    0.20    4.90
  -5   4  -3  244.88   17.20
  -5   4  -3  252.37   15.30
   5  -4   3  201.08   15.10
   5  -4   3  184.98   15.20
   5  -4   3  200.98   15.20
   8   3  -3   12.50    7.20
   8   3  -3   21.00    7.30
   7   3  -3  293.27   24.90
   7   3  -3  279.17   21.40
   7   3  -3  310.87   22.80
  -7  -3   3  261.87   19.80
   6   3  -3 1475.35   86.29
   6   3  -3 1381.36   84.99
   6   3  -3 1509.95   86.49
   6   3  -3 1442.46   88.09
  -6  -3   3 1175.18   88.79
  -6  -3   3 1237.28   82.99
   5   3  -3  634.14   42.30
   5   3  -3  591.84   44.10
   5   3  -3  661.33   43.60
  -5  -3   3  559.34   37.60
   4   3  -3 1576.84   93.69
   4   3  -3 1477.35   93.49
   4   3  -3 1646.74   95.59
  -4  -3   3 1314.77   90.29
  -4  -3   3 1475.05   91.49
   3   3  -3   14.30    9.70
   3   3  -3    9.80    6.10
   3   3  -3   11.70   17.00
   3   3  -3   14.60   10.40
  -3  -3   3   18.20    5.40
  -3  -3   3   11.20    3.40
   2   3  -3  279.67   27.00
   2   3  -3  273.67   18.30
  -2  -3   3  247.98   18.50
  -2  -3   3  283.47   17.70
  -2  -3   3  306.97   18.60
  -2  -3   3  274.57   19.10
   1   3  -3 2205.38  141.19
  -1  -3   3 2404.76  141.49
  -1  -3   3 2280.87  141.39
  -1  -3   3 2510.45  141.79
  -1  -3   3 2339.07  141.89
  -1  -3   3 2326.37  141.09
   0   3  -3 3210.28  186.68
   0   3  -3 2851.81  185.48
   0   3  -3 3123.79  186.48
   0   3  -3 2962.70  187.08
   0  -3   3 3118.49  185.88
   0  -3   3 3085.29  185.98
   0  -3   3 3153.38  185.68
   0  -3   3 3162.38  185.38
  -1   3  -3   18.00    6.90
  -1   3  -3   39.50   10.80
  -1   3  -3   41.40    9.80
  -1   3  -3   27.90    6.50
   1  -3   3   32.30    5.90
   1  -3   3   26.10   10.30
   1  -3   3   31.00    5.80
   1  -3   3   32.30    6.50
   1  -3   3   27.90    7.20
   1  -3   3   39.20    6.90
   1  -3   3   21.20    5.50
   1  -3   3   25.10    6.50
   1  -3   3   24.80    8.40
  -2   3  -3  302.87   26.10
  -2   3  -3  326.67   26.60
  -2   3  -3  322.47   24.20
  -2   3  -3  308.77   25.00
  -2   3  -3  325.87   22.50
  -2   3  -3  323.07   21.70
   2  -3   3  349.17   23.10
   2  -3   3  324.17   23.90
   2  -3   3  330.17   23.40
   2  -3   3  324.17   24.70
   2  -3   3  356.76   23.00
   2  -3   3  343.57   23.30
   2  -3   3  355.06   23.10
   2  -3   3  302.37   23.60
  -3   3  -3 1691.73   99.09
  -3   3  -3 1670.33   98.89
  -3   3  -3 1554.64  104.19
  -3   3  -3 1571.34  100.39
  -3   3  -3 1426.66  101.89
  -3   3  -3 1676.33  101.89
  -3   3  -3 1680.33   99.79
   3  -3   3 1649.23   99.99
   3  -3   3 1726.83  101.09
   3  -3   3 1536.05  100.69
   3  -3   3 1724.13  100.59
   3  -3   3 1613.14  101.79
   3  -3   3 1715.93  100.19
  -4   3  -3  267.07   17.50
  -4   3  -3  222.78   20.60
  -4   3  -3  275.37   18.70
  -4   3  -3  239.38   33.10
  -4   3  -3  232.88   32.70
  -4   3  -3  258.47   17.40
   4  -3   3  262.17   22.90
   4  -3   3  242.98   18.80
   4  -3   3  249.48   23.20
   4  -3   3  229.98   19.90
   4  -3   3  244.18   19.20
  -5   3  -3   22.80   11.20
  -5   3  -3   19.20    4.30
  -5   3  -3   21.70    5.00
   5  -3   3   10.40    5.30
   5  -3   3   14.60    9.30
   5  -3   3   11.80    6.70
   5  -3   3   12.40    5.80
  -6   3  -3  269.27   16.20
  -6   3  -3  250.27   16.60
   6  -3   3  199.88   16.00
   6  -3   3  210.28   15.80
   8   2  -3  112.49   13.40
   8   2  -3   80.89   10.70
   7   2  -3   84.09   18.20
   7   2  -3  115.69   14.20
   6   2  -3   58.29   13.10
   6   2  -3   71.79   18.00
   6   2  -3   83.49   18.80
  -6  -2   3   79.89   22.60
  -6  -2   3   67.79    8.30
   5   2  -3  608.44   40.80
   5   2  -3  613.54   44.20
   4   2  -3 1604.34  101.29
   4   2  -3 1668.03  103.09
   4   2  -3 1728.63  102.29
  -4  -2   3 1590.94   99.39
  -4  -2   3 1592.74   98.89
   3   2  -3 1095.49   65.89
   3   2  -3 1093.29   65.79
  -3  -2   3 1154.48   66.39
  -3  -2   3  964.70   65.89
  -3  -2   3 1122.79   66.49
   2   2  -3  450.05   27.30
   2   2  -3  437.46   27.10
  -2  -2   3  418.36   27.20
  -2  -2   3  469.95   27.90
   1   2  -3 1024.20   60.69
   1   2  -3  924.51   62.19
  -1  -2   3 1015.30   60.69
  -1  -2   3 1123.29   61.29
  -1  -2   3 1056.79   61.09
  -1  -2   3  881.11   80.79
   0   2  -3  459.35   27.60
   0   2  -3  436.26   29.30
   0   2  -3  427.76   29.70
   0  -2   3  429.86   76.29
   0  -2   3  464.75   28.00
   0  -2   3  464.35   27.60
   0  -2   3  441.26   28.10
   0  -2   3  461.85   28.10
  -1   2  -3 1950.30  118.89
  -1   2  -3 1873.11  119.99
  -1   2  -3 1912.01  120.69
   1  -2   3 1936.41  118.89
   1  -2   3 2040.50  119.29
   1  -2   3 1981.30  118.59
   1  -2   3 2093.79  118.99
  -2   2  -3   48.50   11.20
  -2   2  -3   42.10    7.80
  -2   2  -3   43.20    8.00
  -2   2  -3   47.70    6.00
  -2   2  -3   36.60    9.70
  -2   2  -3   49.40   48.40
  -2   2  -3   43.20    6.10
  -2   2  -3   49.90    7.00
   2  -2   3   46.20   10.50
   2  -2   3   44.30   10.60
   2  -2   3   42.50    7.00
   2  -2   3   55.79   10.30
   2  -2   3   33.00    8.40
   2  -2   3   43.70   11.20
  -3   2  -3   15.30    3.90
  -3   2  -3    5.60    6.60
  -3   2  -3   24.10   14.50
  -3   2  -3   12.50    6.00
  -3   2  -3   20.00    9.10
  -3   2  -3   22.30    5.20
  -3   2  -3   16.60    4.10
  -3   2  -3   26.00    7.40
   3  -2   3   23.70   12.00
   3  -2   3    5.40    8.70
   3  -2   3   16.50    6.70
   3  -2   3    1.40    7.90
   3  -2   3   13.20    7.20
   3  -2   3   24.90    7.90
   3  -2   3   16.60    7.00
  -4   2  -3  652.13   43.50
  -4   2  -3  529.25   42.70
  -4   2  -3  596.94   37.00
  -4   2  -3  613.14   47.30
  -4   2  -3  609.34   37.30
  -4   2  -3  620.64   37.00
  -4   2  -3  630.04   38.10
  -4   2  -3  583.34   40.50
   4  -2   3  573.24   39.30
   4  -2   3  593.44   40.30
   4  -2   3  531.95   41.70
   4  -2   3  537.15   39.20
   4  -2   3  640.64   38.40
   4  -2   3  622.74   38.30
  -5   2  -3  610.54   37.80
  -5   2  -3  547.85   41.40
  -5   2  -3  724.83   63.09
  -5   2  -3  628.54   37.20
  -5   2  -3  631.64   36.90
  -5   2  -3  569.74   37.20
   5  -2   3  569.44   38.00
   5  -2   3  524.45   39.20
   5  -2   3  620.44   38.40
   5  -2   3  557.74   40.20
  -6   2  -3  131.29   10.90
  -6   2  -3  131.19    9.60
  -6   2  -3  143.29   11.10
  -6   2  -3  103.99   11.00
   6  -2   3  107.39   11.00
   6  -2   3  131.59   11.90
   6  -2   3   99.09   12.00
   6  -2   3  109.39   14.60
  -7   2  -3  248.78   15.00
   7  -2   3  194.58   15.20
   8   1  -3    0.70    6.40
   8   1  -3   25.20    7.50
   7   1  -3   60.99   18.10
   6   1  -3   -0.10    6.40
   6   1  -3   -2.70   10.90
   6   1  -3   19.80   13.90
  -6  -1   3   16.20   11.50
   5   1  -3 1060.09   64.69
   5   1  -3 1068.99   67.29
   5   1  -3 1055.39   66.29
  -5  -1   3  920.41   64.79
   4   1  -3 3153.38  194.38
   4   1  -3 3243.08  195.48
  -4  -1   3 2979.10  190.98
  -4  -1   3 3310.47  218.88
  -3  -1   3  363.66   37.50
  -3  -1   3  269.27   21.50
   2   1  -3 1888.71  112.39
  -2  -1   3 1874.31  112.69
  -2  -1   3 1926.91  112.79
  -2  -1   3 1793.32  114.49
   1   1  -3 3662.93  212.08
   1   1  -3 3707.83  212.68
   1   1  -3 3271.57  213.08
  -1  -1   3 3792.42  212.58
  -1  -1   3 3616.34  212.48
  -1  -1   3 3561.94  212.08
  -1  -1   3 3157.98  222.38
   0   1  -3    9.50    3.70
   0   1  -3   12.50    2.80
   0   1  -3    6.90    1.60
   0   1  -3   11.50    4.10
   0  -1   3    8.10    1.80
   0  -1   3    9.10    2.70
   0  -1   3    6.40    1.70
   0  -1   3    9.10    9.80
  -1   1  -3   82.19    7.60
  -1   1  -3   75.49    8.50
  -1   1  -3   83.19    6.30
   1  -1   3   79.79    6.00
   1  -1   3   87.79   17.50
   1  -1   3   91.29    6.30
   1  -1   3   87.49    6.70
  -2   1  -3 2466.55  154.68
  -2   1  -3 2537.85  153.58
  -2   1  -3 2610.84  153.18
  -2   1  -3 2426.56  155.38
  -2   1  -3 2566.04  153.28
   2  -1   3 2471.65  153.78
   2  -1   3 2671.23  153.48
   2  -1   3 2620.84  154.18
   2  -1   3 2596.24  153.48
  -3   1  -3  259.87   15.50
  -3   1  -3  229.78   17.30
  -3   1  -3  228.68   16.40
  -3   1  -3  249.58   15.50
  -3   1  -3  206.98   54.29
  -3   1  -3  240.98   19.40
  -3   1  -3  257.87   18.40
   3  -1   3  187.78   25.00
   3  -1   3  234.68   20.80
   3  -1   3  232.98   20.40
   3  -1   3  272.17   16.90
   3  -1   3  257.37   18.40
   3  -1   3  204.98   18.90
   3  -1   3  281.37   20.30
  -4   1  -3  820.82   51.99
  -4   1  -3  819.82   49.00
  -4   1  -3  778.82   53.39
  -4   1  -3  820.92   49.90
  -4   1  -3  799.52   49.40
  -4   1  -3  772.72   48.90
   4  -1   3  783.32   50.69
   4  -1   3  774.52   52.19
   4  -1   3  848.32   50.49
   4  -1   3  867.21   50.39
   4  -1   3  703.73   53.09
   4  -1   3  815.82   51.19
   4  -1   3  821.82   50.29
  -5   1  -3  315.17   21.00
  -5   1  -3  334.37   21.60
  -5   1  -3  290.97   31.20
  -5   1  -3  349.17   21.00
  -5   1  -3  340.27   22.60
  -5   1  -3  294.07   26.20
   5  -1   3  303.77   27.30
   5  -1   3  364.56   23.60
   5  -1   3  321.97   24.50
   5  -1   3  311.27   24.90
   5  -1   3  342.37   23.00
  -6   1  -3   93.39    8.80
  -6   1  -3   71.79    7.50
  -6   1  -3   71.79    8.90
  -6   1  -3   81.49    7.40
   6  -1   3   67.19   12.40
   6  -1   3   86.49   11.40
   6  -1   3   65.29    9.20
  -7   1  -3   28.20    6.50
  -7   1  -3   30.40    6.30
  -7   1  -3   27.60    5.30
  -7   1  -3   27.30    4.90
   7  -1   3   40.60    7.60
   8   0  -3  376.26   24.30
   8   0  -3  332.97   25.80
   7   0  -3  173.78   15.70
  -7   0   3  159.68   13.30
   6   0  -3    6.90    6.30
   6   0  -3  -10.30    6.70
   6   0  -3   12.00   12.00
  -6   0   3    1.80    4.90
   5   0  -3   86.39   18.40
   5   0  -3   30.50   22.60
   5   0  -3   66.49   14.10
  -5   0   3   89.79   21.40
  -5   0   3   70.09   12.10
   4   0  -3   20.30   17.90
  -4   0   3   -1.80    5.00
  -4   0   3    1.80   30.00
  -3   0   3 2312.97  143.89
  -3   0   3 1939.81  127.89
   2   0  -3  192.78   11.80
  -2   0   3  195.38   12.30
  -2   0   3  209.08   12.40
  -2   0   3  177.88   13.00
  -2   0   3  185.98   12.30
  -2   0   3  177.48   15.30
  -2   0   3  193.88   22.80
   1   0  -3 6864.21  388.76
  -1   0   3 6774.52  388.76
  -1   0   3 5814.52  388.66
   0   0  -3 5999.90  380.36
   0   0  -3 6380.46  379.86
   0   0  -3 6150.58  380.16
   0   0   3 6130.59  379.96
   0   0   3 7149.38  386.76
   0   0   3 6214.78  379.86
  -1   0  -3  106.79    8.90
  -1   0  -3  101.39   14.70
  -1   0  -3  101.89    8.80
  -1   0  -3  119.39    8.00
   1   0   3  119.39    8.10
   1   0   3  131.39   13.80
  -2   0  -3 4136.99  254.57
  -2   0  -3 3995.50  255.57
  -2   0  -3 4008.00  255.17
  -2   0  -3 4428.56  253.97
  -2   0  -3 4267.77  271.57
   2   0   3 4235.88  254.67
   2   0   3 4591.84  259.67
  -3   0  -3 1017.10   59.59
  -3   0  -3  933.41   61.29
  -3   0  -3  988.00   59.69
  -3   0  -3  980.60   62.19
  -3   0  -3 1025.20   86.89
   3   0   3  925.91   59.69
   3   0   3 1035.00   60.59
  -4   0  -3  660.03   42.60
  -4   0  -3  673.53   46.10
  -4   0  -3  724.83   45.90
  -4   0  -3  729.33   42.20
  -4   0  -3  681.33   43.10
  -4   0  -3  699.13   42.20
   4   0   3  713.43   43.90
   4   0   3  764.82   43.90
   4   0   3  728.93   43.70
   4   0   3  683.33   44.50
   4   0   3  596.74   45.60
   4   0   3  700.63   43.60
   4   0   3  610.34   47.20
  -5   0  -3  291.67   23.50
  -5   0  -3  305.27   18.60
  -5   0  -3  314.47   20.00
  -5   0  -3  284.87   20.10
  -5   0  -3  239.28   27.30
  -5   0  -3  295.77   19.30
   5   0   3  310.07   21.00
   5   0   3  306.17   22.10
   5   0   3  258.17   21.20
   5   0   3  261.67   22.00
   5   0   3  274.87   25.50
   5   0   3  300.17   20.30
  -6   0  -3   -4.30   20.10
  -6   0  -3   12.90    5.10
  -6   0  -3   14.30    3.70
  -6   0  -3   26.10    6.20
  -6   0  -3   23.50    4.90
  -6   0  -3   13.30    3.90
   6   0   3   11.50    7.20
   6   0   3   20.10    8.00
   6   0   3   25.00   10.30
   6   0   3   11.90    6.90
  -7   0  -3  101.69    8.10
  -7   0  -3   97.89    9.20
  -7   0  -3   96.49    7.80
  -7   0  -3   86.09    9.20
   7   0   3   91.59   11.10
   7   0   3   88.99   12.40
   7   0   3   83.39   13.60
   8  -1  -3  111.69   14.50
   8  -1  -3  131.49   11.10
   7  -1  -3   -1.50    6.10
   7  -1  -3    5.10    5.30
   7  -1  -3   -1.50    8.50
   6  -1  -3  880.21   52.19
   6  -1  -3  831.02   50.69
   6  -1  -3  742.53   53.89
  -6   1   3  729.43   48.70
   5  -1  -3   17.30   10.30
  -5   1   3   17.40    4.90
   4  -1  -3 1138.29   68.79
   4  -1  -3 1087.69   71.09
   4  -1  -3 1090.69   67.89
  -4   1   3 1056.99   95.69
  -3   1   3 1286.77   81.99
  -3   1   3 1259.57   81.49
  -3   1   3 1510.65   99.59
   2  -1  -3 4725.33  285.07
  -2   1   3 4670.63  275.27
  -2   1   3 4437.76  275.67
  -2   1   3 4280.27  275.67
  -2   1   3 4859.51  285.47
   1  -1  -3  148.09   15.90
   1  -1  -3  143.29    9.10
  -1   1   3  125.79   11.60
  -1   1   3  128.49    9.00
  -1   1   3  127.39    8.60
  -1   1   3  132.69   15.50
  -1   1   3  132.19    8.70
  -1   1   3  146.69   11.70
   0  -1  -3 1976.70  118.19
   0  -1  -3 2064.59  118.89
   0  -1  -3 1933.21  118.79
   0  -1  -3 2013.30  124.49
   0  -1  -3 1915.71  118.79
   0   1   3 2117.89  124.59
   0   1   3 1796.22  118.39
  -1  -1  -3  529.55   34.20
  -1  -1  -3  540.65   34.40
  -1  -1  -3  550.14   34.20
   1   1   3  559.74   34.10
   1   1   3  564.74   33.70
   1   1   3  615.34   38.70
   1   1   3  525.45   33.60
  -2  -1  -3 5003.70  303.37
  -2  -1  -3 5287.17  302.07
  -2  -1  -3 4925.31  303.07
  -2  -1  -3 5637.24  316.87
   2   1   3 4899.71  302.27
   2   1   3 5027.50  302.07
   2   1   3 4789.82  302.67
   2   1   3 4775.12  305.67
  -3  -1  -3  525.25   50.59
  -3  -1  -3  430.46   30.00
  -3  -1  -3  445.56   27.80
  -3  -1  -3  464.45   29.60
   3   1   3  445.16   27.80
   3   1   3  441.56   28.80
   3   1   3  452.05   28.50
   3   1   3  418.56   29.00
  -4  -1  -3 3156.78  223.38
  -4  -1  -3 3024.90  188.08
  -4  -1  -3 3066.69  185.48
  -4  -1  -3 3183.28  185.28
  -4  -1  -3 3091.49  185.88
  -4  -1  -3 3168.48  187.48
  -4  -1  -3 3182.68  185.18
   4   1   3 3296.37  186.08
   4   1   3 3049.09  186.18
   4   1   3 2879.21  188.98
   4   1   3 2868.31  187.78
   4   1   3 3046.20  186.78
  -5  -1  -3    6.90    2.90
  -5  -1  -3   15.20    7.80
  -5  -1  -3   -1.20    4.60
  -5  -1  -3    7.00    4.10
  -5  -1  -3    0.90    2.40
  -5  -1  -3    8.00   11.60
   5   1   3    0.90    8.40
   5   1   3    9.50    6.30
   5   1   3   -1.60    6.70
   5   1   3   -3.60    8.20
   5   1   3    5.70    9.60
   5   1   3    4.40    6.90
  -6  -1  -3    8.30    3.50
  -6  -1  -3    4.10    6.20
  -6  -1  -3   -1.70   16.80
  -6  -1  -3    3.40    3.00
  -6  -1  -3    8.10    3.10
  -6  -1  -3    3.00   10.50
  -6  -1  -3    9.10    5.20
   6   1   3    3.80    7.90
   6   1   3   10.00    7.00
   6   1   3    1.90    7.50
   6   1   3   14.10   10.20
  -7  -1  -3  440.76   35.00
  -7  -1  -3  424.76   28.00
  -7  -1  -3  445.66   27.80
  -7  -1  -3  451.05   26.80
   7   1   3  391.66   29.30
   7   1   3  413.16   35.30
   7   1   3  369.56   31.80
   7   1   3  495.55   32.20
  -8  -1  -3   47.60    6.30
  -8  -1  -3   49.90    6.20
  -8  -1  -3   42.80    5.60
  -8  -1  -3   42.70    4.90
   8   1   3   43.40   11.90
   8   1   3   45.60    7.70
   7  -2  -3  119.69   15.30
   7  -2  -3   98.59   11.30
   7  -2  -3  117.39   10.50
  -7   2   3   84.29    9.90
  -7   2   3  107.99    9.90
   6  -2  -3  895.01   53.89
   6  -2  -3  800.72   55.79
   6  -2  -3  860.81   52.49
   6  -2  -3  879.71   52.19
  -6   2   3  790.52   51.49
  -6   2   3  758.62   50.99
   5  -2  -3   93.29   20.90
   5  -2  -3  131.69   13.00
   5  -2  -3  123.89   15.40
   5  -2  -3  104.19   14.30
  -5   2   3  121.39   10.30
   4  -2  -3   12.00    6.00
   4  -2  -3    3.90   11.30
   4  -2  -3   13.30    6.70
   4  -2  -3   21.40   11.80
   4  -2  -3    6.20    4.80
  -4   2   3    4.10    4.40
   3  -2  -3  314.57   36.20
  -3   2   3  365.76   20.40
  -3   2   3  272.97   20.20
  -3   2   3  320.87   40.40
  -2   2   3 1404.66   79.39
  -2   2   3 1381.16   79.69
  -2   2   3 1314.77   92.49
  -2   2   3 1125.69   79.29
  -2   2   3 1368.66   79.79
   1  -2  -3 1546.35   92.99
   1  -2  -3 1337.07   91.39
   1  -2  -3 1436.86   82.19
  -1   2   3 1316.67   82.09
  -1   2   3 1434.36   82.29
  -1   2   3 1422.56   81.59
  -1   2   3 1249.88   82.09
  -1   2   3 1153.48   88.99
   0  -2  -3 1846.72  106.29
   0  -2  -3 1769.72  111.69
   0  -2  -3 1956.80  106.49
   0  -2  -3 1881.71  114.79
   0   2   3 1573.54  105.79
   0   2   3 1624.34  105.99
   0   2   3 1689.43  106.09
  -1  -2  -3 5767.42  322.77
  -1  -2  -3 5403.16  329.07
  -1  -2  -3 5856.81  322.57
  -1  -2  -3 5635.64  322.47
   1   2   3 5039.50  322.27
   1   2   3 4637.04  327.77
   1   2   3 5540.65  322.57
   1   2   3 5143.49  322.27
  -2  -2  -3  109.49   10.30
  -2  -2  -3  106.89    8.40
  -2  -2  -3  107.19    6.50
  -2  -2  -3   92.49    6.90
  -2  -2  -3  101.19    7.70
   2   2   3  106.39    7.70
   2   2   3   97.79    7.10
   2   2   3  106.79    8.20
   2   2   3   94.09    7.50
   2   2   3  106.59    6.90
   2   2   3  104.49    7.20
  -3  -2  -3  331.37   20.00
  -3  -2  -3  281.77   18.10
  -3  -2  -3  322.47   20.40
  -3  -2  -3  299.27   18.00
  -3  -2  -3  276.77   18.10
   3   2   3  285.47   18.40
   3   2   3  278.37   18.80
   3   2   3  285.47   18.30
   3   2   3  259.47   19.60
  -4  -2  -3   77.49    6.10
  -4  -2  -3   90.19   41.40
  -4  -2  -3   95.59   11.60
  -4  -2  -3   78.19    6.20
  -4  -2  -3  102.09   10.50
   4   2   3   63.39    8.20
  -5  -2  -3  907.81   61.99
  -5  -2  -3 1077.69   64.29
  -5  -2  -3 1004.30   61.39
  -5  -2  -3 1091.59   66.09
  -5  -2  -3  984.70   60.89
  -5  -2  -3 1010.60   61.89
  -5  -2  -3  982.10   60.99
   5   2   3 1003.30   63.49
   5   2   3 1015.30   62.39
   5   2   3  949.80   64.69
   5   2   3 1032.80   63.39
  -6  -2  -3  285.97   24.70
  -6  -2  -3  280.57   17.80
  -6  -2  -3  258.07   19.50
  -6  -2  -3  273.57   28.30
  -6  -2  -3  290.77   18.50
  -6  -2  -3  266.87   19.80
  -6  -2  -3  278.57   17.70
   6   2   3  268.77   24.10
   6   2   3  274.77   21.60
   6   2   3  262.87   21.60
   6   2   3  276.47   21.20
  -7  -2  -3  371.96   23.60
  -7  -2  -3  323.57   26.20
  -7  -2  -3  351.66   24.90
  -7  -2  -3  413.56   24.00
  -7  -2  -3  398.96   32.10
   7   2   3  383.56   27.80
   7   2   3  386.66   26.30
   7   2   3  372.76   28.30
  -8  -2  -3  222.28   14.80
  -8  -2  -3  227.48   14.00
   8   2   3  192.98   16.70
   8   2   3  206.68   16.40
   7  -3  -3   75.49   11.30
   7  -3  -3   81.79    7.80
  -7   3   3   76.79    9.50
   6  -3  -3   56.69   15.50
   6  -3  -3   47.50   11.70
  -6   3   3   80.29   19.60
  -6   3   3   76.69    8.90
  -6   3   3   79.79   12.00
   5  -3  -3 1109.89   69.19
   5  -3  -3 1128.19   70.49
   5  -3  -3 1121.69   72.39
   5  -3  -3 1204.08   69.39
   5  -3  -3 1241.88   69.09
  -5   3   3 1024.70   67.79
  -5   3   3 1007.30   69.09
  -5   3   3 1038.10   68.09
   4  -3  -3  314.47   20.80
   4  -3  -3  236.28   26.40
   4  -3  -3  268.07   21.80
   4  -3  -3  284.77   21.70
   4  -3  -3  263.27   23.80
  -4   3   3  266.07   20.50
  -4   3   3  278.47   18.90
  -4   3   3  320.97   19.80
   3  -3  -3    5.20   24.20
   3  -3  -3   12.70    5.40
   3  -3  -3   28.10    8.60
   3  -3  -3   14.10    5.80
  -3   3   3   13.40    3.50
  -3   3   3    5.50    7.30
  -3   3   3    3.00   32.90
  -3   3   3   14.00    4.10
   2  -3  -3 1467.65   94.89
  -2   3   3 1386.86   80.79
  -2   3   3 1215.68   98.89
  -2   3   3 1256.57   80.49
   1  -3  -3 3001.00  161.58
   1  -3  -3 2941.41  173.18
   1  -3  -3 2764.52  161.28
   1  -3  -3 2590.54  178.08
  -1   3   3 2895.71  160.78
  -1   3   3 2623.14  161.28
  -1   3   3 2700.33  161.88
  -1   3   3 2448.16  161.38
  -1   3   3 2617.14  161.48
  -1   3   3 2263.67  173.98
   0  -3  -3 4801.92  314.97
   0  -3  -3 5002.30  302.77
   0  -3  -3 5453.95  303.07
   0  -3  -3 5312.47  312.77
   0   3   3 4757.02  302.77
   0   3   3 5310.17  305.37
   0   3   3 4729.63  302.77
   0   3   3 5020.60  303.27
  -1  -3  -3 3659.43  210.28
  -1  -3  -3 3834.72  210.58
  -1  -3  -3 3737.33  219.28
   1   3   3 3116.19  210.28
   1   3   3 3164.28  210.28
  -2  -3  -3 1943.21  109.99
  -2  -3  -3 2048.00  109.99
  -2  -3  -3 1794.12  109.09
  -2  -3  -3 1784.82  108.79
  -2  -3  -3 1842.02  116.99
   2   3   3 1684.63  109.49
   2   3   3 1723.93  109.79
   2   3   3 1706.83  109.49
  -3  -3  -3 1686.03   99.39
  -3  -3  -3 1693.23  100.29
  -3  -3  -3 1830.72  101.09
  -3  -3  -3 1510.35   99.39
  -3  -3  -3 1815.52  100.59
   3   3   3 1604.04   99.89
   3   3   3 1527.25   99.89
   3   3   3 1553.04   99.79
  -4  -3  -3  151.18   13.60
  -4  -3  -3  166.78   13.50
  -4  -3  -3  117.29   12.20
  -4  -3  -3  126.49   11.20
  -4  -3  -3  141.59    9.30
   4   3   3  139.59   13.70
   4   3   3  116.59   11.30
   4   3   3  114.69   15.60
   4   3   3  142.49   20.50
   4   3   3  173.18   20.40
   4   3   3  129.39   11.40
   4   3   3  142.19   10.20
  -5  -3  -3  405.86   28.10
  -5  -3  -3  341.77   23.60
  -5  -3  -3  334.17   22.60
  -5  -3  -3  322.97   21.80
  -5  -3  -3  297.87   24.30
  -5  -3  -3  394.76   25.80
   5   3   3  352.66   25.50
   5   3   3  351.56   26.00
   5   3   3  317.17   24.30
   5   3   3  365.26   27.10
  -6  -3  -3 2010.00  118.59
  -6  -3  -3 1930.21  118.29
  -6  -3  -3 2011.60  123.49
  -6  -3  -3 1869.91  118.89
  -6  -3  -3 1937.71  119.09
  -6  -3  -3 2011.90  118.29
   6   3   3 1784.62  119.49
   6   3   3 2045.50  121.99
   6   3   3 1997.10  120.29
   6   3   3 2023.30  120.39
  -7  -3  -3   22.90    4.20
  -7  -3  -3   30.60    7.40
  -7  -3  -3   24.80    4.80
  -7  -3  -3   26.70   12.80
  -7  -3  -3   21.40    4.00
   7   3   3   14.20    6.20
   7   3   3   16.00    7.00
   7   3   3   20.50    7.40
   7   3   3   31.60   10.00
  -8  -3  -3   34.20    4.60
   8   3   3   40.70    9.30
   6  -4  -3  160.18   12.70
   6  -4  -3  177.98   12.60
   6  -4  -3  155.48   13.30
   6  -4  -3  162.88   15.00
  -6   4   3  139.49   12.60
  -6   4   3  162.88   12.60
  -6   4   3  162.48   12.40
   5  -4  -3  100.99   10.50
   5  -4  -3   75.19   13.00
   5  -4  -3   83.09   10.20
   5  -4  -3   99.49   10.80
   5  -4  -3  100.59   16.20
  -5   4   3   85.59    9.40
  -5   4   3  100.19   14.90
  -5   4   3   91.89   11.00
  -5   4   3   76.79    9.80
   4  -4  -3 1177.58   70.19
   4  -4  -3 1128.39   71.69
   4  -4  -3 1177.08   70.29
   4  -4  -3 1160.18   72.99
   4  -4  -3 1189.98   69.39
   4  -4  -3 1219.88   69.89
  -4   4   3  971.90   71.99
  -4   4   3 1016.00   69.39
  -4   4   3 1188.88   70.09
  -4   4   3 1003.00   69.09
  -4   4   3 1160.78   69.79
   3  -4  -3  190.98   19.50
   3  -4  -3  214.98   17.30
   3  -4  -3  205.38   17.20
   3  -4  -3  222.18   17.70
   3  -4  -3  222.68   16.80
  -3   4   3  181.28   16.20
  -3   4   3  200.38   14.90
  -3   4   3  224.88   14.90
  -3   4   3  214.18   15.40
   2  -4  -3 1007.40   58.49
   2  -4  -3  904.71   57.89
   2  -4  -3  926.91   58.89
  -2   4   3  985.40   57.49
  -2   4   3  951.20   57.49
  -2   4   3  885.11   57.69
  -2   4   3  878.41   57.19
   1  -4  -3  617.24   51.59
   1  -4  -3  686.13   38.40
  -1   4   3  573.34   60.19
  -1   4   3  622.44   38.40
  -1   4   3  632.54   38.40
  -1   4   3  619.84   38.40
  -1   4   3  590.74   39.10
   0  -4  -3 6464.05  393.06
   0  -4  -3 6375.66  404.46
   0  -4  -3 6924.41  393.46
   0   4   3 6367.86  393.46
   0   4   3 6539.95  393.46
   0   4   3 6677.93  393.26
  -1  -4  -3 2825.82  162.28
  -1  -4  -3 2558.44  171.38
   1   4   3 2621.34  162.28
   1   4   3 2835.22  164.58
   1   4   3 2651.43  162.18
   1   4   3 2660.43  162.28
  -2  -4  -3 1766.32  116.29
  -2  -4  -3 1826.02  107.49
  -2  -4  -3 1644.24  106.79
  -2  -4  -3 1680.63  106.69
  -2  -4  -3 1922.91  107.59
   2   4   3 1735.43  107.59
   2   4   3 1917.41  107.29
   2   4   3 1724.23  107.49
   2   4   3 1756.42  107.49
  -3  -4  -3 1168.38   67.49
  -3  -4  -3 1195.48   68.29
  -3  -4  -3 1113.79   67.29
   3   4   3 1060.89   68.19
   3   4   3 1126.29   68.19
   3   4   3 1059.39   68.09
   3   4   3 1076.49   68.09
  -4  -4  -3 1006.60   59.29
  -4  -4  -3  931.51   58.29
  -4  -4  -3  979.20   57.89
  -4  -4  -3 1057.59   60.39
  -4  -4  -3  885.61   58.89
   4   4   3  874.71   59.69
   4   4   3  900.91   64.89
   4   4   3 1021.20   60.29
   4   4   3  910.81   61.89
   4   4   3  961.90   61.29
   4   4   3  949.51   61.59
  -5  -4  -3  278.37   20.40
  -5  -4  -3  329.57   22.90
  -5  -4  -3  305.67   19.20
  -5  -4  -3  313.17   24.80
   5   4   3  259.87   28.90
   5   4   3  284.47   22.80
   5   4   3  345.97   28.90
  -6  -4  -3 1464.55   87.99
  -6  -4  -3 1476.45   92.49
  -6  -4  -3 1338.57   88.49
  -6  -4  -3 1595.44   91.09
  -6  -4  -3 1421.36   87.69
   6   4   3 1505.35   89.79
   6   4   3 1413.86   89.49
   6   4   3 1354.36   91.79
   6   4   3 1522.15   91.29
   6   4   3 1399.96   89.39
  -7  -4  -3  324.67   21.30
  -7  -4  -3  316.77   21.20
  -7  -4  -3  388.86   24.10
  -7  -4  -3  315.27   27.40
   7   4   3  336.27   24.90
   7   4   3  340.97   24.20
   7   4   3  288.57   28.60
  -8  -4  -3  102.69    7.70
  -8  -4  -3  100.79    8.10
  -8  -4  -3  110.29    9.60
   8   4   3   95.19   11.30
   6  -5  -3    5.40    4.70
   6  -5  -3    0.10    5.20
   6  -5  -3   11.60    3.10
  -6   5   3    4.80    3.10
   5  -5  -3  442.36   28.70
   5  -5  -3  455.75   29.00
   5  -5  -3  438.46   29.90
   5  -5  -3  459.95   31.10
  -5   5   3  452.85   28.80
  -5   5   3  421.26   29.40
  -5   5   3  461.65   29.20
  -5   5   3  471.85   28.60
   4  -5  -3  196.88   20.40
   4  -5  -3  190.18   14.70
   4  -5  -3  203.48   15.20
   4  -5  -3  196.18   14.90
   4  -5  -3  202.58   17.40
   4  -5  -3  202.48   15.60
  -4   5   3  163.38   18.00
  -4   5   3  178.18   16.70
  -4   5   3  213.78   14.80
  -4   5   3  187.58   14.70
  -4   5   3  169.78   14.80
   3  -5  -3  640.94   37.20
   3  -5  -3  583.04   36.70
   3  -5  -3  585.74   37.50
   3  -5  -3  572.64   38.70
   3  -5  -3  567.34   36.50
  -3   5   3  590.74   36.70
  -3   5   3  629.74   36.70
  -3   5   3  575.04   36.80
  -3   5   3  499.15   38.40
  -3   5   3  504.65   36.10
  -3   5   3  503.65   38.50
   2  -5  -3  948.51   57.69
   2  -5  -3  895.71   56.59
   2  -5  -3  932.51   55.79
   2  -5  -3  983.00   55.99
   2  -5  -3  928.81   55.69
  -2   5   3  912.21   55.79
  -2   5   3  844.92   57.49
  -2   5   3  835.12   57.79
  -2   5   3  901.91   55.49
  -2   5   3  949.71   55.79
  -2   5   3  834.22   55.29
  -2   5   3  764.02   60.29
   1  -5  -3   67.69    9.70
   1  -5  -3   73.59    7.70
   1  -5  -3   73.39   11.10
   1  -5  -3   68.39    9.20
  -1   5   3   78.39    7.50
  -1   5   3   69.59    7.80
  -1   5   3   58.99   11.70
  -1   5   3   69.89    6.90
  -1   5   3   65.79   15.90
  -1   5   3   72.69    9.00
   0  -5  -3  217.28   14.40
   0  -5  -3  197.48   15.80
   0  -5  -3  204.78   15.90
   0   5   3  226.98   14.90
   0   5   3  189.88   20.10
   0   5   3  223.68   14.60
   0   5   3  195.48   20.80
   0   5   3  204.08   14.30
  -1  -5  -3  160.48   11.20
  -1  -5  -3  129.09   27.50
  -1  -5  -3  147.49   13.50
   1   5   3  173.58   12.10
   1   5   3  169.78   11.70
   1   5   3  160.38   12.40
   1   5   3  124.29   16.60
   1   5   3  160.58   11.40
   1   5   3  167.08   19.20
  -2  -5  -3  420.66   26.80
  -2  -5  -3  405.06   27.60
  -2  -5  -3  377.76   27.00
  -2  -5  -3  382.36   25.80
  -2  -5  -3  411.36   26.10
  -2  -5  -3  438.56   26.70
   2   5   3  430.36   26.90
   2   5   3  408.26   30.60
   2   5   3  440.06   27.20
   2   5   3  380.56   28.90
   2   5   3  454.35   27.30
   2   5   3  437.56   26.90
  -3  -5  -3  464.85   31.10
  -3  -5  -3  489.25   30.70
  -3  -5  -3  530.05   31.20
  -3  -5  -3  495.95   30.20
  -3  -5  -3  505.25   30.40
  -3  -5  -3  543.45   35.10
  -3  -5  -3  480.35   31.80
   3   5   3  497.25   38.90
   3   5   3  497.85   33.50
   3   5   3  411.16   32.70
   3   5   3  473.65   31.40
   3   5   3  444.66   33.20
   3   5   3  515.85   34.50
  -4  -5  -3 1884.21  113.19
  -4  -5  -3 1907.41  115.19
  -4  -5  -3 1807.92  114.29
  -4  -5  -3 2001.20  113.39
  -4  -5  -3 1803.62  113.49
  -4  -5  -3 1817.92  113.99
   4   5   3 1885.61  117.29
   4   5   3 1978.60  116.09
   4   5   3 1888.41  115.99
   4   5   3 2013.60  115.29
   4   5   3 1848.02  114.79
   4   5   3 1808.22  114.49
   4   5   3 1759.02  114.29
  -5  -5  -3  756.42   47.20
  -5  -5  -3  747.13   47.60
  -5  -5  -3  788.82   49.80
  -5  -5  -3  805.42   47.50
   5   5   3  799.02   49.80
   5   5   3  796.92   50.89
   5   5   3  724.13   48.60
   5   5   3  760.02   49.50
   5   5   3  759.22   52.79
  -6  -5  -3   12.30    4.00
  -6  -5  -3   34.80   17.20
  -6  -5  -3   11.00   12.40
  -6  -5  -3   14.20    4.80
  -6  -5  -3   14.80    4.10
   6   5   3   15.80   10.90
   6   5   3    6.80    7.80
   6   5   3   12.10    6.30
   6   5   3   18.50    8.80
  -7  -5  -3  245.78   16.40
  -7  -5  -3  253.77   16.10
  -7  -5  -3  222.28   23.10
  -7  -5  -3  248.88   17.20
  -7  -5  -3  237.38   16.20
   7   5   3  214.68   22.50
   7   5   3  242.58   18.30
   7   5   3  261.87   18.90
   7   5   3  229.78   19.90
  -8  -5  -3   79.19    7.50
  -8  -5  -3   98.29    8.10
   8   5   3  103.09   10.90
   8   5   3   83.29   16.90
   5  -6  -3  145.39   11.70
   5  -6  -3  171.28   12.00
   5  -6  -3  160.88   12.90
  -5   6   3  158.08   11.20
  -5   6   3  168.98   11.30
  -5   6   3  191.08   12.70
   4  -6  -3   51.79    9.80
   4  -6  -3   51.29    7.50
   4  -6  -3   55.89    7.20
   4  -6  -3   36.50    8.20
   4  -6  -3   47.70    6.40
   4  -6  -3   48.90   11.10
  -4   6   3   52.39    9.10
  -4   6   3   45.60    7.80
  -4   6   3   53.99    7.80
  -4   6   3   53.49    6.80
   3  -6  -3  198.18   14.80
   3  -6  -3  228.78   19.50
   3  -6  -3  196.68   17.10
   3  -6  -3  159.08   16.20
   3  -6  -3  203.88   14.70
   3  -6  -3  205.58   14.80
  -3   6   3  176.28   16.10
  -3   6   3  155.38   14.80
  -3   6   3  200.08   14.60
  -3   6   3  203.08   14.80
  -3   6   3  200.88   16.20
   2  -6  -3 1095.99   63.79
   2  -6  -3 1049.40   63.39
   2  -6  -3 1018.60   64.89
   2  -6  -3 1044.10   63.19
  -2   6   3  988.30   64.69
  -2   6   3  950.80   66.39
  -2   6   3 1012.40   64.39
  -2   6   3  988.20   63.79
  -2   6   3 1060.49   63.49
  -2   6   3 1057.69   63.69
  -2   6   3 1005.80   63.29
   1  -6  -3 1005.50   63.19
   1  -6  -3 1045.50   63.39
   1  -6  -3 1082.99   63.59
  -1   6   3 1031.00   63.49
  -1   6   3  968.50   65.99
  -1   6   3  990.90   63.39
  -1   6   3 1027.50   64.59
  -1   6   3 1006.50   65.19
  -1   6   3 1071.79   63.59
   0  -6  -3  335.77   22.50
   0  -6  -3  311.57   22.90
   0  -6  -3  333.17   22.80
   0  -6  -3  311.77   21.70
   0  -6  -3  325.37   22.00
   0   6   3  300.37   26.40
   0   6   3  322.87   24.80
   0   6   3  329.77   22.30
   0   6   3  310.27   23.80
   0   6   3  347.47   22.00
   0   6   3  327.27   21.90
   0   6   3  322.17   21.60
  -1  -6  -3 1095.29   66.59
  -1  -6  -3 1068.79   66.19
  -1  -6  -3 1006.40   66.29
  -1  -6  -3 1121.19   66.29
  -1  -6  -3 1047.10   66.09
   1   6   3 1146.59   66.49
   1   6   3 1148.99   66.39
   1   6   3 1115.79   66.39
   1   6   3 1095.59   66.89
   1   6   3 1041.20   67.69
   1   6   3 1012.10   68.29
   1   6   3 1118.39   66.49
   1   6   3  956.20   68.89
  -2  -6  -3 1687.43   98.49
  -2  -6  -3 1600.24   97.59
  -2  -6  -3 1568.84   98.29
  -2  -6  -3 1600.04   98.09
  -2  -6  -3 1671.23   99.09
  -2  -6  -3 1577.74   97.49
   2   6   3 1524.05   99.89
   2   6   3 1645.54   98.59
   2   6   3 1694.93   98.79
   2   6   3 1613.04   98.59
   2   6   3 1568.24  100.29
   2   6   3 1578.64   98.29
   2   6   3 1634.14   99.69
  -3  -6  -3   25.50    6.80
  -3  -6  -3   25.00    4.50
  -3  -6  -3   37.50   10.00
  -3  -6  -3   15.00    6.20
  -3  -6  -3   34.00    8.70
  -3  -6  -3   28.20    5.80
  -3  -6  -3   39.50    6.30
   3   6   3   20.90    8.60
   3   6   3   32.40    6.80
   3   6   3   28.20    7.40
   3   6   3   35.20    9.40
   3   6   3   47.10   11.50
  -4  -6  -3   33.80   11.80
  -4  -6  -3   27.30    5.70
  -4  -6  -3   36.60    6.30
  -4  -6  -3   25.10    4.60
  -4  -6  -3   35.90    6.00
  -4  -6  -3   36.70    8.20
   4   6   3   27.80   13.50
   4   6   3   25.60   11.30
   4   6   3   30.60   11.20
   4   6   3   19.60    7.50
   4   6   3   35.80    8.70
   4   6   3   62.49   16.70
  -5  -6  -3    3.00    5.10
  -5  -6  -3    2.30    4.10
  -5  -6  -3   -3.30   10.40
  -5  -6  -3    1.50    4.00
  -5  -6  -3    6.90    4.00
  -5  -6  -3   11.90   10.10
  -5  -6  -3    4.80   13.60
   5   6   3   -1.30   10.80
   5   6   3    9.00    8.30
   5   6   3   -2.40    8.50
   5   6   3   -2.80    6.60
  -6  -6  -3   65.09   13.30
  -6  -6  -3   63.29    7.20
  -6  -6  -3   72.49    9.00
  -6  -6  -3   64.29    7.20
   6   6   3   81.69   11.90
   6   6   3   69.29   12.10
  -7  -6  -3   72.19    7.30
  -7  -6  -3   75.79    8.30
  -7  -6  -3   75.69    8.70
  -7  -6  -3   80.49    6.60
  -7  -6  -3   61.09    7.40
   7   6   3   86.89   10.60
   7   6   3   68.29    9.90
  -8  -6  -3  306.57   19.80
  -8  -6  -3  297.77   20.20
  -8  -6  -3  345.27   20.50
   8   6   3  332.07   23.20
   4  -7  -3  237.98   17.70
  -4   7   3  188.18   15.10
  -4   7   3  220.68   14.50
  -4   7   3  235.58   14.40
   3  -7  -3  819.52   51.69
   3  -7  -3  862.01   53.49
   3  -7  -3  825.72   51.89
   3  -7  -3  813.62   52.99
   3  -7  -3  825.82   52.09
  -3   7   3  834.72   52.29
  -3   7   3  896.01   52.19
  -3   7   3  888.81   52.69
  -3   7   3  862.81   51.89
   2  -7  -3  169.58   14.00
   2  -7  -3  163.48   16.90
   2  -7  -3  176.88   13.00
  -2   7   3  214.28   20.10
  -2   7   3  173.78   15.20
  -2   7   3  181.88   13.30
  -2   7   3  143.89   14.10
  -2   7   3  207.38   17.70
   1  -7  -3  895.11   56.69
   1  -7  -3  890.61   57.89
   1  -7  -3  898.31   56.79
   1  -7  -3  899.51   56.49
  -1   7   3  807.12   57.49
  -1   7   3  924.71   58.69
  -1   7   3  956.40   56.89
  -1   7   3  965.90   57.29
  -1   7   3  941.41   56.59
  -1   7   3  978.00   58.19
   0  -7  -3  830.22   60.99
   0  -7  -3  984.20   60.39
   0  -7  -3  955.40   60.49
   0  -7  -3  983.50   60.19
   0  -7  -3  983.40   60.59
   0   7   3  905.11   60.39
   0   7   3 1020.60   60.99
   0   7   3 1032.50   62.79
   0   7   3  986.40   60.69
   0   7   3  982.40   60.29
   0   7   3 1145.89   71.59
   0   7   3  930.61   60.89
   0   7   3  982.20   61.79
  -1  -7  -3   40.20    7.50
  -1  -7  -3   58.09    8.90
  -1  -7  -3   56.29    8.50
  -1  -7  -3   56.19   10.30
  -1  -7  -3   48.20    9.40
   1   7   3   50.29   10.60
   1   7   3   37.10    9.00
   1   7   3   43.50   12.20
   1   7   3   48.60   12.90
   1   7   3   46.10    8.10
   1   7   3   47.40    8.30
  -2  -7  -3  282.87   19.20
  -2  -7  -3  278.77   19.70
  -2  -7  -3  284.57   19.80
  -2  -7  -3  291.77   20.50
  -2  -7  -3  298.87   21.90
  -2  -7  -3  254.97   20.00
   2   7   3  284.07   24.20
   2   7   3  276.77   22.60
   2   7   3  289.57   21.10
   2   7   3  291.47   20.30
   2   7   3  273.77   21.00
   2   7   3  291.27   25.10
  -3  -7  -3 2526.15  144.59
  -3  -7  -3 2441.36  144.39
  -3  -7  -3 2436.46  145.29
  -3  -7  -3 2212.58  144.59
  -3  -7  -3 2344.77  143.59
  -3  -7  -3 2297.97  143.49
   3   7   3 2483.55  146.39
   3   7   3 2197.28  145.19
   3   7   3 2443.76  145.59
   3   7   3 2373.96  145.59
   3   7   3 2459.95  145.19
  -4  -7  -3  174.68   16.90
  -4  -7  -3  203.88   14.70
  -4  -7  -3  186.18   14.30
  -4  -7  -3  169.88   14.10
  -4  -7  -3  196.98   14.80
  -4  -7  -3  186.18   13.30
   4   7   3  140.59   22.30
   4   7   3  189.38   18.70
   4   7   3  203.58   17.60
   4   7   3  205.48   26.90
   4   7   3  196.08   16.20
  -5  -7  -3  555.94   34.50
  -5  -7  -3  538.15   33.80
  -5  -7  -3  488.15   33.90
  -5  -7  -3  566.04   33.80
  -5  -7  -3  560.84   34.70
   5   7   3  535.55   35.90
  -6  -7  -3  799.12   49.30
  -6  -7  -3  837.32   49.30
  -6  -7  -3  671.93   49.30
  -6  -7  -3  850.71   49.90
   6   7   3  868.31   50.59
  -7  -7  -3  410.96   28.00
  -7  -7  -3  400.86   27.90
  -7  -7  -3  459.55   27.70
  -7  -7  -3  469.75   28.20
   7   7   3  474.95   29.50
   7   7   3  484.85   30.30
   2  -8  -3    8.60    2.80
   2  -8  -3    3.10    2.00
   2  -8  -3    2.10    5.10
   2  -8  -3    9.30    5.30
  -2   8   3    3.30    4.80
  -2   8   3   -2.20    2.90
  -2   8   3    3.10    2.80
   1  -8  -3   -1.80    2.30
   1  -8  -3   -6.50    3.60
   1  -8  -3    0.80    4.20
  -1   8   3   -1.60    3.60
  -1   8   3    1.60    3.60
  -1   8   3    1.90    5.90
  -1   8   3   -7.30    5.90
   0  -8  -3  673.03   45.30
   0  -8  -3  664.03   43.80
   0  -8  -3  790.62   44.50
   0   8   3  632.04   45.90
   0   8   3  743.33   48.90
   0   8   3  705.53   45.00
   0   8   3  694.73   48.30
   0   8   3  762.92   43.80
  -1  -8  -3 1441.06   83.29
  -1  -8  -3 1231.18   81.29
  -1  -8  -3 1294.27   81.09
   1   8   3 1372.36   82.79
   1   8   3 1299.27   81.79
   1   8   3 1407.86   85.99
   1   8   3 1264.07   81.69
  -2  -8  -3   42.10    7.30
  -2  -8  -3   42.50    6.30
  -2  -8  -3   39.50    7.60
  -2  -8  -3   46.80    9.80
   2   8   3   39.20    8.20
   2   8   3   38.80   10.00
   2   8   3   49.60    9.30
  -3  -8  -3  411.96   26.40
  -3  -8  -3  411.16   26.40
   3   8   3  356.36   27.70
   3   8   3  431.36   29.90
   3   8   3  431.46   29.90
  -4  -8  -3  367.06   24.70
  -4  -8  -3  381.96   25.80
  -4  -8  -3  373.76   28.50
  -4  -8  -3  419.66   25.90
  -4  -8  -3  385.06   26.10
   4   8   3  441.26   28.70
   4   8   3  407.86   29.60
   4   8   3  397.26   32.70
  -5  -8  -3    6.50    3.00
  -5  -8  -3    7.30    4.20
  -5  -8  -3    2.80    2.70
   5   8   3    1.70    5.80
   5   8   3   21.50    8.90
  -6  -8  -3  108.89    8.70
  -6  -8  -3  129.79    9.10
   0  -9  -3    9.90    2.90
   0  -9  -3    5.00    2.80
   0  -9  -3    6.90    3.50
   0   9   3    5.90    4.60
   0   9   3    1.40    4.60
   0   9   3    3.10    4.10
  -1  -9  -3    8.30    3.70
  -1  -9  -3    7.60    4.00
  -1  -9  -3    5.20    2.40
   1   9   3   -2.30    4.40
   1   9   3   -1.50    4.30
   1   9   3   10.00    9.00
   1   9   3    0.30    5.80
  -2  -9  -3  181.18   13.80
  -2  -9  -3  195.58   13.20
  -2  -9  -3  187.38   13.40
  -2  -9  -3  156.48   12.80
   2   9   3  211.58   16.70
   2   9   3  221.68   15.30
   2   9   3  186.58   14.90
  -3  -9  -3    4.00    3.90
  -3  -9  -3    1.60    2.40
  -3  -9  -3   -4.70    4.90
   3   9   3    7.50    5.40
  -4  -9  -3   36.00    5.10
  -4  -9  -3   35.40    5.90
  -4  -9  -3   43.70    5.20
   4   9   3   49.80    9.40
   4   9   3   49.80    7.60
  -5  -9  -3  644.04   38.50
  -5  -9  -3  594.54   38.60
  -5  -9  -3  648.84   38.40
   3   7  -4   29.30   10.40
   3   7  -4   45.20    6.90
  -3  -7   4   34.00    5.50
  -3  -7   4   19.50    5.40
   2   7  -4   10.60    6.00
  -2  -7   4   10.30    4.00
  -2  -7   4   10.20    2.40
   1   7  -4   45.10    8.60
   1   7  -4   34.10    8.20
   1   7  -4   25.80    4.90
  -1  -7   4   29.80    6.10
  -1  -7   4   29.50    5.50
   5   6  -4   18.10    8.00
  -5  -6   4   25.40    4.90
  -5  -6   4   37.20    6.20
   4   6  -4  114.29   16.60
   4   6  -4  100.49   18.50
   4   6  -4  138.79   12.50
  -4  -6   4  110.39    9.90
  -4  -6   4  132.19   12.40
  -4  -6   4  137.49   10.30
  -4  -6   4  126.39   10.00
   3   6  -4    0.70   23.20
   3   6  -4    0.30    4.60
   3   6  -4    4.50    7.40
   3   6  -4   -0.50    8.50
  -3  -6   4    2.00    4.10
  -3  -6   4    2.10    8.80
  -3  -6   4   -3.10    5.00
  -3  -6   4    2.20    4.00
  -3  -6   4   -0.30    3.10
   2   6  -4   24.50    6.20
   2   6  -4   12.00   13.40
   2   6  -4   14.50    6.90
  -2  -6   4   26.00    6.20
  -2  -6   4   22.00    4.70
  -2  -6   4   27.50    8.40
  -2  -6   4   23.10    5.80
   1   6  -4 1366.36   81.09
   1   6  -4 1128.09   80.89
   1   6  -4 1353.56   81.09
  -1  -6   4 1386.26   79.89
  -1  -6   4 1372.86   80.89
  -1  -6   4 1207.68   80.19
  -1  -6   4 1465.45   79.89
  -1  -6   4 1250.57   80.09
  -1  -6   4 1278.27   80.39
   0   6  -4  343.17   23.80
   0   6  -4  292.87   24.40
   0   6  -4  358.56   23.90
   0  -6   4  318.17   22.20
   0  -6   4  339.97   22.40
   0  -6   4  353.26   21.40
   0  -6   4  314.37   22.50
  -1   6  -4    9.40    8.20
   1  -6   4   28.50    9.70
   1  -6   4   32.60    9.10
   1  -6   4   21.60    5.20
   1  -6   4   20.20    4.50
  -2   6  -4    3.70    4.00
  -2   6  -4    4.40    6.90
   2  -6   4   28.40    9.10
   2  -6   4    8.70    2.60
   6   5  -4  166.18   14.90
   6   5  -4  171.48   15.80
  -6  -5   4  183.58   13.40
  -6  -5   4  160.28   13.40
   5   5  -4    0.90    6.50
   5   5  -4   -7.60    7.10
  -5  -5   4    8.30    4.00
  -5  -5   4   -4.90    4.50
  -5  -5   4   -5.90    4.70
   4   5  -4  254.97   24.20
   4   5  -4  238.08   26.10
  -4  -5   4  307.07   22.70
  -4  -5   4  319.27   24.90
  -4  -5   4  306.97   19.10
  -4  -5   4  278.47   22.10
  -4  -5   4  294.97   19.70
   3   5  -4    3.60    5.30
   3   5  -4    6.60    9.20
   3   5  -4   -6.10   12.40
   3   5  -4   12.20    7.30
  -3  -5   4    5.80    4.70
  -3  -5   4   -4.80    4.80
  -3  -5   4   17.00    9.80
  -3  -5   4   -0.20   10.20
  -3  -5   4   13.10    4.00
   2   5  -4  171.58   24.00
   2   5  -4  179.88   15.20
   2   5  -4  148.49   35.70
   2   5  -4  178.48   17.60
  -2  -5   4  188.08   13.90
  -2  -5   4  181.18   17.20
  -2  -5   4  183.38   13.20
  -2  -5   4  183.38   17.70
  -2  -5   4  176.98   14.80
  -2  -5   4  185.98   16.30
   1   5  -4   47.70   16.60
   1   5  -4   32.50    7.50
   1   5  -4   30.80    6.40
  -1  -5   4   39.90   10.10
  -1  -5   4   43.20    8.00
  -1  -5   4   42.20    7.30
  -1  -5   4   25.70    8.70
  -1  -5   4   34.60    7.40
  -1  -5   4   42.80    9.70
   0   5  -4  244.48   20.20
   0   5  -4  256.77   20.00
   0  -5   4  270.37   19.10
   0  -5   4  265.87   19.70
   0  -5   4  278.07   18.70
   0  -5   4  268.67   21.20
   0  -5   4  294.07   18.90
   0  -5   4  251.27   20.20
  -1   5  -4  179.68   14.90
   1  -5   4  165.98   14.00
   1  -5   4  152.88   14.10
   1  -5   4  150.48   20.50
   1  -5   4  160.58   14.50
  -2   5  -4  872.41   61.29
  -2   5  -4  983.30   60.19
   2  -5   4  990.60   59.59
   2  -5   4  913.31   59.19
   2  -5   4 1007.50   60.29
   2  -5   4  954.90   60.29
   2  -5   4 1014.80   59.89
  -3   5  -4  567.74   34.60
  -3   5  -4  598.84   35.90
  -3   5  -4  517.25   36.80
   3  -5   4  510.65   34.20
   3  -5   4  489.55   34.40
   3  -5   4  531.55   34.10
   7   4  -4   20.70   18.00
   6   4  -4   32.30    9.30
   6   4  -4   26.00    7.50
   6   4  -4   37.80   13.20
  -6  -4   4   38.70    7.40
  -6  -4   4   35.50   10.10
   5   4  -4    5.60    7.10
   5   4  -4    7.40   14.70
   5   4  -4    9.10    9.50
  -5  -4   4   13.00    6.30
  -5  -4   4   11.10    4.20
   4   4  -4    8.00    7.00
   4   4  -4    5.50    8.60
   4   4  -4    2.00    9.30
   4   4  -4    9.20   20.00
  -4  -4   4   13.90    3.90
  -4  -4   4   17.60    8.60
   3   4  -4  534.05   33.80
   3   4  -4  511.15   37.10
   3   4  -4  466.85   39.00
  -3  -4   4  486.85   34.50
  -3  -4   4  527.05   32.80
  -3  -4   4  512.25   33.90
  -3  -4   4  535.15   32.10
   2   4  -4 1891.81  131.39
   2   4  -4 2094.39  127.89
   2   4  -4 1974.60  129.39
   2   4  -4 2235.18  127.99
  -2  -4   4 2034.10  127.59
  -2  -4   4 2278.37  126.79
  -2  -4   4 2094.69  127.79
  -2  -4   4 2165.68  127.19
  -2  -4   4 2115.69  128.09
   1   4  -4   33.90   13.00
   1   4  -4   12.00    6.20
   1   4  -4    6.60    4.90
  -1  -4   4   22.00    7.50
  -1  -4   4   16.70    7.20
  -1  -4   4   18.30    4.20
  -1  -4   4    5.90    5.40
  -1  -4   4   11.70    4.70
   0   4  -4  522.95   34.40
   0   4  -4  528.65   34.70
   0  -4   4  550.74   34.40
   0  -4   4  520.75   34.50
   0  -4   4  539.15   33.00
   0  -4   4  520.45   33.50
   0  -4   4  466.35   34.90
   0  -4   4  532.65   34.00
  -1   4  -4 1472.05   92.29
  -1   4  -4 1478.65   92.49
  -1   4  -4 1446.46   94.49
  -1   4  -4 1463.75   91.79
  -1   4  -4 1393.96   93.19
   1  -4   4 1469.75   93.49
   1  -4   4 1499.05   92.79
   1  -4   4 1590.44   92.29
   1  -4   4 1514.55   91.99
   1  -4   4 1376.76   92.39
   1  -4   4 1568.74   91.69
   1  -4   4 1631.04   91.59
   1  -4   4 1587.24   91.29
  -2   4  -4  388.46   33.10
  -2   4  -4  385.16   30.40
  -2   4  -4  402.66   27.00
  -2   4  -4  390.86   28.30
  -2   4  -4  407.26   27.60
   2  -4   4  401.46   28.30
   2  -4   4  380.86   27.50
   2  -4   4  381.76   26.90
   2  -4   4  411.86   26.40
   2  -4   4  435.06   27.70
  -3   4  -4   95.09   20.10
  -3   4  -4  139.09   11.60
  -3   4  -4   85.19   11.80
  -3   4  -4  102.09   22.50
   3  -4   4  131.99   14.20
   3  -4   4  105.79   11.60
   3  -4   4  105.19   13.00
   3  -4   4  127.59   14.50
  -4   4  -4   30.10    7.10
  -4   4  -4   32.00   12.30
  -4   4  -4   31.00    8.10
   4  -4   4   23.50   10.90
   4  -4   4   22.70    6.80
   4  -4   4   19.50    5.30
   4  -4   4   25.40    6.20
   7   3  -4    4.50    9.60
   7   3  -4    9.20    5.40
   5   3  -4  353.46   35.90
   5   3  -4  350.36   27.90
   5   3  -4  385.06   29.30
  -5  -3   4  339.87   22.90
   4   3  -4 6079.29  365.76
   4   3  -4 6305.07  364.86
   4   3  -4 6174.78  368.16
   4   3  -4 5967.30  366.06
  -4  -3   4 5881.01  363.66
  -4  -3   4 5960.60  366.46
   3   3  -4   24.10    6.00
   3   3  -4   14.30    8.90
   3   3  -4   56.69   15.10
  -3  -3   4   38.00    8.30
  -3  -3   4   26.70    4.50
  -3  -3   4   28.00    7.40
   2   3  -4 1223.18   80.79
   2   3  -4 1300.07   78.99
   2   3  -4 1275.57   82.79
   2   3  -4 1237.48   79.49
  -2  -3   4 1239.68   78.19
  -2  -3   4 1364.66   78.99
  -2  -3   4 1352.36   77.89
   1   3  -4   -7.00    5.70
   1   3  -4    4.70   12.20
   1   3  -4    2.10   15.30
  -1  -3   4    2.30    3.70
  -1  -3   4    7.10    7.30
  -1  -3   4    3.30    3.00
  -1  -3   4    3.90    8.10
  -1  -3   4    3.90    4.20
   0   3  -4   29.60    8.20
   0   3  -4   24.70    5.90
   0  -3   4   31.00    4.60
   0  -3   4   37.60    9.60
   0  -3   4   43.90    7.80
   0  -3   4   30.70    7.70
   0  -3   4   24.80    5.10
  -1   3  -4  293.67   23.40
  -1   3  -4  278.37   22.90
  -1   3  -4  277.37   21.10
  -1   3  -4  282.57   21.30
  -1   3  -4  281.97   21.20
   1  -3   4  306.17   21.40
   1  -3   4  306.07   20.80
   1  -3   4  323.57   19.50
   1  -3   4  305.27   21.20
   1  -3   4  279.67   20.40
   1  -3   4  326.27   20.40
   1  -3   4  253.47   22.10
  -2   3  -4  848.22   53.39
  -2   3  -4  772.22   54.09
  -2   3  -4  822.42   55.29
  -2   3  -4  845.72   53.29
  -2   3  -4  794.82   57.39
  -2   3  -4  875.21   52.39
   2  -3   4  935.41   53.19
   2  -3   4  880.71   52.79
   2  -3   4  848.02   53.49
   2  -3   4  877.91   52.59
   2  -3   4  824.62   52.69
   2  -3   4  891.11   53.49
   2  -3   4  701.83   54.39
  -3   3  -4   31.40   12.80
  -3   3  -4   -4.80   20.30
  -3   3  -4   16.00   11.60
  -3   3  -4    7.00    6.30
  -3   3  -4   25.80   10.80
  -3   3  -4    6.00    5.20
   3  -3   4    6.50    6.30
   3  -3   4   10.80    8.30
   3  -3   4    3.40   11.50
   3  -3   4   11.90   10.50
   3  -3   4    6.50    7.50
   3  -3   4   11.00    6.30
  -4   3  -4  615.44   38.20
  -4   3  -4  666.83   39.30
  -4   3  -4  628.34   43.70
   4  -3   4  477.85   38.70
   4  -3   4  630.04   39.00
   4  -3   4  642.74   43.20
   4  -3   4  530.35   38.10
  -5   3  -4  600.84   33.60
  -5   3  -4  605.24   34.30
   5  -3   4  495.45   33.60
   5  -3   4  494.55   34.00
   5  -3   4  531.55   33.80
   5  -3   4  457.35   35.00
   8   2  -4  195.38   16.80
   7   2  -4  143.89   14.70
   7   2  -4  137.79   15.80
   7   2  -4  114.69   18.40
   6   2  -4   26.00   12.20
   6   2  -4   25.80   11.30
   6   2  -4   42.30    9.40
   6   2  -4   28.30    8.00
   5   2  -4 1270.07   87.59
   5   2  -4 1394.96   85.59
   5   2  -4 1408.26   85.49
   4   2  -4  792.62   48.90
   4   2  -4  716.33   48.10
   4   2  -4  698.83   53.99
  -4  -2   4  739.23   44.90
  -4  -2   4  705.03   46.10
   3   2  -4  148.19   18.00
   3   2  -4  130.59   14.50
   3   2  -4  107.39   17.20
  -3  -2   4  159.18   11.30
  -3  -2   4  130.19    9.60
   2   2  -4  434.06   31.00
   2   2  -4  382.96   32.10
   2   2  -4  411.76   26.30
  -2  -2   4  437.06   25.90
  -2  -2   4  424.16   27.50
   1   2  -4 2220.18  138.49
  -1  -2   4 2308.97  138.39
  -1  -2   4 2379.16  139.09
  -1  -2   4 2339.37  139.39
  -1  -2   4 2262.57  138.69
   0   2  -4  683.13   43.10
   0   2  -4  653.13   45.10
   0  -2   4  656.03   43.80
   0  -2   4  752.82   43.80
   0  -2   4  726.83   43.30
   0  -2   4  742.13   42.90
  -1   2  -4  677.53   47.00
  -1   2  -4  734.23   46.70
  -1   2  -4  701.43   48.70
  -1   2  -4  758.12   46.90
  -1   2  -4  738.63   47.80
   1  -2   4  788.02   46.40
   1  -2   4  776.12   45.80
   1  -2   4  765.52   46.70
   1  -2   4  732.43   46.50
   1  -2   4  693.03   47.70
   1  -2   4  723.93   46.30
   1  -2   4  776.12   45.30
  -2   2  -4 1253.67   75.39
  -2   2  -4 1172.18   78.99
  -2   2  -4 1175.08   76.39
  -2   2  -4 1211.18   77.49
  -2   2  -4 1186.98   76.79
  -2   2  -4 1274.87   76.19
   2  -2   4 1166.58   76.49
   2  -2   4 1321.17   76.29
   2  -2   4 1216.68   75.49
   2  -2   4 1133.59   75.39
   2  -2   4 1327.07   76.69
   2  -2   4 1213.08   75.69
   2  -2   4 1328.37   76.09
   2  -2   4 1289.17   75.19
  -3   2  -4  124.29   23.40
  -3   2  -4  145.59   12.70
  -3   2  -4  131.99   16.70
  -3   2  -4  168.48   14.30
  -3   2  -4  175.58   13.20
  -3   2  -4  152.98   19.20
   3  -2   4  121.39   15.30
   3  -2   4  155.98   15.20
   3  -2   4  186.08   15.40
   3  -2   4  160.18   20.40
   3  -2   4  170.28   14.80
   3  -2   4  148.09   16.40
  -4   2  -4   97.09   10.20
  -4   2  -4   88.59    9.30
  -4   2  -4  106.49   13.60
  -4   2  -4   75.69   20.30
  -4   2  -4   87.69   17.10
  -4   2  -4   86.19   27.10
   4  -2   4  116.89   11.70
   4  -2   4   88.69   11.20
   4  -2   4   84.19   14.40
   4  -2   4   88.09   17.60
   4  -2   4  101.99   13.10
   4  -2   4  113.49   15.90
  -5   2  -4  145.59   28.60
  -5   2  -4  114.59   23.50
  -5   2  -4  187.98   12.50
   5  -2   4  173.28   20.30
   5  -2   4  165.48   13.80
   5  -2   4  152.88   17.90
  -6   2  -4   44.30    7.30
  -6   2  -4   44.90    6.40
   6  -2   4   33.40    8.30
   6  -2   4   35.70    7.60
   6  -2   4   49.99   12.40
   8   1  -4   17.40   10.70
   8   1  -4   14.60    7.00
   7   1  -4  166.48   19.40
   7   1  -4  174.68   15.60
   6   1  -4 1391.26   85.29
   6   1  -4 1305.27   87.29
   6   1  -4 1368.46   84.59
   5   1  -4    7.60   11.30
   5   1  -4   28.00   16.30
   5   1  -4   19.00    8.90
   5   1  -4   34.30    9.30
   4   1  -4 1962.50  116.89
   4   1  -4 1949.10  117.19
   4   1  -4 1877.01  119.39
  -4  -1   4 1800.62  115.39
   3   1  -4 2488.75  148.59
   3   1  -4 2546.55  149.88
  -3  -1   4 2217.68  145.99
   2   1  -4 2334.27  138.99
  -2  -1   4 2444.16  139.89
  -2  -1   4 2192.58  138.79
  -2  -1   4 2286.47  139.49
   1   1  -4  615.84   37.10
   1   1  -4  600.44   38.10
   1   1  -4  579.54   38.80
  -1  -1   4  579.54   37.00
  -1  -1   4  648.54   37.90
  -1  -1   4  635.94   37.80
   0   1  -4  480.95   33.40
   0   1  -4  537.45   31.70
   0   1  -4  506.15   32.50
   0   1  -4  479.95   34.00
   0  -1   4  568.04   32.50
   0  -1   4  491.05   32.20
   0  -1   4  555.34   32.60
   0  -1   4  530.75   31.70
  -1   1  -4  759.62   49.10
  -1   1  -4  735.13   50.09
  -1   1  -4  709.63   64.99
  -1   1  -4  830.92   48.40
  -1   1  -4  728.43   50.79
   1  -1   4  865.51   49.40
   1  -1   4  860.91   49.10
   1  -1   4  839.52   48.50
   1  -1   4  842.32   48.90
  -2   1  -4 1113.09   69.49
  -2   1  -4 1000.20   65.79
  -2   1  -4  994.10   63.49
  -2   1  -4  969.20   64.69
   2  -1   4 1036.80   63.29
   2  -1   4 1012.60   63.79
   2  -1   4 1082.39   62.89
   2  -1   4 1082.89   63.89
   2  -1   4  965.40   63.29
   2  -1   4 1091.19   63.79
  -3   1  -4  787.32   54.09
  -3   1  -4  830.22   50.59
  -3   1  -4  767.62   55.09
  -3   1  -4  814.32   53.39
  -3   1  -4  849.81   50.79
  -3   1  -4  840.52   51.29
  -3   1  -4  840.82   52.49
  -3   1  -4  928.21   51.89
   3  -1   4  785.02   54.39
   3  -1   4  854.11   52.19
   3  -1   4  696.33   51.89
   3  -1   4  926.61   52.69
   3  -1   4  858.91   52.19
   3  -1   4  823.72   52.39
  -4   1  -4 3422.26  200.18
  -4   1  -4 3332.07  207.38
  -4   1  -4 3381.26  200.88
  -4   1  -4 3485.05  200.38
  -4   1  -4 3451.15  203.68
  -4   1  -4 3017.60  202.18
   4  -1   4 3326.07  201.08
   4  -1   4 3373.06  201.78
   4  -1   4 3617.84  201.28
   4  -1   4 3330.87  201.88
   4  -1   4 3036.50  202.88
   4  -1   4 3204.28  204.58
  -5   1  -4  156.28   16.80
  -5   1  -4  161.18   11.90
  -5   1  -4  164.68   31.30
  -5   1  -4  165.48   12.10
  -5   1  -4  152.78   14.00
  -5   1  -4  174.08   13.10
   5  -1   4  132.99   18.70
   5  -1   4  123.19   19.20
   5  -1   4  166.88   13.80
   5  -1   4  165.88   16.20
   5  -1   4  199.28   15.30
  -6   1  -4  571.24   34.80
  -6   1  -4  467.95   34.90
  -6   1  -4  615.74   34.10
  -6   1  -4  583.64   34.70
   6  -1   4  513.95   36.10
   6  -1   4  540.35   36.70
   6  -1   4  530.45   34.90
   6  -1   4  564.54   35.40
  -7   1  -4  104.99    8.60
   7  -1   4   75.69   10.60
   7  -1   4   88.49    9.50
   8   0  -4  243.78   18.30
   8   0  -4  323.47   20.60
   7   0  -4  168.68   19.30
   7   0  -4  178.88   15.50
   6   0  -4 1014.20   72.29
   6   0  -4 1155.68   69.99
   6   0  -4 1146.99   69.19
   5   0  -4  360.86   27.00
   5   0  -4  337.27   31.60
   4   0  -4   27.10   10.20
   4   0  -4    6.70    8.80
   4   0  -4    5.70   14.10
   4   0  -4    5.90    8.40
   4   0  -4   -3.20   15.10
  -3   0   4 1009.90   61.79
   2   0  -4  302.37   20.70
  -2   0   4  336.67   21.40
  -2   0   4  361.96   21.50
  -2   0   4  305.77   21.60
  -2   0   4  368.16   28.30
   1   0  -4 3157.98  174.78
   1   0  -4 3085.89  173.78
  -1   0   4 2749.12  174.58
  -1   0   4 2731.83  173.78
  -1   0   4 2818.02  174.68
  -1   0   4 2854.41  173.68
   0   0  -4 1505.05   87.29
   0   0  -4 1460.25   88.49
   0   0  -4 1458.35   88.79
   0   0   4 1418.96   88.09
   0   0   4 1425.86   87.39
  -1   0  -4 2725.13  163.58
  -1   0  -4 2740.03  162.28
  -1   0  -4 2789.62  163.18
  -1   0  -4 2708.23  163.98
  -1   0  -4 2302.37  169.28
   1   0   4 2705.83  162.68
   1   0   4 2692.13  163.18
   1   0   4 2985.50  162.98
  -2   0  -4 3190.78  186.48
  -2   0  -4 3006.50  187.08
  -2   0  -4 3013.30  187.68
  -2   0  -4 2799.32  203.88
   2   0   4 3036.40  185.88
   2   0   4 3244.78  185.58
   2   0   4 3297.57  185.98
   2   0   4 3134.39  186.48
  -3   0  -4   70.29   60.89
  -3   0  -4   96.09   11.40
  -3   0  -4   86.89    8.90
  -3   0  -4   99.09   13.40
  -3   0  -4  102.09    7.90
  -3   0  -4   99.79    8.80
  -3   0  -4  103.69    7.60
   3   0   4   73.39   12.30
   3   0   4   99.29    9.00
   3   0   4   95.99   12.20
   3   0   4   94.39   17.50
   3   0   4   82.89   11.30
   3   0   4  122.79   15.90
   3   0   4   95.99   10.60
  -4   0  -4  168.88   17.00
  -4   0  -4  166.38   11.70
  -4   0  -4  157.88   13.00
  -4   0  -4  177.48   12.20
  -4   0  -4  162.48   11.80
  -4   0  -4  165.58   20.40
   4   0   4  164.78   16.50
   4   0   4  198.78   15.40
   4   0   4  155.78   19.60
   4   0   4  156.38   15.40
   4   0   4  167.78   14.50
   4   0   4  167.68   15.50
  -5   0  -4    5.20    3.60
  -5   0  -4    1.60   12.30
  -5   0  -4    4.10    3.60
  -5   0  -4    1.80    4.10
  -5   0  -4    2.30    5.10
  -5   0  -4   -5.00   15.80
  -5   0  -4    7.90    6.40
   5   0   4    7.30    6.80
   5   0   4    4.50    9.70
   5   0   4   16.30    7.20
   5   0   4   10.50   13.30
   5   0   4   10.90    6.80
   5   0   4   10.70   10.10
  -6   0  -4  356.26   32.00
  -6   0  -4  385.86   25.80
  -6   0  -4  393.76   24.90
  -6   0  -4  412.46   24.90
  -6   0  -4  422.06   25.70
   6   0   4  396.26   27.60
   6   0   4  415.26   26.80
   6   0   4  353.86   29.40
  -7   0  -4   40.80    7.90
  -7   0  -4   53.09    5.40
  -7   0  -4   44.90    6.20
  -7   0  -4   42.40    6.50
   7   0   4   37.20    9.50
   7   0   4   43.60    8.40
   7   0   4   51.39    9.40
   7  -1  -4  176.78   14.80
   7  -1  -4  149.19   17.20
   7  -1  -4  176.08   15.00
   6  -1  -4  218.58   25.40
   6  -1  -4  251.67   20.60
   6  -1  -4  288.37   21.70
   5  -1  -4  336.07   31.50
   5  -1  -4  364.86   26.40
   5  -1  -4  331.07   25.30
  -5   1   4  346.47   25.40
   4  -1  -4  820.22   56.69
   4  -1  -4  793.02   52.49
   4  -1  -4  870.61   53.59
  -3   1   4   31.10    6.80
  -3   1   4   26.40    4.60
   2  -1  -4   18.70    4.60
  -2   1   4   10.20    2.70
  -2   1   4    8.90    2.30
  -2   1   4   11.10   10.40
  -2   1   4   14.80    3.50
   1  -1  -4 4629.94  255.47
  -1   1   4 3865.41  254.77
  -1   1   4 4252.17  254.77
   0  -1  -4 1058.99   64.89
   0  -1  -4 1052.49   64.89
   0  -1  -4 1089.19   63.89
   0  -1  -4 1116.39   64.99
   0   1   4 1047.90   64.09
   0   1   4 1082.49   63.99
   0   1   4  985.50   64.99
   0   1   4 1026.50   64.09
   0   1   4 1130.49   83.79
  -1  -1  -4  409.56   27.10
  -1  -1  -4  442.36   27.30
  -1  -1  -4  437.66   25.90
  -1  -1  -4  426.86   27.50
   1   1   4  422.26   27.00
   1   1   4  435.66   34.90
  -2  -1  -4 5302.17  304.27
  -2  -1  -4 5106.59  303.67
  -2  -1  -4 5062.79  317.27
  -2  -1  -4 5426.26  303.77
   2   1   4 4627.54  302.87
   2   1   4 5017.50  303.37
   2   1   4 4981.10  302.67
   2   1   4 4922.61  302.27
   2   1   4 4986.20  309.27
  -3  -1  -4   77.59   37.10
  -3  -1  -4   96.09   11.40
  -3  -1  -4  108.49   10.10
  -3  -1  -4   77.89   11.00
  -3  -1  -4  102.99    7.20
  -3  -1  -4   98.79    7.20
   3   1   4   69.59    9.90
   3   1   4   99.69    8.30
   3   1   4   87.59   10.40
  -4  -1  -4  563.94   33.90
  -4  -1  -4  595.24   39.30
  -4  -1  -4  559.54   34.20
  -4  -1  -4  537.25   35.10
  -4  -1  -4  558.74   33.90
  -4  -1  -4  565.04   37.10
  -4  -1  -4  566.34   34.80
  -4  -1  -4  479.15   38.80
   4   1   4  587.44   35.80
   4   1   4  509.15   36.60
   4   1   4  565.14   36.80
   4   1   4  553.84   35.60
   4   1   4  515.15   38.00
  -5  -1  -4  781.42   52.59
  -5  -1  -4  664.63   41.50
  -5  -1  -4  633.24   42.60
  -5  -1  -4  682.43   42.40
  -5  -1  -4  707.13   46.30
  -5  -1  -4  653.53   41.80
  -5  -1  -4  687.23   41.60
   5   1   4  683.63   43.00
   5   1   4  686.13   43.10
   5   1   4  664.63   43.70
   5   1   4  623.24   45.20
  -6  -1  -4  707.33   43.90
  -6  -1  -4  680.83   44.60
  -6  -1  -4  712.83   44.60
  -6  -1  -4  706.53   43.70
  -6  -1  -4  802.92   51.49
   6   1   4  731.43   46.40
   6   1   4  664.53   47.90
   6   1   4  717.73   45.30
  -7  -1  -4   16.80    7.60
  -7  -1  -4   22.00    4.80
  -7  -1  -4   21.80    4.20
  -7  -1  -4   17.10    4.90
   7   1   4   22.40    7.30
   7   1   4   22.40    6.30
   7   1   4    6.70    5.80
   8   1   4  106.89   11.20
   7  -2  -4  222.98   15.20
   7  -2  -4  218.78   18.70
   7  -2  -4  167.58   15.60
   6  -2  -4   69.89   11.80
   6  -2  -4   63.69   16.80
  -6   2   4   70.89   10.40
   5  -2  -4    1.50    7.00
   5  -2  -4  -10.30   11.10
   5  -2  -4    9.60    6.00
  -5   2   4   22.70    8.20
  -5   2   4   19.50    5.90
   4  -2  -4  199.18   19.10
   4  -2  -4  194.58   16.80
   4  -2  -4  216.58   24.50
   4  -2  -4  173.88   18.00
  -4   2   4  219.68   15.30
   3  -2  -4  208.28   17.60
   3  -2  -4  226.08   20.90
  -3   2   4  220.78   14.70
   2  -2  -4  366.26   38.20
   2  -2  -4  390.36   24.40
  -2   2   4  410.06   24.00
  -2   2   4  403.56   23.90
  -2   2   4  340.57   34.80
   1  -2  -4 1552.04   90.69
   1  -2  -4 1507.15  102.79
  -1   2   4 1449.26   90.29
  -1   2   4 1491.95   90.19
  -1   2   4 1478.75   89.89
   0  -2  -4 3035.30  165.98
   0  -2  -4 2879.51  176.78
   0   2   4 2571.84  165.38
   0   2   4 2714.33  165.18
   0   2   4 2575.74  165.48
  -1  -2  -4 4408.96  238.58
  -1  -2  -4 4358.36  238.18
  -1  -2  -4 4274.77  238.28
  -1  -2  -4 3591.94  240.38
  -1  -2  -4 3914.31  241.58
   1   2   4 3448.65  245.38
   1   2   4 3854.81  237.78
   1   2   4 3956.50  238.68
   1   2   4 3877.91  237.88
  -2  -2  -4 2929.41  179.18
  -2  -2  -4 2991.50  166.18
  -2  -2  -4 2994.10  165.88
  -2  -2  -4 2643.54  164.88
   2   2   4 2706.73  165.78
   2   2   4 2665.53  164.98
   2   2   4 2681.43  165.18
   2   2   4 2365.26  165.28
   2   2   4 2752.82  165.08
  -3  -2  -4 4272.07  235.88
  -3  -2  -4 3799.22  233.68
  -3  -2  -4 4328.87  235.28
  -3  -2  -4 4128.29  261.97
   3   2   4 3523.95  234.18
   3   2   4 3695.03  233.88
   3   2   4 3632.64  234.28
   3   2   4 3794.02  234.58
  -4  -2  -4  160.38   15.90
  -4  -2  -4  138.89   13.00
  -4  -2  -4  142.59   10.80
  -4  -2  -4  140.59   11.60
  -4  -2  -4  123.89   21.10
  -4  -2  -4  150.78   10.00
   4   2   4  137.19   16.30
   4   2   4  163.48   25.00
   4   2   4  120.09   19.00
   4   2   4  159.98   14.10
   4   2   4  137.59   16.30
   4   2   4  139.69   12.60
   4   2   4  147.49   17.60
  -5  -2  -4   15.60    8.70
  -5  -2  -4   23.60    4.70
  -5  -2  -4   27.40   13.20
  -5  -2  -4   28.60    5.90
  -5  -2  -4   35.50    5.90
   5   2   4   15.50    8.70
   5   2   4    3.20   12.10
   5   2   4   21.10   11.20
   5   2   4   12.70   10.00
   5   2   4   49.20   14.50
  -6  -2  -4   70.29    7.50
  -6  -2  -4   81.79   10.20
  -6  -2  -4   78.99    9.40
  -6  -2  -4  107.49   25.80
  -6  -2  -4   79.59   16.40
   6   2   4   75.69   14.40
   6   2   4   86.09   15.80
   6   2   4   75.59   12.70
   6   2   4   97.79   12.10
  -7  -2  -4 1354.06   91.79
  -7  -2  -4 1449.55   86.99
  -7  -2  -4 1496.35   87.69
  -7  -2  -4 1498.05   87.09
  -7  -2  -4 1432.76   87.29
  -7  -2  -4 1420.86   87.29
   7   2   4 1387.16   88.49
   7   2   4 1562.64   89.89
   7   2   4 1454.45   88.49
   7   2   4 1343.87   87.99
  -8  -2  -4   59.99    9.80
  -8  -2  -4   59.39    6.10
   8   2   4   48.10   10.70
   8   2   4   80.59   10.50
   7  -3  -4   27.30    7.10
   7  -3  -4   18.00    5.60
   6  -3  -4  294.87   23.00
   6  -3  -4  311.97   19.70
   6  -3  -4  283.47   21.00
  -6   3   4  265.07   19.50
  -6   3   4  233.28   18.70
   5  -3  -4  772.52   45.30
   5  -3  -4  780.72   49.10
   5  -3  -4  705.83   46.60
  -5   3   4  709.33   46.20
  -5   3   4  621.84   43.70
  -5   3   4  671.93   45.20
  -5   3   4  678.43   44.70
   4  -3  -4  572.44   36.70
   4  -3  -4  573.84   41.20
   4  -3  -4  562.94   38.60
   4  -3  -4  503.95   39.50
  -4   3   4  585.84   36.30
   3  -3  -4 4496.85  271.07
   3  -3  -4 4679.53  270.17
   3  -3  -4 4510.65  269.87
   3  -3  -4 4560.54  271.97
  -3   3   4 4525.65  269.47
  -3   3   4 4101.59  268.77
   2  -3  -4  890.41   70.99
  -2   3   4  861.81   53.09
  -2   3   4  878.41   53.59
  -2   3   4  866.81   53.49
   1  -3  -4    8.60    3.90
   1  -3  -4   11.00   13.00
  -1   3   4   11.50    4.00
  -1   3   4   13.00    2.60
  -1   3   4   13.20    3.30
   0  -3  -4  601.04   36.60
   0  -3  -4  631.34   49.00
   0  -3  -4  620.64   36.80
   0  -3  -4  571.84   45.70
   0   3   4  587.74   36.40
   0   3   4  567.14   36.40
   0   3   4  563.04   36.00
  -1  -3  -4   53.49    5.50
  -1  -3  -4   60.89    5.70
  -1  -3  -4   50.99   14.10
  -1  -3  -4   58.89    6.80
  -1  -3  -4   57.29   16.10
   1   3   4   54.19    5.30
   1   3   4   62.29    7.20
   1   3   4   51.59    5.10
  -2  -3  -4  526.25   30.70
  -2  -3  -4  526.85   30.90
  -2  -3  -4  519.95   30.90
  -2  -3  -4  486.85   30.10
  -2  -3  -4  454.85   39.70
   2   3   4  462.55   30.20
   2   3   4  457.35   30.90
   2   3   4  454.35   30.60
   2   3   4  481.15   30.20
  -3  -3  -4   23.00    6.80
  -3  -3  -4   33.60    7.00
  -3  -3  -4   28.70   32.50
  -3  -3  -4   29.50    4.00
   3   3   4   28.30    4.60
   3   3   4   33.30    5.90
   3   3   4   30.90    6.20
  -4  -3  -4 3027.90  174.78
  -4  -3  -4 2948.80  174.28
  -4  -3  -4 2485.95  175.98
  -4  -3  -4 2913.81  173.98
  -4  -3  -4 2918.41  174.68
  -4  -3  -4 3114.09  174.08
   4   3   4 3032.20  175.38
   4   3   4 2863.01  175.18
   4   3   4 2993.60  176.68
   4   3   4 2582.24  175.68
   4   3   4 2617.74  175.58
   4   3   4 3013.70  176.08
   4   3   4 3143.69  176.38
  -5  -3  -4  919.51   55.19
  -5  -3  -4  851.61   52.39
  -5  -3  -4  814.52   52.89
  -5  -3  -4  925.81   57.39
  -5  -3  -4  842.82   52.39
  -5  -3  -4  953.60   55.69
   5   3   4  779.42   55.89
   5   3   4  788.62   56.19
  -6  -3  -4   69.09    9.00
  -6  -3  -4   66.59    8.80
  -6  -3  -4   68.29    7.20
  -6  -3  -4   66.09    7.40
  -6  -3  -4   70.39   15.50
  -6  -3  -4   72.69    7.80
  -6  -3  -4   65.69   19.10
   6   3   4   88.89   13.40
   6   3   4   59.39   12.30
   6   3   4   66.59   15.70
   6   3   4   64.79   12.40
  -7  -3  -4  387.06   24.10
  -7  -3  -4  406.46   31.50
  -7  -3  -4  351.36   23.90
  -7  -3  -4  345.67   24.50
  -7  -3  -4  347.97   23.90
   7   3   4  380.76   25.70
   7   3   4  390.76   25.60
  -8  -3  -4  227.78   13.60
  -8  -3  -4  207.98   14.70
   8   3   4  179.58   17.20
   8   3   4  227.08   16.40
   6  -4  -4    8.50    5.50
   6  -4  -4   16.40    5.50
  -6   4   4   21.30    4.70
  -6   4   4   26.10    6.30
  -6   4   4   14.20    6.80
   5  -4  -4   32.40    9.30
   5  -4  -4   21.60    6.20
  -5   4   4   21.20    5.30
  -5   4   4   19.70    5.40
  -5   4   4   21.50    7.20
   4  -4  -4 1218.88   73.99
   4  -4  -4 1283.87   74.19
   4  -4  -4 1163.68   75.49
   4  -4  -4 1268.77   76.79
  -4   4   4 1219.58   74.29
  -4   4   4 1108.59   73.29
  -4   4   4 1124.79   72.99
  -4   4   4 1171.98   73.69
   3  -4  -4  132.59   19.60
   3  -4  -4   94.99   11.60
   3  -4  -4   88.09   19.70
   3  -4  -4  116.99   13.80
   3  -4  -4  118.99   11.80
  -3   4   4  103.69   10.30
  -3   4   4   99.19    9.20
  -3   4   4  105.19    9.70
  -3   4   4   84.99   11.50
   2  -4  -4  370.66   25.60
   2  -4  -4  353.76   24.60
   2  -4  -4  363.46   25.40
   2  -4  -4  365.26   24.90
  -2   4   4  365.46   23.70
  -2   4   4  368.86   23.40
   1  -4  -4  313.17   37.20
  -1   4   4  333.77   21.70
  -1   4   4  319.87   22.60
  -1   4   4  374.86   22.10
  -1   4   4  363.56   21.90
   0  -4  -4    4.30    4.40
   0  -4  -4    1.00   13.10
   0  -4  -4    0.60    2.50
   0   4   4    4.90    4.20
   0   4   4    0.70    2.40
   0   4   4    1.70    2.90
  -1  -4  -4   69.69   19.20
   1   4   4   83.89    7.10
   1   4   4   79.49    6.60
   1   4   4   71.79    7.80
   1   4   4   82.29    6.90
  -2  -4  -4 5595.24  328.97
  -2  -4  -4 5283.47  328.97
  -2  -4  -4 5824.82  329.37
  -2  -4  -4 5643.74  341.37
  -2  -4  -4 5492.75  329.37
   2   4   4 5736.63  328.67
   2   4   4 5378.66  328.87
   2   4   4 5842.62  330.47
   2   4   4 5039.80  329.07
   2   4   4 4948.90  328.97
  -3  -4  -4  349.77   20.50
  -3  -4  -4  276.77   20.30
  -3  -4  -4  294.87   18.90
  -3  -4  -4  273.47   19.60
  -3  -4  -4  320.27   19.10
  -3  -4  -4  308.87   20.90
  -3  -4  -4  318.27   20.50
   3   4   4  277.07   22.40
   3   4   4  307.77   19.90
   3   4   4  321.57   20.70
   3   4   4  282.87   19.90
   3   4   4  278.67   23.50
   3   4   4  256.17   23.80
   3   4   4  274.37   20.90
   3   4   4  320.67   20.60
  -4  -4  -4  318.97   28.60
  -4  -4  -4  326.27   22.80
  -4  -4  -4  322.17   22.40
  -4  -4  -4  331.47   20.80
  -4  -4  -4  362.76   24.50
  -4  -4  -4  329.57   21.20
  -4  -4  -4  306.77   24.50
   4   4   4  303.87   25.50
   4   4   4  340.27   25.20
   4   4   4  318.97   21.90
   4   4   4  338.87   26.80
   4   4   4  327.97   24.60
  -5  -4  -4  909.31   51.69
  -5  -4  -4  814.42   54.19
  -5  -4  -4  855.81   52.89
  -5  -4  -4  763.32   51.09
  -5  -4  -4  799.82   50.39
   5   4   4  861.11   52.89
   5   4   4  746.23   51.79
   5   4   4  827.82   53.69
  -6  -4  -4   56.39    6.70
  -6  -4  -4   58.89    8.50
  -6  -4  -4   55.89    7.10
  -6  -4  -4   56.99   14.80
  -6  -4  -4   58.39    9.90
  -6  -4  -4   25.80   15.80
   6   4   4   51.39   14.00
   6   4   4   53.99   11.80
   6   4   4   35.20    9.00
  -7  -4  -4    6.80    3.80
  -7  -4  -4    4.10    3.10
  -7  -4  -4   12.40    4.40
  -7  -4  -4    8.50    4.50
  -7  -4  -4   22.00   15.30
   7   4   4    4.70    7.40
   7   4   4   -2.50    6.60
   7   4   4    4.30    5.10
  -8  -4  -4  104.09    8.90
  -8  -4  -4  108.89    9.40
   8   4   4  113.09   10.80
   8   4   4  111.39   12.10
   6  -5  -4   16.10    5.10
   6  -5  -4   14.50    4.00
  -6   5   4   21.80    5.30
   5  -5  -4  425.66   27.00
   5  -5  -4  431.66   29.00
   5  -5  -4  391.76   27.50
  -5   5   4  430.66   26.80
  -5   5   4  403.96   27.30
  -5   5   4  428.76   26.70
   4  -5  -4 1278.27   79.79
   4  -5  -4 1346.97   78.89
   4  -5  -4 1148.19   78.59
   4  -5  -4 1309.37   80.59
   4  -5  -4 1258.17   78.69
  -4   5   4 1351.66   79.19
  -4   5   4 1367.56   84.19
  -4   5   4 1212.18   79.19
  -4   5   4 1251.07   78.29
  -4   5   4 1302.07   78.29
   3  -5  -4  325.87   22.80
   3  -5  -4  318.27   23.00
   3  -5  -4  310.67   24.50
   3  -5  -4  347.17   22.70
   3  -5  -4  347.87   27.90
  -3   5   4  320.27   22.20
  -3   5   4  321.77   25.90
  -3   5   4  326.57   22.20
  -3   5   4  350.06   21.90
  -3   5   4  301.77   25.80
  -3   5   4  305.77   22.90
   2  -5  -4  119.89   13.30
   2  -5  -4  123.69   14.10
  -2   5   4  129.49   11.00
  -2   5   4   92.49   17.10
  -2   5   4  134.29   11.20
  -2   5   4  134.39   11.70
  -2   5   4  128.39   10.60
  -2   5   4  125.59   17.00
   1  -5  -4 1255.77   79.49
   1  -5  -4 1309.57   76.29
   1  -5  -4 1251.67   76.09
   1  -5  -4 1182.78   76.69
   1  -5  -4 1230.48   75.79
   1  -5  -4 1152.78   75.79
  -1   5   4 1207.28   75.89
  -1   5   4 1196.48   77.89
  -1   5   4 1308.37   75.69
  -1   5   4 1340.37   75.99
  -1   5   4 1178.88   77.29
  -1   5   4 1273.77   75.99
   0  -5  -4  722.13   46.50
   0  -5  -4  711.43   43.40
   0  -5  -4  703.83   43.40
   0  -5  -4  676.33   42.90
   0  -5  -4  733.13   42.90
   0   5   4  637.54   44.80
   0   5   4  720.63   43.00
   0   5   4  710.23   42.90
   0   5   4  576.84   43.00
   0   5   4  727.43   42.60
   0   5   4  638.74   45.10
  -1  -5  -4   29.00    6.50
  -1  -5  -4   19.80   10.40
  -1  -5  -4   30.50    7.70
  -1  -5  -4   27.80    8.00
  -1  -5  -4   21.70   22.50
  -1  -5  -4    6.20    8.00
  -1  -5  -4   19.30    5.00
   1   5   4   16.10    6.40
   1   5   4   28.90    5.50
   1   5   4   39.10    6.10
   1   5   4   40.10    9.00
   1   5   4   13.90    7.50
   1   5   4   20.40    5.10
  -2  -5  -4  239.18   18.60
  -2  -5  -4  239.78   17.40
  -2  -5  -4  214.18   17.00
  -2  -5  -4  220.78   17.30
  -2  -5  -4  241.28   16.20
  -2  -5  -4  211.78   43.50
  -2  -5  -4  207.98   20.70
   2   5   4  253.87   16.60
   2   5   4  230.88   32.40
   2   5   4  255.97   19.80
   2   5   4  209.48   18.50
   2   5   4  244.18   16.70
   2   5   4  259.17   16.50
   2   5   4  230.68   18.30
  -3  -5  -4 1390.36   78.69
  -3  -5  -4 1230.58   78.19
  -3  -5  -4 1252.37   78.89
  -3  -5  -4 1287.97   78.89
  -3  -5  -4 1236.48   77.69
  -3  -5  -4 1226.28   78.89
  -3  -5  -4 1213.48   77.49
  -3  -5  -4 1249.18   77.59
  -3  -5  -4 1389.96   79.59
   3   5   4 1261.57   79.99
   3   5   4 1322.17   78.89
   3   5   4 1272.77   79.59
   3   5   4 1352.76   78.89
   3   5   4 1248.58   78.59
  -4  -5  -4   41.90    5.90
  -4  -5  -4   43.80   12.20
  -4  -5  -4   47.20    6.50
  -4  -5  -4   37.40   11.00
  -4  -5  -4   42.40   10.10
  -4  -5  -4   40.10    9.50
   4   5   4   63.39   16.70
   4   5   4   53.49    8.00
   4   5   4   81.29   24.20
   4   5   4   31.20    9.10
   4   5   4   46.70   10.70
  -5  -5  -4 1883.71  107.59
  -5  -5  -4 1742.73  107.49
  -5  -5  -4 1753.22  110.49
  -5  -5  -4 1789.92  107.39
  -5  -5  -4 1859.81  109.39
   5   5   4 1707.73  110.69
   5   5   4 1809.52  108.99
   5   5   4 1947.61  110.19
   5   5   4 1511.55  108.59
  -6  -5  -4  179.68   14.00
  -6  -5  -4  212.98   13.80
  -6  -5  -4  201.28   13.80
  -6  -5  -4  178.58   19.50
   6   5   4  196.18   17.20
   6   5   4  209.68   18.80
  -7  -5  -4   53.99    7.70
  -7  -5  -4   56.09    6.50
  -7  -5  -4   62.99    8.40
   7   5   4   71.99   10.30
  -8  -5  -4   67.89    6.80
  -8  -5  -4   73.49    6.70
  -8  -5  -4   94.49    8.20
   5  -6  -4   10.70    3.30
   5  -6  -4   21.50    5.00
   5  -6  -4   12.60    4.70
  -5   6   4   14.10    3.30
  -5   6   4   11.50    4.10
   4  -6  -4   58.49    6.60
   4  -6  -4   64.79    8.90
   4  -6  -4   60.09   11.30
  -4   6   4   57.49    8.00
  -4   6   4   60.59    8.30
  -4   6   4   75.89    9.70
  -4   6   4   64.59    7.20
   3  -6  -4  117.99   10.30
   3  -6  -4   97.49   11.40
   3  -6  -4  138.39   16.00
   3  -6  -4  120.99   13.00
   3  -6  -4  130.29   10.40
  -3   6   4  106.69   11.40
  -3   6   4  112.09   12.30
  -3   6   4  117.89   10.40
  -3   6   4  121.09   10.60
   2  -6  -4  288.47   19.60
   2  -6  -4  273.57   20.70
   2  -6  -4  230.38   21.30
   2  -6  -4  280.27   22.10
   2  -6  -4  294.47   19.50
  -2   6   4  253.97   20.40
  -2   6   4  296.87   19.20
  -2   6   4  265.77   25.30
  -2   6   4  283.87   19.30
  -2   6   4  281.17   19.80
  -2   6   4  282.27   21.30
  -2   6   4  278.77   21.90
   1  -6  -4   36.20    7.30
   1  -6  -4   36.80    7.60
   1  -6  -4   41.10   10.30
  -1   6   4   38.60    8.80
  -1   6   4   28.60    9.30
  -1   6   4   35.20    6.90
  -1   6   4   32.80    6.20
  -1   6   4   25.80    6.90
  -1   6   4   40.50    7.80
   0  -6  -4  991.90   59.89
   0  -6  -4  859.11   59.69
   0   6   4 1004.10   59.89
   0   6   4 1009.20   59.89
   0   6   4  960.00   59.89
   0   6   4  979.70   59.49
  -1  -6  -4 1120.89   74.99
  -1  -6  -4 1143.89   74.89
  -1  -6  -4 1241.78   75.09
  -1  -6  -4 1284.17   75.19
  -1  -6  -4 1190.68   75.09
   1   6   4 1243.68   75.19
   1   6   4 1296.27   75.09
   1   6   4 1246.38   75.39
   1   6   4 1253.77   74.89
   1   6   4 1225.78   75.59
   1   6   4 1216.98   76.29
  -2  -6  -4  285.17   21.80
  -2  -6  -4  304.47   20.70
  -2  -6  -4  298.07   20.60
  -2  -6  -4  292.97   20.80
   2   6   4  270.97   24.00
   2   6   4  307.37   21.50
   2   6   4  296.87   21.70
   2   6   4  312.77   23.00
   2   6   4  318.97   21.70
   2   6   4  321.57   21.00
   2   6   4  331.77   21.50
  -3  -6  -4 1193.98   78.39
  -3  -6  -4 1159.78   77.29
  -3  -6  -4 1383.96   78.89
  -3  -6  -4 1166.38   77.89
   3   6   4 1265.57   78.39
   3   6   4 1391.06   78.89
   3   6   4 1335.37   78.79
  -4  -6  -4  892.51   61.99
  -4  -6  -4 1020.40   62.19
  -4  -6  -4 1100.59   64.79
  -4  -6  -4 1042.80   62.89
  -4  -6  -4  923.51   63.29
  -4  -6  -4 1062.89   63.19
  -4  -6  -4  994.80   62.09
   4   6   4 1039.30   65.59
   4   6   4 1052.29   64.19
   4   6   4 1010.80   63.59
   4   6   4 1011.10   64.39
   4   6   4 1021.00   64.19
   4   6   4 1071.29   66.69
  -5  -6  -4  203.78   16.90
  -5  -6  -4  252.87   16.80
  -5  -6  -4  268.07   18.30
  -5  -6  -4  272.97   29.60
  -5  -6  -4  198.38   22.70
  -5  -6  -4  255.67   17.70
   5   6   4  251.87   19.30
   5   6   4  271.97   21.80
   5   6   4  271.77   26.20
   5   6   4  236.58   20.00
  -6  -6  -4  318.17   20.40
  -6  -6  -4  310.57   19.40
  -6  -6  -4  251.67   26.60
  -6  -6  -4  278.87   19.40
   6   6   4  280.07   29.70
   6   6   4  328.87   22.00
  -7  -6  -4   10.10    3.00
  -7  -6  -4   21.60    4.50
   7   6   4   13.40    5.00
   7   6   4   14.90    5.30
   4  -7  -4   27.90    6.80
   4  -7  -4   24.00    3.50
   4  -7  -4   16.20    6.10
  -4   7   4   20.50    4.50
  -4   7   4   28.10    4.90
  -4   7   4   24.60    4.40
  -4   7   4   26.10    8.10
   3  -7  -4  447.66   30.60
   3  -7  -4  456.35   30.10
   3  -7  -4  445.16   31.30
   3  -7  -4  519.15   32.40
  -3   7   4  513.75   32.60
  -3   7   4  528.45   31.40
  -3   7   4  484.25   30.80
  -3   7   4  508.85   30.90
  -3   7   4  491.85   30.50
   2  -7  -4  460.65   30.70
   2  -7  -4  491.65   30.80
   2  -7  -4  397.56   34.20
  -2   7   4  498.45   30.80
  -2   7   4  468.65   31.20
  -2   7   4  531.45   33.60
  -2   7   4  505.75   30.40
  -2   7   4  473.55   31.30
   1  -7  -4  646.74   44.60
   1  -7  -4  741.33   44.90
   1  -7  -4  694.23   44.70
   1  -7  -4  703.83   45.90
  -1   7   4  656.23   45.60
  -1   7   4  745.73   45.40
  -1   7   4  755.82   47.10
  -1   7   4  731.73   44.70
  -1   7   4  761.12   44.90
  -1   7   4  690.83   46.10
  -1   7   4  749.92   46.00
   0  -7  -4    4.50    3.90
   0  -7  -4    8.70    6.40
   0  -7  -4    0.80    4.80
   0   7   4    9.10    5.30
   0   7   4   -6.20    5.30
   0   7   4    6.00    6.20
   0   7   4   -9.30    7.80
   0   7   4    3.10    6.30
   0   7   4   -1.10    5.40
   0   7   4    6.20    5.90
  -1  -7  -4  275.67   18.30
  -1  -7  -4  212.78   18.50
  -1  -7  -4  225.58   18.80
  -1  -7  -4  251.17   19.50
  -1  -7  -4  258.67   18.70
   1   7   4  256.07   19.10
   1   7   4  259.07   18.20
   1   7   4  285.37   18.50
   1   7   4  274.67   20.90
   1   7   4  235.98   22.20
   1   7   4  245.88   24.90
   1   7   4  249.28   19.40
   1   7   4  267.57   19.20
  -2  -7  -4   23.50    7.00
  -2  -7  -4   18.80    5.10
  -2  -7  -4   16.50    5.30
  -2  -7  -4   17.50    5.80
  -2  -7  -4   25.70    8.20
   2   7   4   29.20    6.50
   2   7   4   18.10    8.60
   2   7   4   29.60   11.70
   2   7   4   10.90    9.10
   2   7   4   27.20    7.70
   2   7   4   28.10    6.70
   2   7   4   17.00    6.60
  -3  -7  -4  224.08   16.60
  -3  -7  -4  241.28   16.40
  -3  -7  -4  193.48   16.90
  -3  -7  -4  236.78   18.80
  -3  -7  -4  201.18   15.50
   3   7   4  229.58   19.80
   3   7   4  235.68   21.70
   3   7   4  214.58   17.40
   3   7   4  213.08   18.30
   3   7   4  227.18   19.80
  -4  -7  -4  782.02   47.90
  -4  -7  -4  822.72   48.90
  -4  -7  -4  709.23   49.90
  -4  -7  -4  822.82   49.00
  -4  -7  -4  809.72   50.09
   4   7   4  822.22   50.59
   4   7   4  655.03   50.29
   4   7   4  815.92   51.69
   4   7   4  777.92   50.29
  -5  -7  -4  943.51   53.79
  -5  -7  -4  880.91   52.79
  -5  -7  -4  798.02   52.89
   5   7   4  902.11   54.59
   5   7   4  798.02   54.59
  -6  -7  -4  422.86   26.30
  -6  -7  -4  413.26   26.40
  -6  -7  -4  389.66   27.30
  -6  -7  -4  406.06   25.50
   6   7   4  416.66   27.30
  -7  -7  -4   90.99    7.60
  -7  -7  -4  100.09    7.50
  -7  -7  -4   84.69    7.20
   7   7   4   89.99   10.80
   7   7   4   95.19    9.20
   2  -8  -4  186.18   14.20
   2  -8  -4  171.28   12.00
   2  -8  -4  175.78   15.10
  -2   8   4  185.48   12.80
  -2   8   4  173.08   12.60
   1  -8  -4  123.29   10.40
   1  -8  -4  135.59   12.30
   1  -8  -4  127.69   11.50
  -1   8   4  135.39   10.50
  -1   8   4  129.29   11.00
  -1   8   4  155.58   13.90
  -1   8   4  144.19   11.50
  -1   8   4  125.39   13.40
   0  -8  -4   77.39   10.20
   0  -8  -4   70.69   10.40
   0  -8  -4   61.09    8.20
   0  -8  -4   82.39    8.60
   0   8   4   63.29   10.40
   0   8   4   95.99   13.40
   0   8   4   60.29   11.70
   0   8   4   60.39    9.30
   0   8   4   78.79    9.00
  -1  -8  -4   58.29    8.30
  -1  -8  -4   71.69    7.80
  -1  -8  -4   57.19   11.00
   1   8   4   95.69   12.70
   1   8   4   91.39   23.90
   1   8   4   73.79    9.90
   1   8   4   75.89   10.00
   1   8   4   81.69   10.50
  -2  -8  -4 1172.88   69.99
  -2  -8  -4 1062.19   69.99
   2   8   4 1223.48   75.99
   2   8   4 1069.69   70.49
   2   8   4 1186.88   71.39
  -3  -8  -4  112.09   12.40
  -3  -8  -4  138.79   11.00
   3   8   4  106.09   19.60
   3   8   4  136.59   13.00
   3   8   4  163.28   21.10
  -4  -8  -4   13.30    6.30
  -4  -8  -4   14.50    6.80
  -4  -8  -4    6.70    3.50
  -4  -8  -4    9.20    4.20
   4   8   4   13.60    8.00
   4   8   4    8.40   11.30
   4   8   4    5.20    8.00
   4   8   4    7.80    6.90
  -5  -8  -4   14.30    3.40
  -5  -8  -4   11.10    3.90
   5   8   4    8.90    5.50
  -6  -8  -4    0.20    2.40
  -6  -8  -4    1.80    2.60
  -6  -8  -4    0.50    4.40
   6   8   4   -5.80    6.10
   6   8   4   -2.50    4.40
   1  -9  -4   56.79    4.60
  -1   9   4   40.00    6.30
  -1   9   4   47.00    4.70
   0  -9  -4  447.66   27.20
   0  -9  -4  401.16   27.10
   0   9   4  455.35   28.00
   0   9   4  439.56   27.40
  -1  -9  -4   29.70    4.40
  -1  -9  -4   20.60    5.30
   1   9   4   33.70    6.10
   1   9   4   42.80   10.30
   1   9   4   60.39   16.20
   1   9   4   20.30    4.80
  -2  -9  -4   42.20    5.60
  -2  -9  -4   48.90    7.20
  -2  -9  -4   55.29   10.10
   2   9   4   46.80    8.60
   2   9   4   63.39   12.60
   2   9   4   54.39    7.40
  -3  -9  -4    2.80    4.50
  -3  -9  -4    4.90    2.50
  -3  -9  -4   -7.20    6.40
  -3  -9  -4    1.30    3.60
   3   9   4   12.90    5.90
   3   9   4   10.20    5.00
  -4  -9  -4  334.37   22.80
  -4  -9  -4  378.36   22.50
  -4  -9  -4  312.57   23.50
   4   9   4  385.76   28.50
   4   9   4  381.46   23.80
  -5  -9  -4    4.20    2.30
  -5  -9  -4    1.50    2.10
   5   9   4   -0.40    3.40
   4   6  -5   -6.40    5.60
  -4  -6   5    1.90    4.40
  -4  -6   5    3.30    2.40
  -4  -6   5    6.80    4.90
   3   6  -5  181.88   13.40
  -3  -6   5  143.79   12.90
  -3  -6   5  175.98   11.80
  -3  -6   5  171.88   12.20
  -3  -6   5  161.88   13.40
   2   6  -5  570.74   33.60
   2   6  -5  496.85   42.30
  -2  -6   5  490.05   32.90
  -2  -6   5  517.65   32.70
  -2  -6   5  488.95   33.20
  -2  -6   5  563.64   32.50
   1   6  -5   29.70    7.00
   1   6  -5   22.50    7.00
   1   6  -5   47.90   11.90
  -1  -6   5   17.00   12.50
  -1  -6   5   27.60    6.20
  -1  -6   5   34.10    7.30
  -1  -6   5   26.80    5.20
   0   6  -5  455.95   28.60
   0   6  -5  485.65   31.80
   0  -6   5  361.76   28.30
   0  -6   5  437.46   27.90
   0  -6   5  436.86   27.80
   6   5  -5  459.25   29.00
   6   5  -5  429.86   29.30
   5   5  -5  325.27   24.50
   5   5  -5  348.17   26.10
  -5  -5   5  390.56   23.50
  -5  -5   5  336.87   22.80
   4   5  -5  331.07   21.80
   4   5  -5  291.97   22.90
   4   5  -5  274.87   25.40
  -4  -5   5  316.47   20.60
  -4  -5   5  320.47   20.10
   3   5  -5    8.90    4.40
   3   5  -5   10.10    8.40
   3   5  -5   16.60   11.80
  -3  -5   5    3.70    4.50
  -3  -5   5    3.10    4.40
  -3  -5   5    7.70    4.00
  -3  -5   5    5.10    6.90
   2   5  -5  507.45   33.10
   2   5  -5  490.45   32.60
   2   5  -5  499.75   34.20
   2   5  -5  481.45   36.10
  -2  -5   5  511.15   32.00
  -2  -5   5  529.95   32.10
  -2  -5   5  482.15   32.40
   1   5  -5  142.79   15.00
   1   5  -5  178.78   14.30
   1   5  -5  143.89   13.90
   1   5  -5  174.78   30.50
  -1  -5   5  166.08   13.20
  -1  -5   5  168.68   12.90
  -1  -5   5  160.18   13.40
  -1  -5   5  145.69   12.40
  -1  -5   5  174.18   14.90
   0   5  -5   71.09   10.70
   0   5  -5   91.79   10.90
   0  -5   5   90.19   10.70
   0  -5   5   80.99   10.30
   0  -5   5   75.69    9.50
   0  -5   5   82.79    8.30
   0  -5   5  102.09   13.50
  -1   5  -5  168.28   14.60
  -1   5  -5  175.58   13.70
  -1   5  -5  161.38   15.40
   1  -5   5  172.58   12.50
   1  -5   5  163.18   14.00
   1  -5   5  158.08   15.60
   1  -5   5  184.48   13.80
  -2   5  -5  100.89   12.30
   2  -5   5  159.98   18.10
   2  -5   5  125.49   10.60
   2  -5   5  122.09   10.30
   6   4  -5  -11.60    7.30
   6   4  -5    1.10    5.50
   5   4  -5  158.98   15.20
   5   4  -5  172.38   16.20
  -5  -4   5  150.58   13.30
  -5  -4   5  150.48   11.60
   4   4  -5   84.99   15.40
   4   4  -5  104.19   15.70
  -4  -4   5   90.39   12.70
  -4  -4   5   96.69   10.40
  -4  -4   5  116.29    8.90
   3   4  -5   85.89   15.40
   3   4  -5   46.30   11.80
   3   4  -5   58.19    9.90
  -3  -4   5   57.39    7.90
  -3  -4   5   56.59   10.40
  -3  -4   5   52.59   11.60
  -3  -4   5   57.49    6.80
   2   4  -5  107.59   18.10
   2   4  -5  102.59   13.30
   2   4  -5  115.29   13.70
   2   4  -5   99.59   11.20
  -2  -4   5   87.89   11.30
  -2  -4   5   77.49   11.80
  -2  -4   5   80.29   12.70
  -2  -4   5   94.89    8.50
  -2  -4   5   89.29   12.70
   1   4  -5   80.59   10.60
   1   4  -5   58.19   13.90
   1   4  -5   87.39   12.00
   1   4  -5   60.69   11.30
  -1  -4   5   77.99    8.10
  -1  -4   5   71.69   12.40
  -1  -4   5   76.99   10.10
  -1  -4   5   79.29   11.30
   0   4  -5  306.87   24.10
   0   4  -5  320.27   23.10
   0   4  -5  341.97   23.50
   0  -4   5  336.87   22.00
   0  -4   5  332.27   24.30
   0  -4   5  338.07   23.20
   0  -4   5  295.97   24.60
   0  -4   5  319.97   22.30
   0  -4   5  348.17   22.60
  -1   4  -5    6.40    5.30
  -1   4  -5    8.00    7.30
  -1   4  -5    8.20    5.20
   1  -4   5   13.00    5.80
   1  -4   5   11.50    4.90
   1  -4   5   21.90    8.50
   1  -4   5   14.30    6.10
   1  -4   5    5.60    6.60
  -2   4  -5   63.09   10.40
  -2   4  -5   75.19   14.50
  -2   4  -5   86.79   13.10
   2  -4   5  100.29   14.20
   2  -4   5   64.89    9.90
   2  -4   5   82.39    9.70
   2  -4   5   63.99   11.50
   2  -4   5   73.29   10.10
  -3   4  -5   96.49   10.20
  -3   4  -5   74.19   13.20
   3  -4   5   82.89    9.70
   3  -4   5   99.89   11.80
   3  -4   5   85.49   12.20
   3  -4   5   81.19   10.60
   4  -4   5  110.09   10.30
   4  -4   5  124.29    9.70
   7   3  -5   29.40    7.30
   6   3  -5  378.86   27.90
   6   3  -5  405.36   35.60
   6   3  -5  418.66   28.60
   5   3  -5   -8.60    8.00
   5   3  -5   -4.20    6.80
  -5  -3   5   11.30    4.50
   4   3  -5  932.71   59.09
   4   3  -5 1007.70   59.09
   4   3  -5  879.31   56.99
  -4  -3   5  817.32   57.79
  -4  -3   5  893.91   55.19
   3   3  -5   15.20    9.20
   3   3  -5   15.30    5.90
   3   3  -5    6.70   10.00
  -3  -3   5   15.60    3.60
  -3  -3   5   20.60    5.60
  -3  -3   5    9.40    7.10
   2   3  -5  197.78   17.20
   2   3  -5  198.88   23.60
   2   3  -5  193.68   20.60
   2   3  -5  210.28   16.90
   2   3  -5  204.28   15.90
  -2  -3   5  153.08   19.20
  -2  -3   5  195.48   13.40
  -2  -3   5  200.28   14.70
   1   3  -5   36.30    7.00
   1   3  -5   47.70   12.00
   1   3  -5   35.20    8.00
   1   3  -5   31.70   15.80
   1   3  -5   36.90    8.90
  -1  -3   5   39.30    5.70
  -1  -3   5   56.29   11.70
  -1  -3   5   57.79    7.50
  -1  -3   5   53.29   13.90
  -1  -3   5   44.90    9.80
   0   3  -5  242.98   18.30
   0   3  -5  226.68   17.70
   0   3  -5  196.58   22.70
   0   3  -5  214.18   18.60
   0  -3   5  211.38   20.00
   0  -3   5  242.88   18.10
   0  -3   5  249.88   16.80
   0  -3   5  249.38   15.90
   0  -3   5  234.28   17.50
  -1   3  -5   10.20    5.50
  -1   3  -5    6.50    5.40
  -1   3  -5   31.20   13.20
  -1   3  -5    6.10    8.30
   1  -3   5   13.90    6.60
   1  -3   5   10.60    6.90
   1  -3   5   17.40   10.20
   1  -3   5    7.40    5.90
   1  -3   5    4.00    5.90
   1  -3   5    4.90    6.30
   1  -3   5    9.30    5.60
  -2   3  -5  959.00   63.49
  -2   3  -5  998.90   62.19
  -2   3  -5  964.10   66.29
  -2   3  -5 1035.70   62.69
  -2   3  -5  970.60   62.69
   2  -3   5  974.70   62.99
   2  -3   5 1104.39   62.99
   2  -3   5 1010.30   62.29
   2  -3   5 1004.30   62.99
   2  -3   5 1084.09   63.99
   2  -3   5  945.51   64.59
  -3   3  -5  145.89   17.80
  -3   3  -5  157.68   21.30
  -3   3  -5  141.89   16.30
   3  -3   5  160.68   16.70
   3  -3   5  134.59   13.50
   3  -3   5  126.19   13.70
  -4   3  -5  514.35   30.30
  -4   3  -5  449.56   33.20
  -4   3  -5  516.45   30.90
  -4   3  -5  489.85   31.30
   4  -3   5  498.85   30.90
   4  -3   5  455.25   30.90
   4  -3   5  449.16   31.60
   4  -3   5  395.96   31.30
  -5   3  -5   16.80    9.60
  -5   3  -5    3.30   22.80
  -5   3  -5   15.20    4.90
   5  -3   5   20.60    6.60
   5  -3   5    7.00    8.40
   5  -3   5   11.00    4.60
   7   2  -5  166.08   18.50
   6   2  -5  421.36   29.30
   6   2  -5  384.86   28.60
   6   2  -5  359.46   34.70
   5   2  -5  320.07   26.50
   5   2  -5  320.87   38.40
   5   2  -5  316.77   25.60
   4   2  -5 2416.26  138.49
   4   2  -5 2272.97  138.59
  -4  -2   5 2049.70  137.39
  -4  -2   5 2281.57  135.69
   3   2  -5 1733.93  103.39
  -3  -2   5 1699.83  103.69
  -3  -2   5 1649.23  101.99
   2   2  -5 1411.26   88.09
   2   2  -5 1410.76   87.09
   2   2  -5 1175.48   86.39
   2   2  -5 1452.45   85.79
   2   2  -5 1489.75   85.69
  -2  -2   5 1457.95   84.39
  -2  -2   5 1377.16   84.79
   1   2  -5  464.55   33.00
   1   2  -5  467.55   29.10
   1   2  -5  412.16   35.70
   1   2  -5  409.86   29.80
   1   2  -5  460.35   29.60
  -1  -2   5  454.95   31.20
  -1  -2   5  434.96   28.10
  -1  -2   5  455.35   27.50
  -1  -2   5  428.26   29.30
   0   2  -5  260.57   22.70
   0   2  -5  284.67   20.10
   0   2  -5  291.77   29.60
   0   2  -5  223.08   33.40
   0   2  -5  276.97   20.60
   0   2  -5  286.37   19.90
   0  -2   5  289.17   19.10
   0  -2   5  294.57   18.30
   0  -2   5  299.67   20.40
   0  -2   5  301.27   21.40
   0  -2   5  282.07   20.50
  -1   2  -5  693.93   43.10
  -1   2  -5  641.24   45.40
  -1   2  -5  659.53   43.60
  -1   2  -5  665.13   43.20
   1  -2   5  677.63   43.50
   1  -2   5  731.93   43.20
   1  -2   5  633.34   43.70
   1  -2   5  697.33   42.50
   1  -2   5  707.63   41.90
   1  -2   5  673.03   42.80
  -2   2  -5  273.57   25.00
  -2   2  -5  310.27   22.70
  -2   2  -5  317.77   21.10
  -2   2  -5  286.87   22.20
  -2   2  -5  313.37   21.90
  -2   2  -5  269.17   26.60
   2  -2   5  324.87   22.00
   2  -2   5  342.77   21.80
   2  -2   5  322.07   21.60
   2  -2   5  305.67   21.60
   2  -2   5  285.57   22.10
   2  -2   5  270.57   25.50
  -3   2  -5  217.18   16.30
  -3   2  -5  195.08   22.60
  -3   2  -5  197.88   28.90
  -3   2  -5  226.58   17.40
  -3   2  -5  207.78   20.60
  -3   2  -5  227.48   18.50
   3  -2   5  210.68   22.30
   3  -2   5  210.58   20.30
   3  -2   5  212.98   17.90
   3  -2   5  179.68   17.70
   3  -2   5  229.98   19.00
   3  -2   5  225.98   17.80
  -4   2  -5    0.80    6.30
  -4   2  -5   10.00   13.60
  -4   2  -5    9.70    4.80
  -4   2  -5    1.90   11.90
   4  -2   5    6.10    8.00
   4  -2   5   -2.40    6.80
   4  -2   5   -6.30    7.80
   4  -2   5   -2.30    5.90
  -5   2  -5  247.68   17.50
  -5   2  -5  261.37   24.90
  -5   2  -5  267.77   17.20
   5  -2   5  241.28   19.60
   5  -2   5  251.77   18.20
   5  -2   5  240.18   18.70
   7   1  -5  265.67   23.30
   7   1  -5  265.17   23.20
   6   1  -5   -5.40   17.90
   5   1  -5  568.34   38.50
   5   1  -5  548.95   38.80
   5   1  -5  535.15   45.60
   4   1  -5   23.60   10.50
   4   1  -5   29.50   12.90
  -4  -1   5    9.40   11.10
   3   1  -5  274.97   22.30
   3   1  -5  251.67   20.30
   3   1  -5  269.27   22.30
   2   1  -5  291.47   20.60
   2   1  -5  340.87   26.10
   2   1  -5  324.67   24.90
   2   1  -5  311.17   21.90
   2   1  -5  323.17   23.30
  -2  -1   5  320.77   22.30
  -2  -1   5  331.47   19.90
   1   1  -5   34.10    4.50
   1   1  -5   16.70    4.80
   1   1  -5   54.89   13.30
   1   1  -5   25.00   10.80
   1   1  -5   25.60    6.10
  -1  -1   5   34.60    3.70
  -1  -1   5   25.00    5.90
  -1  -1   5   25.70    4.80
   0   1  -5  844.62   54.39
   0   1  -5  869.11   54.89
   0   1  -5  901.71   53.99
   0   1  -5  851.21   52.69
   0   1  -5  768.22   62.69
   0   1  -5  848.92   53.69
   0   1  -5  871.91   54.19
   0  -1   5  915.31   52.59
   0  -1   5  886.11   53.79
   0  -1   5  880.71   52.99
  -1   1  -5  514.15   49.80
  -1   1  -5  579.44   38.80
  -1   1  -5  613.04   41.80
  -1   1  -5  656.83   38.80
  -1   1  -5  601.14   39.40
  -1   1  -5  564.54   41.20
   1  -1   5  617.14   37.80
   1  -1   5  640.04   38.70
   1  -1   5  670.93   39.30
   1  -1   5  637.14   37.30
   1  -1   5  560.54   39.60
   1  -1   5  588.14   38.70
  -2   1  -5 1878.51  112.79
  -2   1  -5 1603.74  115.49
  -2   1  -5 1754.72  114.49
  -2   1  -5 1944.51  112.99
  -2   1  -5 1921.81  112.49
  -2   1  -5 1787.22  112.99
  -2   1  -5 1871.41  113.49
   2  -1   5 1843.12  113.29
   2  -1   5 1870.31  112.79
   2  -1   5 1875.71  113.39
   2  -1   5 1934.41  112.19
   2  -1   5 1814.42  112.49
   2  -1   5 2004.80  112.99
  -3   1  -5  662.23   40.20
  -3   1  -5  570.04   51.69
  -3   1  -5  661.93   41.60
  -3   1  -5  698.33   39.30
  -3   1  -5  560.24   42.50
  -3   1  -5  694.63   40.00
   3  -1   5  635.24   42.70
   3  -1   5  559.14   40.30
   3  -1   5  572.64   41.30
   3  -1   5  554.04   39.90
   3  -1   5  612.74   40.20
   3  -1   5  654.83   40.20
  -4   1  -5  503.25   32.90
  -4   1  -5  510.45   34.40
  -4   1  -5  503.65   37.80
  -4   1  -5  510.25   36.40
  -4   1  -5  477.85   43.40
  -4   1  -5  545.25   32.60
  -4   1  -5  507.45   32.00
   4  -1   5  528.15   35.80
   4  -1   5  565.94   33.90
   4  -1   5  513.45   34.20
   4  -1   5  465.35   36.20
   4  -1   5  434.46   34.20
  -5   1  -5   21.30   12.60
  -5   1  -5   11.60   13.90
  -5   1  -5   11.90    5.70
  -5   1  -5   -3.40    7.40
   5  -1   5   -1.00   10.40
   5  -1   5    1.50    9.80
   5  -1   5    9.90   11.60
  -6   1  -5 1142.19   65.89
  -6   1  -5 1154.18   65.99
   6  -1   5 1059.19   66.19
   6  -1   5 1009.60   66.89
   6  -1   5 1039.10   66.59
   7   0  -5  200.68   15.70
   7   0  -5  175.98   18.70
   6   0  -5    8.50   11.00
   6   0  -5    4.30    8.20
   5   0  -5  144.29   20.30
   5   0  -5  154.88   26.90
   5   0  -5  141.69   18.70
   5   0  -5  115.09   23.40
   5   0  -5  144.59   19.00
   4   0  -5  -14.80   16.30
   4   0  -5   13.80   11.30
   4   0  -5   11.10    8.60
   4   0  -5   21.00   11.40
   3   0  -5  252.07   23.90
   3   0  -5  283.27   24.30
   3   0  -5  298.57   23.80
   2   0  -5  201.28   12.40
   2   0  -5  158.68   22.40
   2   0  -5  204.38   22.30
  -2   0   5  180.68   14.80
  -2   0   5  187.68   14.60
   1   0  -5  435.86   27.60
   1   0  -5  453.05   29.50
  -1   0   5  482.65   29.10
  -1   0   5  426.66   29.30
  -1   0   5  457.65   27.50
   0   0  -5 1869.81  114.39
   0   0  -5 1932.31  114.49
   0   0  -5 1862.91  112.89
   0   0   5 1825.12  113.29
   0   0   5 1842.72  114.09
   0   0   5 1853.51  112.99
   0   0   5 1971.90  114.09
  -1   0  -5  252.37   18.40
  -1   0  -5  247.58   19.20
  -1   0  -5  258.17   15.90
  -1   0  -5  217.18   18.10
   1   0   5  248.88   16.60
   1   0   5  261.27   17.40
   1   0   5  253.17   17.20
   1   0   5  250.57   15.90
  -2   0  -5  130.99   12.60
  -2   0  -5  112.19   14.40
  -2   0  -5  116.69   15.10
  -2   0  -5  104.39    9.40
  -2   0  -5  105.79   13.80
  -2   0  -5  112.79   11.70
  -2   0  -5  119.79   12.80
  -2   0  -5  130.39   12.40
   2   0   5  112.89    9.80
   2   0   5  102.39   11.80
   2   0   5  131.89   13.00
   2   0   5  110.39   10.20
   2   0   5  104.79   11.30
   2   0   5  118.79    9.10
  -3   0  -5  141.89   12.10
  -3   0  -5  130.29   15.50
  -3   0  -5  122.89   18.90
  -3   0  -5  140.19   14.90
  -3   0  -5  146.99   13.10
  -3   0  -5  147.79   14.90
  -3   0  -5  152.48   12.00
   3   0   5  148.29   17.40
   3   0   5  138.29   12.70
   3   0   5  155.78   17.30
   3   0   5  138.69   13.60
   3   0   5  162.98   13.30
   3   0   5  126.19   12.90
   3   0   5  140.09   14.50
  -4   0  -5    3.80    9.30
  -4   0  -5    1.10    8.90
  -4   0  -5   11.30    4.10
  -4   0  -5   13.90    4.60
  -4   0  -5    3.80    6.20
  -4   0  -5   13.60   15.10
   4   0   5   -3.20    8.80
   4   0   5   26.80   10.40
   4   0   5    4.10    7.60
   4   0   5   19.40    7.70
   4   0   5   16.60    8.10
   4   0   5    2.00    6.60
  -5   0  -5  176.18   33.10
  -5   0  -5  118.89   20.80
  -5   0  -5  143.79   11.50
  -5   0  -5  128.89   10.40
  -5   0  -5  147.69   23.40
  -5   0  -5  126.19   11.90
   5   0   5  132.29   17.30
   5   0   5  144.09   14.20
   5   0   5  140.19   13.90
   5   0   5  118.09   18.50
  -6   0  -5   42.60    6.40
  -6   0  -5   46.00    6.10
   6   0   5   35.50    9.30
  -7   0  -5  427.66   23.30
   7   0   5  330.07   23.80
   7   0   5  349.27   24.10
   7   0   5  331.47   24.00
   7  -1  -5   16.00    6.50
   7  -1  -5    1.40    8.10
   6  -1  -5 1130.09   74.89
   6  -1  -5 1123.59   71.39
   5  -1  -5  406.56   29.20
   5  -1  -5  374.86   36.10
   5  -1  -5  459.55   31.20
   4  -1  -5  189.98   17.40
   4  -1  -5  184.38   25.20
   4  -1  -5  184.48   20.00
   4  -1  -5  199.48   30.80
   4  -1  -5  217.58   25.40
   3  -1  -5 1409.06   88.69
   3  -1  -5 1420.16   87.09
   3  -1  -5 1368.36   85.69
   3  -1  -5 1371.06   87.19
   2  -1  -5   53.89    8.70
  -2   1   5   51.69    8.20
   1  -1  -5 1743.33  106.79
  -1   1   5 1767.52  105.39
   0  -1  -5  638.14   37.50
   0  -1  -5  579.74   39.00
   0  -1  -5  612.64   39.10
   0   1   5  611.24   38.60
   0   1   5  672.63   40.10
   0   1   5  616.54   37.70
  -1  -1  -5  934.81   54.29
  -1  -1  -5  932.21   55.79
  -1  -1  -5  856.31   55.89
  -1  -1  -5  908.41   56.19
   1   1   5  850.51   54.89
   1   1   5  897.41   55.69
   1   1   5  921.61   54.49
  -2  -1  -5   69.89   11.00
  -2  -1  -5  102.19   10.80
   2   1   5   82.59    7.10
   2   1   5   82.49    8.20
   2   1   5   78.29    7.80
  -3  -1  -5  199.28   19.00
  -3  -1  -5  197.68   13.90
  -3  -1  -5  204.58   18.50
  -3  -1  -5  189.08   14.90
  -3  -1  -5  180.98   24.20
  -3  -1  -5  180.28   14.30
   3   1   5  194.48   14.90
   3   1   5  188.28   19.60
   3   1   5  185.88   15.80
   3   1   5  187.48   14.50
   3   1   5  190.58   20.50
   3   1   5  226.38   18.60
   3   1   5  194.18   16.00
   3   1   5  174.18   14.90
  -4  -1  -5 1579.24   99.59
  -4  -1  -5 1775.32  104.79
  -4  -1  -5 1902.71  103.49
  -4  -1  -5 1559.34  101.39
  -4  -1  -5 1698.13  100.19
   4   1   5 1563.34  101.39
   4   1   5 1447.96  100.79
   4   1   5 1694.73  101.39
  -5  -1  -5  868.61   53.69
  -5  -1  -5  884.51   52.89
  -5  -1  -5  998.80   58.39
  -5  -1  -5  913.91   53.69
  -5  -1  -5  811.62   60.79
  -5  -1  -5  834.72   52.79
  -5  -1  -5  774.42   56.39
   5   1   5  873.91   56.69
   5   1   5  750.82   55.79
   5   1   5  951.50   54.69
   5   1   5  908.41   55.09
   5   1   5  806.92   56.49
  -6  -1  -5    8.30    4.80
  -6  -1  -5   -2.70    5.40
  -6  -1  -5    9.40    4.40
  -6  -1  -5   -3.20   15.30
   6   1   5    6.50    6.70
   6   1   5   15.70    8.80
  -7  -1  -5  132.69   11.00
  -7  -1  -5  123.39    9.30
  -7  -1  -5  122.99    8.80
   7   1   5  115.99   12.30
   7   1   5  115.89   11.40
   7   1   5   97.19   10.40
   7  -2  -5   36.70    6.40
   7  -2  -5   44.00    9.70
   7  -2  -5   41.20    9.70
   6  -2  -5   94.49   10.50
   6  -2  -5   60.99   16.60
   6  -2  -5   78.89   12.30
   5  -2  -5   20.30    6.10
   5  -2  -5   34.20   13.90
   5  -2  -5   14.40    7.30
   4  -2  -5    6.00    5.50
   4  -2  -5    0.60    8.50
  -4   2   5    1.50    7.80
   3  -2  -5  196.28   15.60
   3  -2  -5  169.28   26.70
   3  -2  -5  213.08   20.50
  -3   2   5  196.18   14.40
  -3   2   5  181.68   15.60
   2  -2  -5  506.45   36.40
   2  -2  -5  481.25   33.60
  -2   2   5  563.54   32.40
   1  -2  -5 3416.56  201.48
  -1   2   5 3420.26  200.68
  -1   2   5 3185.88  200.68
   0  -2  -5  314.37   19.50
   0   2   5  272.87   21.40
   0   2   5  279.07   18.60
   0   2   5  303.87   18.10
   0   2   5  279.77   20.00
  -1  -2  -5  266.67   17.30
  -1  -2  -5  254.87   17.30
  -1  -2  -5  256.67   17.30
   1   2   5  248.38   15.90
   1   2   5  222.58   16.80
   1   2   5  252.17   17.50
  -2  -2  -5 1342.37   76.89
  -2  -2  -5 1349.86   77.39
  -2  -2  -5 1223.58   77.29
   2   2   5 1117.99   76.09
   2   2   5 1215.18   75.79
   2   2   5 1274.77   77.09
  -3  -2  -5  885.81   54.29
  -3  -2  -5  868.81   54.19
  -3  -2  -5  979.40   56.49
  -3  -2  -5  870.71   56.09
  -3  -2  -5  989.20   55.49
  -3  -2  -5  784.82   58.49
  -3  -2  -5  848.62   53.69
   3   2   5  784.52   54.69
   3   2   5  944.51   55.89
   3   2   5  840.92   57.29
   3   2   5  799.72   54.99
   3   2   5  896.41   54.99
   3   2   5  927.21   53.99
  -4  -2  -5  218.78   17.50
  -4  -2  -5  183.08   13.50
  -4  -2  -5  207.68   20.50
  -4  -2  -5  215.18   14.90
  -4  -2  -5  188.18   14.30
  -4  -2  -5  179.48   19.80
  -4  -2  -5  185.98   14.50
  -4  -2  -5  181.28   13.20
   4   2   5  189.28   17.60
   4   2   5  167.68   16.70
   4   2   5  193.58   19.20
   4   2   5  201.08   16.50
   4   2   5  178.18   19.00
   4   2   5  183.98   16.90
  -5  -2  -5   10.40    3.70
  -5  -2  -5   27.70   12.50
  -5  -2  -5   11.70    5.20
  -5  -2  -5   16.40   11.30
  -5  -2  -5   26.50   14.30
  -5  -2  -5   27.90    6.00
  -5  -2  -5   15.70    5.40
  -5  -2  -5    9.10    5.60
   5   2   5   15.20    8.60
   5   2   5   12.60    9.80
   5   2   5   17.90    8.10
   5   2   5   17.40    6.90
   5   2   5    1.60   13.60
  -6  -2  -5   40.60    6.70
  -6  -2  -5   34.70    6.80
  -6  -2  -5   29.00   14.60
  -6  -2  -5   26.10    5.10
   6   2   5   38.70   10.00
   6   2   5   32.10    7.20
   6   2   5   24.00    7.90
  -7  -2  -5   29.60    5.00
  -7  -2  -5   40.50    4.90
  -7  -2  -5   33.80    5.90
   7   2   5   37.60    8.40
   7   2   5   21.60    6.10
   7   2   5   39.50    8.30
   7  -3  -5    4.80    4.50
   7  -3  -5    7.00    2.10
   6  -3  -5  307.77   23.70
   6  -3  -5  300.07   22.10
   6  -3  -5  322.97   21.00
   5  -3  -5  162.38   13.90
   5  -3  -5  157.18   16.20
   5  -3  -5  166.08   20.60
  -5   3   5  124.59   12.80
   4  -3  -5 1425.96   88.39
   4  -3  -5 1483.15   86.69
   4  -3  -5 1458.15   89.89
   4  -3  -5 1473.15   86.89
  -4   3   5 1294.77   85.39
  -4   3   5 1406.26   86.69
  -4   3   5 1308.47   86.19
   3  -3  -5  703.13   49.99
   3  -3  -5  705.13   43.30
   3  -3  -5  699.83   48.80
   3  -3  -5  670.13   44.50
   3  -3  -5  656.63   45.20
  -3   3   5  654.63   41.80
  -3   3   5  660.53   42.60
  -3   3   5  707.23   43.00
   2  -3  -5  987.30   59.89
   2  -3  -5  942.01   59.69
   2  -3  -5  979.10   61.99
   2  -3  -5  891.21   63.29
  -2   3   5  928.41   58.59
  -2   3   5 1081.69   59.99
  -2   3   5  954.30   59.19
   1  -3  -5  174.68   30.00
   1  -3  -5  176.18   13.90
  -1   3   5  182.08   12.20
  -1   3   5  204.18   12.90
  -1   3   5  191.48   12.90
  -1   3   5  184.68   15.20
   0   3   5   15.40    4.80
   0   3   5   15.30    3.50
   0   3   5   25.00    4.20
  -1  -3  -5   29.00   21.50
  -1  -3  -5   35.80    6.00
   1   3   5   38.70    6.40
   1   3   5   32.10    5.40
   1   3   5   32.00    6.90
   1   3   5   32.60    4.40
   1   3   5   30.20    5.50
  -2  -3  -5  584.74   35.50
  -2  -3  -5  565.24   35.90
  -2  -3  -5  596.54   35.70
   2   3   5  570.14   35.00
   2   3   5  527.95   34.90
   2   3   5  474.85   34.80
   2   3   5  604.24   36.10
   2   3   5  508.35   34.90
   2   3   5  604.74   34.60
  -3  -3  -5 2152.98  119.69
  -3  -3  -5 1929.61  118.19
  -3  -3  -5 1952.60  118.29
  -3  -3  -5 1857.21  117.79
  -3  -3  -5 2192.98  119.19
  -3  -3  -5 1862.81  119.39
   3   3   5 1930.71  120.69
   3   3   5 2000.90  119.69
   3   3   5 2038.90  119.39
   3   3   5 1712.13  118.99
   3   3   5 2068.29  118.19
   3   3   5 1891.91  118.39
   3   3   5 1822.22  118.69
  -4  -3  -5  173.88   19.90
  -4  -3  -5  190.58   13.70
  -4  -3  -5  220.68   19.70
  -4  -3  -5  182.38   14.70
  -4  -3  -5  223.08   16.90
  -4  -3  -5  189.58   13.90
  -4  -3  -5  198.38   14.70
   4   3   5  197.98   17.70
   4   3   5  201.48   20.60
   4   3   5  203.28   18.20
   4   3   5  196.88   17.20
   4   3   5  189.28   17.20
  -5  -3  -5  417.96   32.00
  -5  -3  -5  343.17   31.20
  -5  -3  -5  410.76   26.10
  -5  -3  -5  439.76   29.50
  -5  -3  -5  398.76   25.60
  -5  -3  -5  364.36   25.10
  -5  -3  -5  382.96   25.00
   5   3   5  423.26   29.70
   5   3   5  405.96   29.40
   5   3   5  391.26   27.80
   5   3   5  333.97   28.80
   5   3   5  410.76   28.80
  -6  -3  -5  339.27   24.10
  -6  -3  -5  371.76   23.60
  -6  -3  -5  363.56   24.00
  -6  -3  -5  352.56   23.10
  -6  -3  -5  381.76   29.00
   6   3   5  354.26   25.50
   6   3   5  397.76   27.50
   6   3   5  346.37   25.40
  -7  -3  -5   37.50    5.60
  -7  -3  -5   35.90    5.90
  -7  -3  -5   29.20    4.70
  -7  -3  -5   21.50    6.60
   7   3   5   33.50    6.60
   7   3   5   44.40    9.20
   7   3   5   33.30    8.20
   8   3   5  147.89   11.70
   6  -4  -5  440.06   29.00
   6  -4  -5  487.65   30.60
   6  -4  -5  495.05   29.80
  -6   4   5  423.86   29.20
   5  -4  -5   -0.50    4.80
   5  -4  -5   -0.70   11.10
  -5   4   5   18.80   15.70
  -5   4   5   -0.60    5.00
  -5   4   5    8.70    5.70
   4  -4  -5  713.53   44.40
   4  -4  -5  698.83   46.30
   4  -4  -5  747.53   47.80
   4  -4  -5  732.13   44.70
  -4   4   5  773.52   46.40
  -4   4   5  694.33   44.60
  -4   4   5  650.43   43.50
  -4   4   5  600.44   45.50
   3  -4  -5 4444.66  259.27
   3  -4  -5 4453.65  260.97
   3  -4  -5 4279.37  260.27
   3  -4  -5 4338.47  259.07
  -3   4   5 4122.29  258.57
  -3   4   5 4374.56  258.97
  -3   4   5 4585.44  259.57
  -3   4   5 3790.72  258.47
   2  -4  -5  -11.60   13.70
   2  -4  -5   11.20    5.40
   2  -4  -5    6.60    4.80
   2  -4  -5    7.10    6.90
   2  -4  -5   12.10    6.70
   2  -4  -5    9.60    6.50
  -2   4   5    8.00    5.40
  -2   4   5    8.70    3.30
  -2   4   5    3.30    5.10
  -2   4   5    1.10    3.50
   1  -4  -5  909.31   56.79
   1  -4  -5  948.51   58.39
   1  -4  -5  874.01   59.69
   1  -4  -5  901.91   56.89
   1  -4  -5  864.81   57.09
  -1   4   5  978.90   56.79
  -1   4   5  953.00   56.19
  -1   4   5  918.91   56.99
  -1   4   5  953.60   56.69
   0  -4  -5 1411.26   83.59
   0  -4  -5 1247.18   83.29
   0  -4  -5 1337.47   85.29
   0  -4  -5 1407.36  102.29
   0  -4  -5 1298.07   83.19
   0   4   5 1321.57   83.09
   0   4   5 1421.96   82.79
   0   4   5 1421.46   83.19
   0   4   5 1439.66   83.19
  -1  -4  -5  620.64   57.59
  -1  -4  -5  557.84   39.20
  -1  -4  -5  580.34   41.30
  -1  -4  -5  626.34   42.20
  -1  -4  -5  612.74   39.20
   1   4   5  605.64   38.70
   1   4   5  653.73   38.30
   1   4   5  683.73   38.90
   1   4   5  647.94   38.80
  -2  -4  -5   20.10    7.20
  -2  -4  -5   27.20    6.40
  -2  -4  -5    9.20    8.50
  -2  -4  -5   11.30   11.80
   2   4   5   23.40    5.30
   2   4   5   23.90    5.70
   2   4   5    9.60    6.40
   2   4   5   12.50    4.30
   2   4   5   13.40    7.80
   2   4   5   19.90    7.00
  -3  -4  -5  467.45   32.00
  -3  -4  -5  480.35   31.60
  -3  -4  -5  427.86   30.40
  -3  -4  -5  437.36   30.40
  -3  -4  -5  389.76   36.10
  -3  -4  -5  484.55   31.10
   3   4   5  458.45   34.10
   3   4   5  530.85   32.40
   3   4   5  487.25   31.20
   3   4   5  530.55   30.50
   3   4   5  511.45   30.50
   3   4   5  445.46   31.50
  -4  -4  -5  420.86   26.80
  -4  -4  -5  416.96   27.70
  -4  -4  -5  442.46   28.40
  -4  -4  -5  425.56   29.70
  -4  -4  -5  379.06   26.00
  -4  -4  -5  420.56   26.30
  -4  -4  -5  422.76   30.20
   4   4   5  374.16   27.10
   4   4   5  403.36   28.70
   4   4   5  455.35   28.70
   4   4   5  440.96   30.60
   4   4   5  364.46   33.80
   4   4   5  394.76   28.90
  -5  -4  -5  123.59   19.70
  -5  -4  -5  104.79   15.10
  -5  -4  -5  112.09   10.40
  -5  -4  -5  113.19    9.40
  -5  -4  -5  105.39    9.30
  -5  -4  -5   94.79   10.00
  -5  -4  -5  103.59   20.10
  -5  -4  -5  105.79   11.00
   5   4   5  132.79   15.70
   5   4   5  110.59   17.00
   5   4   5  113.49   14.00
  -6  -4  -5   62.09    7.40
  -6  -4  -5   29.80    8.10
  -6  -4  -5   60.99   15.50
  -6  -4  -5   53.99    7.40
  -6  -4  -5   45.30    6.30
  -6  -4  -5   62.49    7.80
   6   4   5   57.09   12.30
   6   4   5   42.20    8.30
   6   4   5   55.79   13.20
  -7  -4  -5   33.50    6.30
  -7  -4  -5   34.60    4.60
   7   4   5   35.10    9.30
   7   4   5   32.20    6.20
  -8  -4  -5  460.35   27.60
  -8  -4  -5  429.96   27.50
   8   4   5  464.25   29.20
   8   4   5  427.16   28.30
   5  -5  -5  577.84   36.50
   5  -5  -5  526.65   34.60
   5  -5  -5  550.34   35.40
  -5   5   5  604.84   34.90
  -5   5   5  537.95   34.50
  -5   5   5  527.25   34.90
   4  -5  -5  158.08   14.20
   4  -5  -5  162.28   17.50
   4  -5  -5  161.88   12.90
  -4   5   5  169.08   12.30
  -4   5   5  142.29   14.40
  -4   5   5  157.48   12.70
  -4   5   5  184.28   16.40
   3  -5  -5  226.78   16.80
   3  -5  -5  239.08   22.10
   3  -5  -5  204.68   19.10
   3  -5  -5  212.38   17.10
  -3   5   5  241.68   19.00
  -3   5   5  217.38   15.70
  -3   5   5  224.28   16.80
  -3   5   5  237.58   17.00
  -3   5   5  220.98   21.10
   2  -5  -5 2712.73  159.78
   2  -5  -5 2665.03  160.78
   2  -5  -5 2486.35  165.08
   2  -5  -5 2514.55  159.48
   2  -5  -5 2546.85  158.98
  -2   5   5 2701.63  161.88
  -2   5   5 2716.33  159.58
  -2   5   5 2554.04  159.28
  -2   5   5 2806.62  161.58
  -2   5   5 2658.33  159.08
   1  -5  -5  150.28   12.70
   1  -5  -5  171.78   14.60
   1  -5  -5  156.48   13.30
   1  -5  -5  123.79   21.00
   1  -5  -5  167.88   13.00
  -1   5   5  166.28   12.70
  -1   5   5  129.49   17.40
  -1   5   5  165.28   12.80
  -1   5   5  156.48   12.00
  -1   5   5  167.28   11.60
  -1   5   5  152.38   17.80
   0  -5  -5  239.88   17.00
   0  -5  -5  225.18   16.70
   0  -5  -5  237.18   16.40
   0  -5  -5  210.48   21.30
   0  -5  -5  220.28   18.60
   0   5   5  259.67   16.40
   0   5   5  231.58   16.30
   0   5   5  210.78   21.00
   0   5   5  224.88   15.70
   0   5   5  222.48   19.40
   0   5   5  226.18   15.50
  -1  -5  -5  211.58   20.10
  -1  -5  -5  200.58   15.20
  -1  -5  -5  208.98   16.20
  -1  -5  -5  210.08   16.00
  -1  -5  -5  201.68   15.10
   1   5   5  205.48   17.50
   1   5   5  211.48   18.40
   1   5   5  210.88   15.30
   1   5   5  243.28   15.30
   1   5   5  212.28   14.60
   1   5   5  201.68   15.20
  -2  -5  -5 2488.95  156.98
  -2  -5  -5 2667.33  157.48
  -2  -5  -5 2626.14  158.68
  -2  -5  -5 2468.75  157.48
  -2  -5  -5 2414.36  157.08
  -2  -5  -5 2695.73  157.58
   2   5   5 2615.54  157.08
   2   5   5 2673.03  156.88
   2   5   5 2734.73  158.68
   2   5   5 2510.75  157.48
   2   5   5 2528.45  157.98
   2   5   5 2623.34  157.48
   2   5   5 2780.62  157.68
  -3  -5  -5    4.60    7.30
  -3  -5  -5    2.10    4.70
  -3  -5  -5   -2.30    4.80
  -3  -5  -5   -1.50    4.90
  -3  -5  -5   12.20    6.00
  -3  -5  -5    1.10    5.00
   3   5   5   -3.20    6.10
   3   5   5   -0.10    5.70
   3   5   5    7.50    5.90
   3   5   5    2.50    8.50
   3   5   5    9.60    5.10
   3   5   5    2.50    7.00
   3   5   5    9.00    6.90
   3   5   5  -11.40   11.30
  -4  -5  -5    7.70    8.30
  -4  -5  -5    0.90    5.90
  -4  -5  -5   15.00    5.80
   4   5   5    2.20   11.80
   4   5   5    1.80    7.40
   4   5   5   16.60    9.00
   4   5   5    1.00    7.30
   4   5   5    6.00    6.10
  -5  -5  -5 1072.39   71.19
  -5  -5  -5 1021.70   69.29
  -5  -5  -5 1105.39   68.89
  -5  -5  -5 1219.48   71.49
   5   5   5 1170.68   71.49
   5   5   5 1214.28   71.49
   5   5   5 1123.39   70.59
  -6  -5  -5 1308.77   91.29
  -6  -5  -5 1382.96   88.59
   6   5   5 1590.44   90.89
   6   5   5 1578.34   90.09
  -7  -5  -5  412.06   25.50
  -7  -5  -5  411.26   26.20
   7   5   5  393.96   27.40
   7   5   5  427.76   27.00
   5  -6  -5  205.08   14.80
   5  -6  -5  208.78   14.50
   5  -6  -5  247.58   16.30
  -5   6   5  243.18   14.80
   4  -6  -5   67.09    8.20
   4  -6  -5   90.59   11.30
   4  -6  -5   78.49    7.40
   4  -6  -5   67.19    8.60
  -4   6   5   83.89    8.50
  -4   6   5   89.59    7.80
  -4   6   5   84.49    8.30
  -4   6   5   93.39   13.50
   3  -6  -5    3.40    7.90
   3  -6  -5    5.60    4.80
   3  -6  -5   18.70    6.80
   3  -6  -5   12.30    3.70
  -3   6   5   -3.70    6.10
  -3   6   5    4.60    8.30
  -3   6   5   11.10    4.50
  -3   6   5    6.90    4.00
  -3   6   5    2.70    8.30
   2  -6  -5   -0.90    5.70
   2  -6  -5    7.40    5.40
   2  -6  -5    4.90    3.80
   2  -6  -5    2.90    5.20
  -2   6   5    6.90    8.60
  -2   6   5    6.00    5.40
  -2   6   5    8.90    8.70
  -2   6   5    6.70    6.60
  -2   6   5    6.60    6.80
  -2   6   5    5.00    3.90
   1  -6  -5  561.84   34.10
   1  -6  -5  503.75   35.00
   1  -6  -5  516.55   33.50
  -1   6   5  562.04   33.80
  -1   6   5  496.35   33.40
  -1   6   5  523.25   35.10
  -1   6   5  527.55   33.90
  -1   6   5  526.95   35.90
  -1   6   5  545.25   34.60
   0  -6  -5 1460.15   89.09
   0  -6  -5 1462.25   89.29
   0  -6  -5 1443.96   88.99
   0   6   5 1440.86   90.29
   0   6   5 1505.75   89.19
   0   6   5 1436.26   89.79
   0   6   5 1437.66   88.89
   0   6   5 1501.35   89.39
  -1  -6  -5  234.68   18.40
  -1  -6  -5  290.67   20.80
   1   6   5  269.07   18.40
   1   6   5  230.88   21.10
   1   6   5  261.97   19.70
   1   6   5  272.37   18.30
   1   6   5  269.97   18.90
   1   6   5  270.87   18.40
  -2  -6  -5  450.05   29.50
  -2  -6  -5  455.45   29.60
  -2  -6  -5  405.26   29.30
   2   6   5  458.85   30.00
   2   6   5  431.26   33.60
   2   6   5  435.96   30.90
   2   6   5  466.85   29.30
   2   6   5  478.35   30.00
   2   6   5  465.05   29.40
   2   6   5  454.75   29.50
  -3  -6  -5  658.03   41.40
  -3  -6  -5  635.24   40.80
  -3  -6  -5  615.74   40.80
  -3  -6  -5  673.23   41.10
   3   6   5  674.43   41.40
   3   6   5  633.34   42.10
   3   6   5  640.44   41.30
   3   6   5  613.74   43.00
   3   6   5  659.63   41.30
   3   6   5  656.93   42.50
  -4  -6  -5  410.06   27.60
  -4  -6  -5  427.26   27.70
  -4  -6  -5  403.86   26.50
  -4  -6  -5  410.16   29.40
   4   6   5  438.96   29.70
   4   6   5  382.86   28.00
   4   6   5  475.15   33.50
   4   6   5  400.66   29.10
  -5  -6  -5  570.14   36.80
  -5  -6  -5  494.75   33.50
  -5  -6  -5  545.55   34.50
  -5  -6  -5  549.65   34.50
   5   6   5  563.04   36.80
   5   6   5  547.05   36.00
   5   6   5  506.85   36.40
  -6  -6  -5  116.39    9.60
  -6  -6  -5  132.89   11.00
  -6  -6  -5  132.99   10.70
   6   6   5  125.59   13.50
   6   6   5  148.09   14.40
  -7  -6  -5   50.19    5.80
  -7  -6  -5   56.09    7.40
  -7  -6  -5   58.79    6.40
   7   6   5   64.89    8.90
   7   6   5   63.59    8.00
   4  -7  -5   24.00    6.50
  -4   7   5   21.30    4.20
  -4   7   5   22.10    4.00
   3  -7  -5  701.93   43.20
   3  -7  -5  660.43   43.80
   3  -7  -5  737.73   44.60
  -3   7   5  704.63   43.40
  -3   7   5  721.83   44.60
  -3   7   5  715.93   43.10
  -3   7   5  676.93   43.30
  -3   7   5  695.23   43.60
   2  -7  -5    4.00    5.20
   2  -7  -5    7.90    3.80
   2  -7  -5    9.10    4.10
  -2   7   5    7.70    7.60
  -2   7   5   -7.60    6.90
  -2   7   5    6.80    4.50
  -2   7   5   -4.20    5.80
  -2   7   5   13.10    4.70
   1  -7  -5   67.99    8.00
   1  -7  -5   72.29   11.20
   1  -7  -5   71.49    8.80
  -1   7   5   96.79    8.90
  -1   7   5   77.69    9.70
  -1   7   5   83.89   11.20
  -1   7   5   90.49   10.10
  -1   7   5   67.09   13.10
  -1   7   5   81.89    8.60
   0  -7  -5   10.40    4.20
   0  -7  -5    3.30    4.80
   0   7   5   10.50    5.20
   0   7   5    2.90    5.00
   0   7   5    7.00    5.60
   0   7   5    9.30    6.20
   0   7   5    4.00    7.90
   0   7   5   12.90    7.20
   0   7   5    1.50    6.40
  -1  -7  -5  103.29    9.70
  -1  -7  -5   73.89   11.50
  -1  -7  -5  106.79   10.70
   1   7   5  105.29   10.20
   1   7   5  109.09   12.60
   1   7   5  105.39   10.60
   1   7   5  101.89   14.40
   1   7   5   83.79   12.10
   1   7   5  110.69   11.30
   1   7   5   99.49   10.80
  -2  -7  -5  273.57   21.50
  -2  -7  -5  281.37   21.50
  -2  -7  -5  328.37   21.40
  -2  -7  -5  331.27   20.90
  -2  -7  -5  294.07   21.30
   2   7   5  320.47   21.30
   2   7   5  306.37   22.70
   2   7   5  257.27   25.60
   2   7   5  319.07   22.70
   2   7   5  289.07   23.90
   2   7   5  281.47   21.70
   2   7   5  297.77   21.10
  -3  -7  -5  901.71   54.39
  -3  -7  -5  886.21   54.29
  -3  -7  -5  892.61   54.79
   3   7   5  830.92   54.19
   3   7   5  803.32   55.89
   3   7   5  873.51   55.89
   3   7   5  886.61   54.99
   3   7   5  903.31   55.49
   3   7   5  882.41   56.09
  -4  -7  -5  561.34   34.60
  -4  -7  -5  583.04   35.50
  -4  -7  -5  544.85   34.50
   4   7   5  550.74   37.20
   4   7   5  539.95   35.70
   4   7   5  505.05   35.90
   4   7   5  500.05   35.80
  -5  -7  -5   15.00    8.30
  -5  -7  -5   -6.40    5.50
   5   7   5    4.00    8.50
  -6  -7  -5  330.37   20.90
  -6  -7  -5  318.17   21.00
   6   7   5  317.57   22.00
  -7  -7  -5  249.28   15.10
   7   7   5  194.28   16.00
   2  -8  -5  246.68   16.90
   2  -8  -5  202.98   14.30
   2  -8  -5  203.48   15.30
  -2   8   5  225.98   15.00
  -2   8   5  240.58   16.40
  -2   8   5  213.48   14.50
  -2   8   5  212.28   14.60
   1  -8  -5  263.27   18.00
   1  -8  -5  268.57   18.90
  -1   8   5  275.87   18.20
  -1   8   5  285.27   20.00
  -1   8   5  262.37   18.70
  -1   8   5  291.97   18.30
   0  -8  -5  617.24   36.70
   0  -8  -5  591.44   37.50
   0  -8  -5  581.24   36.50
   0   8   5  587.74   36.70
   0   8   5  569.04   36.50
   0   8   5  591.44   38.00
   0   8   5  549.65   37.60
   1   8   5  765.32   43.60
   1   8   5  667.03   44.30
   1   8   5  594.34   41.80
   1   8   5  619.64   41.30
  -2  -8  -5  956.70   54.79
  -2  -8  -5  880.21   53.79
  -2  -8  -5  762.32   53.39
   2   8   5  871.31   53.69
   2   8   5  857.51   54.79
   2   8   5  833.02   55.59
   2   8   5  836.92   54.39
   2   8   5  959.40   56.19
  -3  -8  -5    1.80    7.00
  -3  -8  -5    5.30    4.50
   3   8   5    9.00    9.60
   3   8   5    4.00    6.60
   3   8   5    2.10    7.20
   3   8   5   -1.60    7.30
  -4  -8  -5  972.70   62.89
  -4  -8  -5 1082.69   62.69
  -4  -8  -5 1027.00   62.49
   4   8   5  945.71   62.99
   4   8   5 1042.40   63.79
   4   8   5 1057.89   63.99
  -5  -8  -5  163.08   14.90
  -5  -8  -5  190.28   12.50
  -5  -8  -5  169.78   12.00
   5   8   5  156.38   13.60
  -6  -8  -5   17.20    3.80
  -6  -8  -5   26.30    4.70
   6   8   5   19.40    4.50
   6   8   5   27.30    5.40
   0  -9  -5   13.50    4.60
   0  -9  -5   25.00    3.50
   0  -9  -5   21.80    3.70
   0   9   5   18.30    5.40
   0   9   5   19.10    5.20
  -1  -9  -5    1.20    3.10
  -1  -9  -5    1.90    2.20
   1   9   5    4.90    3.70
   1   9   5   -7.40    5.30
   1   9   5    1.90    4.40
  -2  -9  -5    5.80    3.30
  -2  -9  -5   10.00    2.60
   2   9   5    8.00    4.60
   2   9   5   27.60   11.80
   2   9   5    6.50    3.70
  -3  -9  -5   33.30    4.60
   3   9   5   35.70    9.50
   3   9   5   38.90    8.70
   3   9   5   34.00    7.40
  -4  -9  -5  192.08   14.20
  -4  -9  -5  225.48   15.40
   4   9   5  222.88   15.70
   4   9   5  192.68   17.80
  -5  -9  -5  434.06   25.20
  -5  -9  -5  417.26   25.00
   5   9   5  366.06   25.50
   4   5  -6  603.54   36.80
   4   5  -6  550.54   37.20
  -4  -5   6  552.24   34.70
  -4  -5   6  541.65   34.50
  -4  -5   6  544.65   36.60
   3   5  -6  159.98   21.90
   3   5  -6  163.98   12.90
  -3  -5   6  152.58   16.90
  -3  -5   6  175.28   12.10
  -3  -5   6  184.98   12.60
   2   5  -6   21.50    7.40
   2   5  -6    8.00   18.50
   2   5  -6   26.00    7.30
  -2  -5   6   24.50    9.20
  -2  -5   6   16.00    4.00
  -2  -5   6   28.60    7.20
  -2  -5   6   14.40    5.70
   1   5  -6    7.80    9.10
   1   5  -6    2.80    4.70
   1   5  -6    4.80    4.50
  -1  -5   6    9.90    5.40
  -1  -5   6    3.50    5.00
  -1  -5   6    6.70    3.90
  -1  -5   6    4.80    3.70
   0   5  -6  220.58   15.60
   0   5  -6  223.78   16.30
   0   5  -6  240.08   16.20
   0  -5   6  209.38   15.90
   0  -5   6  238.98   14.90
   0  -5   6  195.28   16.90
   0  -5   6  230.58   15.80
  -1   5  -6  180.58   14.90
  -1   5  -6  183.28   13.60
   1  -5   6  141.49   12.40
   1  -5   6  147.99   11.70
   5   4  -6   48.20   10.10
   5   4  -6   29.40    8.00
  -5  -4   6   53.59    8.80
   4   4  -6   88.69   13.80
   4   4  -6   71.69   11.90
  -4  -4   6   82.79    9.70
  -4  -4   6   83.29    9.80
  -4  -4   6   74.19    7.70
   3   4  -6  268.37   26.20
   3   4  -6  297.77   23.40
   3   4  -6  314.87   20.80
  -3  -4   6  301.27   20.50
  -3  -4   6  321.27   20.20
  -3  -4   6  291.97   19.60
   2   4  -6 1542.75  111.89
   2   4  -6 1859.01  110.09
   2   4  -6 1698.43  111.49
  -2  -4   6 1927.51  109.89
  -2  -4   6 1830.52  110.39
  -2  -4   6 1815.02  109.29
  -2  -4   6 1937.31  109.69
  -2  -4   6 1844.82  109.99
   1   4  -6   65.79   12.50
   1   4  -6   83.89   14.90
   1   4  -6   74.39   14.00
  -1  -4   6   60.39   11.50
  -1  -4   6   68.89    8.70
  -1  -4   6   62.29    9.40
  -1  -4   6   66.19    8.10
   0   4  -6    7.90    4.10
   0   4  -6   13.40    5.90
   0   4  -6   12.60    4.80
   0  -4   6   13.00    6.10
   0  -4   6    9.80    4.40
   0  -4   6   10.70    4.90
   0  -4   6   12.50    6.60
   0  -4   6   13.00    5.40
  -1   4  -6  314.27   21.10
  -1   4  -6  300.17   21.60
  -1   4  -6  312.67   20.80
   1  -4   6  319.97   20.20
   1  -4   6  289.17   20.60
   1  -4   6  268.57   23.90
   1  -4   6  318.57   23.00
   1  -4   6  277.87   21.10
  -2   4  -6    7.20    6.40
  -2   4  -6    6.10    3.90
   2  -4   6    1.80    4.00
   2  -4   6   -1.50    4.30
   2  -4   6    1.80    5.40
  -3   4  -6   22.30    6.20
  -3   4  -6   15.30    3.60
   3  -4   6   16.40    5.40
   6   3  -6    0.30    5.20
   5   3  -6  742.63   46.40
   5   3  -6  700.33   46.60
   4   3  -6  739.33   46.40
   4   3  -6  710.53   46.80
  -4  -3   6  730.63   44.30
  -4  -3   6  655.83   43.70
   3   3  -6   18.20    5.40
   3   3  -6   12.00    8.00
   3   3  -6    5.60    6.90
  -3  -3   6   -1.20   13.00
   2   3  -6   13.40   11.50
   2   3  -6   17.30    8.90
   2   3  -6   17.40    6.70
  -2  -3   6   14.10    5.60
  -2  -3   6   26.00    8.90
  -2  -3   6   23.80    4.20
  -2  -3   6   28.00    6.80
  -2  -3   6   12.80    7.80
   1   3  -6    1.90    5.20
   1   3  -6   12.80   11.10
   1   3  -6    6.40    4.90
   1   3  -6    4.40    7.20
   1   3  -6  -14.20   14.20
  -1  -3   6   -4.20    8.40
  -1  -3   6    5.30    3.80
  -1  -3   6   15.50    6.70
  -1  -3   6   -0.30    5.20
  -1  -3   6    7.10    7.50
  -1  -3   6   12.50    6.80
   0   3  -6    4.70    4.50
   0   3  -6   -3.60    5.30
   0   3  -6    5.30    6.40
   0  -3   6   -4.70    5.80
   0  -3   6    6.00    6.60
   0  -3   6    2.30    4.40
   0  -3   6   15.10    5.50
   0  -3   6    6.10    5.50
   0  -3   6   -7.40    8.20
  -1   3  -6   43.20   11.00
  -1   3  -6   49.60    8.40
  -1   3  -6   44.90    9.20
   1  -3   6   44.00    9.70
   1  -3   6   48.30   10.10
   1  -3   6   58.69    9.30
   1  -3   6   63.29    9.30
   1  -3   6   49.10    8.30
  -2   3  -6 1170.28   78.59
   2  -3   6 1189.48   73.79
   2  -3   6 1225.08   74.09
  -3   3  -6  609.74   39.70
  -3   3  -6  640.54   40.80
   3  -3   6  618.24   40.60
   3  -3   6  606.94   39.90
   3  -3   6  671.93   41.20
   3  -3   6  642.24   40.20
  -4   3  -6   27.10   10.40
   4  -3   6   26.40    6.80
   4  -3   6   37.10   13.10
   4  -3   6   17.50    5.20
   4  -3   6   39.30    9.50
   6   2  -6  244.98   19.20
   6   2  -6  246.98   20.80
   5   2  -6   13.00    7.80
   4   2  -6    3.50    6.80
   4   2  -6    0.30    7.60
  -4  -2   6   10.70    4.20
   3   2  -6  168.58   20.90
   3   2  -6  172.28   18.50
   3   2  -6  173.28   15.10
   3   2  -6  180.28   19.70
  -3  -2   6  156.68   11.60
  -3  -2   6  165.48   14.30
  -3  -2   6  168.98   16.80
   2   2  -6  980.40   61.79
   2   2  -6 1051.19   61.79
   2   2  -6  952.50   63.49
   2   2  -6  963.90   64.49
  -2  -2   6  965.50   60.79
  -2  -2   6  986.30   60.29
  -2  -2   6 1043.80   62.49
   1   2  -6 1053.49   67.89
   1   2  -6 1008.70   71.49
   1   2  -6 1071.29   70.19
   1   2  -6 1160.18   68.29
   1   2  -6 1135.19   68.09
  -1  -2   6 1031.80   67.99
  -1  -2   6 1074.99   68.59
  -1  -2   6 1212.08   68.69
  -1  -2   6 1125.19   66.89
  -1  -2   6 1133.79   67.39
   0   2  -6 2587.44  180.08
   0   2  -6 3005.60  176.88
   0   2  -6 2625.44  178.58
   0   2  -6 3154.28  177.08
   0   2  -6 2875.61  176.78
   0  -2   6 2806.72  177.08
   0  -2   6 2980.20  176.58
   0  -2   6 2922.31  175.88
   0  -2   6 3185.58  176.98
   0  -2   6 3075.49  176.38
  -1   2  -6 1114.19   65.89
  -1   2  -6 1016.90   69.09
  -1   2  -6 1074.29   66.29
  -1   2  -6 1059.09   65.69
   1  -2   6 1041.40   66.19
   1  -2   6 1020.40   67.29
   1  -2   6 1040.60   64.79
   1  -2   6 1079.09   65.59
   1  -2   6 1075.09   65.29
   1  -2   6 1122.89   65.99
   1  -2   6 1019.40   66.39
  -2   2  -6  173.88   14.10
  -2   2  -6  167.28   23.20
  -2   2  -6  132.29   14.30
  -2   2  -6  154.38   15.80
   2  -2   6  176.18   19.00
   2  -2   6  159.58   14.00
   2  -2   6  141.59   14.70
   2  -2   6  167.58   15.40
   2  -2   6  151.18   14.30
   2  -2   6  187.58   14.80
   2  -2   6  136.59   20.10
  -3   2  -6  162.28   22.40
  -3   2  -6  168.98   16.10
  -3   2  -6  185.28   17.40
  -3   2  -6  154.18   17.60
  -3   2  -6  159.08   13.90
   3  -2   6  191.38   15.10
   3  -2   6  178.48   17.40
   3  -2   6  151.18   14.00
  -4   2  -6   14.10    7.20
  -4   2  -6   15.80    5.60
  -4   2  -6   11.20    5.80
   4  -2   6   14.40    7.00
   4  -2   6   10.70    6.80
   4  -2   6    1.40    5.20
   4  -2   6   13.50    6.90
  -5   2  -6   21.30    9.40
  -5   2  -6   21.60    8.40
  -5   2  -6   -1.20    7.10
   5  -2   6    0.60    5.80
   5  -2   6    8.50    5.10
   5  -2   6   10.80    4.90
   6   1  -6  743.93   44.90
   6   1  -6  640.44   45.20
   5   1  -6 1031.70   64.69
   5   1  -6 1010.10   64.89
   4   1  -6   55.99   14.90
   4   1  -6   25.10    9.20
   3   1  -6  499.15   34.60
   3   1  -6  457.35   34.10
   3   1  -6  491.85   34.00
   2   1  -6  849.22   51.59
   2   1  -6  847.52   57.49
   2   1  -6  766.32   51.49
  -2  -1   6  828.62   49.90
   1   1  -6   13.20    5.10
   1   1  -6   14.90    9.20
   1   1  -6   15.40    9.60
   1   1  -6   18.10    7.60
  -1  -1   6   15.20    3.00
  -1  -1   6   13.90    7.20
  -1  -1   6   16.50    4.70
   0   1  -6   96.59   21.20
   0   1  -6  105.59   12.30
   0   1  -6  101.29   19.70
   0   1  -6  126.29   15.10
   0   1  -6  115.79   10.50
   0   1  -6  101.59   10.10
   0  -1   6   95.39   12.30
   0  -1   6  110.09    9.60
   0  -1   6  101.79   12.20
   0  -1   6  121.69   14.30
   0  -1   6   99.29    8.00
  -1   1  -6 1168.58   70.19
  -1   1  -6  932.41   72.59
   1  -1   6 1120.19   68.59
   1  -1   6 1122.89   66.89
   1  -1   6 1149.98   67.19
   1  -1   6 1064.19   68.09
  -2   1  -6 1010.30   63.79
  -2   1  -6 1069.19   63.69
  -2   1  -6 1032.80   66.69
  -2   1  -6 1022.00   63.49
  -2   1  -6 1030.00   64.19
  -2   1  -6 1016.40   69.09
   2  -1   6 1030.30   64.89
   2  -1   6 1012.30   63.49
   2  -1   6  958.10   63.29
   2  -1   6 1120.69   63.89
   2  -1   6 1005.00   62.79
   2  -1   6  995.90   63.99
  -3   1  -6  265.17   19.30
  -3   1  -6  263.97   25.20
  -3   1  -6  279.97   19.10
  -3   1  -6  216.78   32.60
  -3   1  -6  233.88   19.00
  -3   1  -6  251.77   20.60
   3  -1   6  257.17   19.70
   3  -1   6  280.27   22.40
   3  -1   6  297.67   20.10
   3  -1   6  240.38   19.20
   3  -1   6  228.48   21.60
   3  -1   6  276.87   22.70
  -4   1  -6  602.74   36.90
  -4   1  -6  540.85   37.70
  -4   1  -6  572.34   42.30
  -4   1  -6  620.94   37.80
  -4   1  -6  511.95   38.20
   4  -1   6  573.14   37.50
   4  -1   6  592.24   39.20
  -5   1  -6  120.99   15.50
  -5   1  -6  140.89   10.90
  -5   1  -6  130.89   10.20
   5  -1   6  110.59   15.20
   5  -1   6  115.79   12.00
   5  -1   6  127.29   13.50
   5  -1   6  131.69   12.20
  -6   1  -6   39.60    7.50
   6  -1   6   63.19    8.10
   6   0  -6   38.00   12.90
   5   0  -6  120.29   16.90
   5   0  -6  138.59   17.20
   5   0  -6  143.89   17.90
   4   0  -6  158.68   19.10
   4   0  -6  155.48   19.20
   4   0  -6  167.58   18.90
   3   0  -6   24.60    8.60
   2   0  -6  261.87   20.70
   2   0  -6  238.38   20.70
   2   0  -6  237.08   20.60
   2   0  -6  223.88   18.00
  -2   0   6  227.18   19.20
  -2   0   6  244.48   15.20
   1   0  -6 3429.96  205.08
   1   0  -6 3419.66  205.48
   1   0  -6 3168.68  203.48
   1   0  -6 3416.66  203.88
   1   0  -6 3566.64  203.98
  -1   0   6 3546.45  202.88
  -1   0   6 3466.35  204.58
  -1   0   6 3031.10  203.68
   0   0  -6   35.40    7.20
   0   0  -6   15.60    6.60
   0   0  -6   20.50   10.30
   0   0  -6   42.50    9.60
   0   0  -6   35.20    7.50
   0   0  -6   31.00   10.80
   0   0   6   46.50   10.90
   0   0   6   29.00    6.30
   0   0   6   25.60    7.20
   0   0   6   20.60    4.00
  -1   0  -6 2353.36  160.58
  -1   0  -6 2611.04  160.28
  -1   0  -6 2388.66  157.98
  -1   0  -6 2789.02  159.78
  -1   0  -6 2592.94  158.18
  -1   0  -6 2550.84  158.18
  -1   0  -6 2800.22  158.38
   1   0   6 2624.14  158.18
   1   0   6 2606.44  157.78
   1   0   6 2581.14  158.88
   1   0   6 2878.31  158.58
   1   0   6 2615.04  157.38
  -2   0  -6 2080.59  119.99
  -2   0  -6 2040.50  123.09
  -2   0  -6 2125.19  121.79
  -2   0  -6 2026.10  119.59
  -2   0  -6 1654.63  120.09
   2   0   6 1934.21  120.69
   2   0   6 1973.60  119.09
   2   0   6 1898.81  119.79
   2   0   6 2046.20  121.39
   2   0   6 2072.79  120.29
   2   0   6 1848.62  119.49
  -3   0  -6   21.00   15.80
  -3   0  -6   10.50    5.60
  -3   0  -6   12.60   10.80
  -3   0  -6   22.00    5.90
  -3   0  -6   24.20    8.20
  -3   0  -6   22.70    6.30
   3   0   6   27.40    8.10
   3   0   6   10.90    6.20
   3   0   6   21.50    7.40
   3   0   6   23.60    7.30
   3   0   6   18.70    6.80
   3   0   6   18.60    9.10
   3   0   6    4.30   10.40
   3   0   6   22.30   10.40
  -4   0  -6  141.49   12.10
  -4   0  -6  120.89   29.70
  -4   0  -6  150.18   22.10
  -4   0  -6  149.29   12.20
  -4   0  -6  147.59   16.60
   4   0   6  148.19   15.40
   4   0   6  121.39   14.60
   4   0   6  141.89   18.00
   4   0   6  133.59   14.60
   4   0   6  119.59   15.10
   4   0   6  137.19   17.50
  -5   0  -6   18.60    8.00
  -5   0  -6    8.90   15.90
  -5   0  -6   22.00    5.10
   5   0   6   43.60   14.20
   5   0   6   14.90    6.30
   5   0   6   17.40    8.70
   5   0   6   26.70    7.30
  -6   0  -6  374.66   22.40
  -6   0  -6  341.07   27.70
  -6   0  -6  362.96   22.20
   6   0   6  363.96   24.40
   6   0   6  345.27   23.10
   6   0   6  309.77   23.20
   7  -1  -6  119.59    9.50
   6  -1  -6  196.08   19.00
   6  -1  -6  244.58   18.50
   6  -1  -6  275.57   23.90
   5  -1  -6   15.30    6.90
   5  -1  -6   12.40   14.40
   5  -1  -6   27.60   14.00
   5  -1  -6   26.00    8.60
   4  -1  -6 5489.85  335.47
   4  -1  -6 5403.46  334.87
   4  -1  -6 5909.31  334.47
   4  -1  -6 5408.76  335.17
   3  -1  -6  883.01   58.99
   3  -1  -6  987.90   57.19
   3  -1  -6  934.91   58.69
  -3   1   6  835.12   59.09
   2  -1  -6    9.90    6.00
   2  -1  -6   22.60    5.80
   2  -1  -6   28.60    8.40
   2  -1  -6   10.10    7.40
  -2   1   6   17.40    8.30
  -2   1   6   17.80    3.00
   1  -1  -6  754.52   49.99
   1  -1  -6  755.92   49.50
   1  -1  -6  742.73   47.80
  -1   1   6  800.32   48.90
  -1   1   6  767.12   46.40
   0  -1  -6   92.69   18.10
   0  -1  -6   90.29   11.80
   0  -1  -6   71.59   16.30
   0  -1  -6   93.19   10.10
   0  -1  -6   98.29   13.00
   0   1   6  108.79   10.90
   0   1   6   99.59    7.20
   0   1   6  102.99    9.20
  -1  -1  -6  250.27   19.00
  -1  -1  -6  243.08   19.00
  -1  -1  -6  266.67   18.50
  -1  -1  -6  224.28   26.40
  -1  -1  -6  265.17   20.40
  -1  -1  -6  257.97   24.10
  -1  -1  -6  275.87   19.50
   1   1   6  253.97   17.40
   1   1   6  233.68   20.00
   1   1   6  268.97   16.60
   1   1   6  264.87   21.30
   1   1   6  270.67   18.90
  -2  -1  -6   10.30    9.40
  -2  -1  -6   -0.40    6.70
  -2  -1  -6    4.00    9.90
  -2  -1  -6    6.20    5.00
  -2  -1  -6    3.20    5.70
   2   1   6   13.40    4.70
   2   1   6   -8.10    8.80
   2   1   6    4.50    7.20
   2   1   6    2.30    5.50
   2   1   6   -1.30    3.50
   2   1   6    5.90    6.80
  -3  -1  -6  485.25   32.00
  -3  -1  -6  509.25   36.90
  -3  -1  -6  430.46   31.40
  -3  -1  -6  535.05   34.30
   3   1   6  560.04   33.90
   3   1   6  486.25   31.70
   3   1   6  463.45   32.80
   3   1   6  446.36   34.10
   3   1   6  476.35   31.00
  -4  -1  -6  411.36   34.50
  -4  -1  -6  393.66   25.10
  -4  -1  -6  394.56   25.00
  -4  -1  -6  426.86   29.90
  -4  -1  -6  365.56   26.80
   4   1   6  389.76   27.50
   4   1   6  385.26   28.40
   4   1   6  341.27   26.50
   4   1   6  338.27   26.50
   4   1   6  338.27   28.00
  -5  -1  -6  904.01   55.29
  -5  -1  -6 1025.30   60.29
  -5  -1  -6  795.92   56.89
  -5  -1  -6  958.20   55.39
   5   1   6  888.01   57.59
   5   1   6  761.72   56.59
   5   1   6  958.40   56.29
   5   1   6  897.21   56.29
  -6  -1  -6  349.67   22.50
  -6  -1  -6  374.66   28.20
  -6  -1  -6  371.26   22.90
   6   1   6  333.97   24.10
   6   1   6  351.46   24.90
   6   1   6  345.17   23.90
  -7  -1  -6   41.40    4.60
   7   1   6   41.40    7.50
   7   1   6   43.80    6.20
   7  -2  -6   43.50    5.80
   6  -2  -6 1419.56   85.19
   6  -2  -6 1298.17   83.99
   6  -2  -6 1380.96   83.39
   5  -2  -6  616.74   43.80
   5  -2  -6  623.84   39.00
   5  -2  -6  569.24   40.40
   4  -2  -6   85.79   16.20
   4  -2  -6   75.49   11.80
   4  -2  -6   72.39   15.40
   4  -2  -6   56.69   18.20
   3  -2  -6  311.87   25.30
   3  -2  -6  243.78   27.30
   3  -2  -6  251.47   25.40
   2  -2  -6  648.64   44.10
   2  -2  -6  640.04   42.60
   2  -2  -6  665.13   41.70
   2  -2  -6  585.64   44.80
   2  -2  -6  763.32   58.89
  -2   2   6  620.04   40.20
  -2   2   6  730.03   44.20
   1  -2  -6 1659.13  102.89
   1  -2  -6 1663.53  100.99
   1  -2  -6 1624.44  101.09
   1  -2  -6 1615.94  100.99
   1  -2  -6 1626.44  102.29
  -1   2   6 1746.93  102.59
  -1   2   6 1683.63   99.99
   0  -2  -6   97.69   10.20
   0  -2  -6   69.09   16.00
   0  -2  -6  103.19   16.80
   0  -2  -6  122.39   13.40
   0  -2  -6   93.09   12.20
   0   2   6  102.39    7.30
   0   2   6   90.99   11.00
   0   2   6   93.29    9.30
  -1  -2  -6 1734.93  100.09
  -1  -2  -6 1682.23  101.69
  -1  -2  -6 1506.55  101.79
  -1  -2  -6 1554.54   99.49
  -1  -2  -6 1600.84   99.79
   1   2   6 1538.75  101.09
   1   2   6 1706.13   98.99
   1   2   6 1798.62  101.09
  -2  -2  -6   10.20    6.60
  -2  -2  -6    9.10    7.90
  -2  -2  -6   -4.30    5.90
  -2  -2  -6   19.80   10.10
  -2  -2  -6    5.40    5.20
  -2  -2  -6  -11.40   19.40
  -2  -2  -6   -2.20    6.90
  -2  -2  -6    2.70   11.10
   2   2   6    6.60    7.80
   2   2   6    2.60    3.80
   2   2   6    5.20    4.10
   2   2   6   -5.80    5.80
   2   2   6   17.40   12.60
   2   2   6    2.00    6.10
  -3  -2  -6   65.19    7.40
  -3  -2  -6   55.49   12.10
  -3  -2  -6   40.50    8.20
  -3  -2  -6   64.99   15.80
  -3  -2  -6   50.39   10.60
  -3  -2  -6   36.00    9.10
  -3  -2  -6   55.19   11.10
   3   2   6   50.49    7.60
   3   2   6   48.10   10.70
   3   2   6   61.69   10.80
   3   2   6   39.40    8.90
   3   2   6   46.90   10.50
   3   2   6   53.59    9.60
   3   2   6   57.19   10.50
  -4  -2  -6  117.99   10.40
  -4  -2  -6  145.79   16.90
  -4  -2  -6  131.59   20.10
  -4  -2  -6  123.49   11.20
  -4  -2  -6  103.89   15.20
   4   2   6  120.99   15.40
   4   2   6  100.89   15.80
   4   2   6  114.79   13.70
   4   2   6  129.79   15.50
   4   2   6   87.49   13.30
  -5  -2  -6   49.70   15.10
  -5  -2  -6   34.70    6.70
  -5  -2  -6   82.39   26.10
  -5  -2  -6   43.50    6.70
  -5  -2  -6   27.20    9.60
  -5  -2  -6   40.50    7.90
   5   2   6   26.40    9.20
   5   2   6   29.60    9.40
   5   2   6   18.70    8.30
   5   2   6   36.30    9.00
   5   2   6   12.50   20.20
  -6  -2  -6   28.00   11.00
  -6  -2  -6   30.70    5.30
  -6  -2  -6   33.80    6.00
  -6  -2  -6    9.10   22.60
   6   2   6   40.20   10.60
   6   2   6   19.00    6.90
  -7  -2  -6  164.68   11.20
  -7  -2  -6  170.08   11.70
   7   2   6  161.48   12.50
   7   2   6  179.18   13.80
   7   2   6  167.98   13.50
   6  -3  -6  153.68   11.30
   6  -3  -6  140.19   12.30
   6  -3  -6  156.18   14.80
   5  -3  -6  492.75   35.80
   5  -3  -6  406.66   31.50
   4  -3  -6  160.88   14.30
   4  -3  -6  157.68   16.90
  -4   3   6  172.28   13.50
   3  -3  -6 1101.79   63.79
   3  -3  -6  961.40   65.89
   3  -3  -6 1018.90   65.89
   2  -3  -6 1896.01  109.49
   2  -3  -6 1786.32  109.49
   2  -3  -6 1831.62  111.19
   2  -3  -6 1710.73  111.09
  -2   3   6 1777.92  108.49
   1  -3  -6  836.32   50.59
   1  -3  -6  775.92   54.19
   1  -3  -6  879.81   53.09
   1  -3  -6  804.52   50.69
   1  -3  -6  806.82   50.39
  -1   3   6  835.12   49.60
  -1   3   6  759.62   50.39
   0  -3  -6  130.59   12.20
   0  -3  -6  131.59   17.70
   0  -3  -6  138.89   11.60
   0  -3  -6  139.79   12.60
   0  -3  -6  125.29   18.00
   0   3   6  127.19    9.60
   0   3   6  156.28   14.10
   0   3   6  118.89   11.20
  -1  -3  -6  285.67   23.80
  -1  -3  -6  319.97   25.30
  -1  -3  -6  254.97   19.70
  -1  -3  -6  273.27   19.40
   1   3   6  298.07   21.30
   1   3   6  271.77   19.00
   1   3   6  312.07   18.40
   1   3   6  283.17   23.20
   1   3   6  265.47   22.30
  -2  -3  -6 1147.49   68.19
  -2  -3  -6 1037.70   68.99
  -2  -3  -6 1029.00   65.69
  -2  -3  -6 1037.90   66.29
   2   3   6 1186.18   67.69
   2   3   6 1005.60   66.89
   2   3   6 1056.39   65.69
   2   3   6  996.70   66.29
   2   3   6 1157.68   65.39
  -3  -3  -6   33.30    8.00
  -3  -3  -6   74.09   15.40
  -3  -3  -6   57.19   16.00
  -3  -3  -6   62.79    9.10
  -3  -3  -6   52.09   11.00
  -3  -3  -6   50.29    7.70
   3   3   6   49.80    8.70
   3   3   6   55.29   11.90
   3   3   6   43.10    7.80
   3   3   6   38.90   10.50
   3   3   6   40.70   12.00
   3   3   6   62.19   10.10
   3   3   6   42.60    9.70
  -4  -3  -6  768.52   50.19
  -4  -3  -6  632.84   41.20
  -4  -3  -6  643.64   42.80
  -4  -3  -6  701.23   44.00
  -4  -3  -6  663.93   41.50
   4   3   6  649.93   42.30
   4   3   6  669.93   44.20
   4   3   6  666.23   42.80
   4   3   6  569.24   42.70
  -5  -3  -6  111.89   26.20
  -5  -3  -6  115.99   16.30
  -5  -3  -6  139.79   11.80
  -5  -3  -6  146.49   11.30
  -5  -3  -6  128.49   10.90
  -5  -3  -6  188.28   24.20
   5   3   6  143.29   15.10
   5   3   6  136.99   16.60
   5   3   6  151.18   15.90
  -6  -3  -6  167.08   13.10
  -6  -3  -6  166.18   22.70
  -6  -3  -6  199.18   14.40
   6   3   6  184.38   17.60
  -7  -3  -6  236.88   15.80
  -7  -3  -6  247.48   15.70
   7   3   6  225.78   16.60
   7   3   6  252.47   17.40
   6  -4  -6   52.59    7.00
   6  -4  -6   42.00    5.60
   5  -4  -6  334.17   22.60
   5  -4  -6  325.87   21.30
   5  -4  -6  333.07   23.70
  -5   4   6  285.37   21.30
   4  -4  -6  624.34   38.40
   4  -4  -6  623.64   38.40
   4  -4  -6  600.14   41.80
   4  -4  -6  613.44   39.90
  -4   4   6  569.84   37.50
  -4   4   6  573.74   38.20
   3  -4  -6   51.09   12.80
   3  -4  -6   46.60    9.20
   3  -4  -6   75.09   20.20
   3  -4  -6   34.30   13.70
  -3   4   6   46.40    9.90
  -3   4   6   44.10    6.90
   2  -4  -6  193.78   14.90
   2  -4  -6  210.88   15.70
  -2   4   6  196.18   14.90
  -2   4   6  169.28   13.90
  -2   4   6  181.38   15.00
   1  -4  -6 2310.77  134.69
   1  -4  -6 2200.88  132.89
   1  -4  -6 2152.68  133.09
   1  -4  -6 2165.58  132.59
  -1   4   6 2210.08  133.09
  -1   4   6 2267.47  132.49
  -1   4   6 2075.09  132.79
   0  -4  -6 2398.76  151.38
   0  -4  -6 2571.04  151.08
   0  -4  -6 2569.64  153.18
   0  -4  -6 2518.95  151.18
   0  -4  -6 2608.54  152.78
   0   4   6 2588.34  150.78
   0   4   6 2749.82  151.38
   0   4   6 2636.74  151.48
   0   4   6 2396.36  151.08
   0   4   6 2307.47  152.58
   0   4   6 2198.48  152.08
  -1  -4  -6  202.18   15.80
  -1  -4  -6  222.48   15.30
  -1  -4  -6  212.88   20.30
  -1  -4  -6  209.88   16.60
  -1  -4  -6  195.18   20.60
   1   4   6  206.18   15.20
   1   4   6  229.88   15.60
   1   4   6  221.68   14.30
   1   4   6  180.88   18.20
   1   4   6  202.18   16.30
   1   4   6  208.08   19.90
   1   4   6  240.18   18.40
  -2  -4  -6 5109.99  297.27
  -2  -4  -6 4689.73  296.07
  -2  -4  -6 4784.42  295.77
  -2  -4  -6 4937.41  296.17
  -2  -4  -6 5669.83  297.77
   2   4   6 5034.80  296.27
   2   4   6 4878.51  295.87
   2   4   6 4757.12  296.17
   2   4   6 5025.60  295.57
   2   4   6 4679.13  296.17
   2   4   6 4592.84  296.57
  -3  -4  -6   16.40    5.10
  -3  -4  -6    6.40    7.00
   3   4   6    9.80    6.90
   3   4   6    6.90    4.90
   3   4   6    8.50    5.30
   3   4   6    7.80   10.40
   3   4   6    8.70    9.80
   3   4   6   14.00    6.10
   3   4   6   19.30    6.80
  -4  -4  -6    1.40    7.10
  -4  -4  -6    9.40   18.40
  -4  -4  -6    9.80    4.80
  -4  -4  -6    8.90    4.80
   4   4   6   -4.10    6.40
   4   4   6    5.90    7.40
   4   4   6   10.80    7.90
   4   4   6   13.40    8.90
   4   4   6   37.60   19.40
  -5  -4  -6   32.80    7.20
  -5  -4  -6   38.50   17.60
  -5  -4  -6   47.40    8.00
  -5  -4  -6   63.09   14.30
   5   4   6   34.30    9.70
   5   4   6   26.20    8.10
   5   4   6   56.39   13.30
  -6  -4  -6   10.60   10.20
  -6  -4  -6   20.60    7.30
   6   4   6   41.60   10.10
  -7  -4  -6   -0.60    3.60
  -7  -4  -6    6.10    4.40
   7   4   6    6.60    4.30
   7   4   6    3.30    5.00
   5  -5  -6    9.60    4.20
   5  -5  -6   15.20    5.70
   5  -5  -6   22.90    4.90
  -5   5   6   17.40    4.70
   4  -5  -6  250.07   20.80
   4  -5  -6  245.88   18.10
   4  -5  -6  279.47   20.00
   4  -5  -6  268.37   18.10
  -4   5   6  270.87   18.10
  -4   5   6  264.47   17.80
   3  -5  -6  244.38   21.80
   3  -5  -6  180.48   16.10
   3  -5  -6  221.68   16.50
   3  -5  -6  226.18   18.20
  -3   5   6  228.68   15.90
  -3   5   6  219.28   15.30
  -3   5   6  208.68   17.80
   2  -5  -6  818.22   50.29
   2  -5  -6  799.42   51.49
   2  -5  -6  774.72   49.60
   2  -5  -6  810.12   54.29
   2  -5  -6  777.22   49.99
   2  -5  -6  872.71   53.39
  -2   5   6  799.92   49.30
  -2   5   6  774.82   49.60
  -2   5   6  737.73   50.69
  -2   5   6  843.52   50.29
   1  -5  -6  687.63   44.10
   1  -5  -6  618.14   40.90
   1  -5  -6  624.94   40.30
   1  -5  -6  551.74   42.80
   1  -5  -6  644.74   40.50
  -1   5   6  653.43   40.60
  -1   5   6  750.52   47.90
  -1   5   6  660.93   40.10
  -1   5   6  654.73   40.70
  -1   5   6  634.44   41.10
   0  -5  -6  300.97   21.00
   0  -5  -6  305.97   21.40
   0  -5  -6  286.47   20.30
   0   5   6  306.37   19.60
   0   5   6  326.97   20.40
   0   5   6  299.07   20.20
   0   5   6  313.47   21.10
   0   5   6  266.07   22.40
   0   5   6  285.17   23.90
  -1  -5  -6  459.65   31.40
  -1  -5  -6  475.15   30.60
  -1  -5  -6  498.65   33.60
  -1  -5  -6  496.25   30.70
  -1  -5  -6  477.45   31.70
   1   5   6  482.95   30.80
   1   5   6  501.65   31.50
   1   5   6  445.26   32.60
   1   5   6  495.55   33.40
   1   5   6  457.15   31.70
   1   5   6  489.65   30.90
   1   5   6  473.25   30.20
  -2  -5  -6  363.46   24.60
  -2  -5  -6  350.66   24.40
  -2  -5  -6  378.66   32.20
  -2  -5  -6  321.37   25.00
   2   5   6  363.26   24.60
   2   5   6  360.46   26.80
   2   5   6  332.37   26.60
   2   5   6  325.47   23.60
   2   5   6  369.26   23.00
   2   5   6  358.76   23.40
  -3  -5  -6   24.20    5.90
  -3  -5  -6   18.40    6.10
  -3  -5  -6   14.00    5.40
  -3  -5  -6   12.30    6.70
   3   5   6   19.30    6.10
   3   5   6   26.00    6.30
   3   5   6    7.70    6.10
   3   5   6   24.30    7.20
   3   5   6    1.50   13.40
   3   5   6   15.30    9.20
   3   5   6    0.20   12.10
  -4  -5  -6  907.51   58.69
  -4  -5  -6  904.61   58.49
  -4  -5  -6 1071.49   59.99
  -4  -5  -6  937.81   58.99
   4   5   6  963.50   60.49
   4   5   6  904.51   59.89
   4   5   6  898.21   59.49
   4   5   6  986.20   59.09
   4   5   6  980.70   61.99
  -5  -5  -6   15.00    4.90
  -5  -5  -6   17.20    6.00
  -5  -5  -6   15.70    5.20
  -5  -5  -6   10.00    7.30
   5   5   6   14.80    8.00
   5   5   6   16.70    7.40
   5   5   6   15.80    7.30
  -6  -5  -6   55.79    8.10
  -6  -5  -6   56.09   14.00
  -6  -5  -6   71.29    8.00
  -6  -5  -6   75.89    8.10
   6   5   6   84.19   10.50
   6   5   6   66.19   10.60
  -7  -5  -6  377.06   24.20
  -7  -5  -6  367.06   24.90
   7   5   6  406.96   25.20
   7   5   6  386.26   24.70
   4  -6  -6  100.99    9.20
   4  -6  -6  127.09    9.10
   4  -6  -6   86.79   10.80
  -4   6   6  120.89    8.70
  -4   6   6   98.29    9.40
  -4   6   6  116.59    9.50
   3  -6  -6  158.08   11.90
   3  -6  -6  162.58   12.40
   3  -6  -6  153.08   16.00
  -3   6   6  158.38   11.80
  -3   6   6  147.49   17.00
  -3   6   6  147.09   13.40
   2  -6  -6   32.60    7.50
   2  -6  -6   28.00    7.00
   2  -6  -6   27.60    9.40
   2  -6  -6   32.60    6.90
   2  -6  -6   34.00    8.30
  -2   6   6   18.70    5.70
  -2   6   6   37.80    6.70
  -2   6   6   27.00    7.40
  -2   6   6   24.10    7.50
   1  -6  -6  588.94   37.60
   1  -6  -6  596.64   37.90
   1  -6  -6  602.04   37.50
   1  -6  -6  641.94   40.90
   1  -6  -6  563.54   38.20
  -1   6   6  573.24   39.00
  -1   6   6  635.54   37.70
  -1   6   6  599.54   38.80
  -1   6   6  583.74   39.30
  -1   6   6  563.34   37.30
  -1   6   6  611.44   38.20
   0  -6  -6  730.73   49.80
   0  -6  -6  793.72   49.10
   0  -6  -6  816.42   51.89
   0  -6  -6  809.82   49.10
   0  -6  -6  795.02   49.30
   0   6   6  809.82   49.60
   0   6   6  784.12   48.90
   0   6   6  773.72   49.90
   0   6   6  798.62   49.10
   0   6   6  763.22   49.90
   0   6   6  818.32   50.79
  -1  -6  -6 2366.06  140.29
  -1  -6  -6 2309.87  138.69
  -1  -6  -6 2374.06  138.99
  -1  -6  -6 2409.36  138.89
   1   6   6 2226.28  139.29
   1   6   6 2259.67  138.69
   1   6   6 2340.57  139.39
   1   6   6 2282.17  139.09
   1   6   6 2234.18  139.79
   1   6   6 2311.77  138.59
   1   6   6 2111.59  140.49
  -2  -6  -6   75.49   10.20
  -2  -6  -6   84.09    9.50
  -2  -6  -6   84.09    9.60
   2   6   6   70.79    9.10
   2   6   6   75.69   10.10
   2   6   6   75.89   18.20
   2   6   6   90.39   12.60
   2   6   6   93.39   11.20
   2   6   6   71.29    9.40
   2   6   6   66.99   11.70
  -3  -6  -6  183.68   14.20
  -3  -6  -6  198.48   14.80
  -3  -6  -6  179.98   15.00
  -3  -6  -6  192.68   15.40
   3   6   6  175.38   14.80
   3   6   6  168.68   18.00
   3   6   6  191.68   17.10
   3   6   6  152.18   15.10
   3   6   6  161.78   19.40
   3   6   6  191.58   14.80
  -4  -6  -6  727.03   45.20
  -4  -6  -6  714.93   45.00
  -4  -6  -6  762.12   46.00
  -4  -6  -6  692.23   44.70
   4   6   6  693.03   46.30
   4   6   6  728.33   47.00
  -5  -6  -6    6.40    4.40
  -5  -6  -6    5.10    4.60
  -5  -6  -6    7.70    5.70
   5   6   6   15.80    6.90
   5   6   6   -1.30    9.80
  -6  -6  -6   21.00    4.30
  -6  -6  -6   16.80    8.70
  -6  -6  -6   25.50    5.70
   6   6   6   22.20    5.90
   6   6   6   15.70    6.40
  -7  -6  -6  257.37   16.40
   7   6   6  255.27   17.60
   7   6   6  251.47   17.20
   3  -7  -6   -1.50    4.80
   3  -7  -6   -0.60    3.40
   3  -7  -6   -4.30    5.30
   3  -7  -6    2.50    2.30
  -3   7   6   -4.70    5.40
  -3   7   6    2.10    3.30
  -3   7   6   -1.70    2.90
  -3   7   6   -1.60    6.80
   2  -7  -6  503.75   31.60
   2  -7  -6  498.95   30.60
   2  -7  -6  517.15   32.60
   2  -7  -6  444.66   30.10
   2  -7  -6  436.36   31.30
  -2   7   6  462.95   32.30
  -2   7   6  488.85   31.40
  -2   7   6  477.25   30.80
  -2   7   6  523.25   30.70
  -2   7   6  495.95   30.50
   1  -7  -6  899.21   60.39
   1  -7  -6  995.10   61.19
   1  -7  -6 1007.20   60.29
  -1   7   6 1015.70   60.09
  -1   7   6  993.90   59.99
  -1   7   6  956.20   60.39
   0  -7  -6   13.70    4.70
   0  -7  -6    4.20    3.60
   0   7   6   21.80    7.10
   0   7   6   12.70    4.90
   0   7   6   11.70    4.50
   0   7   6    9.50    5.10
   0   7   6   15.30    6.50
  -1  -7  -6  339.47   22.30
  -1  -7  -6  347.27   22.50
  -1  -7  -6  336.07   22.20
   1   7   6  323.67   25.30
   1   7   6  249.78   43.30
   1   7   6  331.27   22.20
   1   7   6  342.97   24.20
   1   7   6  340.17   23.00
  -2  -7  -6    9.30    5.40
  -2  -7  -6   10.30    4.50
  -2  -7  -6    8.20    5.30
   2   7   6   13.00    5.50
   2   7   6   18.70    7.00
   2   7   6   10.40    5.30
   2   7   6    3.60    7.20
   2   7   6   -4.50    8.90
   2   7   6    0.10    7.30
  -3  -7  -6   55.09    7.90
  -3  -7  -6   65.39    9.60
  -3  -7  -6   46.70    9.00
  -3  -7  -6   58.09    9.20
   3   7   6   65.99    8.90
   3   7   6   62.89   11.00
   3   7   6   73.59   11.20
  -4  -7  -6   23.80    8.80
  -4  -7  -6   21.40    6.50
  -4  -7  -6   26.90    6.50
   4   7   6   19.70   11.20
   4   7   6   10.30    6.70
  -5  -7  -6  995.00   59.49
  -5  -7  -6  942.51   59.49
  -5  -7  -6 1008.10   60.19
   5   7   6  954.10   60.19
   5   7   6  957.40   60.39
  -6  -7  -6   88.29    8.00
  -6  -7  -6  105.59    8.40
  -6  -7  -6  102.79   13.60
   6   7   6  121.79   10.20
   2  -8  -6   -1.60    2.10
   2  -8  -6   -3.30    3.10
  -2   8   6    2.50    4.10
  -2   8   6    2.70    2.60
  -2   8   6    3.40    3.30
  -2   8   6   -2.70    2.80
   1  -8  -6  100.79   10.00
   1  -8  -6  120.79    8.90
   1  -8  -6  106.79    8.90
   1  -8  -6  125.59   12.30
  -1   8   6  115.49    9.90
  -1   8   6  145.89   10.80
  -1   8   6   98.79   11.60
  -1   8   6  131.09   11.90
  -1   8   6  127.59    9.30
   0  -8  -6   27.40    5.40
   0  -8  -6   22.90    4.90
   0  -8  -6   35.10    8.70
   0   8   6   13.30    6.60
   0   8   6   34.60    6.70
   0   8   6   32.00    6.60
   0   8   6   16.70    5.20
   0   8   6   26.20    5.60
  -1  -8  -6  496.45   33.20
   1   8   6  565.74   34.40
   1   8   6  572.74   35.00
   1   8   6  489.75   35.60
   1   8   6  525.45   33.40
   1   8   6  529.65   33.20
  -2  -8  -6  252.87   18.30
  -2  -8  -6  284.47   18.90
   2   8   6  262.87   18.40
   2   8   6  274.07   21.00
   2   8   6  291.67   25.70
   2   8   6  283.47   21.10
   2   8   6  293.77   20.00
  -3  -8  -6  777.22   48.60
  -3  -8  -6  797.52   48.90
   3   8   6  778.42   50.59
   3   8   6  834.82   49.99
   3   8   6  757.22   49.20
  -4  -8  -6   56.09    6.10
  -4  -8  -6   55.19    8.40
  -4  -8  -6   68.19    7.80
   4   8   6   48.70   10.80
   4   8   6   45.70    9.20
  -5  -8  -6  103.09    8.20
  -5  -8  -6  105.69    8.80
   5   8   6  132.39   11.70
  -6  -8  -6   42.80    4.60
  -6  -8  -6   59.59    5.40
   6   8   6   50.09    6.40
   0  -9  -6  257.77   18.40
   0  -9  -6  302.37   19.10
   0  -9  -6  311.97   18.90
   0  -9  -6  272.77   19.30
   0   9   6  282.97   20.70
   0   9   6  299.57   19.50
  -1  -9  -6   41.30    5.50
  -1  -9  -6   40.10    4.60
   1   9   6   37.40    7.40
   1   9   6   30.70    5.80
  -2  -9  -6    2.40    2.50
  -2  -9  -6    3.80    2.00
   2   9   6   -0.40    2.70
   2   9   6   -3.00    4.30
  -3  -9  -6   22.70    5.30
  -3  -9  -6   34.80    4.10
   3   9   6   18.30    6.80
   3   9   6   28.00    6.40
   3   9   6   31.90    7.60
  -4  -9  -6  198.48   12.30
  -4  -9  -6  183.28   12.80
   4   9   6  171.48   13.80
   4   9   6  189.48   14.50
   4   4  -7  115.19   13.40
   4   4  -7  110.29   14.30
  -4  -4   7   77.69    9.20
   3   4  -7  256.07   19.90
   3   4  -7  239.88   21.20
  -3  -4   7  264.07   17.00
  -3  -4   7  247.48   17.10
   2   4  -7  166.08   14.30
   2   4  -7   97.39   17.00
   2   4  -7  144.19   32.40
   2   4  -7  131.39   10.60
  -2  -4   7  141.69   10.70
  -2  -4   7  113.99   11.50
  -2  -4   7  137.29   10.30
  -2  -4   7  103.19   16.40
   1   4  -7  295.67   20.90
   1   4  -7  298.67   20.80
  -1  -4   7  369.06   24.70
  -1  -4   7  336.37   21.90
  -1  -4   7  272.77   20.60
  -1  -4   7  280.67   20.10
  -1  -4   7  345.97   23.10
   0   4  -7  917.61   55.39
   0   4  -7  857.31   55.89
   0  -4   7  770.32   56.49
   0  -4   7  948.61   55.09
   0  -4   7 1038.20   56.59
   0  -4   7  869.51   55.29
   0  -4   7  904.31   55.49
  -1   4  -7   20.20    7.00
   1  -4   7    1.90    4.50
   1  -4   7    9.60    3.80
   1  -4   7    8.30    4.70
   5   3  -7  255.17   20.10
   5   3  -7  309.07   21.00
   4   3  -7   43.60    9.90
   4   3  -7   55.99   11.10
  -4  -3   7   41.80    9.30
  -4  -3   7   61.89    7.50
   3   3  -7   26.10    8.20
   3   3  -7   15.20    7.90
  -3  -3   7   31.10    6.00
  -3  -3   7   18.80    5.70
  -3  -3   7   35.80    5.70
   2   3  -7  818.82   54.49
   2   3  -7  798.92   56.19
   2   3  -7  841.52   52.99
   2   3  -7  894.11   53.19
  -2  -3   7  887.71   52.69
  -2  -3   7  859.71   52.39
   1   3  -7   24.80   11.40
   1   3  -7   34.00    6.70
   1   3  -7   33.20    8.20
   1   3  -7   34.70   13.50
  -1  -3   7   37.90    8.20
  -1  -3   7   33.40    7.40
  -1  -3   7   31.70    7.30
  -1  -3   7   26.80    5.10
  -1  -3   7   34.50    7.40
   0   3  -7   97.39   11.00
   0   3  -7  126.69   10.80
   0   3  -7  123.79   10.80
   0  -3   7  111.89   10.00
   0  -3   7  104.39   10.50
   0  -3   7  109.59   10.70
   0  -3   7  102.79   12.70
   0  -3   7  115.89   11.00
  -1   3  -7  249.28   16.80
  -1   3  -7  222.58   16.90
   1  -3   7  240.58   16.90
   1  -3   7  250.37   19.50
   1  -3   7  238.18   17.70
   1  -3   7  212.58   17.30
   1  -3   7  224.68   16.10
   1  -3   7  209.58   18.40
  -2   3  -7  122.99   11.10
   2  -3   7  116.39   10.90
   2  -3   7  128.09   11.90
   2  -3   7  123.39   11.10
   2  -3   7  135.19   12.80
  -3   3  -7   22.00    5.50
  -3   3  -7   32.80    6.90
   3  -3   7   34.10    7.10
   3  -3   7   40.00   10.10
   3  -3   7   42.30    9.00
   6   2  -7  205.48   14.50
   5   2  -7   28.20    8.10
   5   2  -7   29.50    6.70
   4   2  -7   12.10    9.00
   4   2  -7    6.70    6.90
  -4  -2   7   13.30    5.10
   3   2  -7  220.48   19.40
   3   2  -7  206.88   19.00
   3   2  -7  218.28   25.80
  -3  -2   7  222.58   15.90
  -3  -2   7  205.48   14.50
   2   2  -7  120.99   16.70
   2   2  -7  118.59   18.00
   2   2  -7  131.09   11.70
   2   2  -7  116.69   12.00
  -2  -2   7  111.49   13.20
  -2  -2   7  139.09   22.50
  -2  -2   7  118.49   10.80
  -2  -2   7  116.09    9.30
   1   2  -7  315.67   25.60
   1   2  -7  298.97   20.60
   1   2  -7  255.17   27.00
   1   2  -7  291.07   20.70
   1   2  -7  275.87   20.90
  -1  -2   7  331.47   22.50
  -1  -2   7  276.87   18.90
  -1  -2   7  287.97   19.50
  -1  -2   7  275.27   20.40
  -1  -2   7  288.97   24.00
   0   2  -7  429.56   27.20
   0   2  -7  355.66   42.40
   0   2  -7  397.26   27.00
   0   2  -7  390.06   35.60
   0   2  -7  411.06   27.30
   0  -2   7  431.06   27.50
   0  -2   7  395.86   25.90
   0  -2   7  410.86   26.80
   0  -2   7  404.26   26.50
  -1   2  -7  361.06   25.10
  -1   2  -7  380.46   24.80
   1  -2   7  365.86   24.50
   1  -2   7  395.96   25.20
   1  -2   7  367.96   24.30
   1  -2   7  336.97   24.50
  -2   2  -7  111.79   16.00
  -2   2  -7  152.98   12.60
  -2   2  -7  117.99   26.80
   2  -2   7  158.68   14.00
   2  -2   7  134.39   12.80
   2  -2   7  152.78   14.30
   2  -2   7  137.09   14.10
   2  -2   7  178.78   20.80
  -3   2  -7   50.39    7.90
  -3   2  -7   62.59    9.40
   3  -2   7   44.70    8.70
   3  -2   7   41.50    9.80
   3  -2   7   64.59   10.60
   4  -2   7  155.28   12.90
   4  -2   7  167.78   15.20
   4  -2   7  131.99   12.60
   4  -2   7  176.28   13.90
   6   1  -7  160.38   20.10
   6   1  -7  160.28   16.40
   5   1  -7   92.19   13.20
   5   1  -7  100.09   12.80
   4   1  -7  771.92   48.40
   4   1  -7  713.03   48.30
   3   1  -7  847.72   50.09
   3   1  -7  785.62   50.19
   3   1  -7  657.73   48.40
  -3  -1   7  805.22   46.50
  -3  -1   7  706.43   50.59
   2   1  -7  827.32   50.99
   2   1  -7  758.12   53.09
   2   1  -7  808.62   52.69
  -2  -1   7  810.72   49.90
  -2  -1   7  819.22   49.20
   1   1  -7  269.87   19.90
   1   1  -7  265.87   18.90
   1   1  -7  261.87   23.50
   1   1  -7  271.87   19.60
   1   1  -7  251.27   23.10
   1   1  -7  241.68   24.20
  -1  -1   7  261.27   18.00
  -1  -1   7  271.77   17.10
  -1  -1   7  243.28   20.50
   0   1  -7    2.60    4.80
   0   1  -7    1.00    6.30
   0   1  -7    9.90   11.70
   0   1  -7   -7.10    4.40
   0   1  -7   15.00   11.60
   0  -1   7   -5.40    7.80
   0  -1   7   -7.70   12.20
   0  -1   7    5.00    3.30
   0  -1   7    5.80    4.50
   0  -1   7   -1.60    5.80
  -1   1  -7  747.03   50.39
  -1   1  -7  821.72   54.29
  -1   1  -7  742.53   56.19
  -1   1  -7  839.82   50.39
   1  -1   7  798.22   49.30
   1  -1   7  882.41   50.79
   1  -1   7  759.92   53.09
   1  -1   7  817.92   50.09
   1  -1   7  790.52   49.80
  -2   1  -7   27.60   15.10
  -2   1  -7   15.40    6.10
  -2   1  -7   31.80    8.20
  -2   1  -7   26.10    7.80
   2  -1   7   25.80    6.60
   2  -1   7   49.60   13.10
   2  -1   7   19.20   17.20
   2  -1   7   19.90    5.40
   2  -1   7   42.70    9.90
   2  -1   7   23.50    6.50
   2  -1   7   13.90    7.00
  -3   1  -7  646.14   46.70
  -3   1  -7  723.33   52.59
   3  -1   7  842.92   50.49
   3  -1   7  791.32   49.80
   3  -1   7  776.62   48.00
   3  -1   7  755.42   47.80
  -4   1  -7  286.67   18.20
  -4   1  -7  245.18   20.50
  -4   1  -7  262.87   19.70
   4  -1   7  229.68   19.10
   4  -1   7  301.57   20.40
   4  -1   7  241.08   19.20
   4  -1   7  290.97   20.50
  -5   1  -7  128.19    9.90
  -5   1  -7  112.49   11.80
   5  -1   7  106.49   10.90
   5   0  -7   68.59   13.80
   5   0  -7   36.20    8.60
   4   0  -7   52.79   14.00
   4   0  -7   55.89   14.00
   4   0  -7   32.10    8.80
   3   0  -7  359.86   27.20
   3   0  -7  357.56   27.30
   3   0  -7  354.36   27.60
  -3   0   7  357.76   22.80
   2   0  -7  969.60   61.69
   2   0  -7  948.91   61.89
   2   0  -7  918.71   59.89
   2   0  -7  986.20   60.49
  -2   0   7  981.70   58.39
   1   0  -7   18.20    9.00
   1   0  -7   28.20    9.50
   1   0  -7   27.50    7.20
   1   0  -7   39.50    8.30
  -1   0   7   26.50   11.20
  -1   0   7   39.50    8.10
  -1   0   7   43.30    5.40
   0   0  -7   37.60   10.10
   0   0  -7   46.50   11.10
   0   0  -7   69.79    9.50
   0   0  -7   53.39   10.00
   0   0   7   59.09   14.10
   0   0   7   67.09   14.90
   0   0   7   62.29    6.10
   0   0   7   67.49    8.00
  -1   0  -7  110.29   11.60
  -1   0  -7   95.69   19.10
  -1   0  -7  113.69   13.10
  -1   0  -7  117.49   11.20
  -1   0  -7  130.49   25.20
  -1   0  -7  123.99   21.40
   1   0   7  100.59   14.60
   1   0   7  106.09   10.20
   1   0   7  140.29   13.30
   1   0   7   96.79    8.80
   1   0   7   95.99   11.60
  -2   0  -7 1337.77   77.59
  -2   0  -7 1096.79   80.79
  -2   0  -7 1379.56   80.19
  -2   0  -7 1339.37   77.29
  -2   0  -7 1210.48   82.89
  -2   0  -7 1263.07   76.99
   2   0   7 1296.37   78.69
   2   0   7 1246.08   79.09
   2   0   7 1180.28   77.09
   2   0   7 1376.16   77.79
   2   0   7 1176.28   76.39
   2   0   7 1155.48   76.79
  -3   0  -7  360.66   23.60
  -3   0  -7  319.57   43.40
  -3   0  -7  365.16   22.70
  -3   0  -7  368.36   23.20
  -3   0  -7  328.97   29.40
   3   0   7  300.87   23.50
   3   0   7  309.77   27.40
   3   0   7  324.17   23.70
   3   0   7  345.27   25.70
   3   0   7  297.47   22.80
  -4   0  -7    5.90   11.10
  -4   0  -7    2.30    7.00
  -4   0  -7   32.10    8.40
  -4   0  -7    8.10   15.10
  -4   0  -7   14.40    5.20
   4   0   7    7.70   10.00
   4   0   7   15.70    7.90
   4   0   7    8.50    9.30
   4   0   7   16.50    7.30
  -5   0  -7    0.60    7.40
  -5   0  -7   -0.10    5.00
  -5   0  -7    4.70    4.00
   5   0   7    9.30    6.50
   5   0   7   -0.80    7.10
   5   0   7   -0.50    7.70
   5   0   7    1.00    4.90
   5  -1  -7   -0.20   10.10
   5  -1  -7   13.20    5.90
   4  -1  -7  993.90   64.49
   4  -1  -7  957.10   64.59
   4  -1  -7 1074.19   63.29
   3  -1  -7   -1.50    8.30
   3  -1  -7    5.00    5.90
   3  -1  -7    0.50    8.70
   2  -1  -7  486.45   31.40
   2  -1  -7  473.35   31.00
   2  -1  -7  464.65   33.10
   2  -1  -7  473.75   33.70
  -2   1   7  459.45   35.10
   1  -1  -7  572.74   36.70
  -1   1   7  562.84   34.00
  -1   1   7  552.64   35.10
  -1   1   7  523.25   38.00
   0  -1  -7    5.30    5.80
   0  -1  -7    7.30    8.40
   0  -1  -7    0.80    4.80
   0  -1  -7    4.10    7.10
   0  -1  -7    3.10    7.70
   0   1   7    0.40   10.70
   0   1   7    1.40    2.80
   0   1   7   -1.30    4.50
   0   1   7  -11.60   13.80
   0   1   7    4.20    8.40
  -1  -1  -7   77.49   11.00
  -1  -1  -7   44.20   12.70
  -1  -1  -7   96.49   17.00
   1   1   7   57.39    8.30
   1   1   7   85.99   16.30
   1   1   7   71.49    7.40
   1   1   7   58.99   14.40
   1   1   7   53.19   13.10
  -2  -1  -7 1945.31  114.99
  -2  -1  -7 1894.91  114.49
  -2  -1  -7 1989.50  114.89
  -2  -1  -7 2000.40  116.49
  -2  -1  -7 1828.32  122.09
  -2  -1  -7 1912.11  117.59
   2   1   7 1799.32  114.49
   2   1   7 1719.63  114.69
   2   1   7 2001.30  115.29
   2   1   7 1897.11  116.79
   2   1   7 1857.11  115.99
   2   1   7 1801.02  114.09
  -3  -1  -7  360.56   22.70
  -3  -1  -7  318.77   34.50
  -3  -1  -7  344.67   23.50
  -3  -1  -7  334.37   25.20
  -3  -1  -7  352.46   24.30
  -3  -1  -7  388.56   27.70
  -3  -1  -7  300.97   30.70
   3   1   7  303.57   26.30
   3   1   7  332.77   23.00
   3   1   7  341.87   26.00
   3   1   7  316.57   24.10
   3   1   7  335.07   23.30
   3   1   7  325.07   23.00
  -4  -1  -7  194.78   15.30
  -4  -1  -7  216.68   22.90
  -4  -1  -7  229.98   14.90
  -4  -1  -7  209.78   17.80
   4   1   7  180.38   16.00
   4   1   7  170.28   16.60
   4   1   7  224.78   18.60
   4   1   7  225.38   18.80
  -5  -1  -7  272.97   20.70
  -5  -1  -7  281.67   18.40
  -5  -1  -7  268.67   18.70
   5   1   7  315.27   20.50
   5   1   7  263.37   20.90
   5   1   7  274.37   20.80
  -6  -1  -7   47.00   11.00
  -6  -1  -7   47.70    5.00
   6   1   7   51.19    7.90
   6   1   7   50.19    7.80
   6  -2  -7   92.29   12.10
   6  -2  -7   79.69    9.20
   5  -2  -7   51.59   12.80
   5  -2  -7   66.79    9.60
   4  -2  -7  335.57   21.90
   4  -2  -7  299.37   25.90
   4  -2  -7  274.17   25.30
   3  -2  -7   17.80   10.20
   3  -2  -7   16.50   10.40
  -3   2   7   21.20   17.10
  -3   2   7   35.10    7.10
   2  -2  -7   42.70    9.90
   2  -2  -7   52.69   10.40
   2  -2  -7   35.10    8.50
  -2   2   7   65.69   15.90
   1  -2  -7 1431.76   92.69
   1  -2  -7 1458.05   91.19
   1  -2  -7 1537.85   91.19
  -1   2   7 1489.55   90.19
  -1   2   7 1660.83   93.79
  -1   2   7 1385.86   90.79
   0  -2  -7 1678.83   99.69
   0  -2  -7 1539.85   99.49
   0  -2  -7 1550.64  101.09
   0  -2  -7 1648.44   99.99
   0  -2  -7 1668.83  101.59
   0   2   7 1685.83   98.99
   0   2   7 1747.83  101.99
   0   2   7 1636.14  101.79
   0   2   7 1600.14   99.49
  -1  -2  -7  199.58   20.80
  -1  -2  -7  202.78   15.20
  -1  -2  -7  184.78   19.40
  -1  -2  -7  196.38   14.90
  -1  -2  -7  210.38   15.30
   1   2   7  210.68   18.60
   1   2   7  212.28   13.60
   1   2   7  198.88   19.00
   1   2   7  174.08   14.60
   1   2   7  190.38   16.80
  -2  -2  -7  648.14   43.90
  -2  -2  -7  697.83   42.70
  -2  -2  -7  601.84   51.39
  -2  -2  -7  703.93   43.30
  -2  -2  -7  729.03   46.40
   2   2   7  701.53   43.90
   2   2   7  714.03   45.20
   2   2   7  663.53   43.10
   2   2   7  650.93   42.60
  -3  -2  -7  103.69   13.00
  -3  -2  -7  130.69   20.20
  -3  -2  -7  127.29   10.70
  -3  -2  -7  116.89   13.10
  -3  -2  -7  115.69   17.80
  -3  -2  -7  114.99   13.10
   3   2   7  118.39   13.50
   3   2   7  109.19   11.00
   3   2   7  122.29   16.40
   3   2   7  104.79   12.00
   3   2   7  105.59   16.00
   3   2   7  120.59   11.40
  -4  -2  -7   47.10   14.30
  -4  -2  -7   25.50    8.10
  -4  -2  -7   31.70    6.80
  -4  -2  -7   22.40    6.00
   4   2   7   11.30    6.40
   4   2   7   29.10    9.20
   4   2   7   13.90    7.80
   4   2   7   42.80   16.70
   4   2   7   23.40    8.00
  -5  -2  -7  111.19   10.50
  -5  -2  -7  111.29   13.10
  -5  -2  -7  127.59   22.70
   5   2   7  120.49   13.70
   5   2   7  133.29   13.60
  -6  -2  -7  124.79   10.00
  -6  -2  -7  143.39    9.60
  -6  -2  -7  142.49   15.30
   6   2   7  136.69   11.90
   6   2   7  134.79   12.10
   6  -3  -7  542.25   30.60
   6  -3  -7  433.86   30.60
   5  -3  -7  181.78   13.20
   5  -3  -7  163.78   14.30
   4  -3  -7  276.87   19.70
   4  -3  -7  292.77   22.60
   3  -3  -7  337.97   26.70
   3  -3  -7  331.57   22.00
   3  -3  -7  316.77   26.80
  -3   3   7  309.97   20.50
  -3   3   7  262.97   29.90
   2  -3  -7 1167.98   73.89
   2  -3  -7 1069.19   74.59
   2  -3  -7 1099.29   74.49
   2  -3  -7 1207.38   72.09
   2  -3  -7 1188.68   71.99
  -2   3   7 1168.78   71.09
  -2   3   7 1297.77   75.79
   1  -3  -7  153.08   17.10
   1  -3  -7  178.48   22.00
  -1   3   7  161.98   14.30
  -1   3   7  178.78   11.80
   0  -3  -7  154.28   12.80
   0  -3  -7  165.48   17.30
   0  -3  -7  152.88   12.40
   0  -3  -7  157.58   13.10
   0  -3  -7  157.28   17.60
   0   3   7  133.29   19.80
   0   3   7  153.18   10.90
   0   3   7  142.39   12.60
   0   3   7  156.08   16.90
  -1  -3  -7   -5.50    6.70
  -1  -3  -7    4.90    5.10
  -1  -3  -7   -2.80    3.80
  -1  -3  -7   11.70   10.00
   1   3   7   -0.40    8.10
   1   3   7    5.00    9.60
   1   3   7    1.60    4.60
   1   3   7    6.80    3.60
  -2  -3  -7   15.00    5.30
  -2  -3  -7   13.70    6.90
  -2  -3  -7   21.60    8.30
   2   3   7   27.10    6.60
   2   3   7   33.30    7.70
   2   3   7   21.50    9.60
   2   3   7   27.30    6.70
   2   3   7   26.60   10.00
  -3  -3  -7  585.64   37.70
  -3  -3  -7  591.24   38.90
   3   3   7  613.24   37.80
   3   3   7  567.14   39.40
   3   3   7  616.84   41.70
   3   3   7  630.04   38.20
   3   3   7  579.04   38.40
   3   3   7  619.74   41.70
  -4  -3  -7 1527.45   97.39
  -4  -3  -7 1570.74   98.19
  -4  -3  -7 1614.34   97.39
   4   3   7 1660.53   97.89
   4   3   7 1569.64   98.69
   4   3   7 1801.22   99.59
   4   3   7 1555.14   98.49
   4   3   7 1532.65  101.09
  -5  -3  -7  444.86   31.40
  -5  -3  -7  481.05   29.80
  -5  -3  -7  481.25   35.90
   5   3   7  482.15   34.30
  -6  -3  -7  290.17   19.00
  -6  -3  -7  297.77   21.30
   6   3   7  297.87   20.90
   6   3   7  306.57   20.70
   5  -4  -7  264.87   18.80
   5  -4  -7  260.17   17.30
   4  -4  -7   91.99   19.40
   4  -4  -7   87.69   13.80
  -4   4   7   77.89    9.40
   3  -4  -7   73.59    9.50
   3  -4  -7   72.39   13.10
   3  -4  -7   88.79   17.60
  -3   4   7   82.49    8.40
  -3   4   7   82.59   10.80
   2  -4  -7   79.39   18.10
   2  -4  -7   78.09   14.50
   2  -4  -7   71.59    9.60
   2  -4  -7   68.39    9.60
  -2   4   7   80.99    7.50
  -2   4   7   48.10    9.60
   1  -4  -7 1137.79   74.99
   1  -4  -7 1155.88   73.29
   1  -4  -7 1135.59   73.19
   1  -4  -7 1194.28   73.09
   1  -4  -7 1151.68   76.39
   1  -4  -7 1292.27   75.29
  -1   4   7 1349.86   78.49
  -1   4   7 1197.88   72.59
  -1   4   7 1144.49   73.09
   0  -4  -7   10.70    7.10
   0  -4  -7   11.40    5.20
   0   4   7    2.60    4.70
   0   4   7    2.90   10.40
   0   4   7   15.00    8.20
   0   4   7    3.30    9.50
  -1  -4  -7 2934.81  195.98
   1   4   7 3142.79  194.88
   1   4   7 3620.14  197.48
  -2  -4  -7  815.22   52.49
  -2  -4  -7  975.20   55.39
  -2  -4  -7  885.11   53.19
  -2  -4  -7  858.71   55.19
   2   4   7  884.11   52.79
   2   4   7  804.42   52.29
   2   4   7  805.82   54.09
   2   4   7  768.02   53.19
   2   4   7  867.61   57.19
  -3  -4  -7  312.67   21.90
  -3  -4  -7  284.47   21.90
  -3  -4  -7  258.17   26.70
  -3  -4  -7  298.27   20.20
   3   4   7  331.57   26.60
   3   4   7  313.97   20.70
   3   4   7  310.97   21.40
   3   4   7  286.97   23.00
   3   4   7  285.57   20.40
  -4  -4  -7  789.52   47.60
  -4  -4  -7  839.22   49.00
   4   4   7  788.42   48.20
   4   4   7  675.13   54.59
   4   4   7  797.22   49.90
   4   4   7  742.23   49.90
   4   4   7  730.43   49.10
  -5  -4  -7    6.10    3.50
  -5  -4  -7    7.00   11.00
   5   4   7   10.90   10.30
  -6  -4  -7   20.50    4.60
  -6  -4  -7   15.10    6.60
   6   4   7   29.00    6.20
   6   4   7   24.50    6.40
  -7  -4  -7   54.99    6.40
  -7  -4  -7   55.99    5.70
   7   4   7   58.89    7.20
   7   4   7   51.39    7.00
   4  -5  -7  427.76   29.40
   4  -5  -7  432.66   27.40
   4  -5  -7  433.96   26.60
  -4   5   7  380.86   26.30
  -4   5   7  400.56   26.80
   3  -5  -7  208.08   18.30
   3  -5  -7  255.17   21.80
   3  -5  -7  256.77   29.90
   3  -5  -7  229.68   16.80
  -3   5   7  233.68   16.20
  -3   5   7  244.48   16.70
   2  -5  -7  563.64   37.10
   2  -5  -7  574.74   35.90
   2  -5  -7  581.44   38.80
  -2   5   7  554.94   35.10
  -2   5   7  530.85   35.40
   1  -5  -7   16.50    4.80
   1  -5  -7   17.40    5.50
   1  -5  -7    8.40    4.40
  -1   5   7    9.80    4.10
  -1   5   7   10.50    7.90
  -1   5   7    8.40    4.70
  -1   5   7    7.00   10.00
   0  -5  -7  715.43   44.30
   0  -5  -7  723.33   47.00
   0  -5  -7  701.13   44.80
   0  -5  -7  742.43   44.40
   0   5   7  704.33   47.30
   0   5   7  715.93   44.60
   0   5   7  659.93   45.50
   0   5   7  737.73   44.10
   0   5   7  703.83   46.50
  -1  -5  -7  180.28   13.50
  -1  -5  -7  158.28   18.30
  -1  -5  -7  158.78   12.80
  -1  -5  -7  176.08   14.00
   1   5   7  170.18   12.30
   1   5   7  157.08   13.20
   1   5   7  144.59   16.30
   1   5   7  165.38   14.90
   1   5   7  166.48   18.30
  -2  -5  -7  516.45   32.30
  -2  -5  -7  476.45   32.10
  -2  -5  -7  495.95   34.50
  -2  -5  -7  502.85   31.60
   2   5   7  482.45   31.60
   2   5   7  460.75   31.20
   2   5   7  485.95   33.60
   2   5   7  565.84   36.50
   2   5   7  463.55   32.40
  -3  -5  -7    6.00    7.30
  -3  -5  -7   14.10    5.90
  -3  -5  -7   11.50    4.70
  -3  -5  -7   17.60    8.90
  -3  -5  -7    9.00    6.10
   3   5   7   23.10   18.80
   3   5   7    9.60    7.30
   3   5   7   14.50    6.50
   3   5   7    1.70    5.70
   3   5   7   -4.10   13.10
   3   5   7    7.60    5.20
  -4  -5  -7   76.09   15.80
  -4  -5  -7   71.39    9.90
  -4  -5  -7  104.49   12.40
  -4  -5  -7   94.99    8.90
   4   5   7   88.29   11.80
   4   5   7  110.79   11.20
   4   5   7   80.39   14.70
  -5  -5  -7  753.82   46.20
  -5  -5  -7  751.22   45.30
   5   5   7  651.13   47.50
   5   5   7  767.42   47.00
  -6  -5  -7  532.95   32.80
  -6  -5  -7  494.95   31.30
  -6  -5  -7  456.95   30.90
   6   5   7  508.85   32.30
   6   5   7  515.75   32.40
   4  -6  -7    3.80    8.70
   4  -6  -7    1.10    3.00
  -4   6   7   -3.90    3.50
  -4   6   7    6.60    4.40
   3  -6  -7   30.70    7.50
   3  -6  -7   28.90    8.40
   3  -6  -7   32.70    6.90
   3  -6  -7   34.50    6.40
  -3   6   7   32.20    6.60
  -3   6   7   28.50    6.30
  -3   6   7   22.70    5.20
   2  -6  -7   57.39   11.10
   2  -6  -7   45.50    9.70
   2  -6  -7   28.90   13.50
   2  -6  -7   46.50    8.00
  -2   6   7   56.89    9.70
  -2   6   7   52.59    6.70
  -2   6   7   49.80    7.20
  -2   6   7   50.69   12.50
   1  -6  -7  253.17   17.50
   1  -6  -7  296.07   22.10
   1  -6  -7  254.17   17.40
   1  -6  -7  258.07   18.20
   1  -6  -7  235.38   17.90
   1  -6  -7  258.57   19.70
  -1   6   7  236.28   19.00
  -1   6   7  261.37   17.40
  -1   6   7  266.07   17.70
  -1   6   7  221.68   23.90
   0  -6  -7  343.17   24.50
   0  -6  -7  389.86   24.20
   0  -6  -7  346.97   24.70
   0  -6  -7  362.76   24.10
   0  -6  -7  382.76   27.90
   0   6   7  432.66   27.80
   0   6   7  332.57   23.70
   0   6   7  355.46   30.20
   0   6   7  363.96   26.50
   0   6   7  364.46   25.40
  -1  -6  -7  541.65   32.20
  -1  -6  -7  501.95   32.40
  -1  -6  -7  493.75   33.10
  -1  -6  -7  527.55   31.90
  -1  -6  -7  545.65   35.00
   1   6   7  423.76   36.00
   1   6   7  526.45   34.00
   1   6   7  506.75   31.80
   1   6   7  506.55   32.40
   1   6   7  492.35   32.80
   1   6   7  433.66   33.00
  -2  -6  -7  132.19   11.80
  -2  -6  -7  128.69   12.20
  -2  -6  -7  132.99   15.30
  -2  -6  -7  117.19   10.60
   2   6   7  112.99   11.30
   2   6   7  117.29   12.10
   2   6   7  150.18   24.40
   2   6   7  120.79   13.50
  -3  -6  -7 3971.50  214.28
  -3  -6  -7 3659.33  213.68
  -3  -6  -7 3745.33  213.98
   3   6   7 3690.93  213.98
   3   6   7 3372.96  213.58
   3   6   7 3587.74  214.68
   3   6   7 3051.29  214.48
   3   6   7 3312.07  215.18
  -4  -6  -7   40.00    9.00
  -4  -6  -7   45.80    7.40
  -4  -6  -7   50.39   12.90
   4   6   7   46.10   15.90
   4   6   7   57.59   10.80
  -5  -6  -7   74.59    7.30
  -5  -6  -7   67.49    9.70
  -5  -6  -7   54.29    8.00
  -5  -6  -7   54.49    8.00
   5   6   7   59.09   10.90
   5   6   7   60.59   11.40
  -6  -6  -7   66.29   12.50
  -6  -6  -7   60.29    7.90
  -6  -6  -7   68.39    7.00
   6   6   7   63.49    8.70
   3  -7  -7 1356.96   90.19
   3  -7  -7 1576.24   90.79
  -3   7   7 1554.54   90.29
   2  -7  -7  505.95   36.20
   2  -7  -7  609.14   38.30
   2  -7  -7  563.74   36.60
   2  -7  -7  602.34   37.10
  -2   7   7  571.74   36.90
  -2   7   7  650.03   36.40
  -2   7   7  600.14   36.70
  -2   7   7  597.74   37.80
  -2   7   7  576.44   36.40
   1  -7  -7  103.59   10.00
   1  -7  -7   99.09    8.70
   1  -7  -7   88.39   12.60
   1  -7  -7   91.39    8.60
  -1   7   7   94.39    8.60
  -1   7   7   99.29    9.50
  -1   7   7   88.09   10.80
  -1   7   7   96.59   12.40
  -1   7   7   93.39    9.10
   0  -7  -7   90.19   12.00
   0   7   7   83.09    8.50
   0   7   7   64.99   14.00
   0   7   7   95.29    9.40
   0   7   7   79.49    8.70
  -1  -7  -7   52.89    7.90
  -1  -7  -7   49.70    6.80
  -1  -7  -7   50.09    7.60
   1   7   7   53.69    7.50
   1   7   7   51.29   10.40
   1   7   7   35.50    8.10
   1   7   7   48.10    8.10
  -2  -7  -7   53.19    7.00
  -2  -7  -7   51.79    7.70
  -2  -7  -7   43.90    7.80
   2   7   7   44.10   10.30
   2   7   7   40.80    7.70
   2   7   7   66.09   12.20
   2   7   7   48.80    9.90
   2   7   7   36.70    8.00
  -3  -7  -7    5.60    4.40
  -3  -7  -7    8.60    6.40
  -3  -7  -7   16.80    5.00
   3   7   7   13.20    8.50
   3   7   7   14.70    6.30
   3   7   7    2.50   11.20
  -4  -7  -7  223.88   15.00
  -4  -7  -7  219.68   15.30
  -4  -7  -7  192.48   15.60
  -4  -7  -7  228.98   15.80
   4   7   7  219.78   16.50
   4   7   7  204.58   18.90
   4   7   7  233.88   19.40
  -5  -7  -7  387.26   25.20
  -5  -7  -7  357.76   25.10
  -5  -7  -7  435.26   25.90
   5   7   7  409.86   26.80
   5   7   7  402.76   26.30
  -6  -7  -7   -0.10    3.70
  -6  -7  -7    2.50    4.30
  -6  -7  -7    4.60    6.60
   2  -8  -7   14.90    4.10
   2  -8  -7    9.90    3.40
  -2   8   7   12.60    2.60
  -2   8   7   16.70    5.40
  -2   8   7   22.90    5.90
   1  -8  -7  190.48   13.70
   1  -8  -7  220.68   15.00
  -1   8   7  207.38   13.80
  -1   8   7  212.58   15.90
  -1   8   7  205.88   13.90
  -1   8   7  203.18   14.40
   0  -8  -7    2.90    3.00
   0  -8  -7    4.40    2.90
   0  -8  -7    0.90    3.60
   0   8   7    2.20    2.90
   0   8   7   14.00    5.00
   0   8   7   18.80    8.60
   0   8   7    6.40    3.90
   0   8   7   16.90    5.30
  -1  -8  -7   87.49    7.70
  -1  -8  -7   88.09    7.90
   1   8   7   98.69   10.10
   1   8   7   85.89   10.10
   1   8   7   80.29   10.90
   1   8   7   96.19    8.00
  -2  -8  -7 1168.48   69.79
  -2  -8  -7 1117.99   69.79
   2   8   7 1071.59   69.59
   2   8   7 1218.48   70.59
   2   8   7 1155.98   70.69
  -3  -8  -7   73.79    7.90
  -3  -8  -7   65.89    6.50
   3   8   7   82.09   10.50
   3   8   7   77.29    8.80
   3   8   7   73.99   17.50
  -4  -8  -7   10.00    2.50
  -4  -8  -7    6.00    3.90
   4   8   7   33.50   10.50
   4   8   7   12.10    4.40
   4   8   7    2.50    7.90
  -5  -8  -7    2.60    3.20
  -5  -8  -7   12.80    4.10
   5   8   7   -5.40    6.90
  -1  -9  -7    4.90    3.60
   1   9   7    2.20    3.00
   1   9   7    2.20    5.50
   1   9   7   -2.50    5.10
  -2  -9  -7    3.90    2.50
   2   9   7    7.80    3.50
  -3  -9  -7  146.69   10.10
   3   9   7  163.28   11.50
   3   9   7  151.48   10.80
   4   3  -8  173.98   12.90
   4   3  -8  134.89   12.10
   3   3  -8  195.48   15.40
   3   3  -8  230.48   19.10
  -3  -3   8  188.08   13.70
  -3  -3   8  153.18   13.20
   2   3  -8   29.80   10.30
   2   3  -8   24.40    9.90
   2   3  -8   14.00    6.60
  -2  -3   8   18.70    4.40
  -2  -3   8   26.80    6.50
   1   3  -8  236.08   15.60
  -1  -3   8  224.78   14.70
  -1  -3   8  200.78   15.20
  -1  -3   8  201.58   18.00
   0  -3   8   19.70    4.80
   0  -3   8   28.10    6.80
   0  -3   8   22.40    5.70
   0  -3   8   14.60    6.10
   1  -3   8   86.69    9.60
   1  -3   8   87.89   10.00
   5   2  -8   14.70    3.70
   4   2  -8   24.10    5.40
   3   2  -8  469.55   31.10
   3   2  -8  466.05   31.70
  -3  -2   8  447.86   29.10
  -3  -2   8  477.85   29.80
   2   2  -8  912.51   57.39
   2   2  -8  891.61   58.09
   2   2  -8  874.21   56.09
  -2  -2   8  948.61   55.79
  -2  -2   8  923.21   55.99
  -2  -2   8  896.81   55.29
   1   2  -8  103.99   16.00
   1   2  -8  122.69   17.50
   1   2  -8  113.39   10.90
  -1  -2   8  107.79   10.10
  -1  -2   8  130.19   14.00
  -1  -2   8  111.89    9.40
  -1  -2   8  129.79   10.20
   0   2  -8  384.76   24.10
   0   2  -8  358.26   23.80
   0   2  -8  302.77   29.60
   0  -2   8  371.06   23.70
   0  -2   8  393.16   24.60
   0  -2   8  354.46   23.80
   0  -2   8  361.76   23.50
  -1   2  -8   32.90    7.70
   1  -2   8   25.30    6.00
   1  -2   8   21.60    5.50
   1  -2   8   34.30    9.20
   1  -2   8   24.80    6.30
   1  -2   8   21.30    9.00
  -2   2  -8  137.79   11.30
  -2   2  -8  147.79   11.40
   2  -2   8  151.18   10.90
   2  -2   8  133.09   12.20
  -3   2  -8   22.40    6.70
   3  -2   8   27.30    7.20
   3  -2   8   13.30    4.30
   5   1  -8  549.54   37.00
   5   1  -8  614.54   37.00
   4   1  -8  432.36   29.30
   4   1  -8  433.96   29.40
   3   1  -8    5.20    8.20
   3   1  -8   12.00    7.10
  -3  -1   8    0.30    7.20
  -3  -1   8    0.60    4.60
   2   1  -8  386.46   30.00
   2   1  -8  478.25   32.20
   2   1  -8  385.46   29.40
  -2  -1   8  424.66   26.60
  -2  -1   8  442.96   27.50
   1   1  -8  314.77   25.70
   1   1  -8  340.67   26.80
   1   1  -8  354.96   23.60
  -1  -1   8  339.57   22.80
  -1  -1   8  342.17   22.10
  -1  -1   8  403.06   33.90
   0   1  -8    8.40    4.40
   0   1  -8   17.10   10.10
   0   1  -8   13.50   16.20
   0  -1   8    0.50    4.20
   0  -1   8    5.50    4.20
   0  -1   8    9.50    5.00
  -1   1  -8   63.59   14.20
   1  -1   8   98.69    9.70
   1  -1   8   99.39    9.70
   1  -1   8   78.39   19.50
  -2   1  -8  277.47   19.00
  -2   1  -8  282.97   18.60
   2  -1   8  279.57   20.60
   2  -1   8  251.37   20.80
   2  -1   8  267.17   19.20
   2  -1   8  267.07   19.30
   2  -1   8  251.67   18.30
  -3   1  -8  316.87   21.00
  -3   1  -8  312.47   20.90
   3  -1   8  337.57   23.00
   3  -1   8  268.97   21.40
   3  -1   8  337.77   22.20
  -4   1  -8  471.05   28.40
   4  -1   8  375.16   28.10
   4  -1   8  492.85   29.20
   5   0  -8   41.70    9.20
   5   0  -8   47.90   10.90
   4   0  -8   83.39   12.70
   4   0  -8   94.89   12.80
   3   0  -8   -7.90    6.90
   3   0  -8   -7.10    6.50
  -3   0   8    0.80    5.80
   2   0  -8  865.31   57.69
   2   0  -8  865.41   57.29
   2   0  -8  921.91   56.39
   2   0  -8  863.41   55.89
  -2   0   8  933.21   55.59
  -2   0   8  929.51   54.79
   1   0  -8  880.01   58.79
   1   0  -8  905.21   56.89
   1   0  -8  941.81   56.79
   1   0  -8  859.01   58.19
  -1   0   8  923.21   57.29
  -1   0   8  930.71   55.49
  -1   0   8  914.11   55.99
   0   0  -8  474.75   32.70
   0   0  -8  463.75   36.10
   0   0  -8  564.74   33.20
   0   0  -8  515.65   36.40
   0   0   8  534.75   34.40
   0   0   8  473.25   40.20
   0   0   8  505.75   31.70
   0   0   8  508.15   32.40
   0   0   8  517.55   33.10
  -1   0  -8   45.50    9.60
  -1   0  -8   53.99    8.50
  -1   0  -8   12.90    9.70
   1   0   8   31.60    7.70
   1   0   8   39.20    9.20
   1   0   8   21.60   27.20
   1   0   8   40.00    6.70
   1   0   8   54.29   11.00
   1   0   8   30.20    6.00
  -2   0  -8  231.38   17.70
  -2   0  -8  256.57   17.20
  -2   0  -8  205.98   43.50
  -2   0  -8  278.17   19.40
   2   0   8  237.28   19.50
   2   0   8  247.18   18.10
   2   0   8  215.88   16.90
   2   0   8  195.38   16.90
   2   0   8  247.98   17.40
  -3   0  -8   21.20    5.70
  -3   0  -8   32.40    6.50
  -3   0  -8   31.70    7.30
   3   0   8   21.50    6.20
   3   0   8   16.20    6.20
   3   0   8   23.60    5.20
   3   0   8   38.50   10.60
  -4   0  -8  107.89    9.10
  -4   0  -8   98.59   10.00
   4   0   8   91.79   10.20
   4   0   8  100.99   10.40
   5  -1  -8   42.00   11.40
   4  -1  -8 1144.29   73.39
   4  -1  -8 1274.27   72.69
   4  -1  -8 1121.09   73.49
   3  -1  -8   53.39   14.00
   3  -1  -8   47.90   10.20
   3  -1  -8   51.09    9.30
  -3   1   8   63.59    8.50
   2  -1  -8  797.32   46.50
   2  -1  -8  694.63   47.80
   2  -1  -8  695.03   47.90
  -2   1   8  734.03   46.20
  -2   1   8  735.63   44.90
   1  -1  -8    5.00    5.20
   1  -1  -8   18.70    8.80
   1  -1  -8    8.30    7.90
   1  -1  -8    0.60    5.30
  -1   1   8    6.90    3.60
  -1   1   8   31.90   17.30
  -1   1   8    8.80    5.50
   0  -1  -8   64.99   15.20
   0  -1  -8   41.20   10.30
   0  -1  -8   56.79    9.10
   0  -1  -8   43.70   10.60
   0  -1  -8   73.99   12.70
   0   1   8   71.89    8.20
   0   1   8   52.09    6.50
   0   1   8   74.39   15.20
   0   1   8   45.80   15.40
   0   1   8   57.89   11.50
  -1  -1  -8   73.69   18.80
  -1  -1  -8   46.50   10.40
  -1  -1  -8   52.29   10.00
  -1  -1  -8   67.19   10.10
  -1  -1  -8   54.89    9.00
   1   1   8   56.09    8.30
   1   1   8   56.49   15.90
   1   1   8   35.90   10.30
   1   1   8   34.30    8.90
   1   1   8   47.30    6.60
   1   1   8   36.40    9.40
  -2  -1  -8  139.29   12.20
  -2  -1  -8  144.29   13.10
  -2  -1  -8  138.39   20.30
  -2  -1  -8  154.68   12.70
   2   1   8  148.09   14.70
   2   1   8  142.79   11.60
   2   1   8  140.89   12.70
   2   1   8  143.89   16.60
   2   1   8  139.69   11.90
   2   1   8  118.39   21.20
  -3  -1  -8  280.37   19.80
  -3  -1  -8  248.38   19.40
   3   1   8  292.97   20.00
   3   1   8  298.67   22.60
   3   1   8  274.77   19.30
   3   1   8  262.97   20.00
  -4  -1  -8  426.36   28.00
  -4  -1  -8  431.66   27.10
   4   1   8  460.05   31.00
   4   1   8  457.35   29.00
   4   1   8  372.36   28.20
  -5  -1  -8   37.10    4.90
  -5  -1  -8   36.60    6.80
   5   1   8   55.69   12.40
   5   1   8   44.60   11.80
   5   1   8   34.50    7.30
   5  -2  -8   88.79    9.00
   4  -2  -8   -8.50    9.60
   4  -2  -8   11.30    6.70
   4  -2  -8   -6.60    4.10
   3  -2  -8    5.90    4.70
   3  -2  -8    3.20    8.10
  -3   2   8   -0.60    5.60
   2  -2  -8  533.05   37.30
   2  -2  -8  579.34   34.80
   2  -2  -8  542.05   37.10
  -2   2   8  504.85   38.50
  -2   2   8  549.05   33.60
  -2   2   8  511.05   43.40
   1  -2  -8   22.90    7.10
   1  -2  -8   27.10    8.80
   1  -2  -8   16.00    4.90
   1  -2  -8   15.20    9.20
  -1   2   8   19.20    4.10
  -1   2   8   37.50   17.70
  -1   2   8   13.50    5.70
   0  -2  -8  229.08   20.30
   0  -2  -8  207.58   16.10
   0  -2  -8  199.98   15.80
   0  -2  -8  203.98   15.80
   0  -2  -8  220.18   20.30
   0  -2  -8  212.38   16.30
   0   2   8  188.48   15.30
   0   2   8  214.18   23.40
   0   2   8  209.58   14.20
   0   2   8  185.28   18.00
   0   2   8  182.28   20.30
  -1  -2  -8 4060.59  254.47
  -1  -2  -8 4321.97  254.07
  -1  -2  -8 4245.28  255.47
  -1  -2  -8 4689.23  256.37
  -1  -2  -8 4080.19  254.17
   1   2   8 4207.78  254.17
   1   2   8 4301.87  253.87
   1   2   8 4230.88  256.87
   1   2   8 3981.70  254.87
   1   2   8 4129.99  254.47
  -2  -2  -8    9.30    4.80
  -2  -2  -8    4.50    8.40
  -2  -2  -8   16.80    5.30
  -2  -2  -8  -11.90   21.60
  -2  -2  -8   21.30    6.40
   2   2   8   24.00    5.70
   2   2   8    6.30    7.30
   2   2   8   13.00    4.70
   2   2   8   19.20   14.10
   2   2   8   12.60    7.10
   2   2   8    7.70   11.50
  -3  -2  -8    0.10    3.80
  -3  -2  -8   -2.50    5.60
   3   2   8   -6.50    5.80
   3   2   8    5.80    6.80
   3   2   8   -2.50    4.70
   3   2   8   -3.80    8.20
   3   2   8    8.00    6.70
  -4  -2  -8  104.39    9.40
  -4  -2  -8   98.19   12.00
   4   2   8  117.59   11.10
   4   2   8  133.49   13.00
   4   2   8  104.49   14.60
  -5  -2  -8    4.70    5.20
  -5  -2  -8    2.00    2.70
   5   2   8   -0.60    7.30
   5   2   8    0.80    4.50
   5   2   8   -0.10    4.70
   5  -3  -8  965.90   58.89
   4  -3  -8  251.67   16.40
   4  -3  -8  231.78   19.70
   4  -3  -8  212.48   18.20
   3  -3  -8   46.70    8.10
  -3   3   8   42.40    6.30
   2  -3  -8  359.16   23.60
   2  -3  -8  362.46   28.30
   2  -3  -8  357.86   24.10
   2  -3  -8  333.57   26.50
  -2   3   8  350.66   24.40
  -2   3   8  326.87   33.70
  -2   3   8  357.46   22.70
   1  -3  -8  210.58   20.80
   1  -3  -8  218.08   20.90
   1  -3  -8  235.78   17.00
   1  -3  -8  227.38   16.90
  -1   3   8  225.68   15.40
  -1   3   8  270.37   25.60
  -1   3   8  213.28   16.70
   0  -3  -8  306.27   21.40
   0  -3  -8  322.67   21.20
   0  -3  -8  321.27   20.90
   0  -3  -8  314.77   24.80
   0  -3  -8  305.87   24.60
   0   3   8  329.77   26.90
   0   3   8  300.27   20.00
   0   3   8  293.27   25.40
   0   3   8  294.37   20.80
   0   3   8  273.37   23.20
  -1  -3  -8    0.40    5.60
  -1  -3  -8    3.90    7.60
  -1  -3  -8   -4.00    8.70
   1   3   8    2.50   12.80
   1   3   8    2.50    3.60
   1   3   8    0.50    6.20
   1   3   8    8.60    8.20
   1   3   8    1.60    4.70
  -2  -3  -8  296.27   26.70
  -2  -3  -8  317.17   21.00
  -2  -3  -8  294.27   21.80
  -2  -3  -8  354.46   26.20
   2   3   8  304.67   23.20
   2   3   8  313.07   20.70
   2   3   8  304.87   22.10
   2   3   8  306.47   21.20
   2   3   8  331.27   27.30
  -3  -3  -8   95.79    9.30
  -3  -3  -8   94.49   11.40
   3   3   8  118.29   11.20
   3   3   8  129.49   18.50
   3   3   8  110.59   11.00
   3   3   8  106.69   22.90
   3   3   8   90.89   12.70
   3   3   8  100.49   10.40
  -4  -3  -8   24.40    7.30
  -4  -3  -8   32.00    5.80
   4   3   8   13.10    9.00
   4   3   8   20.20    7.10
   4   3   8   33.30    8.80
   4   3   8   22.60    6.30
  -5  -3  -8  146.99   12.30
  -5  -3  -8  121.99   10.00
   5   3   8  165.78   14.50
   5   3   8  165.08   13.80
   5   3   8  129.19   12.60
  -6  -3  -8  446.26   27.50
   6   3   8  397.56   27.90
   6   3   8  474.15   28.00
   5  -4  -8   23.10    7.10
   5  -4  -8   10.00    3.80
   4  -4  -8   49.60    8.30
   4  -4  -8   56.59    6.80
   3  -4  -8  138.89   15.10
   3  -4  -8  168.78   17.50
   3  -4  -8  187.78   16.00
  -3   4   8  167.58   13.10
  -3   4   8  144.29   14.00
   2  -4  -8   37.00    9.60
   2  -4  -8   26.30    5.70
   2  -4  -8   29.70    8.20
   2  -4  -8   16.80    4.30
  -2   4   8   26.80    6.00
  -2   4   8   30.90    6.50
   1  -4  -8 1143.09   69.19
   1  -4  -8 1110.09   69.39
   1  -4  -8 1133.49   67.19
   1  -4  -8 1089.89   69.39
   1  -4  -8 1096.99   67.39
  -1   4   8 1020.50   71.19
  -1   4   8 1064.49   66.69
   0  -4  -8   17.20    5.50
   0  -4  -8   10.30    8.10
   0  -4  -8   14.30    4.50
   0  -4  -8    8.40    3.80
   0  -4  -8   17.90    9.00
   0   4   8   19.70    5.20
   0   4   8    7.70    9.40
   0   4   8   21.90    7.20
   0   4   8   17.60    4.20
   0   4   8   18.50   11.80
  -1  -4  -8   49.50    8.90
  -1  -4  -8   57.49    8.50
  -1  -4  -8   60.59    8.00
  -1  -4  -8   79.19   14.60
  -1  -4  -8   69.09   11.40
   1   4   8   51.09   13.20
   1   4   8   62.19    8.60
   1   4   8   67.29    7.00
   1   4   8   57.79   16.10
  -2  -4  -8   -9.80    9.10
  -2  -4  -8    7.30    4.90
  -2  -4  -8   15.20    4.50
  -2  -4  -8    5.60    7.50
   2   4   8    5.70    7.30
   2   4   8    2.10   14.10
   2   4   8   11.90    5.70
   2   4   8    9.00    4.60
   2   4   8    8.60    6.10
  -3  -4  -8  499.25   36.00
  -3  -4  -8  489.65   31.20
  -3  -4  -8  509.95   32.10
   3   4   8  535.75   32.10
   3   4   8  445.56   45.30
   3   4   8  483.85   33.10
   3   4   8  510.25   31.60
   3   4   8  448.36   31.70
  -4  -4  -8  163.48   15.40
  -4  -4  -8  211.58   13.60
   4   4   8  206.08   19.20
   4   4   8  163.58   19.60
   4   4   8  168.48   15.30
  -5  -4  -8   60.69    5.90
  -5  -4  -8   73.49   10.40
  -5  -4  -8   47.20    8.00
   5   4   8   70.39   11.50
   5   4   8   77.59    9.90
   5   4   8   55.89   11.90
  -6  -4  -8   -6.00    5.30
  -6  -4  -8   -0.90    2.60
   6   4   8    4.50    6.90
   4  -5  -8   34.90    6.60
   4  -5  -8   50.79    5.30
   3  -5  -8 1256.57   75.59
   3  -5  -8 1279.97   74.99
  -3   5   8 1218.88   74.59
  -3   5   8 1157.88   74.89
   2  -5  -8  942.91   72.29
   2  -5  -8 1103.49   67.89
  -2   5   8 1186.78   67.29
  -2   5   8 1109.59   68.59
  -2   5   8 1156.88   67.59
   1  -5  -8  428.66   28.00
   1  -5  -8  428.16   30.00
   1  -5  -8  492.45   31.30
   1  -5  -8  442.16   28.50
  -1   5   8  444.76   27.90
  -1   5   8  387.86   29.50
  -1   5   8  442.96   28.30
   0  -5  -8   66.59    8.90
   0  -5  -8   64.89    7.90
   0  -5  -8   63.39    8.40
   0  -5  -8   62.59   13.90
   0   5   8   52.69    8.40
   0   5   8   49.99   16.00
   0   5   8   61.69   13.90
   0   5   8   50.59   11.30
   0   5   8   62.79    7.40
  -1  -5  -8   85.29   15.60
  -1  -5  -8   98.59    9.30
  -1  -5  -8  102.59   10.40
  -1  -5  -8   97.49   10.10
   1   5   8  102.29   12.00
   1   5   8  107.19   14.40
   1   5   8   97.59   19.50
   1   5   8   99.39    9.30
   1   5   8  106.59   11.50
  -2  -5  -8  105.49   10.50
  -2  -5  -8   87.69   10.20
  -2  -5  -8   84.09   15.40
  -2  -5  -8  100.69    9.00
   2   5   8   98.99    9.70
   2   5   8   94.49    9.70
   2   5   8  101.29   11.00
   2   5   8   92.59   22.30
   2   5   8   90.49   12.90
  -3  -5  -8   15.20    4.80
  -3  -5  -8   20.30    4.30
  -3  -5  -8   12.50    4.70
   3   5   8   12.80    5.50
   3   5   8    6.70    7.50
   3   5   8    9.00    4.80
   3   5   8    5.70    5.90
  -4  -5  -8  537.45   33.70
   4   5   8  514.85   35.80
   4   5   8  528.35   33.20
  -5  -5  -8   38.40    5.00
   5   5   8   27.50    5.70
   5   5   8   59.49   11.00
  -6  -5  -8    6.00    3.80
  -6  -5  -8    7.40    2.90
   6   5   8   -7.20    5.60
   3  -6  -8    8.10    2.80
   3  -6  -8    3.90    3.70
  -3   6   8    0.90    3.80
  -3   6   8    2.70    4.70
   2  -6  -8  111.09   12.90
   2  -6  -8   94.89   10.60
   2  -6  -8   95.59    9.00
  -2   6   8   93.29    8.70
  -2   6   8   91.79   10.30
  -2   6   8   91.39    9.00
   1  -6  -8  128.39   12.80
   1  -6  -8  108.49   10.30
  -1   6   8   98.59   13.30
  -1   6   8  102.19    9.90
  -1   6   8  111.89    9.80
  -1   6   8  134.39   11.50
   0  -6  -8   77.69    8.00
   0  -6  -8   76.89   13.30
   0  -6  -8   71.89    9.40
   0   6   8   87.99    8.90
   0   6   8   90.59   10.00
   0   6   8   88.09    8.40
  -1  -6  -8  204.28   17.40
  -1  -6  -8  239.98   16.00
  -1  -6  -8  212.08   19.10
  -1  -6  -8  251.57   16.40
   1   6   8  241.68   18.60
   1   6   8  246.98   16.70
   1   6   8  237.68   16.50
   1   6   8  235.58   17.10
  -2  -6  -8  298.07   19.40
  -2  -6  -8  277.07   18.90
  -2  -6  -8  286.37   21.70
   2   6   8  308.07   20.10
   2   6   8  299.57   19.60
   2   6   8  275.07   19.90
   2   6   8  270.57   21.00
  -3  -6  -8  102.19   12.10
  -3  -6  -8   88.29    9.10
   3   6   8   98.19   13.30
   3   6   8  114.09   13.30
   3   6   8  122.39   11.10
  -4  -6  -8    5.10    3.00
  -4  -6  -8    8.30    4.50
   4   6   8    6.00    5.10
   4   6   8    3.60    8.20
  -5  -6  -8   70.49    6.70
  -5  -6  -8   95.39    8.30
   5   6   8   90.79   11.40
   5   6   8   64.89    9.10
  -6  -6  -8   88.89    7.70
   6   6   8   61.59    7.00
   2  -7  -8   47.50    6.50
  -2   7   8   56.99    6.20
  -2   7   8   62.29    6.20
   1  -7  -8  303.07   20.60
   1  -7  -8  324.57   20.90
  -1   7   8  301.27   20.20
  -1   7   8  309.37   20.00
  -1   7   8  313.97   21.60
  -1   7   8  306.27   20.30
  -1   7   8  293.57   21.00
   0  -7  -8  445.96   28.50
   0  -7  -8  409.56   27.10
   0   7   8  398.06   27.60
   0   7   8  455.25   27.60
   0   7   8  462.95   27.80
   0   7   8  424.96   28.30
  -1  -7  -8   14.70    4.20
  -1  -7  -8   12.80    4.00
   1   7   8   19.30    5.90
   1   7   8   11.00    4.20
   1   7   8    8.00    5.80
   1   7   8   28.70    6.40
  -2  -7  -8    8.70    3.80
  -2  -7  -8   11.60    3.70
   2   7   8   -0.20    8.10
   2   7   8    9.20    3.80
   2   7   8   11.10    5.20
  -3  -7  -8  272.87   17.70
  -3  -7  -8  282.37   18.00
   3   7   8  256.97   17.80
   3   7   8  262.77   19.10
  -4  -7  -8  109.19    9.10
  -4  -7  -8  115.39    9.30
   4   7   8   95.29    9.90
   4   7   8  102.09   16.30
   4   7   8  101.19   15.70
  -5  -7  -8  102.19    9.00
   5   7   8   81.79   11.10
   5   7   8   73.99    8.90
   1  -8  -8   97.79    7.80
  -1   8   8   99.49    7.70
  -1   8   8  110.39    9.60
  -1   8   8  102.59    8.30
   0  -8  -8  424.76   28.70
   0   8   8  498.05   29.30
   0   8   8  448.06   28.10
   0   8   8  451.65   28.60
   0   8   8  436.96   28.10
  -1  -8  -8  601.44   39.70
  -1  -8  -8  678.03   40.80
   1   8   8  609.84   40.00
   1   8   8  639.44   40.00
   1   8   8  684.53   40.70
   1   8   8  693.63   41.10
  -2  -8  -8  202.48   13.40
   2   8   8  211.78   15.10
   2   8   8  181.18   13.30
   2   8   8  204.48   14.20
  -3  -8  -8   27.40    4.90
  -3  -8  -8   20.60    5.40
   3   8   8   22.50    5.70
  -4  -8  -8  359.76   23.20
   4   8   8  368.66   31.80
   3   2  -9  153.38   12.60
   3   2  -9  137.09   12.40
   2   2  -9   61.79   10.30
   2   2  -9   34.40    8.90
  -2  -2   9   42.90    7.50
  -2  -2   9   65.09    7.40
   1   2  -9  456.35   29.80
  -1  -2   9  394.56   27.60
  -1  -2   9  415.36   26.70
   0  -2   9  427.56   26.90
   0  -2   9  404.36   26.50
   0  -2   9  419.96   26.90
   4   1  -9   48.30    9.40
   4   1  -9   43.60    8.40
   3   1  -9  481.85   31.70
   3   1  -9  496.35   31.90
   2   1  -9   17.10    5.70
  -2  -1   9   28.00    5.70
  -2  -1   9   38.10    7.50
  -2  -1   9   28.50    6.10
   1   1  -9  160.08   16.30
   1   1  -9  153.98   15.50
   1   1  -9  167.68   12.60
  -1  -1   9  158.38   12.00
  -1  -1   9  179.78   17.00
  -1  -1   9  167.28   12.40
  -1  -1   9  158.48   12.70
   0   1  -9   29.30    6.30
   0   1  -9   45.90   12.60
   0  -1   9   38.30    7.50
   0  -1   9   28.50    5.50
   0  -1   9   50.79    8.80
   0  -1   9   29.60    5.90
   0  -1   9   20.00    6.00
  -1   1  -9  156.98   14.50
  -1   1  -9  191.08   15.40
  -1   1  -9  191.28   13.00
   1  -1   9  179.68   13.40
   1  -1   9  175.68   13.50
   1  -1   9  171.58   12.60
   1  -1   9  188.28   14.30
  -2   1  -9    2.20    4.80
  -2   1  -9    8.30    4.80
  -2   1  -9    2.90    4.60
   2  -1   9   12.80    5.50
   2  -1   9   -0.50    4.50
   2  -1   9   11.40    6.10
   4   0  -9   -1.00    4.50
   4   0  -9   -0.80    5.40
   3   0  -9   15.60    6.50
   3   0  -9   15.70    5.80
   2   0  -9  252.97   17.50
   2   0  -9  197.98   17.90
   2   0  -9  223.28   18.30
  -2   0   9  204.28   16.60
  -2   0   9  238.08   15.60
   1   0  -9  423.46   26.70
   1   0  -9  448.16   26.90
   1   0  -9  414.16   28.60
   1   0  -9  385.26   28.30
  -1   0   9  410.96   26.80
  -1   0   9  369.16   25.70
  -1   0   9  392.36   26.30
   0   0  -9  264.87   18.20
   0   0  -9  289.07   21.20
   0   0  -9  259.07   17.90
   0   0  -9  253.57   22.10
   0   0   9  259.87   19.40
   0   0   9  233.18   17.70
   0   0   9  229.08   17.10
   0   0   9  247.28   17.70
   0   0   9  270.87   21.80
  -1   0  -9  845.02   51.09
  -1   0  -9  912.91   53.49
  -1   0  -9  912.41   51.29
  -1   0  -9  814.12   50.69
   1   0   9  790.72   51.49
   1   0   9  762.12   50.89
   1   0   9  786.12   50.89
   1   0   9  753.32   50.69
   1   0   9  862.71   52.29
  -2   0  -9  147.29   11.50
  -2   0  -9  147.49   11.60
   2   0   9  143.49   11.20
   2   0   9  169.38   13.50
   2   0   9  139.49   12.40
  -3   0  -9  262.27   16.00
   3   0   9  208.08   16.00
   3   0   9  227.48   17.00
   4  -1  -9  608.54   39.50
   4  -1  -9  653.63   40.00
   3  -1  -9   16.60    5.50
   3  -1  -9   23.00    8.00
   3  -1  -9   27.80    7.30
  -3   1   9   -0.80   11.10
   2  -1  -9  134.49   15.60
   2  -1  -9  115.59   14.40
   2  -1  -9  129.29   11.20
  -2   1   9  117.89   10.50
  -2   1   9  119.09   12.60
   1  -1  -9   10.10   15.40
   1  -1  -9    4.30    7.60
  -1   1   9   15.80    5.50
  -1   1   9   16.10    7.30
  -1   1   9   22.00    4.70
   0  -1  -9   18.50    4.80
   0  -1  -9   21.90    7.50
   0  -1  -9    9.50    6.90
   0   1   9    1.80    8.40
   0   1   9   16.60    5.10
   0   1   9   23.20    4.80
   0   1   9    6.40    6.60
  -1  -1  -9    0.40    7.80
  -1  -1  -9   12.60    9.00
  -1  -1  -9    5.90    6.20
  -1  -1  -9    2.20   12.40
  -1  -1  -9   13.50    6.80
   1   1   9   14.80    4.70
   1   1   9   14.20    5.60
   1   1   9   12.50    4.90
   1   1   9   15.70   10.40
   1   1   9   12.40    7.10
  -2  -1  -9  115.49   10.50
  -2  -1  -9  131.19   15.10
  -2  -1  -9  123.09   10.30
  -2  -1  -9  140.49   10.70
   2   1   9  136.59   14.20
   2   1   9  115.39   10.70
   2   1   9  117.99   11.90
   2   1   9  110.89   10.30
   2   1   9  111.29   11.40
  -3  -1  -9  200.18   13.50
  -3  -1  -9  189.58   13.90
   3   1   9  186.48   13.50
   3   1   9  202.28   15.10
   3   1   9  170.28   14.00
  -4  -1  -9  180.98   13.00
  -4  -1  -9  192.28   13.50
   4   1   9  200.38   14.50
   4  -2  -9   31.70    9.30
   3  -2  -9    8.80    7.20
   3  -2  -9   -6.70    6.70
   3  -2  -9    1.30    3.50
   2  -2  -9 1353.56   87.49
   2  -2  -9 1412.66   86.19
   1  -2  -9  273.57   22.60
   1  -2  -9  335.47   23.30
   1  -2  -9  302.57   20.50
  -1   2   9  292.37   20.70
  -1   2   9  314.67   19.70
  -1   2   9  277.17   24.00
   0  -2  -9  440.96   28.20
   0  -2  -9  401.46   25.50
   0  -2  -9  376.96   27.10
   0  -2  -9  387.86   27.70
   0   2   9  371.06   25.20
   0   2   9  385.36   24.70
   0   2   9  337.77   26.00
  -1  -2  -9  167.28   16.10
  -1  -2  -9  149.59   12.80
  -1  -2  -9  136.39   12.40
  -1  -2  -9  152.78   25.90
   1   2   9  141.39   11.60
   1   2   9  152.78   12.70
   1   2   9  150.88   12.00
   1   2   9  131.29   14.90
  -2  -2  -9   18.40    4.60
  -2  -2  -9   22.20   11.90
  -2  -2  -9   11.50    6.40
   2   2   9   11.10    7.80
   2   2   9   13.70    6.60
   2   2   9   20.20    5.20
  -3  -2  -9  281.67   18.00
  -3  -2  -9  262.37   18.70
   3   2   9  316.97   20.80
   3   2   9  275.47   18.50
   3   2   9  230.48   19.30
   3   2   9  278.97   19.80
  -4  -2  -9   95.49    7.80
  -4  -2  -9   95.39    9.40
   4   2   9  117.89   12.20
   4   2   9   87.69   10.10
   4  -3  -9    7.20    3.10
   4  -3  -9    7.50    9.90
   3  -3  -9  525.35   31.90
   3  -3  -9  455.35   34.10
   3  -3  -9  526.45   33.20
   2  -3  -9  460.95   32.90
  -2   3   9  445.56   31.30
  -2   3   9  545.85   31.50
   1  -3  -9   66.99   12.50
   1  -3  -9   58.29    8.10
  -1   3   9   70.19    7.30
  -1   3   9   61.19   10.50
  -1   3   9   64.09    8.70
   0  -3  -9   11.30    4.30
   0  -3  -9   11.90    7.30
   0  -3  -9   24.30    8.00
   0  -3  -9   11.80    3.70
   0   3   9   13.40    5.60
   0   3   9   31.20    7.30
   0   3   9   17.20    4.30
   0   3   9    9.10   10.30
  -1  -3  -9 1383.56   80.49
  -1  -3  -9 1364.16   79.99
  -1  -3  -9 1284.87   81.39
  -1  -3  -9 1379.76   80.09
  -1  -3  -9 1426.16   82.19
   1   3   9 1129.29   80.99
   1   3   9 1274.27   80.29
   1   3   9 1309.27   79.99
   1   3   9 1289.57   80.59
  -2  -3  -9    9.30    4.20
  -2  -3  -9    3.90   10.60
  -2  -3  -9    6.00    7.10
  -2  -3  -9   -3.00    4.80
   2   3   9    0.30    6.40
   2   3   9    3.00    4.90
   2   3   9    5.30    4.50
   2   3   9    5.40    4.80
  -3  -3  -9  176.98   12.90
  -3  -3  -9  160.88   11.70
   3   3   9  139.39   13.20
   3   3   9  168.98   12.50
   3   3   9  164.78   14.00
  -4  -3  -9  473.05   28.70
  -4  -3  -9  468.45   29.10
   4   3   9  483.35   32.00
   4   3   9  416.16   29.60
  -5  -3  -9   83.59    7.00
  -5  -3  -9   70.99    6.60
   5   3   9   71.89    8.10
   5   3   9  105.29   19.40
   5   3   9   99.79   13.60
   4  -4  -9   14.50    4.10
   3  -4  -9   10.60    6.70
   3  -4  -9   -0.40    2.80
   2  -4  -9  399.16   26.50
   2  -4  -9  401.56   24.90
   2  -4  -9  350.16   27.70
  -2   4   9  389.66   24.70
  -2   4   9  378.36   25.30
   1  -4  -9 1195.78   72.09
   1  -4  -9 1225.08   73.59
  -1   4   9 1151.28   72.69
  -1   4   9 1117.69   71.89
  -1   4   9 1188.88   71.59
   0  -4  -9  715.53   47.60
   0  -4  -9  771.82   48.00
   0  -4  -9  868.31   49.70
   0  -4  -9  831.82   49.99
   0   4   9  762.02   48.10
   0   4   9  733.63   48.60
   0   4   9  734.13   47.50
  -1  -4  -9  659.83   40.10
  -1  -4  -9  663.73   40.00
  -1  -4  -9  670.73   42.10
  -1  -4  -9  699.93   42.40
  -1  -4  -9  671.43   40.50
   1   4   9  597.54   40.60
   1   4   9  612.14   40.40
   1   4   9  629.04   40.40
   1   4   9  591.54   41.40
  -2  -4  -9 1037.10   56.29
  -2  -4  -9  919.91   56.39
  -2  -4  -9  947.01   55.89
   2   4   9  898.11   56.19
   2   4   9  771.52   58.89
   2   4   9  877.51   55.69
   2   4   9  892.41   55.89
  -3  -4  -9   18.50    3.80
  -3  -4  -9   25.10    5.10
   3   4   9   36.70    8.50
   3   4   9   17.70    5.70
   3   4   9   19.30    4.50
  -4  -4  -9   50.89    7.00
  -4  -4  -9   62.29    7.30
  -4  -4  -9   66.89    5.90
   4   4   9   53.29    8.20
   4   4   9   76.29    9.20
  -5  -4  -9   31.30    5.20
  -5  -4  -9   35.40    4.10
  -5  -4  -9   35.00    6.30
   5   4   9   16.50    8.50
   5   4   9   31.30    6.00
   3  -5  -9  916.91   53.59
   3  -5  -9  801.12   52.09
   3  -5  -9  814.82   51.39
   2  -5  -9    5.30    6.40
   2  -5  -9    0.60    3.10
   2  -5  -9   -1.30    5.90
  -2   5   9    0.90    4.70
  -2   5   9   -3.80    5.30
  -2   5   9   -1.00    5.80
   1  -5  -9   25.30    5.60
   1  -5  -9   19.00    4.10
   1  -5  -9   20.50    7.60
   1  -5  -9   10.70    6.80
  -1   5   9   20.40    4.70
  -1   5   9   16.30    4.70
  -1   5   9   17.80    5.70
   0  -5  -9 1022.30   76.39
   0   5   9 1218.58   73.49
   0   5   9 1261.17   72.29
   0   5   9 1201.48   72.99
   0   5   9 1218.28   72.49
  -1  -5  -9   16.70    4.50
  -1  -5  -9   14.40    5.10
  -1  -5  -9   12.50   10.20
  -1  -5  -9   -1.20    5.00
   1   5   9    6.40    4.70
   1   5   9    2.00    6.50
   1   5   9    4.70    4.60
   1   5   9    8.00   11.50
  -2  -5  -9  134.79   14.40
  -2  -5  -9  132.69   11.10
   2   5   9  139.89   11.50
   2   5   9  164.98   13.30
   2   5   9  117.19   14.70
   2   5   9  171.48   13.90
  -3  -5  -9  573.74   34.30
  -3  -5  -9  572.54   34.50
  -3  -5  -9  565.74   34.50
   3   5   9  536.75   34.50
   3   5   9  538.55   35.50
   3   5   9  520.55   34.70
  -4  -5  -9  188.38   14.60
  -4  -5  -9  201.38   13.40
  -4  -5  -9  223.48   14.10
   4   5   9  194.78   14.90
  -5  -5  -9   49.70    7.90
  -5  -5  -9   32.90    5.90
   5   5   9   37.60    6.70
   5   5   9   21.10    8.30
   2  -6  -9   63.59    9.70
   2  -6  -9   46.00    5.60
  -2   6   9   46.60   10.70
  -2   6   9   43.90    6.70
   1  -6  -9   39.10    6.00
  -1   6   9   27.30    7.10
  -1   6   9   29.20    6.30
  -1   6   9   25.30    5.50
   0  -6  -9 1764.92  100.99
   0  -6  -9 1712.73  101.69
   0  -6  -9 1591.04  100.99
   0  -6  -9 1736.53  101.89
   0   6   9 1654.53  101.29
   0   6   9 1593.24  100.89
   0   6   9 1680.33  101.09
   0   6   9 1614.84  101.69
  -1  -6  -9  737.33   46.50
  -1  -6  -9  761.32   46.30
  -1  -6  -9  777.62   47.70
  -1  -6  -9  761.82   47.50
  -1  -6  -9  778.12   46.20
   1   6   9  749.42   47.40
   1   6   9  749.33   46.50
   1   6   9  753.72   46.80
   1   6   9  713.53   46.50
  -2  -6  -9   28.80    7.30
  -2  -6  -9   25.20    5.50
  -2  -6  -9   24.20    4.70
   2   6   9   30.90    6.70
   2   6   9   14.30    6.50
  -3  -6  -9  384.36   24.80
  -3  -6  -9  442.86   25.20
   3   6   9  400.36   26.10
   3   6   9  337.97   29.00
   3   6   9  397.26   25.10
  -4  -6  -9   42.30    4.70
  -4  -6  -9   52.39    5.90
   4   6   9   49.10    7.40
  -5  -6  -9  228.78   13.40
  -5  -6  -9  190.28   12.90
   5   6   9  185.58   14.10
   1  -7  -9  494.85   32.00
  -1   7   9  451.65   29.60
  -1   7   9  439.26   29.50
  -1   7   9  526.85   31.60
   0  -7  -9   11.50    3.40
   0   7   9   12.90    4.70
   0   7   9   16.00    3.80
   0   7   9   20.80    5.00
  -1  -7  -9   35.50    4.90
  -1  -7  -9   25.50    8.00
  -1  -7  -9   43.60    5.70
   1   7   9   41.50    7.90
   1   7   9   41.70    5.80
   1   7   9   50.49    7.60
  -2  -7  -9    2.90    3.20
  -2  -7  -9    2.90    2.50
   2   7   9    6.40    5.00
   2   7   9    2.20    3.60
   2   7   9   -4.60    4.20
  -3  -7  -9   31.60    4.50
  -3  -7  -9   39.20    4.80
   3   7   9   28.60    5.80
   3   7   9   26.10    6.00
  -4  -7  -9  130.09    8.90
   4   7   9  121.49   11.70
  -1  -8  -9    8.10    4.10
   1   8   9    4.70    3.30
   1   8   9    6.30    3.20
   1   8   9    0.10    4.00
  -2  -8  -9  916.11   59.69
  -2  -8  -9 1016.40   60.19
   2   8   9 1039.40   60.49
   2   0 -10  312.27   20.80
   2   0 -10  278.27   21.40
   1   0 -10  106.59   13.10
  -1   0  10  103.49    9.30
  -1   0  10  107.39    9.50
   0   0 -10  614.04   37.60
   0   0  10  524.65   35.50
   0   0  10  584.94   35.50
   1   0  10   25.20    6.20
   1   0  10   19.30    6.60
   3  -1 -10  112.49   11.20
   3  -1 -10  105.29   10.20
   2  -1 -10 1013.00   63.89
   2  -1 -10 1150.38   64.39
   2  -1 -10  954.30   63.29
   1  -1 -10   14.60    5.00
   1  -1 -10   16.90    3.80
  -1   1  10   24.60    5.40
  -1   1  10   21.20    5.40
  -1   1  10   18.40    5.70
   0   1  10   45.60    7.20
   0   1  10   46.20    7.70
   0   1  10   42.30    6.90
  -1  -1 -10  124.89    9.20
   1   1  10   99.59   11.40
   1   1  10  121.19    9.40
   1   1  10  116.09    9.60
  -2  -1 -10   23.40    4.40
   2   1  10   29.10    5.00
   3  -2 -10   92.99    7.90
   3  -2 -10   99.79   10.60
   2  -2 -10  790.72   47.70
   2  -2 -10  732.33   47.40
   2  -2 -10  760.62   46.70
   1  -2 -10   32.10    9.00
   0  -2 -10  539.95   33.90
   0  -2 -10  556.74   32.70
   0  -2 -10  553.04   34.20
   0   2  10  473.45   32.80
   0   2  10  493.25   32.50
   0   2  10  500.85   32.80
  -1  -2 -10  237.38   19.80
  -1  -2 -10  265.57   18.00
  -1  -2 -10  213.38   15.40
   1   2  10  208.98   17.30
   1   2  10  219.78   15.70
   1   2  10  215.08   15.80
   1   2  10  236.08   15.70
  -2  -2 -10  214.78   17.50
  -2  -2 -10  273.07   16.30
  -2  -2 -10  269.77   16.50
   2   2  10  262.27   16.50
   2   2  10  227.58   16.80
   2   2  10  240.48   17.50
  -3  -2 -10   82.09    6.90
  -3  -2 -10   81.49    8.40
   3   2  10   58.89    7.10
   3   2  10   70.89    7.70
   2  -3 -10  126.59    9.60
   1  -3 -10  194.48   15.90
   1  -3 -10  212.88   15.50
   1  -3 -10  185.18   13.40
  -1   3  10  171.98   15.60
  -1   3  10  204.28   15.30
  -1   3  10  204.78   14.10
   0  -3 -10  222.08   15.30
   0  -3 -10  220.28   15.10
   0  -3 -10  237.28   17.20
   0  -3 -10  233.28   17.00
   0   3  10  214.68   15.60
   0   3  10  207.48   15.80
   0   3  10  205.28   15.50
  -1  -3 -10    6.10    3.20
  -1  -3 -10    1.30    5.10
  -1  -3 -10    8.40    4.80
  -1  -3 -10   14.00    8.40
   1   3  10    3.60    6.10
   1   3  10    6.60    4.00
   1   3  10    7.10    5.20
   1   3  10   -0.10    4.30
  -2  -3 -10   67.59    6.80
  -2  -3 -10   74.09    6.50
  -2  -3 -10   49.80    6.30
   2   3  10   69.29   13.50
   2   3  10   68.39    7.10
   2   3  10   51.09    9.00
   2   3  10   69.59    9.20
  -3  -3 -10 1001.90   60.69
  -3  -3 -10 1047.60   60.59
  -3  -3 -10 1080.29   60.59
   3   3  10  921.61   60.49
   3   3  10  945.81   61.09
   3  -4 -10    4.70    5.60
   2  -4 -10  114.09    8.80
   1  -4 -10    1.00    3.40
   1  -4 -10    7.80    6.10
  -1   4  10   -1.30    6.20
  -1   4  10   -1.30    5.00
  -1   4  10    0.90    5.00
   0  -4 -10  596.84   36.20
   0  -4 -10  574.54   37.30
   0  -4 -10  628.44   37.60
   0  -4 -10  587.94   36.00
   0   4  10  578.04   36.30
   0   4  10  557.34   36.20
   0   4  10  552.54   36.60
  -1  -4 -10  467.85   30.70
  -1  -4 -10  498.75   30.60
  -1  -4 -10  494.85   32.10
   1   4  10  496.25   31.10
   1   4  10  481.25   32.10
   1   4  10  514.05   31.00
   1   4  10  486.75   31.00
  -2  -4 -10  140.89    9.50
  -2  -4 -10  138.39    9.90
  -2  -4 -10  129.19    9.80
   2   4  10   99.79   12.00
   2   4  10  130.69   10.20
   2   4  10  114.99   14.60
   2   4  10  132.49   11.80
  -3  -4 -10  254.87   16.20
  -3  -4 -10  262.97   16.60
  -3  -4 -10  272.27   16.50
   3   4  10  239.78   17.20
   3   4  10  238.38   16.40
  -4  -4 -10   35.10    3.80
  -4  -4 -10   32.90    4.90
  -4  -4 -10   28.60    4.30
   4   4  10   29.30    5.50
   2  -5 -10  356.36   20.30
   2  -5 -10  276.47   22.70
   1  -5 -10  309.37   19.90
   1  -5 -10  272.57   18.60
  -1   5  10  289.27   19.50
  -1   5  10  291.17   19.10
   0  -5 -10    9.30    3.10
   0   5  10   -0.30    3.50
   0   5  10   -0.40    4.80
   0   5  10    9.00    8.40
   0   5  10    6.40    4.80
  -1  -5 -10  203.38   14.90
  -1  -5 -10  176.38   12.70
  -1  -5 -10  189.88   13.00
   1   5  10  195.78   13.80
   1   5  10  176.58   13.90
   1   5  10  194.88   15.10
   1   5  10  185.98   13.30
  -2  -5 -10    3.60    3.30
  -2  -5 -10   -3.20    2.70
  -2  -5 -10    3.20    2.80
   2   5  10    2.90    4.00
   2   5  10   -2.10    4.20
  -3  -5 -10   17.90    4.60
  -3  -5 -10   13.70    3.30
  -3  -5 -10   13.30    4.10
   3   5  10    7.70    3.60
   3   5  10   13.60    4.50
   4   5  10   46.00    4.80
   1  -6 -10   88.89    7.40
  -1   6  10   90.79    7.80
  -1   6  10  101.09    8.30
   0  -6 -10  111.89    8.20
   0  -6 -10  125.19   10.60
   0   6  10  112.09    8.90
   0   6  10   99.89   11.20
   0   6  10  110.89    9.00
  -1  -6 -10   92.69    6.90
   1   6  10   92.79    7.70
   1   6  10   88.59    8.50
   1   6  10   85.79    9.30
  -2  -6 -10  268.57   18.90
  -2  -6 -10  312.67   22.60
  -2  -6 -10  272.57   18.00
   2   6  10  277.57   18.40
   2   6  10  308.97   19.30
   2   6  10  289.57   18.90
  -3  -6 -10  565.14   31.90
  -3  -6 -10  503.55   31.70
   3   6  10  473.95   32.30
   1   7  10   22.20    5.80
   1   7  10   28.80    4.30
   2   7  10    5.30    3.10
   2   7  10    2.20    2.70
   2   7  10    3.70    2.70
   0  -3 -11    8.40    2.10
   0  -3 -11   11.30    5.10
   0   3  11   14.80    4.60
  -1  -3 -11   -0.30    2.20
   1   3  11    0.40    3.40
   0  -4 -11   97.59    9.10
   0  -4 -11   82.19    6.60
   0   4  11   88.79    8.90
   0   4  11   67.49    7.40
  -1  -4 -11   75.89    6.20
   1   4  11   83.39    6.60
_computing_structure_solution     'SHELXT 2014/5 (Sheldrick, 2014)'
_computing_structure_solution     'SHELXT 2014/4 (Sheldrick, 2014)'
_computing_structure_solution     'SHELXT 2014/4 (Sheldrick, 2014)'
;
_shelx_hkl_checksum              99089
_shelx_res_file
;
    KBB.res created by SHELXL-2014/7
TITL KBB_a.res in P-1
CELL  1.54178   7.1850   7.8479   8.9932   68.572   88.393   74.975
ZERR     2.00   0.0006   0.0007   0.0008    0.001    0.002    0.001
LATT   1
SFAC  H    O    K    B
UNIT  12   20   4    8
MERG   2
DFIX 0.85 0.02 O2 H2 O4 H4 O9 H9 O7 H7
DFIX 0.85 0.02 O10 H10A O10 H10B
DFIX 1.38 0.02 H10A H10B
EQIV $1 -x+1, -y+2, -z+1
HTAB O9 O8_$1
EQIV $2 -x+1, -y+1, -z+2
HTAB O4 O6_$2
EQIV $3 x-1, y, z
HTAB O2 O9_$3
HTAB O10 O6
EQIV $4 -x+1, -y+1, -z+1
HTAB O10 O1_$4
EQIV $5 x, y+1, z
HTAB O7 O10_$5
DFIX 2.2 0.02 H2 H9_$3
FMAP   2
PLAN   20
SIZE     0.10   0.15   0.15
ACTA
BOND   $H
CONF
L.S.   4
TEMP    23.00
WGHT    0.036400    0.332400
FVAR       1.35253
K1    3   -0.092508    0.382164    0.800530    11.00000    0.02954    0.01931 =
         0.02176   -0.01020    0.00811   -0.00895
K2    3    0.206758    1.090215    0.199897    11.00000    0.01858    0.01794 =
         0.02390   -0.00873    0.00074   -0.00297
O1    2    0.306453    0.803066    0.524052    11.00000    0.01678    0.01988 =
         0.01206   -0.00408    0.00026   -0.00715
O2    2    0.018538    0.765239    0.444138    11.00000    0.01740    0.04947 =
         0.01915   -0.01463   -0.00076   -0.01022
O3    2    0.112293    0.647632    0.722352    11.00000    0.01467    0.02281 =
         0.01607   -0.00775    0.00084   -0.00852
O4    2    0.251370    0.448498    0.985779    11.00000    0.02014    0.01191 =
         0.01624   -0.00216    0.00181   -0.00691
O5    2    0.202638    0.789803    0.896381    11.00000    0.01634    0.01304 =
         0.01730   -0.00777    0.00630   -0.00575
O6    2    0.451903    0.599120    0.789947    11.00000    0.01303    0.00817 =
         0.01369   -0.00386    0.00195   -0.00251
O7    2    0.257366    1.077800    0.883992    11.00000    0.02458    0.01517 =
         0.02391   -0.01252    0.00806   -0.00768
O8    2    0.409722    0.933913    0.705233    11.00000    0.01938    0.01024 =
         0.01689   -0.00620    0.00590   -0.00605
O9    2    0.645044    0.747716    0.587078    11.00000    0.01358    0.01438 =
         0.01879   -0.00371    0.00546   -0.00225
O10   2    0.542659    0.266641    0.750909    11.00000    0.04355    0.01606 =
         0.02675   -0.01269    0.00894   -0.00749
B1    4    0.148576    0.737147    0.567908    11.00000    0.01420    0.01795 =
         0.01552   -0.00914    0.00070   -0.00220
B2    4    0.258570    0.616696    0.851041    11.00000    0.01311    0.01167 =
         0.01272   -0.00395    0.00112   -0.00396
B3    4    0.290554    0.931463    0.827477    11.00000    0.01454    0.01071 =
         0.01224   -0.00445   -0.00032   -0.00183
B4    4    0.456508    0.767282    0.651940    11.00000    0.01127    0.01054 =
         0.01240   -0.00515    0.00232   -0.00308
H9    1    0.619905    0.843359    0.504146    11.00000    0.02966
H4    1    0.351168    0.420233    1.042665    11.00000    0.03554
H2    1   -0.075978    0.734950    0.482358    11.00000    0.04855
H10A  1    0.507561    0.375457    0.759266    11.00000    0.05086
H10B  1    0.546792    0.285067    0.651870    11.00000    0.04895
H7    1    0.329433    1.147676    0.842034    11.00000    0.05019
HKLF 4
REM  KBB_a.res in P-1
REM R1 =  0.0287 for    1685 Fo > 4sig(Fo)  and  0.0307 for all    1782 data
REM    169 parameters refined using      8 restraints
END
WGHT      0.0364      0.3325
REM Highest difference peak  0.261,  deepest hole -0.406,  1-sigma level  0.083
Q1    1   0.0897  1.1272  0.0379  11.00000  0.05    0.26
Q2    1   0.7088  0.5602  0.5470  11.00000  0.05    0.25
Q3    1   0.2002  0.9783  1.0348  11.00000  0.05    0.25
Q4    1   0.4530  0.9540  0.9788  11.00000  0.05    0.25
Q5    1   0.1250  1.2358  0.0424  11.00000  0.05    0.24
Q6    1   0.3334  0.9067  0.3835  11.00000  0.05    0.24
Q7    1   0.1573  1.1024  0.9451  11.00000  0.05    0.24
Q8    1   0.0084  0.6698  0.3641  11.00000  0.05    0.23
Q9    1   0.0528  1.0584  0.9611  11.00000  0.05    0.23
Q10   1   0.6974  0.2205  0.8084  11.00000  0.05    0.22
Q11   1   0.3151  0.6773  0.5350  11.00000  0.05    0.22
Q12   1  -0.0088  0.8674  0.9799  11.00000  0.05    0.21
Q13   1   0.4937  1.0811  0.9227  11.00000  0.05    0.21
Q14   1   0.6951  0.5784  0.7164  11.00000  0.05    0.21
Q15   1   0.5070  0.4593  0.9418  11.00000  0.05    0.20
Q16   1   0.6006  0.5945  0.5861  11.00000  0.05    0.20
Q17   1   0.2772  0.9829  0.9057  11.00000  0.05    0.20
Q18   1   0.5665  0.3840  0.9940  11.00000  0.05    0.20
Q19   1   0.1497  0.8273  0.9717  11.00000  0.05    0.19
Q20   1   0.5071  0.1730  0.9325  11.00000  0.05    0.19
;
_shelx_res_checksum              87165
loop_
_space_group_symop_operation_xyz
'x, y, z'
'-x, -y, -z'
loop_
_atom_site_type_symbol
_atom_site_label
_atom_site_fract_x
_atom_site_fract_y
_atom_site_fract_z
_atom_site_U_iso_or_equiv
_atom_site_adp_type
_atom_site_calc_flag
_atom_site_occupancy
K K1 -0.09251(7) 0.38216(6) 0.80053(5) 0.02243(14) Uani d 1
K K2 0.20676(6) 1.09022(6) 0.19990(5) 0.02022(13) Uani d 1
O O1 0.30645(19) 0.80307(18) 0.52405(15) 0.0163(3) Uani d 1
O O2 0.0185(2) 0.7652(2) 0.44414(18) 0.0278(4) Uani d 1
O O3 0.11229(19) 0.64763(19) 0.72235(16) 0.0170(3) Uani d 1
O O4 0.2514(2) 0.44850(18) 0.98578(16) 0.0165(3) Uani d 1
O O5 0.20264(19) 0.78980(17) 0.89638(15) 0.0147(3) Uani d 1
O O6 0.45190(18) 0.59912(16) 0.78995(15) 0.0118(3) Uani d 1
O O7 0.2574(2) 1.07780(19) 0.88399(17) 0.0193(3) Uani d 1
O O8 0.40972(19) 0.93391(17) 0.70523(15) 0.0148(3) Uani d 1
O O9 0.64504(19) 0.74772(18) 0.58708(16) 0.0167(3) Uani d 1
O O10 0.5427(3) 0.2666(2) 0.75091(19) 0.0276(4) Uani d 1
B B1 0.1486(3) 0.7371(3) 0.5679(3) 0.0154(4) Uani d 1
B B2 0.2586(3) 0.6167(3) 0.8510(2) 0.0125(4) Uani d 1
B B3 0.2906(3) 0.9315(3) 0.8275(2) 0.0127(4) Uani d 1
B B4 0.4565(3) 0.7673(3) 0.6519(2) 0.0111(4) Uani d 1
H H9 0.620(3) 0.843(3) 0.504(2) 0.030(7) Uiso d 1
H H4 0.351(3) 0.420(4) 1.043(3) 0.036(8) Uiso d 1
H H2 -0.076(3) 0.735(4) 0.482(4) 0.049(9) Uiso d 1
H H10A 0.508(5) 0.375(3) 0.759(3) 0.051(9) Uiso d 1
H H10B 0.547(5) 0.285(4) 0.652(2) 0.049(9) Uiso d 1
H H7 0.329(4) 1.148(4) 0.842(4) 0.050(9) Uiso d 1
loop_
_atom_site_aniso_label
_atom_site_aniso_U_11
_atom_site_aniso_U_22
_atom_site_aniso_U_33
_atom_site_aniso_U_12
_atom_site_aniso_U_13
_atom_site_aniso_U_23
K1 0.0295(3) 0.0193(2) 0.0218(2) -0.00895(17) 0.00811(18) -0.01020(17)
K2 0.0186(2) 0.0179(2) 0.0239(2) -0.00297(16) 0.00074(17) -0.00873(16)
O1 0.0168(7) 0.0199(6) 0.0121(6) -0.0072(5) 0.0003(5) -0.0041(5)
O2 0.0174(8) 0.0495(10) 0.0191(8) -0.0102(7) -0.0008(6) -0.0146(7)
O3 0.0147(6) 0.0228(7) 0.0161(6) -0.0085(5) 0.0008(5) -0.0077(5)
O4 0.0201(7) 0.0119(6) 0.0162(7) -0.0069(5) 0.0018(6) -0.0022(5)
O5 0.0163(6) 0.0130(6) 0.0173(6) -0.0057(5) 0.0063(5) -0.0078(5)
O6 0.0130(6) 0.0082(5) 0.0137(6) -0.0025(5) 0.0019(5) -0.0039(5)
O7 0.0246(7) 0.0152(7) 0.0239(7) -0.0077(6) 0.0081(6) -0.0125(6)
O8 0.0194(7) 0.0102(6) 0.0169(6) -0.0060(5) 0.0059(5) -0.0062(5)
O9 0.0136(7) 0.0144(6) 0.0188(7) -0.0023(5) 0.0055(5) -0.0037(5)
O10 0.0435(9) 0.0161(7) 0.0268(8) -0.0075(6) 0.0089(7) -0.0127(6)
B1 0.0142(10) 0.0179(10) 0.0155(10) -0.0022(8) 0.0007(8) -0.0091(8)
B2 0.0131(10) 0.0117(9) 0.0127(9) -0.0040(7) 0.0011(8) -0.0039(7)
B3 0.0145(10) 0.0107(9) 0.0122(9) -0.0018(7) -0.0003(8) -0.0044(7)
B4 0.0113(9) 0.0105(9) 0.0124(9) -0.0031(7) 0.0023(8) -0.0051(7)
loop_
_atom_type_symbol
_atom_type_description
_atom_type_scat_dispersion_real
_atom_type_scat_dispersion_imag
_atom_type_scat_source
H H 0.0000 0.0000 'International Tables Vol C Tables 4.2.6.8 and 6.1.1.4'
O O 0.0492 0.0322 'International Tables Vol C Tables 4.2.6.8 and 6.1.1.4'
K K 0.3868 1.0657 'International Tables Vol C Tables 4.2.6.8 and 6.1.1.4'
B B 0.0090 0.0039 'International Tables Vol C Tables 4.2.6.8 and 6.1.1.4'
loop_
_geom_angle_atom_site_label_1
_geom_angle_atom_site_label_2
_geom_angle_atom_site_label_3
_geom_angle_site_symmetry_1
_geom_angle_site_symmetry_3
_geom_angle
O3 K1 O5 . 2_567 124.63(4)
O3 K1 O4 . 2_567 83.56(4)
O5 K1 O4 2_567 2_567 52.02(4)
O3 K1 O2 . 2_566 102.87(5)
O5 K1 O2 2_567 2_566 127.95(5)
O4 K1 O2 2_567 2_566 167.06(5)
O3 K1 O7 . 1_545 91.40(4)
O5 K1 O7 2_567 1_545 87.71(4)
O4 K1 O7 2_567 1_545 121.96(4)
O2 K1 O7 2_566 1_545 69.61(4)
O3 K1 O9 . 1_455 72.91(4)
O5 K1 O9 2_567 1_455 117.88(4)
O4 K1 O9 2_567 1_455 77.28(4)
O2 K1 O9 2_566 1_455 93.72(4)
O7 K1 O9 1_545 1_455 154.34(4)
O3 K1 O10 . 1_455 149.75(4)
O5 K1 O10 2_567 1_455 74.23(4)
O4 K1 O10 2_567 1_455 94.59(4)
O2 K1 O10 2_566 1_455 74.14(4)
O7 K1 O10 1_545 1_455 114.49(4)
O9 K1 O10 1_455 1_455 77.23(4)
O3 K1 O6 . 1_455 108.12(4)
O5 K1 O6 2_567 1_455 75.04(4)
O4 K1 O6 2_567 1_455 55.28(4)
O2 K1 O6 2_566 1_455 111.80(4)
O7 K1 O6 1_545 1_455 159.03(4)
O9 K1 O6 1_455 1_455 44.97(3)
O10 K1 O6 1_455 1_455 49.71(4)
O3 K1 O4 . . 45.69(3)
O5 K1 O4 2_567 . 85.16(4)
O4 K1 O4 2_567 . 70.54(5)
O2 K1 O4 2_566 . 121.96(4)
O7 K1 O4 1_545 . 65.58(4)
O9 K1 O4 1_455 . 111.87(4)
O10 K1 O4 1_455 . 159.30(4)
O6 K1 O4 1_455 . 123.31(3)
O10 K2 O8 2_666 2_676 68.19(4)
O10 K2 O4 2_666 1_564 126.34(5)
O8 K2 O4 2_676 1_564 78.89(4)
O10 K2 O7 2_666 1_554 74.82(4)
O8 K2 O7 2_676 1_554 100.77(4)
O4 K2 O7 1_564 1_554 71.12(4)
O10 K2 O5 2_666 2_576 126.21(4)
O8 K2 O5 2_676 2_576 165.60(4)
O4 K2 O5 1_564 2_576 90.65(4)
O7 K2 O5 1_554 2_576 84.92(4)
O10 K2 O3 2_666 2_576 154.22(5)
O8 K2 O3 2_676 2_576 118.33(4)
O4 K2 O3 1_564 2_576 78.91(4)
O7 K2 O3 1_554 2_576 124.27(4)
O5 K2 O3 2_576 2_576 49.06(3)
O10 K2 O1 2_666 . 59.69(4)
O8 K2 O1 2_676 . 71.95(4)
O4 K2 O1 1_564 . 144.45(4)
O7 K2 O1 1_554 . 133.55(4)
O5 K2 O1 2_576 . 113.64(4)
O3 K2 O1 2_576 . 97.25(4)
O10 K2 O9 2_666 2_676 108.20(4)
O8 K2 O9 2_676 2_676 48.87(4)
O4 K2 O9 1_564 2_676 75.56(4)
O7 K2 O9 1_554 2_676 138.95(4)
O5 K2 O9 2_576 2_676 119.08(4)
O3 K2 O9 2_576 2_676 70.02(4)
O1 K2 O9 . 2_676 70.06(4)
O10 K2 O2 2_666 . 71.45(5)
O8 K2 O2 2_676 . 115.02(4)
O4 K2 O2 1_564 . 161.79(4)
O7 K2 O2 1_554 . 115.01(4)
O5 K2 O2 2_576 . 73.42(4)
O3 K2 O2 2_576 . 83.88(4)
O1 K2 O2 . . 43.80(4)
O9 K2 O2 2_676 . 104.13(4)
B1 O1 B4 . . 118.49(15)
B1 O1 K2 . . 106.22(11)
B4 O1 K2 . . 132.16(10)
B1 O2 K1 . 2_566 126.73(13)
B1 O2 K2 . . 90.06(12)
K1 O2 K2 2_566 . 81.83(4)
B1 O2 H2 . . 109(2)
K1 O2 H2 2_566 . 105(2)
K2 O2 H2 . . 149(2)
B1 O3 B2 . . 117.57(15)
B1 O3 K1 . . 121.32(11)
B2 O3 K1 . . 114.18(10)
B1 O3 K2 . 2_576 107.19(11)
B2 O3 K2 . 2_576 98.46(10)
K1 O3 K2 . 2_576 90.33(4)
B2 O4 K1 . 2_567 99.00(10)
B2 O4 K2 . 1_546 167.17(11)
K1 O4 K2 2_567 1_546 90.48(4)
B2 O4 K1 . . 91.71(10)
K1 O4 K1 2_567 . 109.46(4)
K2 O4 K1 1_546 . 76.91(3)
B2 O4 H4 . . 105(2)
K1 O4 H4 2_567 . 83(2)
K2 O4 H4 1_546 . 84(2)
K1 O4 H4 . . 158(2)
B3 O5 B2 . . 118.48(15)
B3 O5 K1 . 2_567 135.06(11)
B2 O5 K1 . 2_567 97.85(10)
B3 O5 K2 . 2_576 112.27(11)
B2 O5 K2 . 2_576 98.67(9)
K1 O5 K2 2_567 2_576 85.04(4)
B4 O6 B2 . . 111.10(13)
B4 O6 K1 . 1_655 95.42(10)
B2 O6 K1 . 1_655 153.42(10)
B3 O7 K1 . 1_565 122.95(11)
B3 O7 K2 . 1_556 132.83(12)
K1 O7 K2 1_565 1_556 83.18(4)
B3 O7 H7 . . 110(2)
K1 O7 H7 1_565 . 95(2)
K2 O7 H7 1_556 . 106(2)
B3 O8 B4 . . 118.94(14)
B3 O8 K2 . 2_676 111.12(11)
B4 O8 K2 . 2_676 97.89(10)
B4 O9 K1 . 1_655 108.04(10)
B4 O9 K2 . 2_676 92.77(10)
K1 O9 K2 1_655 2_676 84.16(4)
B4 O9 H9 . . 99.7(15)
K1 O9 H9 1_655 . 152.0(16)
K2 O9 H9 2_676 . 98.6(18)
K2 O10 K1 2_666 1_655 85.71(5)
K2 O10 H10A 2_666 . 155(2)
K1 O10 H10A 1_655 . 72(2)
K2 O10 H10B 2_666 . 85(2)
K1 O10 H10B 1_655 . 99(2)
H10A O10 H10B . . 108(2)
O1 B1 O3 . . 124.20(17)
O1 B1 O2 . . 116.26(18)
O3 B1 O2 . . 119.54(18)
O1 B1 K2 . . 52.28(9)
O3 B1 K2 . . 162.79(13)
O2 B1 K2 . . 66.91(11)
O1 B1 K2 . 2_576 123.52(12)
O3 B1 K2 . 2_576 51.40(9)
O2 B1 K2 . 2_576 95.47(12)
K2 B1 K2 . 2_576 114.13(6)
O4 B2 O6 . . 111.51(14)
O4 B2 O3 . . 108.42(14)
O6 B2 O3 . . 110.00(15)
O4 B2 O5 . . 110.66(15)
O6 B2 O5 . . 109.36(14)
O3 B2 O5 . . 106.78(14)
O4 B2 K1 . 2_567 55.65(9)
O6 B2 K1 . 2_567 133.31(11)
O3 B2 K1 . 2_567 116.64(12)
O5 B2 K1 . 2_567 55.37(8)
O4 B2 K2 . 2_576 103.66(11)
O6 B2 K2 . 2_576 144.84(11)
O3 B2 K2 . 2_576 56.29(8)
O5 B2 K2 . 2_576 55.77(8)
K1 B2 K2 2_567 2_576 68.57(4)
O5 B3 O8 . . 122.62(16)
O5 B3 O7 . . 118.18(18)
O8 B3 O7 . . 119.19(17)
O5 B3 K2 . 2_676 129.93(12)
O8 B3 K2 . 2_676 47.92(9)
O7 B3 K2 . 2_676 92.06(11)
O6 B4 O9 . . 111.38(14)
O6 B4 O1 . . 110.21(14)
O9 B4 O1 . . 109.12(15)
O6 B4 O8 . . 107.72(14)
O9 B4 O8 . . 109.87(14)
O1 B4 O8 . . 108.48(14)
O6 B4 K2 . 2_676 99.24(10)
O9 B4 K2 . 2_676 61.95(9)
O1 B4 K2 . 2_676 150.20(12)
O8 B4 K2 . 2_676 56.04(8)
loop_
_geom_bond_atom_site_label_1
_geom_bond_atom_site_label_2
_geom_bond_site_symmetry_2
_geom_bond_distance
K1 O3 . 2.7315(14)
K1 O5 2_567 2.7608(14)
K1 O4 2_567 2.7782(14)
K1 O2 2_566 2.8174(16)
K1 O7 1_545 2.8759(15)
K1 O9 1_455 2.9741(14)
K1 O10 1_455 3.0799(18)
K1 O6 1_455 3.2608(13)
K1 O4 . 3.2684(14)
K2 O10 2_666 2.7938(16)
K2 O8 2_676 2.8461(14)
K2 O4 1_564 2.8624(13)
K2 O7 1_554 2.8877(15)
K2 O5 2_576 2.8982(14)
K2 O3 2_576 2.9142(15)
K2 O1 . 2.9274(13)
K2 O9 2_676 3.0031(14)
K2 O2 . 3.2690(18)
O1 B1 . 1.356(3)
O1 B4 . 1.497(2)
O2 B1 . 1.390(2)
O2 K1 2_566 2.8174(16)
O2 H2 . 0.804(17)
O3 B1 . 1.361(3)
O3 B2 . 1.495(2)
O3 K2 2_576 2.9142(15)
O4 B2 . 1.441(2)
O4 K1 2_567 2.7783(14)
O4 K2 1_546 2.8624(13)
O4 H4 . 0.825(17)
O5 B3 . 1.363(2)
O5 B2 . 1.512(2)
O5 K1 2_567 2.7608(14)
O5 K2 2_576 2.8982(14)
O6 B4 . 1.451(2)
O6 B2 . 1.471(2)
O6 K1 1_655 3.2608(13)
O7 B3 . 1.383(2)
O7 K1 1_565 2.8759(15)
O7 K2 1_556 2.8877(15)
O7 H7 . 0.834(18)
O8 B3 . 1.372(3)
O8 B4 . 1.508(2)
O8 K2 2_676 2.8461(14)
O9 B4 . 1.453(2)
O9 K1 1_655 2.9741(14)
O9 K2 2_676 3.0031(14)
O9 H9 . 0.825(17)
O10 K2 2_666 2.7939(16)
O10 K1 1_655 3.0799(18)
O10 H10A . 0.856(17)
O10 H10B . 0.850(17)
loop_
_geom_hbond_atom_site_label_D
_geom_hbond_atom_site_label_H
_geom_hbond_atom_site_label_A
_geom_hbond_site_symmetry_A
_geom_hbond_distance_DH
_geom_hbond_distance_HA
_geom_hbond_distance_DA
_geom_hbond_angle_DHA
O9 H9 O8 2_676 0.825(17) 2.018(17) 2.8385(18) 173(2)
O4 H4 O6 2_667 0.825(17) 2.033(19) 2.8338(18) 164(3)
O2 H2 O9 1_455 0.804(17) 2.185(18) 2.957(2) 161(3)
O10 H10A O6 . 0.856(17) 1.817(17) 2.6704(18) 175(3)
O10 H10B O1 2_666 0.850(17) 2.10(2) 2.850(2) 146(3)
O7 H7 O10 1_565 0.834(18) 2.001(19) 2.823(2) 169(3)
loop_
_geom_torsion_atom_site_label_1
_geom_torsion_atom_site_label_2
_geom_torsion_atom_site_label_3
_geom_torsion_atom_site_label_4
_geom_torsion_site_symmetry_1
_geom_torsion_site_symmetry_4
_geom_torsion
B4 O1 B1 O3 . . 3.3(3)
K2 O1 B1 O3 . . -159.13(16)
B4 O1 B1 O2 . . -176.73(16)
K2 O1 B1 O2 . . 20.86(19)
B4 O1 B1 K2 . . 162.41(17)
B4 O1 B1 K2 . 2_576 66.24(18)
K2 O1 B1 K2 . 2_576 -96.17(11)
B2 O3 B1 O1 . . -1.4(3)
K1 O3 B1 O1 . . -150.56(14)
K2 O3 B1 O1 2_576 . 108.18(18)
B2 O3 B1 O2 . . 178.60(16)
K1 O3 B1 O2 . . 29.4(2)
K2 O3 B1 O2 2_576 . -71.82(19)
B2 O3 B1 K2 . . -73.6(5)
K1 O3 B1 K2 . . 137.3(4)
K2 O3 B1 K2 2_576 . 36.0(5)
B2 O3 B1 K2 . 2_576 -109.58(15)
K1 O3 B1 K2 . 2_576 101.26(11)
K1 O2 B1 O1 2_566 . 62.0(2)
K2 O2 B1 O1 . . -17.83(16)
K1 O2 B1 O3 2_566 . -118.01(17)
K2 O2 B1 O3 . . 162.16(16)
K1 O2 B1 K2 2_566 . 79.83(12)
K1 O2 B1 K2 2_566 2_576 -166.25(9)
K2 O2 B1 K2 . 2_576 113.93(5)
K1 O4 B2 O6 2_567 . 128.59(12)
K2 O4 B2 O6 1_546 . -94.2(5)
K1 O4 B2 O6 . . -121.41(13)
K1 O4 B2 O3 2_567 . -110.17(13)
K2 O4 B2 O3 1_546 . 27.0(6)
K1 O4 B2 O3 . . -0.16(13)
K1 O4 B2 O5 2_567 . 6.62(14)
K2 O4 B2 O5 1_546 . 143.8(5)
K1 O4 B2 O5 . . 116.63(12)
K2 O4 B2 K1 1_546 2_567 137.2(5)
K1 O4 B2 K1 . 2_567 110.00(6)
K1 O4 B2 K2 2_567 2_576 -51.57(8)
K2 O4 B2 K2 1_546 2_576 85.6(5)
K1 O4 B2 K2 . 2_576 58.43(6)
B4 O6 B2 O4 . . 178.63(13)
K1 O6 B2 O4 1_655 . -5.0(3)
B4 O6 B2 O3 . . 58.31(18)
K1 O6 B2 O3 1_655 . -125.31(19)
B4 O6 B2 O5 . . -58.66(18)
K1 O6 B2 O5 1_655 . 117.7(2)
B4 O6 B2 K1 . 2_567 -118.89(15)
K1 O6 B2 K1 1_655 2_567 57.5(3)
B4 O6 B2 K2 . 2_576 -1.1(3)
K1 O6 B2 K2 1_655 2_576 175.28(8)
B1 O3 B2 O4 . . -151.09(16)
K1 O3 B2 O4 . . 0.22(18)
K2 O3 B2 O4 2_576 . 94.41(13)
B1 O3 B2 O6 . . -28.9(2)
K1 O3 B2 O6 . . 122.39(12)
K2 O3 B2 O6 2_576 . -143.42(11)
B1 O3 B2 O5 . . 89.65(19)
K1 O3 B2 O5 . . -119.05(12)
K2 O3 B2 O5 2_576 . -24.85(14)
B1 O3 B2 K1 . 2_567 148.80(13)
K1 O3 B2 K1 . 2_567 -59.89(12)
K2 O3 B2 K1 2_576 2_567 34.30(10)
B1 O3 B2 K2 . 2_576 114.50(15)
K1 O3 B2 K2 . 2_576 -94.20(8)
B3 O5 B2 O4 . . 145.94(16)
K1 O5 B2 O4 2_567 . -6.65(15)
K2 O5 B2 O4 2_576 . -92.79(13)
B3 O5 B2 O6 . . 22.7(2)
K1 O5 B2 O6 2_567 . -129.86(12)
K2 O5 B2 O6 2_576 . 144.00(11)
B3 O5 B2 O3 . . -96.26(18)
K1 O5 B2 O3 2_567 . 111.15(12)
K2 O5 B2 O3 2_576 . 25.01(14)
B3 O5 B2 K1 . 2_567 152.59(16)
K2 O5 B2 K1 2_576 2_567 -86.14(5)
B3 O5 B2 K2 . 2_576 -121.27(15)
K1 O5 B2 K2 2_567 2_576 86.14(5)
B2 O5 B3 O8 . . 8.0(2)
K1 O5 B3 O8 2_567 . 147.81(13)
K2 O5 B3 O8 2_576 . -106.03(16)
B2 O5 B3 O7 . . -171.96(15)
K1 O5 B3 O7 2_567 . -32.2(2)
K2 O5 B3 O7 2_576 . 73.99(17)
B2 O5 B3 K2 . 2_676 -51.8(2)
K1 O5 B3 K2 2_567 2_676 87.94(18)
K2 O5 B3 K2 2_576 2_676 -165.90(8)
B4 O8 B3 O5 . . -4.2(2)
K2 O8 B3 O5 2_676 . -116.66(16)
B4 O8 B3 O7 . . 175.75(15)
K2 O8 B3 O7 2_676 . 63.32(18)
B4 O8 B3 K2 . 2_676 112.44(15)
K1 O7 B3 O5 1_565 . -77.59(19)
K2 O7 B3 O5 1_556 . 36.5(2)
K1 O7 B3 O8 1_565 . 102.43(17)
K2 O7 B3 O8 1_556 . -143.50(13)
K1 O7 B3 K2 1_565 2_676 144.00(8)
K2 O7 B3 K2 1_556 2_676 -101.93(13)
B2 O6 B4 O9 . . -177.72(14)
K1 O6 B4 O9 1_655 . 3.91(14)
B2 O6 B4 O1 . . -56.45(18)
K1 O6 B4 O1 1_655 . 125.17(12)
B2 O6 B4 O8 . . 61.73(17)
K1 O6 B4 O8 1_655 . -116.65(12)
B2 O6 B4 K2 . 2_676 118.90(12)
K1 O6 B4 K2 1_655 2_676 -59.48(6)
K1 O9 B4 O6 1_655 . -4.49(16)
K2 O9 B4 O6 2_676 . -89.24(13)
K1 O9 B4 O1 1_655 . -126.38(11)
K2 O9 B4 O1 2_676 . 148.87(11)
K1 O9 B4 O8 1_655 . 114.80(12)
K2 O9 B4 O8 2_676 . 30.05(13)
K1 O9 B4 K2 1_655 2_676 84.75(6)
B1 O1 B4 O6 . . 25.8(2)
K2 O1 B4 O6 . . -177.26(9)
B1 O1 B4 O9 . . 148.38(15)
K2 O1 B4 O9 . . -54.66(19)
B1 O1 B4 O8 . . -91.93(18)
K2 O1 B4 O8 . . 65.03(19)
B1 O1 B4 K2 . 2_676 -145.0(2)
K2 O1 B4 K2 . 2_676 12.0(3)
B3 O8 B4 O6 . . -30.2(2)
K2 O8 B4 O6 2_676 . 89.31(12)
B3 O8 B4 O9 . . -151.68(15)
K2 O8 B4 O9 2_676 . -32.19(14)
B3 O8 B4 O1 . . 89.11(18)
K2 O8 B4 O1 2_676 . -151.40(11)
B3 O8 B4 K2 . 2_676 -119.49(15)

_cod_database_fobs_code 1550543
