#------------------------------------------------------------------------------
#$Date: 2019-02-23 05:59:22 +0200 (Sat, 23 Feb 2019) $
#$Revision: 213816 $
#$URL: file:///home/coder/svn-repositories/cod/cif/1/55/06/1550649.cif $
#------------------------------------------------------------------------------
#
# This file is available in the Crystallography Open Database (COD),
# http://www.crystallography.net/. The original data for this entry
# were provided by IUCr Journals, http://journals.iucr.org/.
#
# The file may be used within the scientific community so long as
# proper attribution is given to the journal article from which the
# data were obtained.
#
data_1550649
loop_
_publ_author_name
'Krabbe, Christina'
'Gock, Vinusuya'
'Lutter, Michael'
'Jurkschat, Klaus'
_publ_section_title
;
 The sodium chloride complex
 <i>catena</i>-poly[[{\m~3~-2-[bis(2-hydroxyethyl)amino]ethan-1-ol}sodium]
 chloride], N(CH~2~CH~2~OH)~3~&#x00B7;NaCl
;
_journal_coeditor_code           WM4096
_journal_issue                   2
_journal_name_full               IUCrData
_journal_page_first              x190238
_journal_paper_doi               10.1107/S2414314619002384
_journal_volume                  4
_journal_year                    2019
_chemical_absolute_configuration ad
_chemical_formula_iupac          '[Na (C6 H15 N O3)], Cl'
_chemical_formula_moiety         'C6 H15 N Na O3 +, Cl -'
_chemical_formula_sum            'C6 H15 Cl N Na O3'
_chemical_formula_weight         207.63
_chemical_name_systematic
;
<i>catena</i>-Poly[[{\m~3~-2-[bis(2-hydroxyethyl)amino]ethan-1-ol}sodium]
chloride]
;
_space_group_crystal_system      monoclinic
_space_group_IT_number           4
_space_group_name_Hall           'P 2yb'
_space_group_name_H-M_alt        'P 1 21 1'
_symmetry_space_group_name_Hall  'P 2yb'
_symmetry_space_group_name_H-M   'P 1 21 1'
_atom_sites_solution_hydrogens   mixed
_audit_creation_method           SHELXL-2018/1
_cell_angle_alpha                90
_cell_angle_beta                 110.380(14)
_cell_angle_gamma                90
_cell_formula_units_Z            2
_cell_length_a                   7.7981(10)
_cell_length_b                   7.2249(8)
_cell_length_c                   8.9956(11)
_cell_measurement_reflns_used    1217
_cell_measurement_temperature    173(2)
_cell_measurement_theta_max      28.93
_cell_measurement_theta_min      2.41
_cell_volume                     475.09(11)
_computing_cell_refinement
;
CrysAlis PRO (Oxford Diffraction, 2010)
;
_computing_data_collection
;
CrysAlis PRO (Oxford Diffraction, 2010)
;
_computing_data_reduction
;
CrysAlis PRO (Oxford Diffraction, 2010)
;
_computing_molecular_graphics
;
ORTEP-3 for Windows (Farrugia, 2012)
;
_computing_publication_material
;
publCIF (Westrip, 2010)
;
_computing_structure_refinement
;
SHELXL2018 (Sheldrick, 2015b)
;
_computing_structure_solution
;
SHELXT2014 (Sheldrick, 2015a)
;
_diffrn_ambient_temperature      173(2)
_diffrn_detector                 'CCD plate'
_diffrn_detector_area_resol_mean 16.0560
_diffrn_measured_fraction_theta_full 1.000
_diffrn_measured_fraction_theta_max 1.000
_diffrn_measurement_device       'four-circle diffractometer'
_diffrn_measurement_device_type  'Oxford Diffraction Xcalibur Sapphire3'
_diffrn_measurement_method       '\w und \y scan'
_diffrn_radiation_monochromator  graphite
_diffrn_radiation_probe          x-ray
_diffrn_radiation_type           MoK\a
_diffrn_radiation_wavelength     0.71073
_diffrn_reflns_av_R_equivalents  0.0349
_diffrn_reflns_av_unetI/netI     0.1082
_diffrn_reflns_limit_h_max       9
_diffrn_reflns_limit_h_min       -4
_diffrn_reflns_limit_k_max       8
_diffrn_reflns_limit_k_min       -8
_diffrn_reflns_limit_l_max       10
_diffrn_reflns_limit_l_min       -10
_diffrn_reflns_number            3110
_diffrn_reflns_theta_full        25.242
_diffrn_reflns_theta_max         25.456
_diffrn_reflns_theta_min         2.415
_exptl_absorpt_coefficient_mu    0.417
_exptl_absorpt_correction_T_max  1.00000
_exptl_absorpt_correction_T_min  0.90315
_exptl_absorpt_correction_type   multi-scan
_exptl_absorpt_process_details
;
(CrysAlis PRO; Oxford Diffraction, 2010)
;
_exptl_crystal_colour            colourless
_exptl_crystal_density_diffrn    1.451
_exptl_crystal_density_method    'not measured'
_exptl_crystal_description       column
_exptl_crystal_F_000             220
_exptl_crystal_size_max          0.320
_exptl_crystal_size_mid          0.060
_exptl_crystal_size_min          0.030
_refine_diff_density_max         0.196
_refine_diff_density_min         -0.182
_refine_ls_abs_structure_details
;
Flack <i>x</i> determined using 408 quotients
[(<i>I</i>^+^)-(<i>I</i>^-^)]/[(<i>I</i>^+^)+(<i>I</i>^-^)]
(Parsons <i>et al.</i>,  2013)
;
_refine_ls_abs_structure_Flack   -0.07(7)
_refine_ls_extinction_method     none
_refine_ls_goodness_of_fit_ref   0.703
_refine_ls_hydrogen_treatment    mixed
_refine_ls_matrix_type           full
_refine_ls_number_parameters     121
_refine_ls_number_reflns         1719
_refine_ls_number_restraints     1
_refine_ls_restrained_S_all      0.702
_refine_ls_R_factor_all          0.0532
_refine_ls_R_factor_gt           0.0315
_refine_ls_shift/su_max          0.000
_refine_ls_shift/su_mean         0.000
_refine_ls_structure_factor_coef Fsqd
_refine_ls_weighting_details
'w=1/[\s^2^(Fo^2^)+(0.0132P)^2^] where P=(Fo^2^+2Fc^2^)/3'
_refine_ls_weighting_scheme      calc
_refine_ls_wR_factor_gt          0.0412
_refine_ls_wR_factor_ref         0.0433
_reflns_number_gt                1201
_reflns_number_total             1719
_reflns_threshold_expression     'I > 2\s(I)'
_cod_data_source_file            wm4096sup1.cif
_cod_data_source_block           I
_cod_database_code               1550649
_shelx_space_group_comment
;
The symmetry employed for this shelxl refinement is uniquely defined
by the following loop, which should always be used as a source of
symmetry information in preference to the above space-group names.
They are only intended as comments.
;
_shelx_estimated_absorpt_t_min   0.878
_shelx_estimated_absorpt_t_max   0.988
_shelx_hkl_file
;
   0   0   1 1592.02   26.89
   0   0  -2 7457.37   76.87
   0   0  -2 7414.85  157.46
   0   0   2 7375.28   74.16
   0   0  -2 7308.45   74.64
   0   0   2 7522.50  160.26
   0   0   3  888.94   21.55
   0   0  -3  936.77   45.56
   0   0  -3  959.65   21.26
   0   0  -3  875.05   49.05
   0   0   3  922.51   49.21
   0   0  -4 2370.72   71.40
   0   0  -4 2404.57   33.09
   0   0  -4 2308.71   64.44
   0   0   4 2301.22   68.16
   0   0  -5 2404.86   35.03
   0   0   5 2609.10   45.00
   0   0  -5 2420.33   77.64
   0   0   5 2418.91   79.10
   0   0  -6  768.69   59.74
   0   0   6  814.98   34.18
   0   0   6  776.02   63.30
   0   0  -6  667.16   21.87
   0   0  -7   -0.69   53.26
   0   0   7   17.46   58.64
   0   0  -8  169.21   63.38
   0   0   8  148.43   55.53
   0   0   9  154.22   65.85
   0   0  -9  137.42   57.75
   0   0  10   50.22   67.55
   0   0 -10   18.75   50.22
   0   1   0    1.78   12.27
   0  -1   0   11.70   17.05
   0  -1  -1   36.05   22.15
   0   1  -1   72.21   14.30
   0  -1   1   63.87   15.11
   0   1  -1   84.73   16.93
   0   1   1   84.24   17.74
   0  -1   1   63.22   14.34
   0   1  -1   73.47   14.30
   0   1   1   50.50   19.80
   0  -1   2 2208.59   45.36
   0   1   2 2242.53   40.46
   0  -1  -2 2277.73   55.28
   0  -1   2 2227.35   31.59
   0   1  -2 2191.46   33.05
   0   1  -2 2117.19   55.53
   0  -1  -2 2208.35   42.73
   0   1   2 2170.32   47.18
   0  -1   3  432.74   37.14
   0   1   3  408.00   34.55
   0   1   3  426.39   39.37
   0  -1  -3  471.79   48.15
   0   1  -3  377.99   20.66
   0   1   3  413.79   25.88
   0  -1  -3  444.00   28.76
   0  -1   3  451.05   47.39
   0   1  -3  392.12   44.67
   0  -1   3  439.99   19.20
   0  -1  -4 1058.59   34.91
   0  -1   4 1051.42   25.07
   0  -1   4 1032.31   50.95
   0  -1  -4 1056.04   58.32
   0   1   4 1110.64   34.95
   0   1  -4 1031.54   60.47
   0   1  -4  951.07   18.63
   0   1   5   81.41   22.56
   0   1  -5   73.67   51.88
   0   1  -5   99.99   42.20
   0  -1   5  111.46   16.00
   0  -1  -5  101.78   47.10
   0  -1   5   99.71   41.47
   0  -1  -5  107.33   22.68
   0  -1  -6   -4.13   51.64
   0  -1  -6   26.00   22.40
   0  -1   6   35.68   14.50
   0   1   6   25.68   24.87
   0   1  -6   26.16   59.78
   0   1  -6   46.58   47.30
   0  -1   6   14.90   46.53
   0   1   6   68.40   52.37
   0   1  -7  269.85   70.31
   0   1   7  252.84   63.30
   0  -1  -7  224.94   61.36
   0  -1  -7  180.02   26.49
   0   1  -7  230.28   58.93
   0  -1   7  207.08   56.17
   0  -1  -8  281.19   52.65
   0   1   8  220.24   60.14
   0   1  -8  242.56   53.62
   0  -1   8  281.84   58.56
   0  -1  -9   38.84   53.10
   0   1   9   33.94   56.70
   0  -1   9   36.98   58.52
   0   1  -9   35.72   61.52
   0   1  10  109.84   62.33
   0  -1 -10  120.73   70.51
   0  -1  10  134.54   71.32
   0   1 -10  129.52   54.96
   0   2   0 7618.20   78.65
   0  -2   0 7426.96   83.55
   0  -2  -1  284.39   39.49
   0  -2   1  261.35   20.82
   0  -2   1  256.04   32.08
   0   2  -1  269.08   33.05
   0   2  -1  299.01   27.42
   0   2  -1  293.87   19.24
   0   2   1  302.90   30.38
   0  -2  -2 5974.91   82.09
   0   2  -2 5860.82   68.36
   0   2  -2 6056.96   64.40
   0  -2   2 5880.90   64.52
   0   2  -2 6109.45   64.96
   0   2   2 6169.51   77.80
   0   2   2 6145.13   81.97
   0  -2  -3 1047.33   43.98
   0  -2  -3 1066.73   54.47
   0   2  -3 1040.37   55.69
   0  -2   3 1153.53   42.93
   0   2   3 1140.77   41.27
   0   2  -3 1083.66   34.43
   0   2  -3 1065.23   30.05
   0   2  -4  136.40   23.81
   0  -2  -4  129.07   34.30
   0   2  -4  120.93   46.62
   0   2   4  125.67   27.18
   0  -2   4  118.71   19.44
   0   2  -4  113.56   16.52
   0  -2  -4  109.67   30.70
   0  -2   4  108.05   33.45
   0  -2   5  241.50   44.55
   0   2  -5  221.09   15.23
   0  -2  -5  173.10   53.30
   0  -2   5  226.15   20.37
   0  -2  -5  191.48   32.97
   0   2  -5  232.71   22.32
   0   2  -5  239.64   54.59
   0   2  -6   38.19   62.33
   0  -2   6  106.43   47.30
   0  -2  -6   98.29   33.74
   0  -2  -6  135.43   59.70
   0  -2  -7  124.74   52.37
   0   2   7  130.82   58.16
   0   2  -7  115.38   47.10
   0   2  -7   99.71   61.60
   0  -2   7  110.57   53.01
   0  -2  -7  120.65   31.79
   0   2   8  154.91   62.57
   0  -2   8  124.01   54.19
   0   2  -8  170.14   62.33
   0  -2  -8  160.26   53.91
   0   2  -8  110.40   55.00
   0  -2   9   18.95   59.54
   0   2   9    4.98   61.97
   0  -2  -9   18.87   62.94
   0   2  -9  -20.29   62.37
   0   2  -9   34.95   57.83
   0   2 -10  105.46   66.42
   0   2  10  136.61   72.37
   0  -2  10  200.64   71.56
   0  -2 -10  196.71   60.10
   0   2 -11  267.58   69.82
   0   3   0   -5.43   16.08
   0   3   0   11.66   25.76
   0  -3   0   -4.17   41.11
   0   3  -1 2746.92   64.92
   0   3  -1 3115.35   62.73
   0  -3  -1 2923.18   72.62
   0  -3   1 2936.99   38.88
   0  -3   1 2915.73   66.58
   0   3  -1 2948.33   37.34
   0  -3   2  477.78   27.26
   0   3  -2  468.06   23.94
   0  -3  -2  480.86   46.17
   0   3  -2  484.58   32.52
   0   3  -2  450.48   36.73
   0  -3   3 1252.14   43.54
   0   3  -3 1340.27   42.04
   0   3  -3 1313.46   46.62
   0   3  -3 1402.56   69.26
   0  -3  -3 1256.60   54.88
   0   3  -4  369.08   60.79
   0   3  -4  356.52   27.58
   0   3  -4  394.43   34.63
   0  -3  -4  314.73   44.10
   0  -3   4  369.04   38.48
   0   3  -5  -17.90   54.72
   0   3  -5   21.22   28.35
   0   3  -5   14.94   20.01
   0  -3  -5   22.03   37.99
   0  -3   5   44.10   38.80
   0  -3  -6  163.58   41.15
   0   3  -6  139.36   27.78
   0  -3   6  161.23   49.41
   0   3  -6  114.94   70.63
   0  -3   7   48.72   46.45
   0  -3  -7   12.56   36.09
   0   3   7   15.39   51.56
   0   3  -7   31.23   64.72
   0  -3   8  200.35   55.77
   0   3  -8  251.06   50.38
   0   3   8  284.64   66.26
   0   3  -8  318.57   78.08
   0   3  -9   51.68   49.69
   0   3  -9   35.76   76.02
   0   3   9   -4.01   65.04
   0  -3   9   -7.13   57.51
   0  -3  10  126.68   71.20
   0   3  10   86.75   73.35
   0   3 -10  128.02   62.90
   0   3 -10   50.58   84.40
   0   4   0 5569.13   59.94
   0  -4   0 5372.55  103.15
   0  -4  -1 1219.91   63.26
   0   4  -1 1293.37   28.27
   0   4  -1 1101.48   56.21
   0  -4   1 1260.41   57.43
   0   4  -2  453.93   43.50
   0   4  -2  502.85   23.90
   0  -4  -2  546.39   54.47
   0  -4   2  495.84   27.74
   0  -4   3  592.40   36.45
   0   4  -3  571.66   46.21
   0  -4  -3  571.30   51.60
   0  -4  -4 1111.81   66.14
   0  -4   4 1143.72   51.15
   0   4  -4 1237.72   82.34
   0   4  -4 1129.23   54.68
   0  -4  -5  762.37   62.41
   0   4  -5  758.41   73.43
   0  -4   5  773.19   53.70
   0   4  -5  786.31   48.40
   0  -4  -6  164.96   46.33
   0   4  -6  141.83   35.15
   0  -4   6  184.96   46.29
   0   4  -6  142.48   69.62
   0  -4  -7  328.70   49.86
   0   4  -7  328.86   72.09
   0  -4   7  270.30   53.34
   0   4   7  319.38   59.98
   0   4   8  181.44   60.10
   0  -4   8  203.35   55.77
   0   4  -8  180.14   77.23
   0   4   9  180.23   67.15
   0  -4   9  201.93   61.72
   0   4  -9  145.40   74.64
   0   4  -9  105.18   50.50
   0  -5   0    5.91   50.63
   0   5   0  -12.07   47.99
   0   5   0   -4.01   20.41
   0   5  -1  843.62   24.79
   0  -5  -1  839.41   63.59
   0   5  -1  747.03   59.33
   0   5  -2    9.68   14.86
   0  -5  -2    5.35   53.46
   0   5  -2    5.71   43.66
   0  -5  -3   36.49   54.63
   0  -5   3   27.05   26.33
   0   5  -3   18.83   44.59
   0   5  -4  122.11   43.29
   0  -5  -4   94.28   53.82
   0  -5   4   88.17   34.99
   0   5  -4  112.95   66.26
   0  -5  -5   52.73   51.68
   0  -5   5   25.15   35.40
   0   5  -5   21.79   36.17
   0   5  -5   10.57   65.93
   0  -5   6  115.30   42.20
   0   5  -6  151.84   61.56
   0  -5  -6   65.29   48.03
   0  -5  -7   41.96   51.88
   0   5   7   52.81   53.66
   0   5  -7   84.60   69.09
   0   5  -8  122.59   65.12
   0   5   8  148.19   60.02
   0   5   9   86.10   67.15
   0   6   0 1157.05   78.57
   0   6   1  106.84   58.77
   0   6  -1  109.84   55.24
   0  -6  -1   89.42   57.47
   0   6  -2 2175.67   87.28
   0  -6  -2 2332.20   98.09
   0   6  -3  742.21   62.21
   0  -6  -3  785.99   69.50
   0   6  -4  150.34   47.22
   0  -6  -4  165.20   56.78
   0   6  -4  161.39   67.92
   0   6  -5   80.84   43.74
   0  -6  -5   14.05   51.19
   0   6  -5   39.57   62.57
   0   6  -6  156.45   76.67
   0  -6  -6  111.70   55.61
   0   6   6   73.87   48.32
   0   6  -7  190.31   82.54
   0   6   7   94.97   51.92
   0   6   8   42.00   55.04
   0   6   8  127.82   55.40
   0   7   0   32.28   55.97
   0   7   1  255.03   58.48
   0   7  -1  239.48   58.12
   0   7   2  187.19   58.73
   0   7  -2  177.88   54.63
   0   7  -3   26.61   51.27
   0   7   3   59.78   54.43
   0   7   4   45.97   55.16
   0   7  -4   65.04   51.03
   0   7  -4   13.61   70.55
   0   7   5   13.24   57.06
   0   7  -5   21.26   63.06
   0   7   6  102.59   62.37
   0   7  -6  150.42   64.84
   0   7   6  102.18   49.49
   0   7   7   55.12   55.36
   0   7   8   -7.09   57.71
   0   8   0  790.85   80.31
   0   8  -1   78.33   58.85
   0   8   1  119.31   62.69
   0   8   2  218.13   66.87
   0   8  -2  236.60   65.85
   0   8   3   51.76   63.46
   0   8  -3   93.88   57.59
   0   8  -4  125.23   58.81
   0   8   4  154.39   64.84
   0   8  -4  182.17   78.81
   0   8  -5   64.84   79.38
   0   8   5   23.85   64.68
   0   9   0  -26.20   61.68
   0   9   1  241.70   74.80
   0   9  -1  245.27   74.40
   0   9  -2   67.35   64.76
   0   9  -3   56.58   63.95
   0   9  -3   40.10   69.13
   1   0 -11  420.15   70.23
  -1   0  11  448.98   81.08
  -1   0  10    1.90   65.21
   1   0 -10   -6.89   60.39
  -1   0   9   40.05   53.74
   1   0  -9   15.27   62.73
   1   0  -8 1268.18   80.27
  -1   0   8 1235.46   82.34
   1   0  -7 2851.82   98.09
   1   0  -7 2664.38   98.82
   1   0  -7 2776.65   54.51
  -1   0   7 2774.54   68.16
   1   0  -6  199.67   53.54
  -1   0   6  201.57   34.63
   1   0  -6  151.92   40.86
   1   0  -6  162.41   25.56
  -1   0   5  949.00   40.30
   1   0  -5  881.77   52.89
   1   0  -5  849.29   33.98
   1   0  -4 1987.83   59.62
  -1   0   4 2042.99   57.59
  -1   0   4 2100.62   47.71
   1   0  -4 2023.55   43.29
  -1   0   3 9860.57   93.35
  -1   0   3 9999.00   86.79
   1   0  -3 9881.67   81.53
   1   0  -3 9726.39   94.20
   1   0  -2   19.44   25.43
  -1   0   2   22.40   24.66
   1   0  -2   29.93   26.04
   1   0  -1 2466.66   37.18
  -1   0   1 2449.77   35.80
   1   0   0 2486.63   31.79
  -1   0   0 2543.61   35.44
  -1   0  -1  156.86   24.06
   1   0   1  136.36   15.03
   1   0   1  128.47   17.58
   1   0   1  135.96   29.36
  -1   0  -1  140.45   14.13
  -1   0  -2 3589.12   66.58
   1   0   2 3782.80   59.58
   1   0   2 3629.42   68.81
  -1   0  -2 3580.13   59.62
   1   0   2 3530.48   30.38
   1   0   2 3539.07   66.30
   1   0   3  109.07   39.00
   1   0   3  102.10   10.17
  -1   0  -3   96.59   29.73
   1   0   3  125.23   28.03
   1   0   4  518.00   49.29
  -1   0  -4  532.66   42.08
   1   0   4  485.19   14.50
   1   0   5 1193.66   68.24
   1   0   5 1004.69   19.20
  -1   0  -5 1104.64   63.75
   1   0   6 1722.43   83.43
  -1   0  -6 1791.40   80.92
  -1   0  -7  -22.56   49.94
   1   0   7   51.44   60.35
  -1   0  -8  296.30   57.39
   1   0   8  324.08   65.04
  -1   0  -9   30.25   54.88
   1   0   9    0.08   60.30
   1   0  10  225.18   72.25
  -1   0 -10  186.99   74.56
   1   1 -11   39.97   58.44
  -1  -1  11   -0.08   66.66
  -1   1  10   97.20   59.29
   1   1 -10   70.63   62.29
   1  -1 -10    6.40   68.32
  -1  -1  10   26.93   62.01
  -1   1   9   39.00   60.79
   1   1  -9   -4.17   61.48
  -1  -1   9  -16.65   56.46
   1   1  -9   -0.28   63.10
   1  -1  -9   17.66   51.31
   1  -1  -8  156.13   63.18
   1   1  -8  163.86   58.32
  -1  -1   8  185.73   58.44
   1   1  -8  185.21   60.22
   1   1  -7  103.11   21.42
   1  -1  -7   85.86   29.40
   1  -1  -7   86.87   51.44
   1   1  -7  109.88   63.59
  -1  -1   7   71.32   52.81
  -1  -1   7  107.61   30.25
  -1   1   6  726.61   39.93
   1  -1  -6  778.05   41.11
  -1  -1   6  789.51   38.92
   1   1  -6  837.30   68.53
   1  -1  -6  777.28   67.11
   1   1  -6  820.70   32.60
  -1  -1   5  315.09   30.33
   1  -1  -5  279.49   47.06
   1   1  -5  338.34   52.97
  -1   1   5  310.80   30.78
   1   1  -5  309.46   25.76
   1  -1  -5  282.00   30.33
  -1  -1   4 1907.11   46.09
  -1   1   4 1913.43   52.16
   1   1  -4 1835.83   63.34
   1  -1  -4 1885.40   49.21
   1  -1  -4 1799.30   62.41
  -1   1   4 1978.59   48.80
   1   1  -4 1916.59   46.94
  -1   1   3 2446.78   47.99
   1   1  -3 2383.84   63.87
   1   1  -3 2502.83   52.45
  -1  -1   3 2469.13   47.91
   1  -1  -3 2514.37   53.18
  -1   1   3 2530.65   50.22
   1  -1  -3 2383.72   63.83
   1  -1  -2  154.14   34.38
  -1  -1   2  167.67   29.00
   1  -1  -2  162.00   33.90
   1   1  -2  195.66   34.59
  -1   1   2  157.18   28.51
  -1   1   2  157.02   20.29
  -1   1   1 1065.92   30.38
   1  -1  -1 1047.98   25.31
   1  -1  -1 1042.35   35.56
   1   1  -1 1063.05   37.26
  -1  -1   1 1075.16   32.72
  -1   1   0 2047.85   39.53
   1  -1   0 2058.99   31.19
   1   1   0 2006.46   29.73
  -1  -1   0 2101.11   29.44
   1  -1   0 2031.41   37.02
   1  -1   0 2023.87   41.23
  -1   1   0 2033.84   36.81
   1   1   0 2011.52   40.95
  -1   1   0 2062.23   30.25
  -1  -1   0 2112.97   39.41
  -1  -1  -1 3481.35   51.80
   1  -1   1 3373.38   58.24
   1  -1   1 3479.17   38.68
  -1   1  -1 3525.29   56.38
  -1   1  -1 3497.35   34.63
  -1   1  -1 3512.54   38.88
   1   1   1 3356.13   51.19
  -1   1  -1 3458.23   56.66
   1   1   1 3382.37   52.69
   1  -1   1 3429.11   55.16
  -1   1  -2  701.83   42.81
   1  -1   2  809.15   49.29
   1  -1   2  776.47   16.24
  -1   1  -2  758.12   31.31
   1  -1   2  763.83   42.93
   1   1   2  765.74   38.11
  -1   1  -2  803.60   41.31
   1   1   2  786.23   28.47
   1   1   2  727.38   31.27
   1   1   2  777.72   42.36
  -1   1  -2  699.15   16.20
   1   1   3  126.04   39.04
  -1  -1  -3   75.17   38.07
   1   1   3  119.52   23.29
  -1   1  -3  124.98   43.13
   1   1   3  121.86   20.05
  -1   1  -3   94.69   28.43
   1  -1   3  105.66   37.46
  -1  -1  -4  997.36   56.74
   1  -1   4  976.74   57.63
   1   1   4  958.48   58.16
   1   1   4 1024.21   31.43
  -1   1  -4 1010.28   49.21
  -1   1  -4 1138.42   64.96
   1  -1   5  868.04   62.78
   1   1   5  824.22   62.61
  -1  -1  -5  828.92   59.78
   1   1   5  959.49   31.79
  -1   1  -5  841.67   68.45
  -1   1  -5  863.14   55.93
   1  -1   6   85.09   53.91
   1   1   6   70.75   20.21
  -1  -1  -6  105.66   50.58
   1   1   6   64.92   23.57
   1   1   6   73.18   58.16
  -1   1  -6   77.48   47.22
   1   1   7  259.89   25.27
   1  -1   7  258.19   63.87
   1   1   7  210.88   64.64
  -1  -1  -7  211.25   52.08
  -1   1  -7  246.52   51.64
  -1  -1  -8  169.78   53.10
  -1   1  -8  165.69   58.44
   1   1   8  208.70   66.62
   1  -1   8  184.32   62.61
   1  -1   9  150.09   68.65
   1   1   9  203.80   71.12
  -1  -1  -9  174.72   68.81
  -1   1  -9  203.63   57.79
  -1  -1 -10  109.76   76.59
   1  -1  10  201.85   70.31
   1   1  10  269.37   74.84
  -1   1 -10  235.83   55.40
  -1  -2  11  -41.51   68.85
   1   2 -11  -20.09   72.25
  -1  -2  10  172.45   61.20
   1  -2 -10  148.80   70.07
   1   2 -10  124.82   72.78
  -1   2  10  149.49   69.05
   1   2 -10   99.47   68.08
  -1   2   9  702.88   79.14
   1   2  -9  790.44   66.62
   1   2  -9  792.18   88.98
   1  -2  -9  743.87   84.16
  -1  -2   9  694.05   72.09
  -1  -2   8   69.74   49.49
   1  -2  -8   59.29   55.69
   1   2  -8   96.88   62.45
   1  -2  -8   41.96   30.58
   1  -2  -7 1154.66   55.57
   1   2  -7 1135.71   37.50
  -1  -2   7 1095.08   68.97
   1   2  -7 1088.56   85.01
   1  -2  -7 1061.95   79.95
   1  -2  -6  251.22   37.62
   1  -2  -6  235.71   52.53
   1   2  -6  267.14   59.29
   1   2  -6  301.48   28.84
  -1  -2   6  261.27   46.21
  -1  -2   6  296.54   31.10
  -1  -2   5 3567.58   63.87
   1   2  -5 3567.90   97.40
   1  -2  -5 3431.38   76.95
   1  -2  -5 3440.57   94.28
   1   2  -5 3494.39   67.96
  -1  -2   5 3407.32   78.37
  -1  -2   4 1185.03   41.51
  -1  -2   4 1069.33   44.51
   1   2  -4 1050.45   44.31
  -1   2   4 1083.50   42.36
   1  -2  -4 1022.22   47.30
   1  -2  -4 1046.12   52.45
   1   2  -4 1107.48   61.03
  -1   2   3  395.32   35.52
   1  -2  -3  358.02   39.37
   1  -2  -3  379.41   38.19
  -1  -2   3  384.91   30.94
  -1   2   3  371.10   35.48
   1   2  -3  341.21   36.81
   1  -2  -2  663.51   43.09
   1  -2  -2  718.80   39.73
  -1   2   2  754.19   39.08
  -1   2   2  775.50   33.74
  -1  -2   2  737.87   36.05
   1   2  -2  739.05   43.05
   1   2  -1  617.59   43.98
  -1   2   1  660.64   39.69
   1  -2  -1  574.58   41.84
  -1   2   1  605.68   25.80
  -1  -2   1  668.78   35.15
  -1  -2   0 2564.71   57.15
   1  -2   0 2503.03   50.14
  -1   2   0 2439.00   49.17
   1   2   0 2397.65   59.62
   1  -2   0 2371.61   53.18
   1   2   0 2637.57   54.63
   1   2   0 2561.31   30.90
  -1   2   0 2598.45   52.00
   1   2   1 2059.80   49.21
   1  -2   1 1836.64   44.55
  -1   2  -1 1888.24   46.37
   1   2   1 1965.59   42.32
  -1   2  -1 1793.39   50.75
   1  -2   1 1823.72   47.95
  -1   2  -1 1918.74   42.48
   1   2   1 1942.87   55.20
  -1   2  -2  123.28   28.35
   1   2   2  149.77   33.37
   1  -2   2  150.13   32.64
   1   2   2  143.69   28.71
  -1   2  -2  142.64   38.03
  -1   2  -2  133.49   20.45
   1  -2   2  161.31   22.72
   1   2   2  144.30   30.50
  -1   2  -3 1172.24   27.14
   1   2   3 1254.13   42.48
  -1   2  -3 1113.51   26.93
   1  -2   3 1122.62   52.16
  -1   2  -3 1109.91   58.81
   1   2   3 1101.36   52.16
   1   2   4 1683.47   49.01
  -1   2  -4 1763.50   74.07
   1  -2   4 1728.95   67.03
   1   2   4 1694.08   66.83
  -1   2  -4 1667.96   54.92
   1   2   5   65.00   52.41
  -1   2  -5  119.11   36.57
   1  -2   5   90.80   48.11
  -1   2  -5  120.24   61.72
   1   2   6  212.59   60.55
   1  -2   6  173.87   57.39
  -1   2  -6  116.19   63.83
   1   2   6  155.64   35.72
  -1   2  -6  155.48   43.25
   1   2   7  782.26   43.66
   1   2   7  692.59   73.51
  -1   2  -7  660.76   78.93
  -1   2  -7  765.45   61.68
   1  -2   7  725.80   72.21
   1  -2   8  576.16   73.63
   1   2   8  667.44   78.77
  -1   2  -8  610.78   63.71
  -1   2  -9   75.98   57.79
   1   2   9   87.32   62.57
   1  -2   9   31.79   64.96
  -1   2 -10   67.51   55.16
   1  -2  10   31.35   67.72
   1   3 -11   23.98   69.13
  -1  -3  11  -43.17   68.08
   1   3 -10  -29.69   83.88
   1  -3 -10   67.47   57.19
   1   3 -10   48.24   53.10
  -1   3  10   94.45   70.39
  -1  -3  10   33.57   58.89
   1   3  -9   -3.24   49.90
  -1  -3   9   -5.18   52.93
   1  -3  -9  -11.22   67.55
  -1   3   9   53.18   57.63
   1   3  -9   31.27   65.16
  -1  -3   8  223.64   51.64
   1  -3  -8  172.25   42.61
   1  -3  -8  159.94   66.46
   1   3  -8  243.49   65.85
   1   3  -7   41.55   31.06
   1  -3  -7   15.07   55.12
   1   3  -7   25.96   68.61
   1  -3  -7   21.63   38.15
  -1  -3   7   -1.74   42.97
   1  -3  -6  382.69   65.33
   1  -3  -6  353.40   47.91
   1   3  -6  372.72   73.51
   1   3  -6  333.24   31.39
   1   3  -6  356.00   41.43
  -1  -3   6  353.16   46.45
   1  -3  -5   72.78   42.16
  -1  -3   5   73.79   34.43
   1   3  -5   98.37   38.11
   1  -3  -5  113.48   54.15
   1   3  -5   90.52   27.01
   1   3  -5   90.23   61.03
  -1  -3   4  496.86   33.09
   1   3  -4  486.57   43.09
   1  -3  -4  508.52   47.79
   1  -3  -4  451.09   51.44
   1   3  -3   97.04   28.47
   1  -3  -3   74.24   36.57
   1   3  -3   86.59   36.81
  -1  -3   3   73.91   20.49
   1  -3  -2   34.59   39.24
  -1  -3   2   41.03    9.27
   1   3  -2   41.63   36.29
  -1   3   2   31.79   24.18
   1   3  -1 1098.57   53.62
   1  -3  -1 1045.55   50.46
  -1   3   1 1046.08   34.55
   1   3   0 1616.36   61.48
   1  -3   0 1591.41   56.62
   1   3   0 1661.64   25.43
  -1   3   0 1747.66   49.77
  -1   3   0 1674.15   44.59
  -1   3  -1   37.06   24.34
  -1   3  -1   13.73   22.11
   1   3   1   21.14   37.34
   1  -3   1   30.58   26.81
   1  -3   1   51.11   30.74
   1   3   1   46.70   21.30
   1   3   2  499.73   45.93
  -1   3  -2  488.72   32.24
   1  -3   2  506.90   40.18
  -1   3  -2  539.34   48.03
   1   3   2  522.49   36.65
   1  -3   2  500.91   35.56
  -1   3  -2  505.60   33.41
  -1   3  -3  383.13   29.61
   1   3   3  368.67   39.93
  -1   3  -3  413.22   55.24
  -1   3  -3  432.06   28.76
   1  -3   3  418.53   42.24
  -1   3  -4   84.12   20.33
  -1   3  -4   82.05   23.98
   1   3   4   75.98   43.38
  -1   3  -4   99.35   56.66
   1  -3   4   73.87   42.48
  -1   3  -5 2162.75   36.41
   1  -3   5 2234.68   82.94
   1   3   5 2346.09   86.10
  -1   3  -5 2216.37   96.19
  -1   3  -5 2230.71   40.54
   1  -3   6   31.39   51.52
   1   3   6   40.78   39.65
  -1   3  -6   47.10   42.61
   1   3   6   25.43   52.08
  -1   3  -6   40.38   65.65
   1   3   7  871.24   53.46
   1  -3   7  843.70   70.92
  -1   3  -7  852.53   85.86
   1   3   7  915.26   75.74
  -1   3  -7  850.67   60.87
   1  -3   8  123.16   59.33
   1   3   8   75.65   64.72
  -1   3  -8  139.32   76.71
  -1   3  -8   52.53   52.33
   1   3   9  150.86   62.90
   1  -3   9  234.82   72.78
  -1   3  -9  184.68   59.98
   1  -3  10  117.29   78.98
   1   4 -10   28.23   62.13
   1   4  -9   18.27   77.64
  -1  -4   9   19.48   49.77
  -1   4   9   47.63   59.41
   1   4  -8  305.33   82.46
  -1  -4   8  367.46   55.28
   1  -4  -8  312.46   52.69
   1  -4  -7 1984.18   82.26
  -1  -4   7 2205.11   79.50
   1   4  -7 2022.46  101.90
   1   4  -6  122.03   44.47
  -1  -4   6  116.56   37.50
   1   4  -6  152.20   62.09
   1  -4  -6  139.81   48.84
   1   4  -5  610.42   78.29
   1  -4  -5  587.21   59.90
  -1  -4   5  594.46   42.89
   1   4  -5  605.11   54.15
  -1  -4   4  249.97   29.44
   1   4  -4  224.05   46.90
   1  -4  -4  205.09   49.37
   1  -4  -3 1731.91   71.16
  -1  -4   3 1743.73   34.26
   1   4  -3 1806.35   68.49
   1   4  -2 2463.50   76.46
   1  -4  -2 2351.28   78.89
   1   4  -1 1096.30   59.01
  -1   4   1 1034.94   39.93
   1  -4  -1 1113.39   58.52
  -1   4   1 1194.11   45.68
   1   4   0   45.08   42.16
  -1   4   0   64.80   28.15
   1   4   0   83.75   11.22
   1  -4   0   78.69   38.68
   1   4   1  575.99   54.03
   1  -4   1  572.02   46.66
   1   4   1  607.30   28.84
  -1   4  -1  582.55   34.10
  -1   4  -2 1040.25   50.42
   1  -4   2 1099.98   48.03
   1   4   2 1065.80   43.74
  -1   4  -2 1065.64   42.77
   1   4   2 1167.42   61.64
   1  -4   2 1180.66   52.29
  -1   4  -2 1113.59   63.30
  -1   4  -3  663.96   43.09
   1   4   3  704.38   48.68
  -1   4  -3  666.39   66.54
   1   4   3  587.33   55.49
   1  -4   3  721.02   48.28
   1  -4   4   35.84   44.55
  -1   4  -4   23.49   31.19
   1   4   4    5.27   42.61
   1   4   4   31.67   41.47
  -1   4  -4   26.73   62.94
   1   4   5  781.49   62.13
   1   4   5  625.20   58.20
  -1   4  -5  640.51   38.92
  -1   4  -5  724.35   77.92
   1  -4   5  701.95   58.77
   1   4   6  373.21   49.61
   1  -4   6  394.03   56.09
  -1   4  -6  397.10   75.53
   1   4   6  322.06   55.32
   1   4   7   45.20   40.82
   1  -4   7   41.84   53.06
   1   4   7   47.87   52.53
  -1   4  -7   33.41   43.29
  -1   4  -7   26.41   63.99
   1  -4   8   37.75   58.00
  -1   4  -8   58.77   47.91
   1   4   8   60.06   61.16
  -1   4  -8   37.06   62.21
   1  -4   9   59.86   68.04
   1   4   9   53.22   70.27
  -1   5   9  109.35   69.38
   1   5  -9  119.72   71.20
   1   5  -8  137.90   67.68
   1  -5  -8  124.34   51.44
   1   5  -7  101.94   75.74
   1  -5  -7   61.80   46.98
   1   5  -6  391.03   72.62
   1  -5  -6  386.98   57.15
   1   5  -6  399.74   52.89
   1   5  -5  175.28   73.87
   1  -5  -5  223.84   57.39
   1   5  -5  196.30   49.01
  -1  -5   5  209.51   33.78
   1  -5  -4  733.70   71.28
  -1  -5   4  750.59   32.81
   1   5  -4  705.51   61.20
   1  -5  -3  186.14   59.45
   1   5  -3  289.58   54.92
   1   5  -2   72.94   50.87
   1  -5  -2   82.42   52.12
  -1   5   1  222.31   36.77
   1   5  -1  274.19   53.58
   1  -5  -1  256.57   51.23
   1   5   0  559.23   59.21
   1   5   0  459.35   17.37
   1  -5   0  507.43   58.52
   1   5   0  569.03   16.28
  -1   5   0  505.12   38.19
   1   5   1  291.93   56.09
   1  -5   1  300.31   49.17
   1   5   1  340.12   26.53
  -1   5  -1  272.04   30.90
   1   5   2  269.53   56.17
  -1   5  -2  179.33   29.57
   1  -5   2  261.59   48.60
   1   5   2  247.70   33.37
   1  -5   2  255.23   36.33
  -1   5  -2  218.46   45.04
   1   5   3  299.50   42.40
   1  -5   3  323.72   44.06
   1   5   3  291.36   59.62
  -1   5  -3  311.41   46.86
  -1   5  -3  348.30   65.85
   1  -5   4  244.18   45.36
   1   5   4  207.04   55.12
   1   5   4  232.11   46.05
  -1   5  -4  148.43   66.14
  -1   5  -4  174.96   40.95
   1   5   5  432.38   55.32
   1  -5   5  501.03   52.25
  -1   5  -5  481.51   70.83
   1   5   5  451.29   51.11
   1   5   6    6.28   47.30
   1  -5   6   -1.78   48.11
   1   5   6   10.29   43.25
  -1   5  -6   -7.53   71.20
  -1   5  -7  268.03   68.65
   1   5   7  161.84   51.64
   1   5   7  216.72   60.22
   1  -5   7  246.93   56.46
   1   5   8   71.36   59.49
  -1   5  -8   96.43   78.29
  -1   6   9  233.89   68.73
   1  -6  -8   36.65   57.51
   1   6  -8  -44.67   82.58
   1  -6  -7  220.40   58.44
   1   6  -7  228.87   77.60
   1   6  -6  322.14   54.92
   1   6  -6  288.73   78.00
   1  -6  -6  315.29   61.84
   1  -6  -5 1021.49   74.20
   1   6  -5 1147.61   90.64
   1   6  -5 1041.99   70.55
   1   6  -4   58.81   51.48
   1  -6  -4   34.67   56.13
   1   6  -3   15.15   49.86
   1  -6  -3  -10.37   58.04
   1  -6  -2  463.81   64.19
   1   6  -2  354.86   63.46
   1  -6  -1  467.17   67.72
   1   6  -1  389.69   62.90
   1   6   0  284.92   64.96
   1  -6   0  286.42   54.88
   1  -6   1  731.07   66.87
   1   6   1  594.42   68.20
   1   6   1  778.57   31.23
  -1   6  -1  647.64   63.18
  -1   6  -2   10.45   45.20
   1   6   2   -0.32   52.69
   1   6   2   11.14   26.53
   1   6   3  311.16   58.85
  -1   6  -3  341.05   66.02
  -1   6  -3  335.67   49.77
   1   6   3  477.66   42.85
  -1   6  -4  567.73   53.66
   1   6   4  551.37   68.16
   1   6   4  636.01   51.56
  -1   6  -4  616.66   69.94
   1   6   5   55.04   53.78
   1   6   5   41.07   44.75
  -1   6  -5   52.41   60.26
  -1   6  -6  140.09   73.35
   1   6   6  221.01   56.25
   1   6   6  213.35   53.06
   1   6   7  164.15   53.10
   1   6   7  144.63   53.87
  -1   6  -7  221.70   74.88
   1   6   8  521.88   73.10
   1  -7  -8   86.91   60.99
  -1   7   8   36.33   54.92
   1  -7  -7   40.10   63.46
   1   7  -7   80.55   82.42
   1  -7  -6  168.76   62.78
   1   7  -6  157.87   83.19
   1  -7  -5   81.85   59.58
   1   7  -5   59.49   52.89
   1   7  -5   31.27   62.65
   1  -7  -4   56.30   61.20
   1   7  -4   37.58   54.63
   1  -7  -3  263.86   60.71
   1   7  -3  227.73   58.85
   1  -7  -2  182.17   65.04
   1   7  -2  191.93   61.92
   1   7  -1  429.30   66.62
   1  -7  -1  417.64   60.43
   1   7   0  107.37   61.11
  -1   7   0  148.80   54.19
   1  -7   0  104.65   56.46
  -1   7  -1   69.62   53.66
   1   7   1   47.47   57.55
  -1   7  -2   23.04   48.20
   1   7   2   85.46   62.37
  -1   7  -3  222.67   53.01
   1   7   3  218.30   66.06
  -1   7  -3  200.07   63.10
  -1   7  -4   30.33   45.40
   1   7   4   -2.96   55.49
  -1   7  -4   -9.11   64.60
  -1   7  -5  187.64   70.15
   1   7   5   83.96   60.10
  -1   7  -6  170.06   75.21
   1   7   6   71.97   58.20
   1   7   7  144.22   60.71
   1   8  -5  273.90   69.54
   1   8  -5  408.16   78.17
   1  -8  -5  384.35   80.03
   1   8  -4   60.02   58.28
   1  -8  -4  115.34   62.25
   1   8  -3  205.42   65.08
   1  -8  -3  229.43   63.50
   1  -8  -2  140.17   64.76
   1   8  -2  105.26   60.63
  -1   8   2  174.96   61.72
  -1   8   1   69.09   57.83
   1   8  -1   20.94   61.60
  -1   8   0  107.24   59.82
   1   8   0   46.01   56.34
  -1   8  -1   -3.00   52.89
   1   8   1   10.61   60.47
  -1   8  -2  124.09   60.63
   1   8   2  189.50   68.77
  -1   8  -2  151.88   58.36
   1   8   3  210.24   68.73
  -1   8  -3  192.94   58.85
  -1   8  -3  191.32   65.45
  -1   8  -4   57.55   68.77
   1   8   4   27.74   60.87
   1   8   5   33.66   62.69
  -1   8  -5   58.81   73.91
   1   9  -4   39.20   67.03
   1   9  -3   61.52   65.61
   1   9  -2   17.62   65.21
   1   9  -1  158.96   68.20
  -1   9   1   81.61   64.35
   1   9   0  -28.88   73.18
  -1   9   0   27.90   67.80
  -1   9  -1   89.22   63.99
  -1   9  -2   61.03   63.30
  -1   9  -2   79.38   65.04
  -1   9  -3  127.86   75.94
  -1   9  -3   52.93   62.65
  -2   0  11  128.43   71.20
   2   0 -11  126.64   73.87
  -2   0  10  271.39   69.50
   2   0 -10  371.39   62.53
   2   0  -9  577.41   75.45
   2   0  -8  173.14   62.86
   2   0  -8  160.38   34.26
   2   0  -8  182.29   54.35
   2   0  -7  -12.84   51.44
   2   0  -7   57.02   32.93
   2   0  -6    8.26   31.31
   2   0  -6   26.65   43.66
   2   0  -5 1573.31   51.72
   2   0  -5 1589.14   58.77
   2   0  -4 1420.99   49.41
   2   0  -4 1393.57   48.36
  -2   0   4 1497.86   50.91
   2   0  -3  141.63   35.32
  -2   0   3  160.70   32.44
  -2   0   2 1036.28   42.08
   2   0  -2 1039.44   47.63
  -2   0   1 1101.08   45.44
   2   0  -1 1087.59   47.67
  -2   0   1 1104.97   41.43
   2   0  -1 1101.08   47.55
  -2   0   0 2487.84   54.15
   2   0   0 2574.11   61.32
  -2   0   0 2624.61   48.92
   2   0   0 2412.88   52.97
  -2   0  -1  274.39   36.53
   2   0   1  302.62   41.51
  -2   0  -1  299.09   24.87
   2   0   1  259.77   29.32
  -2   0  -2 1224.72   28.07
   2   0   2 1291.91   42.00
   2   0   2 1245.38   31.19
   2   0   2 1180.30   55.65
   2   0   3  470.29   53.14
   2   0   3  446.15   18.83
   2   0   4    3.56    8.22
   2   0   4  -17.17   48.88
  -2   0  -4  -10.04   38.43
   2   0   5   26.08   58.00
  -2   0  -5   16.00   45.36
  -2   0  -6   17.05   47.39
   2   0   6    2.84   58.93
  -2   0  -7   -3.40   45.04
   2   0   7   28.27   60.30
   2   0   8  261.95   73.10
  -2   0  -8  218.01   52.16
   2   0   9   99.23   64.72
  -2  -1  11  268.88   75.74
   2   1 -11  420.11   84.20
   2  -1 -11  390.06   78.37
  -2   1  11  398.28   76.06
  -2  -1  10  170.34   62.21
   2   1 -10  138.67   70.96
   2  -1 -10  154.22   62.61
   2   1 -10  194.16   69.46
   2   1  -9  233.20   54.15
  -2  -1   9  204.36   57.47
   2   1  -9  188.49   60.79
   2  -1  -9  161.27   55.36
   2  -1  -8    7.33   30.05
   2   1  -8   -5.47   28.59
   2   1  -8   16.24   54.03
   2  -1  -8   -2.47   45.16
   2   1  -7  445.99   66.78
   2   1  -7  437.20   38.56
   2  -1  -7  410.14   43.46
   2  -1  -7  375.15   56.05
   2   1  -6  125.23   32.36
   2  -1  -6  106.68   35.40
   2   1  -6  128.51   49.94
   2  -1  -6   88.53   52.20
   2   1  -5   37.14   30.29
  -2   1   5   29.69   29.16
   2  -1  -5   25.92   40.38
   2   1  -5   40.78   41.92
   2  -1  -5   29.97   32.12
   2  -1  -5   27.78   29.57
   2   1  -4  234.78   38.27
  -2  -1   4  195.41   34.26
  -2   1   4  239.88   35.19
   2  -1  -4  218.86   28.51
   2  -1  -4  200.44   36.33
   2  -1  -3  802.23   44.91
   2  -1  -3  833.05   25.52
  -2   1   3  873.06   43.66
   2   1  -3  800.85   49.13
  -2  -1   3  878.89   41.59
   2  -1  -2 7235.47   91.49
  -2   1   2 7819.00   88.33
   2   1  -2 7261.19   95.70
  -2  -1   2 7536.83   88.70
  -2  -1   1  256.04   29.40
   2   1  -1  278.16   30.29
   2  -1  -1  286.30   41.59
   2   1  -1  276.05   44.63
  -2   1   1  279.90   29.36
  -2   1   1  244.09   36.86
  -2  -1   1  262.24   30.86
   2  -1   0 6715.21   89.06
   2   1   0 6687.87   84.12
  -2   1   0 6834.20   73.47
  -2   1   0 6884.86   85.94
   2   1   0 6914.96   78.45
  -2  -1   0 6735.78   74.20
   2  -1   0 6721.57   66.42
   2  -1   0 6709.42   75.25
  -2  -1   0 6809.61   77.88
  -2  -1  -1  316.79   28.92
   2   1   1  328.01   37.34
  -2  -1  -1  308.41   32.89
  -2   1  -1  334.05   41.35
   2  -1   1  276.45   44.02
  -2   1  -1  323.68   23.94
  -2   1  -1  304.52   24.83
   2  -1   1  304.60   18.47
   2  -1   1  324.08   34.67
   2  -1   1  312.46   28.43
   2   1   1  326.35   34.47
  -2  -1  -2 3478.40   55.28
   2   1   2 3481.84   69.94
   2  -1   2 3407.16   79.99
   2  -1   2 3382.65   43.34
   2   1   2 3576.89   76.75
  -2   1  -2 3361.47   53.30
   2  -1   2 3513.02   53.06
  -2   1  -2 3412.14   38.48
   2   1   2 3372.20   57.43
   2   1   3 2767.58   50.26
   2   1   3 2743.72   78.89
   2  -1   3 2575.49   28.43
  -2   1  -3 2666.77   58.56
   2  -1   3 2704.44   78.57
   2   1   3 2684.39   50.58
   2   1   4  828.92   62.90
  -2   1  -4  867.43   47.30
   2   1   4  812.84   30.86
   2   1   4  838.11   33.57
   2  -1   4  825.68   61.97
   2   1   5 1688.33   38.11
   2  -1   5 1760.74   83.31
   2   1   5 1700.03   81.93
  -2   1  -5 1549.50   65.04
   2   1   5 1722.39   42.28
   2   1   6  108.86   58.52
   2   1   6   96.75   21.79
   2  -1   6  119.64   64.15
  -2   1  -6   70.63   39.53
   2  -1   7  232.35   66.83
  -2   1  -7  253.69   53.78
   2   1   7  284.47   62.21
  -2   1  -8   18.95   46.01
   2  -1   8    3.00   59.98
   2   1   8   25.11   60.51
   2  -1   9  100.24   66.54
   2   1   9   11.42   73.06
  -2   1  -9   30.94   53.99
  -2   1 -10   10.04   66.06
  -2  -2  11   21.18   65.41
   2   2 -11   32.04   79.58
   2   2 -11   78.17   69.50
  -2  -2  10   97.20   56.98
   2   2 -10  115.51   66.10
   2  -2 -10   82.78   69.01
   2   2 -10   76.95   58.93
   2  -2  -9   10.98   60.10
  -2  -2   9   51.07   51.96
   2   2  -9   21.99   60.06
   2  -2  -8  208.74   40.99
  -2  -2   8  256.89   53.10
   2  -2  -8  241.14   51.19
   2   2  -8  214.93   68.20
   2  -2  -7  847.10   56.82
   2  -2  -7  875.17   65.69
   2   2  -7  980.18   48.15
   2   2  -7  888.05   80.76
   2   2  -6  205.42   42.81
   2   2  -6  225.22   63.87
   2  -2  -6  196.83   51.48
   2  -2  -6  186.87   41.23
   2   2  -5   90.44   41.07
   2  -2  -5   60.51   38.43
  -2   2   5   65.61   26.49
   2   2  -5   69.74   51.96
   2  -2  -5   98.58   45.97
  -2   2   4 1645.28   38.48
   2  -2  -4 1621.18   60.87
   2   2  -4 1629.89   60.51
   2  -2  -4 1564.28   60.87
   2  -2  -3 2209.00   66.34
  -2   2   3 2171.17   30.17
   2  -2  -3 2166.80   57.47
   2   2  -3 2291.78   66.62
  -2  -2   3 2304.54   58.56
   2   2  -2  147.87   45.36
  -2  -2   2  138.27   34.59
  -2   2   2  172.98   32.60
   2  -2  -2  159.33   43.62
   2  -2  -2  161.15   26.00
  -2  -2   2  173.26   20.49
  -2  -2   1 1087.31   47.34
  -2   2   1  934.70   22.76
   2  -2  -1 1107.48   52.57
  -2   2   1 1024.90   45.89
  -2   2   1  961.84   48.28
   2  -2  -1  983.87   23.98
   2   2  -1  918.46   28.55
  -2  -2   1  977.96   27.26
   2   2  -1  849.98   53.06
  -2  -2   0 4811.62   78.17
   2   2   0 4457.77   59.45
  -2   2   0 4446.23   58.89
   2  -2   0 4448.46   79.79
  -2   2   0 4626.49   70.43
  -2  -2   0 4379.48   55.57
  -2   2   0 4319.34   76.79
   2  -2   0 4463.24   72.21
   2   2   0 4409.62   81.08
   2   2   1 7128.92   97.00
  -2  -2  -1 7496.25   95.22
  -2   2  -1 7417.40   97.65
  -2  -2  -1 7228.63   84.69
   2   2   1 6909.29   86.02
  -2   2  -1 7488.15   81.20
   2  -2   1 7317.77   90.56
  -2   2  -1 7189.95   90.48
   2  -2   1 7075.29  102.02
   2  -2   1 7210.69   81.16
   2   2   2  537.19   39.57
   2   2   2  554.04   36.61
  -2   2  -2  526.58   28.51
   2  -2   2  509.13   27.54
   2   2   2  504.23   42.04
   2  -2   2  519.78   49.69
  -2   2  -2  520.71   46.41
  -2   2  -2  522.69   23.81
   2  -2   3  974.76   60.02
   2   2   3  978.20   41.67
   2  -2   3  984.76   26.45
  -2   2  -3  905.26   37.18
   2   2   3  869.62   54.35
   2   2   3  953.05   46.37
  -2   2  -3 1016.39   27.86
  -2   2  -3  956.86   62.17
   2   2   4  128.26   32.48
  -2   2  -4  117.29   55.28
   2   2   4  163.01   50.91
   2  -2   4  145.40   53.26
  -2   2  -4  120.77   31.43
   2   2   5  337.85   38.39
   2   2   5  368.96   62.25
   2  -2   5  314.73   59.17
  -2   2  -5  364.83   42.69
  -2   2  -5  330.04   61.60
   2   2   6 1374.49   51.84
  -2   2  -6 1224.64   62.53
   2   2   6 1367.20   82.78
   2  -2   6 1337.76   85.33
   2  -2   7  343.77   65.25
   2   2   7  325.30   64.68
  -2   2  -7  321.21   50.50
  -2   2  -8  124.29   52.61
   2   2   8  143.74   70.51
   2  -2   8  124.17   64.80
  -2   2  -9  125.10   53.78
   2   2   9  159.21   66.54
   2  -2   9   56.13   67.59
  -2  -3  11  149.73   71.28
   2   3 -11  201.12   73.91
  -2  -3  10   16.69   53.26
   2   3 -10   32.28   79.42
   2  -3 -10  105.02   72.94
  -2  -3   9  162.45   52.04
   2   3  -9   93.19   71.00
   2  -3  -9   98.86   64.64
   2  -3  -9  160.79   47.75
   2  -3  -8  138.02   45.52
  -2  -3   8  198.09   49.53
   2  -3  -8  178.73   61.32
   2   3  -8  185.86   68.08
   2   3  -7   23.45   38.07
   2  -3  -7   25.88   40.99
   2  -3  -7   28.31   51.68
  -2  -3   7    6.52   41.88
   2   3  -7   -8.87   67.47
  -2  -3   6  556.47   47.91
   2  -3  -6  581.14   56.86
   2   3  -6  609.24   76.95
   2  -3  -6  539.66   63.91
   2   3  -6  594.83   55.04
   2   3  -5   98.50   45.60
   2  -3  -5  105.34   40.78
   2  -3  -5  122.63   42.20
  -2  -3   5  124.58   32.20
  -2   3   5  125.87   28.27
   2  -3  -4  334.57   47.91
   2  -3  -4  392.85   45.44
  -2   3   4  393.86   25.96
   2   3  -4  361.22   47.55
   2   3  -3  180.43   45.93
   2  -3  -3  215.99   43.94
   2  -3  -3  182.29   32.40
   2  -3  -2 1005.54   56.13
  -2   3   2 1114.65   36.98
   2   3  -2 1012.46   58.36
  -2  -3   1 1049.48   18.23
  -2   3   1 1160.53   49.17
   2  -3  -1 1043.12   54.88
  -2   3   1 1109.38   28.31
   2   3  -1 1063.01   59.29
   2   3   0 3055.33   80.68
   2   3   0 3081.70   47.39
   2  -3   0 3008.51   70.23
   2  -3   0 3092.11   71.56
  -2   3   0 3154.92   58.73
  -2   3   0 3257.75   69.74
  -2   3   0 2909.41   28.43
   2   3   1   81.36   27.01
   2   3   1   69.34   42.40
   2  -3   1   72.66   31.06
  -2   3  -1   78.49   35.56
   2  -3   1   86.83   39.85
  -2   3  -1   94.81   29.73
   2   3   2 3027.71   78.53
   2  -3   2 3008.11   61.11
   2   3   2 3090.85   70.15
   2  -3   2 2989.76   80.03
  -2   3  -2 3154.23   62.21
  -2   3  -2 3362.24   82.13
  -2   3  -2 3043.10   41.27
  -2   3  -3   38.35   23.33
   2   3   3   42.53   39.97
   2   3   3   21.87   39.49
   2  -3   3   18.39   47.59
   2  -3   3   41.07   23.37
  -2   3  -3   53.46   51.23
  -2   3  -3   33.45   21.47
  -2   3  -4  405.93   22.80
   2   3   4  437.20   46.70
   2  -3   4  485.72   59.37
   2   3   4  408.57   55.81
  -2   3  -4  466.52   26.61
  -2   3  -4  478.02   67.39
  -2   3  -4  496.45   37.06
  -2   3  -5  260.74   39.24
  -2   3  -5  276.78   63.50
   2   3   5  221.78   56.94
   2   3   5  273.34   45.77
   2  -3   5  332.67   62.01
   2  -3   6   65.77   57.06
   2   3   6   27.78   37.18
   2   3   6   75.21   55.97
  -2   3  -6   40.18   65.77
  -2   3  -6   41.59   37.54
   2   3   7   35.84   54.63
  -2   3  -7   29.93   43.94
   2  -3   7   25.43   61.68
  -2   3  -7   20.49   69.17
   2  -3   8   43.13   63.99
   2   3   8   42.48   66.30
   2   3   9   52.08   70.39
   2  -3   9   -0.53   75.25
   2  -4 -10  476.81   89.55
   2   4 -10  536.18   87.16
   2   4  -9  120.77   68.04
   2  -4  -9  233.24   67.64
   2  -4  -9  181.36   52.16
   2  -4  -8  109.84   67.07
   2   4  -8   58.36   73.31
  -2  -4   8  103.60   42.97
   2  -4  -8   98.09   49.94
   2  -4  -7   22.36   44.71
   2   4  -7   30.98   42.85
  -2  -4   7   42.12   37.22
   2   4  -7   84.04   68.40
   2  -4  -7   52.61   57.71
   2  -4  -6  229.39   54.51
   2   4  -6  254.06   54.47
  -2  -4   6  215.34   36.25
   2   4  -6  209.67   74.20
   2  -4  -6  234.05   46.09
   2  -4  -5  508.24   59.29
  -2  -4   5  532.86   35.44
   2  -4  -5  564.05   61.11
  -2   4   5  492.32   35.36
   2   4  -5  566.60   59.41
   2  -4  -4   17.01   50.87
   2   4  -4   32.36   49.77
  -2  -4   4   30.54   18.51
   2  -4  -3  171.11   49.49
   2   4  -3  171.52   49.33
   2  -4  -2 1535.73   70.31
   2   4  -2 1613.20   71.48
  -2   4   2 1571.12   45.77
   2   4  -1 1175.11   65.73
   2  -4  -1 1218.08   62.09
  -2   4   1 1271.99   36.53
   2  -4   0  181.60   39.89
   2   4   0  185.21   19.16
  -2   4   0  202.74   36.86
  -2   4   0  188.73   16.89
   2   4   0  215.70   52.12
   2   4   1  182.86   28.31
   2   4   1  166.05   49.33
   2  -4   1  141.79   41.63
  -2   4  -1  170.91   41.88
   2  -4   1  138.75   37.79
   2   4   2   69.21   47.87
   2   4   2   40.22   32.36
   2  -4   2   35.48   45.28
  -2   4  -2   45.60   47.71
   2  -4   2   59.90   33.82
  -2   4  -3  238.67   34.95
   2  -4   3  266.25   36.41
   2  -4   3  305.98   53.38
  -2   4  -3  269.04   57.06
   2   4   3  339.11   43.94
   2   4   3  294.76   51.35
   2   4   4 1081.23   66.02
   2  -4   4 1190.54   73.43
   2   4   4 1139.96   66.10
  -2   4  -4 1080.54   43.74
  -2   4  -4 1137.85   45.04
  -2   4  -4 1119.06   82.78
   2   4   5   11.75   47.39
  -2   4  -5   39.73   64.35
   2  -4   5   25.43   51.48
   2   4   5   21.71   43.70
  -2   4  -5    9.11   28.71
   2  -4   6  196.95   60.22
   2   4   6  158.15   44.71
   2   4   6  253.09   60.75
  -2   4  -6  279.13   71.56
   2  -4   7   64.60   60.63
   2   4   7  103.84   61.28
  -2   4  -7   52.89   66.99
   2   4   8  288.40   70.27
   2  -4   8  269.37   69.09
  -2   4  -8  289.25   82.86
   2  -4   9   15.75   68.97
   2   5  -9   44.75   84.73
   2  -5  -9   50.46   57.39
   2   5  -8   54.96   66.18
   2  -5  -8  100.76   53.30
   2   5  -7  100.32   50.42
   2   5  -7  112.79   72.41
   2  -5  -7   62.98   55.20
   2   5  -6   94.85   51.64
   2   5  -6  203.23   64.27
   2  -5  -6  148.15   55.20
   2  -5  -5   24.42   50.95
   2   5  -5   25.23   52.69
   2  -5  -4  284.76   61.20
   2   5  -4  264.67   60.18
   2  -5  -3  107.08   58.24
   2   5  -3   92.10   56.09
   2  -5  -2 1225.70   70.96
   2   5  -2 1024.57   74.76
   2   5  -1   21.14   54.03
  -2   5   1   20.53   23.61
   2  -5  -1   51.39   51.92
   2   5   0 1557.72   84.12
   2  -5   0 1659.01   74.97
  -2   5   0 1708.26   41.96
  -2   5  -1   39.93   46.66
   2   5   1   60.83   25.96
   2   5   1   74.52   54.47
   2  -5   1   49.25   42.20
   2   5   2 1602.10   82.58
   2  -5   2 1685.13   69.78
   2  -5   2 1714.53   70.39
   2   5   2 1847.13   59.29
  -2   5  -2 1784.11   79.50
   2  -5   3  389.04   43.90
  -2   5  -3  326.84   42.44
   2   5   3  468.59   47.87
   2  -5   3  441.29   56.78
  -2   5  -3  386.78   63.91
   2   5   3  400.55   59.98
  -2   5  -4  298.73   37.62
   2   5   4  317.16   46.17
   2   5   4  326.03   56.25
   2  -5   4  330.48   53.82
  -2   5  -4  299.34   60.43
   2   5   5  181.48   50.75
   2  -5   5  201.16   55.81
   2   5   5  181.56   49.29
  -2   5  -5  224.17   64.52
   2   5   6   16.69   44.87
   2   5   6   28.35   49.82
   2  -5   6   47.95   53.30
  -2   5  -6   28.92   64.07
   2   5   7  131.50   60.99
   2  -5   7  207.36   65.08
   2   5   7  160.79   52.73
  -2   5  -7  196.14   66.87
   2   5   8   74.76   65.41
   2  -6  -9    8.87   62.09
   2   6  -8  114.82   74.40
   2  -6  -8   81.20   58.40
   2   6  -7  231.42   82.26
   2  -6  -7  199.75   63.26
   2  -6  -6  270.78   56.46
   2   6  -6  271.88   62.21
   2   6  -6  346.32   85.13
   2   6  -5   -0.81   54.11
   2  -6  -5   -0.53   54.03
   2   6  -4    7.98   52.81
   2  -6  -4   10.61   55.36
   2  -6  -3  762.46   73.91
   2   6  -3  866.82   73.95
   2   6  -2  177.43   59.74
   2  -6  -2  134.42   57.55
   2  -6  -1   85.54   51.80
   2   6  -1   88.53   58.81
   2   6   0  833.37   74.12
   2  -6   0  873.59   69.34
   2  -6   1  499.65   58.48
   2   6   1  429.18   68.45
  -2   6  -1  429.54   55.49
   2   6   2   -3.97   52.89
   2   6   2    5.75   28.84
  -2   6  -2    7.53   40.74
   2  -6   2  -15.55   43.58
  -2   6  -2   -1.58   49.86
   2   6   3  189.86   37.95
  -2   6  -3  149.65   41.67
   2   6   3  162.24   56.62
   2  -6   3  189.50   47.39
  -2   6  -3  170.79   58.24
   2   6   4  368.19   50.58
   2   6   4  278.48   62.33
  -2   6  -4  382.52   69.70
  -2   6  -5   82.54   60.43
   2   6   5  131.18   46.45
   2   6   5   87.40   54.27
   2   6   6  112.67   52.49
   2   6   6  137.17   51.11
  -2   6  -6  146.85   64.68
   2   6   7   79.42   53.42
   2   6   7   69.30   55.69
  -2   6  -7   86.14   67.07
   2   6   8    8.91   59.82
   2  -7  -8  300.23   69.66
   2  -7  -7   75.53   63.02
   2   7  -7   66.91   73.47
   2   7  -6   93.92   81.00
   2   7  -6   52.45   56.82
   2  -7  -6   82.46   61.97
   2  -7  -5  137.42   58.64
   2   7  -5  194.77   62.82
   2   7  -4  123.69   59.49
   2  -7  -4  166.21   68.12
   2   7  -3   47.55   56.70
   2  -7  -3   47.67   57.43
   2   7  -2  257.30   63.99
   2  -7  -2  216.68   64.03
   2   7  -1    5.02   60.39
   2  -7  -1   32.08   52.33
   2   7   0  523.02   68.16
   2  -7   0  540.84   70.88
   2   7   1   98.21   59.37
  -2   7  -1  105.62   52.85
   2  -7   1  127.70   54.63
  -2   7  -1  167.18   52.29
   2  -7   2  409.78   59.66
   2   7   2  330.85   71.56
  -2   7  -2  403.79   64.40
  -2   7  -2  359.48   57.15
  -2   7  -3  166.17   48.96
   2   7   3  177.67   66.83
  -2   7  -3  187.11   61.07
   2   7   4  117.17   61.72
  -2   7  -4  141.31   65.21
   2   7   5  174.56   68.53
  -2   7  -5  275.97   69.01
  -2   7  -6   -3.93   67.72
   2   7   6  -34.18   61.88
   2   7   7  117.98   57.67
   2  -8  -5  417.92   84.81
   2   8  -5  253.33   72.13
   2   8  -4   22.44   62.49
   2  -8  -4   50.18   72.13
   2   8  -3   33.01   64.19
   2  -8  -3   24.50   65.65
   2   8  -2  169.74   62.90
   2  -8  -2  160.75   68.20
   2   8  -1  559.87   74.52
   2  -8  -1  534.40   70.55
  -2   8   0   25.64   56.78
   2  -8   0   64.56   59.82
   2   8   0  -14.70   65.49
   2   8   1  160.26   71.08
  -2   8  -1  208.58   58.93
  -2   8  -1  249.97   58.56
   2   8   2  159.89   68.93
  -2   8  -2  165.81   56.86
  -2   8  -2  148.07   57.47
   2   8   3  357.82   79.87
  -2   8  -3  484.34   76.10
   2   8   4  145.31   73.06
  -2   8  -4  184.64   74.44
  -2   8  -5  151.31   77.76
   2   9  -4  125.02   71.81
   2   9  -3  -14.46   67.59
   2   9  -2  170.51   78.53
   2  -9  -1   35.03   74.12
  -2   9   1   13.08   60.14
  -2   9   0  140.33   70.07
  -2   9  -1   -3.32   59.90
  -2   9  -2   24.02   58.28
   3   0 -11   71.81   71.32
   3   0 -10   94.73   60.47
   3   0  -9  119.96   59.86
   3   0  -9  111.05   38.72
   3   0  -9   80.19   54.80
   3   0  -8  855.04   54.68
   3   0  -8  808.91   64.84
   3   0  -7   65.04   41.59
   3   0  -7  108.86   47.87
   3   0  -6  471.46   48.36
   3   0  -6  421.36   47.39
   3   0  -5  314.89   43.05
   3   0  -5  324.53   38.35
   3   0  -4  110.85   41.67
   3   0  -3 1342.74   58.60
  -3   0   2  750.39   46.45
   3   0  -2  697.45   53.10
  -3   0   2  800.16   47.43
   3   0  -1 3592.36   77.03
  -3   0   1 3742.50   76.10
  -3   0   1 3880.36   72.37
   3   0  -1 3577.01   74.40
   3   0   0    4.09   34.38
  -3   0   0  -13.04   28.47
  -3   0   0   14.66   33.49
   3   0   0   32.85   43.58
   3   0   1 2105.20   70.19
   3   0   1 2054.41   52.57
  -3   0  -1 2199.64   49.61
   3   0   2  630.10   57.02
   3   0   2  658.98   38.39
   3   0   2  652.46   33.90
  -3   0  -2  661.00   29.77
   3   0   3   22.03   21.83
   3   0   3   31.55   51.72
  -3   0  -3   23.61   17.25
   3   0   4  -18.95   56.13
   3   0   4    0.08   15.92
   3   0   4   13.20   19.64
   3   0   5  888.45   78.65
   3   0   5  647.39   17.33
   3   0   6  204.28   68.61
   3   0   7  111.38   67.96
   3   0   8    9.44   71.69
   3   1 -11   36.90   70.23
   3  -1 -11   37.34   74.64
  -3  -1  11   -6.20   58.28
   3   1 -11   64.19   70.63
   3   1 -10   79.10   54.39
   3   1 -10   84.40   59.98
   3  -1 -10   48.60   59.37
   3  -1  -9  198.90   42.53
   3   1  -9  213.52   63.71
   3  -1  -9  277.39   64.07
   3   1  -8   -1.42   53.74
   3  -1  -8   38.84   57.27
   3   1  -8   26.85   35.76
   3  -1  -8   10.37   39.12
   3  -1  -7  935.23   60.22
   3   1  -7  897.00   54.55
   3   1  -7  868.44   67.76
   3  -1  -7  925.19   57.96
   3  -1  -7  924.58   76.63
   3   1  -6   86.10   40.50
   3  -1  -6  127.05   43.62
   3   1  -6  131.30   50.46
   3  -1  -6  102.91   35.84
   3  -1  -5 3456.77   83.79
   3   1  -5 3560.94   81.65
   3  -1  -5 3606.70   63.95
   3   1  -5 3432.83   85.78
   3  -1  -4 1079.53   57.59
   3  -1  -4 1148.30   33.13
   3   1  -4 1070.95   59.49
   3  -1  -3 3742.86   81.36
   3   1  -3 3691.95   85.37
   3  -1  -2  930.45   52.61
  -3  -1   2  964.11   42.93
   3   1  -2 1017.93   60.18
  -3  -1   1  306.02   34.18
   3  -1  -1  348.42   45.16
   3  -1  -1  309.14   46.29
   3   1  -1  260.86   37.91
  -3   1   1  314.36   34.55
   3   1  -1  314.85   48.84
  -3  -1   1  306.79   38.52
   3   1   0 1367.45   55.28
   3  -1   0 1401.47   50.26
   3  -1   0 1408.80   63.46
   3   1   0 1460.31   56.25
   3  -1   0 1386.16   43.25
  -3   1   0 1448.61   46.58
  -3  -1   0 1476.15   49.17
  -3  -1   0 1512.03   49.90
  -3  -1  -1 1101.93   42.69
   3   1   1 1048.67   55.53
   3  -1   1 1050.74   63.10
   3  -1   1  979.54   41.03
   3  -1   1 1068.72   30.54
   3  -1   1 1060.54   48.64
  -3   1  -1 1097.72   39.20
   3   1   1 1038.87   48.32
  -3  -1  -2 1090.63   39.77
   3  -1   2 1066.57   37.30
   3   1   2 1059.32   60.79
   3  -1   2 1031.74   63.83
   3  -1   2 1119.91   37.50
  -3   1  -2 1073.66   33.17
   3   1   2 1045.67   44.27
   3   1   3  164.35   52.89
   3  -1   3  161.43   21.18
   3  -1   3  168.12   55.24
   3   1   3  141.47   30.70
  -3   1  -3  147.14   14.66
   3  -1   4   99.55   10.77
   3   1   4   99.18   58.85
   3   1   4   79.99   29.40
   3   1   4   84.24   23.98
   3  -1   4  110.32   61.97
   3   1   5  377.99   67.23
   3   1   5  364.26   31.10
   3  -1   5  308.04   67.07
   3  -1   6  551.21   71.00
   3   1   6  542.54   75.21
   3  -1   7   56.50   71.52
   3   1   7   50.75   68.12
   3   1   8  166.21   80.19
   3  -1   8  118.71   74.07
   3   2 -11   94.45   75.29
  -3  -2  11   77.03   59.37
   3   2 -11  102.30   67.64
   3  -2 -11   51.60   71.32
  -3  -2  10  326.39   61.97
   3   2 -10  324.12   70.79
   3  -2 -10  357.45   62.37
   3  -2  -9   58.28   43.13
   3   2  -9   68.08   65.97
   3  -2  -9   55.28   64.88
   3   2  -8  132.31   40.14
   3  -2  -8  145.92   42.77
   3   2  -8  102.38   58.81
   3  -2  -8  100.20   56.66
   3  -2  -7  902.22   63.75
   3   2  -7  927.70   77.76
   3  -2  -7  838.68   67.84
   3   2  -7  864.88   57.35
   3  -2  -6  837.42   61.68
   3   2  -6  921.22   72.33
   3  -2  -6  823.29   65.57
   3   2  -6  880.39   63.87
   3  -2  -5  668.29   53.22
   3  -2  -5  737.22   53.54
   3   2  -5  729.53   60.02
   3  -2  -4  150.46   35.32
   3   2  -4  121.30   48.76
   3  -2  -4  125.15   43.86
   3  -2  -3   93.72   41.47
   3   2  -3   81.73   49.29
  -3  -2   2 2723.07   53.42
   3  -2  -2 2562.77   70.71
   3   2  -2 2498.17   79.06
   3   2  -1 3533.72   63.54
  -3  -2   1 3627.44   60.99
   3  -2  -1 3503.59   76.42
   3  -2  -1 3593.42   45.60
   3   2  -1 3419.83   84.44
  -3  -2   0  486.08   33.25
   3   2   0  455.18   40.01
   3  -2   0  502.16   41.27
   3  -2   0  484.67   54.31
  -3   2   0  523.75   40.01
   3  -2   0  468.63   32.60
   3   2   0  446.27   49.41
  -3   2  -1   96.92   29.00
   3   2   1   92.22   41.55
   3   2   1  124.05   39.81
   3  -2   1   96.23   49.90
   3  -2   1   87.84   28.84
   3   2   2  662.06   52.41
   3  -2   2  654.04   34.26
   3  -2   2  645.29   61.11
  -3   2  -2  729.81   32.76
   3   2   2  627.35   45.24
   3  -2   3 2008.04   42.69
   3   2   3 2079.36   80.64
   3  -2   3 2000.67   85.90
  -3   2  -3 1900.19   37.54
   3   2   3 2018.61   63.02
   3   2   4  -11.58   34.10
   3   2   4    6.08   53.22
   3  -2   4   -5.51   57.35
   3  -2   4   19.97   11.30
   3   2   5  164.35   36.77
   3  -2   5  206.23   63.38
   3   2   5  198.69   60.51
  -3   2  -5  173.58   38.07
   3  -2   6  206.71   68.65
  -3   2  -6  195.45   43.25
   3   2   6  141.99   64.40
   3   2   7  303.39   69.46
   3  -2   7  289.82   73.63
   3   2   8  127.82   72.05
   3  -2   8   51.64   76.22
   3   3 -11  166.90   79.70
  -3  -3  10   14.26   51.27
   3   3 -10   -3.16   76.22
   3  -3 -10   49.61   58.04
  -3  -3   9  922.23   70.71
   3  -3  -9  859.09   67.88
   3  -3  -9  784.37   80.03
   3   3  -9  919.60   86.63
   3  -3  -8  158.60   49.69
   3   3  -8  240.98   71.40
   3   3  -8  196.26   45.60
  -3  -3   8  114.66   45.24
   3  -3  -8  213.96   64.52
   3  -3  -7 1304.91   71.00
   3   3  -7 1346.99   85.46
   3  -3  -7 1376.28   75.49
   3   3  -7 1360.56   71.97
   3   3  -6  160.26   56.25
   3  -3  -6  144.02   49.82
  -3   3   6  149.24   27.42
   3  -3  -6  127.82   45.97
   3  -3  -5 1798.00   78.41
  -3   3   5 1716.84   35.24
   3  -3  -5 1773.22   73.02
   3   3  -5 1663.42   79.22
   3  -3  -4  238.02   53.06
   3   3  -4  250.17   56.09
   3  -3  -4  240.53   40.66
   3  -3  -3 1514.62   70.47
   3  -3  -3 1638.60   50.18
  -3  -3   3 1570.47   40.05
   3   3  -3 1573.92   73.51
  -3  -3   2 1425.36   34.71
   3  -3  -2 1448.33   37.71
   3  -3  -2 1446.38   65.25
   3   3  -2 1461.08   70.83
  -3  -3   1  121.91   20.53
   3   3  -1  121.42   25.31
   3  -3  -1  101.25   40.05
  -3   3   1  124.25   21.71
   3   3  -1  124.66   50.50
   3  -3   0  432.99   52.61
   3  -3   0  426.75   43.62
  -3   3   0  470.17   35.24
  -3  -3   0  430.64   29.61
   3   3   0  437.64   36.13
   3   3   0  401.64   53.30
   3  -3   1  565.50   41.07
   3   3   1  566.39   42.48
   3  -3   1  575.95   58.93
  -3   3  -1  545.46   45.36
   3   3   1  542.38   52.89
   3  -3   2  668.37   40.86
   3  -3   2  757.88   66.78
   3   3   2  714.67   52.33
  -3   3  -2  739.65   42.08
  -3   3  -2  711.87   55.32
   3   3   2  692.88   55.44
   3  -3   3  528.24   33.66
   3   3   3  591.46   59.54
   3  -3   3  571.46   67.64
  -3   3  -3  485.68   33.82
  -3   3  -3  541.49   62.25
   3   3   3  557.40   51.80
   3  -3   4   85.13   59.62
   3   3   4   66.83   42.81
   3   3   4   62.09   54.39
   3  -3   4   76.10   20.21
  -3   3  -4   98.94   27.42
  -3   3  -4   78.17   57.67
   3   3   5   94.24   38.11
   3   3   5  108.38   55.81
   3  -3   5   31.55   58.20
  -3   3  -5   64.11   31.10
   3   3   6  297.23   67.80
   3  -3   6  354.90   71.24
   3   3   7   29.85   58.73
   3  -3   7    9.80   68.32
   3   3   8  129.92   70.47
   3  -3   8   82.74   68.93
   3  -4 -10   56.42   73.02
   3   4 -10  -23.77   80.64
   3  -4  -9    7.33   50.91
   3   4  -9   58.36   75.41
   3  -4  -9   -0.97   60.51
   3   4  -8  107.69   51.72
   3  -4  -8  107.28   48.80
   3   4  -8  156.29   73.91
   3  -4  -8   94.12   60.30
   3   4  -7   58.00   51.19
   3  -4  -7   96.39   47.43
  -3  -4   7   61.72   35.44
   3   4  -7   44.27   59.41
   3  -4  -7   72.78   43.17
  -3  -4   6  113.16   31.83
   3   4  -6  110.12   57.39
   3  -4  -6  163.22   52.97
   3  -4  -6  105.26   50.22
   3   4  -5   87.60   60.14
  -3  -4   5  108.42   25.72
   3  -4  -5  109.35   49.33
   3  -4  -5  121.99   44.79
  -3   4   5  121.46   19.24
  -3  -4   4  876.38   31.31
   3  -4  -4  871.85   66.42
   3  -4  -4  813.45   50.75
  -3   4   4  856.25   20.37
   3   4  -4  873.18   73.67
   3  -4  -3  882.86   67.15
  -3   4   3  755.98   19.56
   3   4  -3  911.33   71.32
   3  -4  -2   38.56   47.30
  -3  -4   2   27.74    7.05
   3   4  -2   56.34   54.55
  -3   4   2   45.56   17.98
   3  -4  -1  522.98   52.81
  -3   4   1  604.38   34.43
   3   4  -1  573.73   64.72
   3   4   0  481.79   33.82
   3  -4   0  505.81   51.56
  -3   4   0  445.06   38.68
   3   4   0  421.77   59.74
   3  -4   1 1550.91   62.73
   3   4   1 1561.04   54.55
   3  -4   1 1521.83   75.17
  -3   4  -1 1540.71   63.99
   3   4   1 1575.62   79.18
   3  -4   2   36.81   34.83
   3   4   2   45.81   51.64
   3  -4   2   48.84   54.92
   3   4   2   27.42   38.15
  -3   4  -2   54.84   48.76
   3   4   3  180.06   49.94
   3  -4   3  154.55   61.52
   3   4   3  223.40   53.42
  -3   4  -3  167.75   54.76
   3  -4   3  215.30   35.36
   3   4   4  537.68   55.16
   3  -4   4  587.54   35.76
   3   4   4  611.43   60.63
   3  -4   4  598.47   68.81
  -3   4  -4  610.70   67.11
   3   4   5  361.95   62.13
   3   4   5  323.31   48.84
   3  -4   5  301.44   65.65
  -3   4  -5  379.20   65.57
   3   4   6   63.79   42.97
   3   4   6   41.55   58.20
   3  -4   6   36.73   59.66
  -3   4  -6   19.12   65.16
   3   4   7   42.04   60.75
   3  -4   7   29.16   65.93
   3   4   8    0.85   72.05
   3  -4   8   23.69   76.75
   3   5  -9  269.93   90.56
   3  -5  -9  159.77   56.21
   3  -5  -8   47.10   51.64
   3   5  -8   57.71   76.55
   3  -5  -7  509.53   70.92
   3   5  -7  567.29   86.95
   3   5  -7  567.61   68.40
   3  -5  -6  185.69   60.47
   3   5  -6  240.61   60.67
   3  -5  -5  623.58   67.55
   3   5  -5  698.99   70.96
   3  -5  -4    7.98   58.68
   3   5  -4   10.77   59.54
   3  -5  -3  313.11   64.92
   3   5  -3  288.89   66.78
   3  -5  -2  489.28   60.79
   3   5  -2  404.80   70.83
  -3   5   2  539.10   34.99
   3  -5  -1  492.08   59.37
   3   5  -1  481.30   67.39
  -3   5   1  578.95   41.11
   3  -5   0  519.05   58.60
   3   5   0  553.19   30.38
  -3   5   0  545.98   46.33
   3   5   0  489.00   67.19
   3   5   1   49.29   60.79
   3   5   1   81.61   32.64
   3  -5   1   42.53   52.04
  -3   5  -1   73.91   45.85
   3  -5   1   41.59   42.89
   3   5   2   56.05   37.83
   3  -5   2   33.05   51.56
  -3   5  -2   97.12   51.31
   3  -5   2   46.45   38.76
   3   5   2   66.26   56.46
   3   5   3  226.56   45.72
   3   5   3  228.02   57.63
   3  -5   3  270.14   57.75
   3  -5   3  226.76   37.95
  -3   5  -3  275.56   56.42
   3   5   4  359.44   52.33
   3   5   4  368.11   58.97
   3  -5   4  383.86   65.12
  -3   5  -4  426.55   67.92
   3   5   5   45.64   50.06
   3   5   5   69.26   50.46
   3  -5   5   46.29   60.14
  -3   5  -5   89.63   64.76
   3   5   6  247.05   61.32
   3   5   6  247.33   55.61
   3  -5   6  234.41   67.76
  -3   5  -6  345.91   78.41
   3   5   7    2.96   63.02
  -3   5  -7  144.67   73.35
   3  -5   7   68.08   68.93
   3  -6  -9   68.12   63.83
   3   6  -8   81.81   83.03
   3  -6  -8   33.94   60.43
   3   6  -7  156.78   63.42
   3   6  -7  217.97   76.95
   3  -6  -7  172.00   59.21
   3  -6  -6  537.76   73.75
   3   6  -6  546.14   72.98
   3  -6  -5   20.82   60.63
   3   6  -5   66.46   58.52
   3  -6  -4  551.61   68.40
   3   6  -4  510.71   73.06
   3  -6  -3  377.79   66.70
   3   6  -3  298.32   64.35
   3  -6  -2  126.89   55.57
   3   6  -2  104.00   58.36
  -3   6   2  155.89   33.57
   3  -6  -1  875.01   67.64
  -3   6   1  981.24   51.03
   3   6  -1  900.84   79.62
   3   6   0  258.63   62.82
  -3   6   0  283.58   45.64
   3  -6   0  298.77   57.02
   3   6   1  253.04   61.52
  -3   6  -1  266.73   48.28
   3  -6   1  238.91   49.21
   3   6   2  197.68   60.95
   3  -6   2  285.32   51.56
   3  -6   2  182.53   47.18
  -3   6  -2  219.02   54.80
   3   6   3  504.96   68.12
  -3   6  -3  538.41   51.56
   3  -6   3  491.27   50.34
   3  -6   3  550.15   63.79
  -3   6  -3  544.44   66.58
   3   6   4   51.44   42.12
   3   6   4   82.13   57.87
   3  -6   4   39.85   55.89
  -3   6  -4   53.50   58.68
   3   6   5   40.74   48.76
   3   6   5    1.42   54.63
  -3   6  -5   35.44   63.22
   3   6   6   37.54   53.42
   3   6   6   32.40   53.14
  -3   6  -6   70.27   77.92
   3   6   7   91.94   63.50
   3   7  -7  163.62   68.53
   3   7  -7  113.08   73.22
   3  -7  -7  167.27   73.99
   3   7  -6   27.26   63.02
   3  -7  -6   -2.88   56.46
   3   7  -5  238.91   67.76
   3  -7  -5  219.75   68.36
   3   7  -4  155.84   69.01
   3  -7  -4   87.12   56.46
   3  -7  -3  592.11   78.00
   3   7  -3  472.23   71.36
   3   7  -2  324.77   73.75
   3  -7  -2  370.54   70.71
   3   7  -1  177.19   69.50
   3  -7  -1  210.48   53.87
   3   7   0  115.34   65.16
  -3   7   0  112.63   46.90
   3  -7   0  125.19   59.13
   3   7   1   53.87   67.96
   3  -7   1   40.18   49.69
  -3   7  -1   66.34   46.78
   3   7   2  139.32   65.41
  -3   7  -2  114.33   50.42
   3  -7   2  170.26   50.42
  -3   7  -2  185.45   56.94
   3   7   3   33.90   61.97
  -3   7  -3   41.92   55.28
   3   7   4  100.60   66.18
  -3   7  -4   96.43   65.25
   3   7   5   51.88   64.56
  -3   7  -5   99.18   67.68
   3   7   6   29.12   58.60
   3   8  -6   53.87   73.83
   3   8  -5   86.71   74.80
   3   8  -4  169.33   69.21
   3  -8  -4  205.98   74.20
   3   8  -3  149.93   69.38
   3  -8  -3  114.90   58.00
   3   8  -2   19.36   60.75
   3  -8  -2   36.49   51.76
   3   8  -1   15.47   69.42
   3  -8  -1   20.90   62.65
   3   8   0   90.19   62.78
   3  -8   0  119.96   55.04
   3   8   1  200.80   76.38
  -3   8  -1  213.52   57.11
   3  -8   1  169.61   58.20
   3   8   2   55.57   72.82
  -3   8  -2   58.36   53.46
   3   8   3   -8.10   65.53
  -3   8  -4  137.62   65.81
  -3   9   0  376.12   76.06
   3  -9   0  411.56   72.17
  -3   9  -1  113.60   61.44
   4   0 -11  185.77   76.59
   4   0 -10  -35.36   58.68
   4   0 -10    6.12   54.47
   4   0  -9   43.78   44.63
   4   0  -9   -6.93   47.67
   4   0  -8   37.95   43.58
   4   0  -8   -3.65   43.46
   4   0  -7   59.41   47.47
   4   0  -7  111.01   45.16
   4   0  -6 2123.83   79.95
   4   0  -6 2124.60   67.39
   4   0  -5   27.90   42.85
   4   0  -4 1719.03   72.41
   4   0  -3 2516.15   79.22
   4   0  -2 3633.27   88.61
   4   0  -2 3890.53   90.48
   4   0  -1   -8.75   41.35
   4   0  -1   17.54   47.22
   4   0   0   63.91   37.18
   4   0   0   65.85   52.20
   4   0   1   -6.68   35.96
  -4   0  -1    6.32   27.34
   4   0   1  -11.26   52.25
   4   0   2 3327.78  102.67
   4   0   2 3240.78   68.00
  -4   0  -2 3379.09   64.11
  -4   0  -3 2288.70   50.63
   4   0   3 2279.27   60.14
   4   0   3 2382.34   97.65
   4   0   4   42.20   66.83
   4   0   4   19.40   27.82
   4   0   5  129.68   67.68
   4   0   6  128.71   74.16
   4   0   7  590.65   81.61
   4   0   8  256.33   85.74
   4   1 -11    0.69   66.26
   4   1 -11  -47.34   62.53
   4  -1 -11   -8.63   69.38
   4   1 -10  374.55   68.73
   4  -1 -10  445.38   74.44
   4   1  -9  240.65   49.65
   4   1  -9  245.19   61.16
   4  -1  -9  192.98   49.33
   4  -1  -9  151.67   55.65
   4   1  -8  447.20   53.30
   4   1  -8  506.09   62.33
   4  -1  -8  543.88   49.82
   4  -1  -8  390.18   54.59
   4  -1  -7  268.52   55.00
   4   1  -7  272.08   53.58
   4   1  -7  242.72   55.77
   4  -1  -7  278.36   42.40
   4  -1  -6   68.93   47.39
   4   1  -6  130.77   49.37
   4   1  -6   87.36   49.25
   4  -1  -6   71.00   32.28
   4  -1  -5 1027.49   65.53
   4  -1  -5 1133.96   38.88
   4   1  -5 1021.09   69.42
   4  -1  -4 1072.36   62.53
   4   1  -4  981.08   67.07
   4  -1  -3   78.61   41.03
   4   1  -3   83.51   50.79
   4  -1  -2  646.42   50.75
   4   1  -2  692.03   59.82
   4   1  -1  373.86   48.48
   4  -1  -1  373.09   45.77
   4  -1  -1  353.81   56.09
   4   1  -1  369.12   51.80
   4   1   0  273.70   47.51
   4   1   0  297.92   49.86
   4  -1   0  300.27   59.94
   4  -1   0  294.19   41.11
   4  -1   1  723.37   68.28
   4  -1   1  673.72   44.35
   4  -1   1  698.47   31.63
   4   1   1  634.88   59.90
   4   1   1  593.00   49.37
  -4   1  -1  588.31   38.84
   4   1   2  651.44   66.38
   4  -1   2  573.40   39.57
   4  -1   2  633.14   35.92
   4  -1   2  605.27   69.01
   4   1   2  548.90   47.91
  -4   1  -2  619.45   36.17
   4   1   3  676.92   70.67
   4  -1   3  570.24   35.52
   4  -1   3  635.04   74.40
   4   1   3  671.82   48.40
  -4   1  -3  564.94   28.55
   4   1   4   50.26   35.11
   4   1   4   51.76   62.17
   4  -1   4   62.21   71.40
   4  -1   4   52.57   19.80
   4   1   5   86.55   62.09
   4  -1   5   58.36   62.01
   4   1   6  645.41   79.74
   4  -1   6  568.70   85.17
   4  -1   7   -1.94   66.70
   4   1   7   12.68   68.45
   4  -1   8  155.56   77.48
  -4  -2  11    2.96   59.21
   4   2 -11   30.90   63.99
   4  -2 -11   45.81   65.29
   4   2 -10   24.62   65.45
   4  -2 -10   13.73   57.55
   4  -2  -9  520.18   58.48
   4   2  -9  430.84   54.55
   4   2  -9  456.52   69.09
   4  -2  -9  387.99   62.13
   4  -2  -8 1149.80   73.47
   4   2  -8 1166.57   66.66
   4   2  -8 1059.69   79.18
   4  -2  -8 1136.92   71.69
   4   2  -7   94.45   61.03
   4   2  -7   97.48   49.09
   4  -2  -7   95.42   51.19
   4  -2  -7  109.92   45.44
   4  -2  -6  233.04   47.39
   4   2  -6  258.27   60.26
   4  -2  -6  246.65   54.68
   4  -2  -5  765.33   63.02
   4   2  -5  836.33   71.12
   4  -2  -4 1198.16   68.24
   4   2  -4 1130.97   75.86
   4   2  -3  127.86   56.46
   4  -2  -3  162.61   50.38
  -4  -2   3  180.47   33.74
   4   2  -2   -8.02   51.92
  -4  -2   2    9.76   29.00
   4  -2  -2   -1.58   45.52
   4  -2  -2   24.50   13.20
   4   2  -1  102.63   51.23
   4  -2  -1   78.73   42.44
   4   2  -1   89.26   37.54
   4  -2  -1  106.47   51.88
   4  -2  -1   90.88   22.96
   4   2   0  857.51   54.15
   4  -2   0  816.40   68.32
   4  -2   0  787.08   49.01
   4  -2   0  766.71   18.71
   4  -2   0  838.88   42.16
   4   2   0  828.55   59.98
   4  -2   1  191.81   37.46
   4   2   1  233.16   51.15
   4   2   1  245.39   51.56
   4  -2   1  214.77   63.10
   4  -2   1  198.45   15.71
  -4   2  -2   98.17   30.70
   4   2   2  110.36   47.71
   4   2   2  100.68   54.59
   4  -2   2   99.02   64.76
   4  -2   2   91.73   30.94
   4  -2   3  428.98   32.60
   4   2   3  489.20   65.85
   4  -2   3  512.41   73.35
   4   2   3  439.10   50.87
   4   2   4  225.06   43.38
   4   2   4  190.11   62.49
   4  -2   4  204.77   67.03
   4   2   5 1066.29   83.11
   4  -2   5  912.99   87.44
   4   2   6   23.09   67.96
   4  -2   6  -13.49   72.01
   4   2   7  258.43   78.65
   4  -2   7  215.42   80.15
   4   3 -11   91.89   82.66
   4  -3 -10  213.19   55.97
  -4  -3  10  218.34   58.24
   4   3 -10  274.43   74.68
   4  -3 -10  175.28   73.26
   4  -3  -9   62.65   48.48
   4   3  -9   38.52   68.45
   4  -3  -9   41.88   56.78
   4  -3  -8    7.90   48.60
   4   3  -8   36.90   59.54
   4   3  -8   75.45   51.07
   4  -3  -8   26.93   51.88
   4   3  -7  205.34   58.00
   4  -3  -7  240.08   50.91
   4  -3  -7  163.34   55.20
   4   3  -6  182.05   64.48
   4  -3  -6  170.59   54.39
   4  -3  -6  159.04   44.02
   4  -3  -5 1052.72   68.53
   4  -3  -5 1113.84   58.32
   4   3  -5 1248.42   82.70
   4   3  -4   76.79   61.48
  -4  -3   4   44.02   30.70
   4  -3  -4   11.14   52.85
   4  -3  -4   43.21   32.36
  -4  -3   3  533.06   35.80
   4  -3  -3  622.08   61.84
   4  -3  -3  547.40   34.79
   4   3  -3  505.85   67.19
  -4  -3   2  473.24   34.06
   4   3  -2  407.23   66.30
   4  -3  -2  481.30   54.15
   4  -3  -2  491.06   24.54
  -4  -3   1 1791.48   52.65
   4   3  -1 1845.63   59.66
   4  -3  -1 1750.25   69.30
   4   3  -1 1716.52   80.15
   4   3   0  398.04   45.85
   4  -3   0  360.86   46.33
   4   3   0  340.16   59.37
   4  -3   0  382.44   62.13
   4  -3   0  396.70   38.92
   4  -3   1  517.39   46.70
   4  -3   1  470.09   66.87
   4   3   1  481.59   52.41
   4   3   1  502.81   59.82
   4  -3   2  268.03   38.15
   4   3   2  240.13   55.57
   4   3   2  250.33   53.99
   4  -3   2  217.77   68.85
   4  -3   3  626.01   38.31
   4  -3   3  602.48   80.96
   4   3   3  670.32   67.64
   4   3   3  595.35   60.47
   4   3   4  225.46   46.90
   4   3   4  209.51   57.15
   4  -3   4  212.54   67.31
   4   3   5   67.51   39.69
   4   3   5   34.43   59.05
   4  -3   5   83.67   68.57
   4   3   6  208.82   70.07
   4  -3   6  151.75   71.52
   4   3   7   53.50   71.44
   4  -3   7   20.78   68.85
   4  -4 -10  162.12   60.67
   4   4 -10  173.02   80.19
   4  -4 -10  184.52   66.42
   4  -4  -9   29.57   56.25
   4   4  -9   82.70   73.59
   4  -4  -9   84.24   59.74
   4   4  -8  159.57   61.03
   4  -4  -8  127.90   57.19
   4   4  -8  110.57   72.05
   4  -4  -8  132.88   58.28
   4   4  -7  303.18   64.35
   4  -4  -7  276.21   59.78
   4  -4  -7  306.46   52.49
   4  -4  -6  574.13   67.55
   4  -4  -6  537.68   55.93
   4   4  -6  579.27   72.50
   4   4  -5   20.57   65.00
   4  -4  -5    3.65   55.65
   4  -4  -5   14.99   39.85
   4   4  -4  101.21   68.93
   4  -4  -4  124.17   58.12
   4  -4  -4  153.05   35.92
   4   4  -3  131.91   65.12
  -4  -4   3  115.75   21.71
   4  -4  -3  110.28   57.51
  -4  -4   2  456.23   26.69
   4   4  -2  479.68   72.90
   4  -4  -2  432.99   57.51
  -4  -4   1  283.50   27.66
   4  -4  -1  325.90   50.14
   4   4  -1  315.42   36.49
   4   4  -1  362.64   69.50
   4   4   0   88.01   60.63
   4  -4   0   71.85   46.53
   4   4   0   99.31   39.89
   4  -4   0   92.46   57.83
   4  -4   1  272.65   45.24
   4   4   1  280.87   63.22
   4   4   1  282.45   48.52
   4  -4   1  306.22   68.08
  -4   4  -1  252.11   47.14
   4  -4   2  593.21   47.55
   4   4   2  593.53   57.15
   4  -4   2  690.24   76.10
   4   4   2  646.58   69.54
   4  -4   3  847.43   45.56
   4   4   3  927.66   67.19
   4  -4   3  829.89   79.34
   4   4   3  746.62   65.89
   4   4   4  292.86   51.11
   4   4   4  291.03   60.22
   4  -4   4  330.24   71.73
   4   4   5  315.82   54.63
   4   4   5  277.71   64.60
   4  -4   5  325.30   74.24
   4  -4   6  124.34   75.65
   4   4   6  171.28   71.00
   4   4   7  572.23   87.97
   4  -4   7  499.85   89.14
   4  -5 -10  175.49   66.14
   4  -5 -10  106.88   70.47
   4  -5  -9   51.27   64.27
   4   5  -9   32.44   74.97
   4  -5  -9   20.66   65.21
   4   5  -8   49.53   62.82
   4  -5  -8   71.73   57.27
   4   5  -8   69.17   77.07
   4  -5  -8   51.35   57.39
   4   5  -7  358.06   69.90
   4  -5  -7  360.61   69.66
   4  -5  -7  361.91   56.13
   4   5  -6  215.74   67.68
   4  -5  -6  212.02   61.44
   4  -5  -5  648.81   73.59
   4   5  -5  571.25   74.64
   4  -5  -4  161.39   52.16
   4   5  -4  182.29   64.19
   4  -5  -3  401.36   58.81
   4   5  -3  398.64   71.32
   4  -5  -2  319.71   62.05
   4   5  -2  315.70   68.69
  -4   5   2  369.00   24.91
   4  -5  -1  154.02   53.18
   4   5  -1  131.71   63.46
  -4   5   1  148.15   31.47
   4  -5   0  255.35   51.72
   4   5   0  299.09   68.40
   4   5   0  315.01   37.02
  -4   5   0  285.24   39.49
   4  -5   1  247.86   48.28
   4   5   1  221.58   61.52
   4   5   1  302.37   42.16
   4  -5   1  285.77   61.80
  -4   5  -1  292.61   45.56
   4   5   2   70.59   53.22
   4   5   2   95.70   41.11
   4  -5   2  140.94   61.03
  -4   5  -2  119.92   47.43
   4  -5   2   88.05   38.96
   4   5   3  286.05   61.40
   4   5   3  308.94   55.08
   4  -5   3  333.48   68.93
   4  -5   3  274.31   39.93
  -4   5  -3  301.08   58.85
   4   5   4   56.98   51.52
   4   5   4  105.75   53.66
   4  -5   4   75.90   63.10
  -4   5  -4   99.91   60.79
   4   5   5  126.72   52.81
   4   5   5   95.54   57.83
   4  -5   5  127.01   66.78
   4   5   6   -8.06   62.33
   4  -5   6   20.45   73.83
   4   5   7   91.94   71.85
   4  -5   7   23.57   75.90
   4  -6  -9   73.31   57.47
   4  -6  -8  241.75   75.33
   4   6  -8  242.23   72.41
   4   6  -8  174.92   74.97
   4  -6  -7  149.16   66.38
   4   6  -7  174.47   70.39
   4  -6  -6   91.49   61.11
   4   6  -6  116.80   66.66
   4  -6  -5  284.35   68.93
   4   6  -5  229.76   68.69
   4  -6  -4  664.36   68.49
   4   6  -4  827.82   86.27
   4  -6  -3  107.08   60.63
   4   6  -3   87.93   69.21
   4  -6  -2  264.75   61.64
   4   6  -2  196.02   62.61
   4  -6  -1  154.55   49.94
   4   6  -1  178.97   68.65
   4  -6   0  949.04   72.01
  -4   6   0 1020.64   56.21
   4   6   0  894.89   80.51
   4   6   1  121.95   67.03
  -4   6  -1   93.47   44.19
   4  -6   1   87.76   44.63
   4   6   2  100.36   65.21
   4  -6   2  134.18   59.86
  -4   6  -2  138.02   51.96
   4  -6   2  118.02   44.87
   4   6   3   48.48   59.09
   4  -6   3   70.75   61.20
  -4   6  -3   59.58   56.94
   4   6   4  133.65   63.99
   4  -6   4  212.34   66.06
  -4   6  -4  175.41   62.17
   4   6   5  358.14   69.54
  -4   6  -5  668.29   84.36
   4   7  -7   61.80   70.19
   4  -7  -7   33.94   75.01
   4   7  -6   88.70   71.97
   4  -7  -6  190.03   70.63
   4   7  -5   68.65   66.46
   4  -7  -5   33.21   67.07
   4   7  -4   95.58   66.50
   4  -7  -4   72.17   67.35
   4   7  -3   -6.76   65.41
   4  -7  -3   16.32   53.06
   4   7  -2   73.71   65.04
   4  -7  -2   12.31   50.71
   4   7  -1   41.27   70.92
   4  -7  -1   88.29   60.06
   4   7   0   70.59   68.16
   4  -7   0   58.44   49.57
   4   7   1   68.28   64.92
   4  -7   1   65.29   53.14
   4   7   2   67.80   65.73
   4  -7   2   78.29   50.58
   4   7   3  110.36   65.29
  -4   7  -3  162.41   62.09
   4   7   4  188.33   72.90
  -4   7  -4  252.72   66.50
   4   7   5   -3.52   63.79
  -4   7  -5  -25.60   65.57
   4   8  -6  325.58   88.74
   4   8  -5  124.29   72.74
   4   8  -4  112.79   77.76
   4  -8  -4  129.48   73.79
   4   8  -3  172.61   74.52
   4  -8  -3  186.30   69.01
   4   8  -2  214.16   70.83
   4  -8  -2  201.25   59.01
   4   8  -1    9.40   72.74
   4  -8  -1   -1.54   62.21
   4   8   0  165.52   72.41
   4  -8   0   50.42   55.97
   4   8   1   13.61   78.04
   4  -8   1  -21.87   58.00
   5   0 -11  -19.56   75.82
   5   0 -10   34.38   49.82
   5   0  -9  689.15   64.84
   5   0  -9  710.98   62.37
   5   0  -8   -1.09   46.78
   5   0  -8  -10.45   42.89
   5   0  -7   92.62   41.51
   5   0  -7   53.70   50.91
   5   0  -6 1139.47   77.96
   5   0  -6 1125.09   55.12
   5   0  -5 1585.62   82.78
   5   0  -4  298.12   59.13
   5   0  -3   23.13   55.04
   5   0  -2  102.95   51.76
   5   0  -1 2043.72   87.20
   5   0  -1 1903.30   76.34
   5   0  -1 1954.13   76.71
   5   0   0 2927.23  102.67
   5   0   0 2907.14   85.25
   5   0   0 2966.07   86.14
   5   0   1   45.68   44.10
   5   0   1   -8.79   62.69
   5   0   1   55.32   41.15
   5   0   2  -10.17   40.62
   5   0   2   28.55   65.81
   5   0   3  182.86   40.26
   5   0   3  213.64   75.82
   5   0   4  384.27   78.25
   5   0   5   22.28   72.25
   5   0   6   10.45   68.57
   5   0   7   48.32   85.86
   5  -1 -11   25.43   73.18
   5   1 -10  101.49   56.86
   5  -1 -10  103.40   52.81
   5  -1 -10   76.30   52.29
   5   1  -9   60.22   56.05
   5   1  -9  132.60   52.20
   5  -1  -9   97.48   53.54
   5  -1  -8  448.46   61.36
   5   1  -8  554.89   62.01
   5   1  -8  548.41   59.49
   5  -1  -7   21.38   55.16
   5   1  -7    4.98   47.67
   5  -1  -7    8.63   31.55
   5   1  -7   -0.45   54.47
   5  -1  -6   85.50   59.21
   5  -1  -6  105.91   30.29
   5   1  -6   69.38   59.74
   5  -1  -5  379.97   29.89
   5   1  -5  285.81   63.30
   5  -1  -5  325.70   65.00
   5   1  -5  342.02   65.16
   5  -1  -4  363.97   63.34
   5   1  -4  326.11   65.04
   5  -1  -3  684.29   66.99
   5   1  -3  718.92   69.86
   5  -1  -2 1011.98   62.94
   5   1  -2 1074.23   72.09
   5   1  -1 1042.68   70.79
   5  -1  -1 1057.42   78.98
   5  -1  -1  982.70   64.96
   5   1  -1 1003.76   69.30
   5   1   0   41.23   52.65
   5  -1   0   53.46   43.50
   5   1   0   38.80   57.19
   5  -1   0   38.68   66.34
   5   1   1  629.09   72.94
   5  -1   1  553.43   76.59
   5  -1   1  605.60   52.37
   5  -1   1  601.99   35.96
   5   1   1  692.84   59.54
   5   1   2  335.30   53.58
   5  -1   2  327.93   43.01
   5   1   2  330.24   73.51
   5  -1   2  346.68   77.64
   5   1   3  737.47   79.18
   5  -1   3  784.04   84.60
   5  -1   3  723.74   44.10
   5   1   3  871.12   56.54
   5   1   4  113.56   63.71
   5  -1   4  189.70   75.69
   5   1   5  121.54   66.70
   5  -1   5  128.18   77.68
   5   1   6   61.72   64.48
   5  -1   6   50.42   71.97
   5   1   7   22.96   84.20
   5  -1   7   66.10   73.71
   5   2 -11  298.28   73.59
   5  -2 -11  206.35   82.17
   5  -2 -10   -7.90   56.25
   5   2 -10   -0.08   60.10
   5  -2 -10   64.35   63.10
   5   2  -9  100.20   53.14
   5  -2  -9  111.98   52.04
   5   2  -9  105.62   61.07
   5  -2  -9  133.81   52.16
   5   2  -8   34.38   53.91
   5   2  -8    6.28   55.81
   5  -2  -8   33.09   47.06
   5  -2  -8   22.32   48.24
   5  -2  -7  756.18   71.32
   5   2  -7  813.28   69.86
   5   2  -7  772.50   73.35
   5   2  -6  185.25   67.15
   5  -2  -6  128.91   60.67
   5  -2  -5  851.80   70.59
   5   2  -5  986.62   82.09
   5   2  -4  290.18   70.35
   5  -2  -4  321.49   60.18
   5  -2  -3 1208.16   75.21
   5  -2  -3 1165.84   24.10
   5   2  -3 1223.71   82.98
   5  -2  -2 1442.82   73.67
   5  -2  -2 1482.55   40.01
   5   2  -2 1437.03   83.92
   5  -2  -1  399.61   52.12
   5   2  -1  413.87   55.77
   5  -2  -1  460.61   69.74
   5  -2  -1  423.83   37.18
   5   2  -1  477.42   67.96
   5   2   0 1469.99   78.73
   5  -2   0 1290.09   90.27
   5  -2   0 1293.66   64.56
   5  -2   0 1369.07   32.24
   5   2   0 1285.84   77.40
   5  -2   1   80.76   40.70
   5   2   1   90.56   58.52
   5   2   1  103.80   60.67
   5  -2   1  128.10   71.81
   5  -2   1  102.26   19.32
   5   2   2  546.06   72.37
   5  -2   2  518.36   47.06
   5  -2   2  518.20   83.92
   5   2   2  533.02   62.90
   5   2   3   17.78   44.67
   5   2   3   22.64   62.90
   5  -2   3   51.44   68.04
   5  -2   3   29.57   28.59
   5   2   4   14.58   41.59
   5   2   4    0.08   66.58
   5  -2   4   -7.45   73.02
   5   2   5    0.53   71.64
   5  -2   5   65.41   68.69
   5   2   6   37.10   75.53
   5  -2   6   31.27   78.49
   5   3 -11   23.33   77.88
   5  -3 -10   -1.62   54.19
   5   3 -10   38.31   71.04
   5  -3 -10   56.05   55.16
   5  -3  -9   77.03   57.63
   5   3  -9  104.09   58.00
   5   3  -9   96.03   62.45
   5  -3  -9   71.48   61.36
   5   3  -8   88.65   60.47
   5  -3  -8  120.16   53.14
   5   3  -8   85.25   62.78
   5  -3  -8   91.00   56.34
   5   3  -7  130.86   62.90
   5  -3  -7   89.59   49.90
   5  -3  -7   97.97   50.67
   5   3  -6   45.85   63.75
   5  -3  -6   14.94   57.79
   5  -3  -6   20.90   43.70
   5  -3  -5  614.83   73.39
   5  -3  -5  569.59   48.56
   5   3  -5  643.87   82.90
   5   3  -4  337.37   72.90
   5  -3  -4  363.37   40.05
   5  -3  -4  344.62   58.48
   5   3  -3  414.24   74.80
   5  -3  -3  541.49   67.27
   5  -3  -3  508.68   33.09
   5   3  -2   17.62   63.95
   5  -3  -2   18.91   53.82
   5  -3  -2    2.55   15.84
   5   3  -1  502.00   55.04
   5  -3  -1  447.97   35.84
   5  -3  -1  377.87   55.93
   5   3  -1  495.28   70.63
   5   3   0  199.50   63.75
   5   3   0  289.13   56.58
   5  -3   0  277.43   70.39
   5  -3   0  242.72   48.60
   5   3   1 1163.57   75.05
   5  -3   1 1186.17   90.23
   5  -3   1 1130.64   61.36
   5   3   1 1063.49   79.30
   5   3   2  370.17   60.79
   5  -3   2  360.57   41.39
   5   3   2  351.70   63.75
   5  -3   2  349.52   73.59
   5  -3   3  760.96   87.28
   5  -3   3  774.48   43.74
   5   3   3  846.37   75.65
   5   3   3  826.69   66.22
   5   3   4   17.54   49.94
   5   3   4   53.82   60.30
   5  -3   4   31.79   69.38
   5   3   5  197.40   70.15
   5  -3   5  188.93   75.21
   5   3   6   23.00   70.67
   5  -3   6    9.23   81.73
   5  -4 -10  136.32   66.10
   5   4 -10  102.63   85.37
   5  -4 -10   97.44   67.15
   5   4  -9  349.48   68.81
   5  -4  -9  319.30   62.73
   5   4  -9  351.22   81.32
   5  -4  -9  320.56   67.68
   5   4  -8   25.27   63.18
   5  -4  -8   32.97   51.48
   5  -4  -8   33.37   55.89
   5   4  -7   79.06   66.06
   5  -4  -7   81.08   60.02
   5  -4  -7   55.08   48.07
   5   4  -6   -7.82   62.49
   5  -4  -6    7.65   56.66
   5  -4  -6   22.48   38.88
   5  -4  -5 1109.50   78.41
   5  -4  -5 1262.55   59.05
   5   4  -5 1299.61   94.65
   5  -4  -4 1438.57   86.59
   5  -4  -4 1515.56   54.59
   5   4  -4 1288.96   92.26
   5  -4  -3  584.82   63.22
   5  -4  -3  510.26   30.98
   5   4  -3  618.72   84.93
   5   4  -2  464.54   79.10
   5  -4  -2  458.91   65.53
   5  -4  -1 1048.39   68.97
   5   4  -1 1146.03   59.90
   5   4  -1 1061.35   88.29
   5  -4   0  973.75   83.51
   5   4   0 1094.19   64.84
   5   4   0 1012.83   83.55
   5  -4   0  929.84   64.07
   5   4   1  299.66   64.96
   5  -4   1  287.27   45.56
   5   4   1  271.07   52.33
   5  -4   1  241.99   68.77
   5  -4   2   87.48   38.80
   5   4   2   41.31   54.47
   5   4   2   91.13   52.41
   5  -4   2   84.93   67.68
   5   4   3   31.91   55.77
   5   4   3   35.36   56.21
   5  -4   3   36.53   67.39
   5   4   4  112.75   55.61
   5   4   4  127.49   62.25
   5  -4   4  114.37   70.59
   5   4   5   10.53   63.30
   5  -4   5  -17.13   70.67
   5   4   6   86.87   71.28
   5  -4   6   69.50   78.00
   5  -5 -10  138.71   67.96
   5   5  -9   21.87   66.10
   5  -5  -9   58.32   64.03
   5   5  -9  -27.58   83.03
   5  -5  -9   23.13   50.67
   5   5  -8  190.11   71.97
   5  -5  -8  192.82   65.29
   5  -5  -8  135.15   54.43
   5   5  -7  185.25   71.32
   5  -5  -7  175.73   64.31
   5  -5  -7  160.79   52.65
   5   5  -6  450.93   81.00
   5  -5  -6  405.16   64.80
   5  -5  -6  427.11   52.25
   5   5  -5  216.80   70.43
   5  -5  -5  159.17   55.32
   5   5  -4   43.78   64.27
   5  -5  -4   41.07   58.97
   5   5  -3  100.12   71.32
   5  -5  -3   47.83   55.57
   5   5  -2   67.88   68.36
   5  -5  -2   73.59   56.42
   5  -5  -1  950.26   68.12
   5   5  -1  964.55   84.36
   5  -5   0  282.69   55.36
   5   5   0  270.14   66.26
   5   5   0  297.31   44.71
   5  -5   1  411.89   53.06
   5   5   1  334.90   69.38
   5   5   1  363.77   52.29
   5  -5   1  395.44   68.49
   5  -5   2   32.93   40.34
   5   5   2   59.62   58.24
   5   5   2   44.43   48.32
   5  -5   2   65.97   68.40
   5   5   3  315.50   64.96
   5   5   3  311.89   59.41
   5  -5   3  268.19   76.42
   5   5   4  102.59   60.75
   5   5   4  179.54   63.34
   5  -5   4  127.05   74.32
   5   5   5   50.83   64.60
   5  -5   5   57.71   76.75
   5   5   6  -10.33   72.94
   5  -5   6  -60.95   86.91
   5  -6  -8  145.68   63.59
   5   6  -8   68.49   73.99
   5   6  -7  220.04   75.94
   5  -6  -7  220.85   68.69
   5  -6  -6   24.66   52.65
   5   6  -6   37.58   69.46
   5  -6  -5  105.83   61.28
   5   6  -5  161.76   72.94
   5  -6  -4    1.42   53.18
   5   6  -4   33.25   65.61
   5  -6  -3  688.26   76.63
   5   6  -3  682.23   87.03
   5  -6  -2  261.19   65.29
   5   6  -2  232.51   69.94
   5  -6  -1  104.69   49.53
   5   6  -1   68.97   70.83
   5  -6   0   59.78   52.41
   5   6   0   57.67   63.99
   5  -6   1   98.98   49.61
   5   6   1    7.70   65.89
   5   6   2  421.53   73.95
   5  -6   2  451.37   73.95
   5  -6   2  380.38   53.18
   5   6   3   -0.20   62.57
   5  -6   3   46.41   67.07
   5   6   4   80.39   64.23
   5  -6   4   20.25   72.05
   5   7  -8   47.95   74.60
   5   7  -7   40.58   79.95
   5   7  -6   61.68   76.46
   5  -7  -5  -16.40   70.96
   5   7  -5  -17.09   71.60
   5  -7  -4  258.96   72.54
   5   7  -4  292.01   83.43
   5  -7  -3  199.95   63.95
   5   7  -3   91.57   74.20
   5  -7  -2   14.94   60.43
   5   7  -2   15.07   75.05
   5  -7  -1  160.18   59.25
   5   7  -1  207.60   81.00
   5   7   0   96.19   67.55
   5  -7   0   75.90   57.06
   5   7   1  427.84   81.89
   5  -7   1  383.13   62.57
   5   7   2   12.60   71.69
   5   7   3  101.01   75.45
   5  -8  -2  181.52   74.16
   5  -8  -1  -40.46   68.20
   5  -8   0  288.85   69.38
   6   0 -10   46.58   54.84
   6   0  -9  -18.51   51.92
   6   0  -8  439.39   69.38
   6   0  -7 1439.94   88.98
   6   0  -7 1524.59   63.63
   6   0  -6  165.12   58.85
   6   0  -5  219.39   67.88
   6   0  -4  -10.69   54.23
   6   0  -3  467.33   62.65
   6   0  -2  131.67   64.84
   6   0  -1    1.70   56.46
   6   0  -1  -17.74   66.18
   6   0   0  189.99   55.49
   6   0   0  213.44   77.07
   6   0   1  123.44   69.26
   6   0   1  172.04   51.72
   6   0   2   88.25   45.00
   6   0   2   80.43   68.32
   6   0   3   60.10   72.29
   6   0   3  121.30   40.01
   6   0   4   72.70   76.46
   6   0   5  134.34   79.42
   6   1 -10    0.73   53.87
   6  -1 -10  -18.47   55.69
   6  -1  -9  137.66   59.94
   6   1  -9  111.74   53.99
   6   1  -9  148.68   64.92
   6  -1  -8  522.21   71.93
   6   1  -8  516.38   70.96
   6   1  -8  495.60   60.02
   6  -1  -7  158.11   52.37
   6   1  -7  174.35   60.91
   6  -1  -6  963.74   75.86
   6   1  -6  934.74   78.04
   6   1  -5  490.01   76.10
   6  -1  -5  461.38   68.73
   6  -1  -4 1040.41   74.24
   6   1  -4 1129.79   88.49
   6   1  -3  324.45   68.81
   6  -1  -3  363.16   68.45
   6   1  -2  410.47   69.70
   6  -1  -2  364.42   67.72
   6   1  -1   49.49   62.86
   6  -1  -1   62.05   56.54
   6   1  -1   73.75   63.71
   6  -1  -1   60.26   66.99
   6   1   0  414.84   66.50
   6  -1   0  398.16   58.56
   6   1   0  415.29   75.33
   6  -1   0  337.08   76.38
   6   1   1  680.08   80.64
   6  -1   1  574.37   81.61
   6  -1   1  595.39   57.71
   6   1   1  557.00   62.53
   6   1   2  162.85   46.78
   6   1   2  120.04   68.28
   6  -1   2  144.87   69.58
   6  -1   2  105.26   42.28
   6   1   3  186.79   45.40
   6   1   3  191.20   74.03
   6  -1   3  173.99   71.73
   6   1   4  262.00   82.70
   6  -1   4  196.14   75.86
   6   1   5  670.76   94.73
   6  -1   5  528.32   89.63
   6   2 -10  469.96   70.31
   6  -2 -10  522.29   69.98
   6   2 -10  517.67   74.97
   6  -2 -10  375.80   74.12
   6   2  -9   52.25   62.73
   6   2  -9  118.34   58.68
   6  -2  -9   79.14   54.35
   6  -2  -9  102.02   50.91
   6   2  -8  403.38   68.73
   6   2  -8  525.77   67.43
   6  -2  -8  473.65   73.63
   6  -2  -7  185.05   64.19
   6   2  -7  233.85   68.28
   6   2  -6  113.72   65.89
   6  -2  -6  142.44   59.25
   6   2  -5  493.01   82.13
   6  -2  -5  530.19   72.66
   6   2  -4   33.78   68.69
   6  -2  -4   42.24   51.84
   6   2  -3  534.56   81.36
   6  -2  -3  604.30   64.11
   6   2  -2  147.14   68.69
   6  -2  -2  163.09   60.63
   6   2  -1  355.55   70.15
   6  -2  -1  339.59   57.11
   6   2  -1  308.45   65.97
   6  -2  -1  375.31   76.10
   6   2   0  111.82   63.02
   6  -2   0  111.38   51.48
   6   2   0  110.93   65.16
   6  -2   0   98.29   70.51
   6   2   1    8.71   55.85
   6  -2   1   -2.71   42.16
   6   2   1  -10.85   62.37
   6  -2   1   33.57   68.53
   6  -2   2    7.13   37.58
   6   2   2   11.14   49.41
   6   2   2  -13.24   62.17
   6  -2   2   43.34   73.02
   6   2   3  578.79   79.22
   6  -2   3  691.18   92.58
   6   2   3  649.18   62.78
   6   2   4  256.28   73.75
   6  -2   4  297.72   86.51
   6   2   5  157.38   75.86
   6  -2   5  202.01   79.42
   6  -3 -11   73.95   62.33
   6   3 -11  -37.99   74.32
   6  -3 -10  148.39   64.92
   6   3 -10  117.13   72.09
   6  -3 -10  124.13   68.57
   6  -3  -9   71.52   57.35
   6   3  -9  121.10   62.69
   6   3  -9   21.95   59.25
   6  -3  -9   16.69   52.57
   6  -3  -8  230.81   58.93
   6   3  -8  337.65   75.41
   6  -3  -8  269.81   61.44
   6   3  -7   77.44   66.06
   6  -3  -7  100.76   65.93
   6  -3  -7   64.15   43.82
   6  -3  -6 1022.71   82.26
   6  -3  -6  878.16   59.49
   6   3  -6  940.98   90.15
   6   3  -5  104.04   70.47
   6  -3  -5  129.56   62.94
   6  -3  -5  132.11   37.95
   6  -3  -4 1438.20   89.22
   6  -3  -4 1482.79   54.03
   6   3  -4 1388.39   95.54
   6  -3  -3   81.81   50.46
   6   3  -3  109.71   72.41
   6  -3  -2  348.50   59.09
   6   3  -2  272.08   75.41
   6   3  -1  844.59   67.03
   6  -3  -1  664.49   62.82
   6   3  -1  677.04   78.69
   6   3   0  154.95   66.10
   6   3   0  148.60   55.65
   6  -3   0  169.09   69.01
   6  -3   0  125.55   46.17
   6   3   1   73.71   58.04
   6   3   1   86.91   59.66
   6  -3   1  139.40   70.23
   6  -3   1  106.11   43.05
   6   3   2  365.84   64.96
   6  -3   2  463.81   48.32
   6   3   2  445.30   72.29
   6  -3   2  376.93   82.90
   6   3   3  154.47   58.28
   6   3   3  116.15   69.17
   6  -3   3  132.27   81.00
   6   3   4   22.15   71.81
   6  -3   4   19.64   75.65
   6   3   5  203.15   84.20
   6  -3   5  304.68   93.35
   6  -4 -10  137.74   60.79
   6   4 -10  122.03   73.02
   6  -4 -10  135.31   63.34
   6   4  -9    4.98   70.55
   6  -4  -9   63.67   57.02
   6   4  -9   16.28   76.46
   6  -4  -9   53.74   56.50
   6   4  -8  461.34   78.21
   6  -4  -8  541.57   74.97
   6  -4  -8  431.29   59.41
   6   4  -7  588.22   87.97
   6  -4  -7  547.85   67.80
   6  -4  -7  655.13   60.91
   6   4  -6  139.48   72.13
   6  -4  -6  127.21   64.56
   6  -4  -6  128.83   42.85
   6   4  -5   80.27   71.08
   6  -4  -5   90.64   51.68
   6  -4  -5  120.85   36.81
   6   4  -4  178.04   72.78
   6  -4  -4  191.65   63.10
   6   4  -3   58.89   69.54
   6  -4  -3   76.55   55.04
   6   4  -2  192.62   71.97
   6  -4  -2  134.22   53.50
   6   4  -1   22.72   66.74
   6   4  -1    8.83   45.97
   6  -4  -1  -13.93   48.32
   6   4   0   18.39   61.80
   6   4   0   -0.89   51.52
   6  -4   0   14.22   49.01
   6  -4   0   77.88   70.59
   6   4   1  315.82   68.81
   6  -4   1  295.21   48.84
   6   4   1  280.34   60.99
   6  -4   1  200.80   75.53
   6   4   2   97.77   60.83
   6  -4   2   61.56   41.39
   6   4   2   91.00   58.60
   6  -4   2   53.91   69.90
   6   4   3  226.36   65.93
   6   4   3  263.98   67.51
   6  -4   3  176.46   77.36
   6   4   4   35.48   68.00
   6  -4   4   -1.94   83.47
   6   4   5   97.04   73.18
   6  -4   5  154.39   86.83
   6   5  -9  111.94   71.40
   6   5  -9   61.80   76.06
   6   5  -8  220.52   79.38
   6  -5  -8  133.45   63.79
   6   5  -7   52.12   72.09
   6  -5  -7   28.43   52.16
   6   5  -6  397.27   80.88
   6  -5  -6  329.02   72.94
   6   5  -5   83.88   69.05
   6  -5  -5   58.56   58.89
   6  -5  -4  873.47   83.03
   6   5  -4  717.99   93.11
   6   5  -3   87.16   72.82
   6  -5  -3  129.80   61.11
   6   5  -2  165.48   76.02
   6  -5  -2  127.17   60.59
   6   5  -1    8.95   72.05
   6  -5  -1    7.29   49.45
   6   5   0  353.20   75.94
   6  -5   0  318.70   57.06
   6  -5   1   64.44   46.86
   6   5   1   63.95   67.11
   6  -5   1   87.93   69.17
   6   5   2   21.22   63.50
   6  -5   2   72.74   70.71
   6   5   3   52.69   67.31
   6  -5   3   54.31   76.83
   6  -5   4  121.05   85.13
   6   6  -8   32.24   81.81
   6   6  -7  190.96   83.88
   6  -6  -7  187.56   79.18
   6   6  -6  107.33   81.08
   6  -6  -6  124.09   73.55
   6   6  -5  389.73   81.77
   6  -6  -5  358.26   65.93
   6   6  -4   51.72   75.53
   6  -6  -4   -8.75   59.90
   6   6  -3   44.23   67.80
   6  -6  -3   17.94   59.90
   6  -6  -2  -21.83   60.87
   6   6  -2   -5.47   75.69
   6  -6  -1    7.49   54.80
   6   6  -1   52.93   68.93
   6  -6   0    8.14   47.67
   6   6   0   12.84   76.50
   6  -6   1  -21.14   50.02
   6   6   1    3.56   69.50
   6   6   2   37.30   74.64
   6  -6   2   71.24   74.93
   6   6   3  108.38   72.21
   6  -6   3   38.68   77.92
   6  -7  -4  137.94   72.94
   6   7  -4   90.76   81.89
   6  -7  -3   22.48   68.93
   6   7  -3  -12.64   80.76
   6  -7  -2  232.51   75.41
   6   7  -2  237.61   82.01
   6  -7  -1  131.75   66.54
   6   7  -1  131.10   86.18
   6   7   0   95.42   74.16
   6  -7   0   70.07   57.06
   7   0 -11   66.14   69.50
   7   0 -10  429.67   75.74
   7   0  -9    8.30   66.87
   7   0  -8   14.26   66.42
   7   0  -7   16.12   61.64
   7   0  -6   77.36   59.05
   7   0  -5    2.71   65.69
   7   0  -4  257.70   71.20
   7   0  -3   32.81   53.54
   7   0  -2  116.15   58.24
   7   0  -1  108.42   52.85
   7   0  -1   64.03   67.76
   7   0   0  -15.59   54.63
   7   0   0   21.71   72.58
   7   0   1  816.04   88.21
   7   0   1  722.20   64.40
   7   0   2  189.01   48.92
   7   0   2  158.11   79.42
   7   0   3  536.26   94.93
   7   0   4   52.81   82.98
   7  -1 -11  304.16   76.95
   7  -1 -10   92.62   69.21
   7   1 -10  106.72   68.73
   7   1  -9  108.86   67.07
   7  -1  -9   96.55   67.39
   7   1  -8   18.83   67.84
   7  -1  -8   -3.81   52.25
   7  -1  -7  392.77   67.47
   7   1  -7  412.78   72.98
   7   1  -6  260.01   71.89
   7  -1  -6  325.22   69.38
   7   1  -5   53.42   67.15
   7  -1  -5   30.74   52.69
   7  -1  -4  221.13   67.68
   7   1  -4  270.38   69.21
   7  -1  -3  739.33   76.10
   7   1  -3  733.38   77.76
   7  -1  -2 1369.43   83.71
   7   1  -2 1183.45   83.84
   7   1  -1  455.14   66.02
   7  -1  -1  487.05   61.97
   7   1  -1  468.91   72.54
   7  -1  -1  487.82   83.88
   7   1   0  598.51   78.73
   7  -1   0  485.19   60.75
   7  -1   0  536.67   86.22
   7   1   0  517.71   64.27
   7   1   1  420.92   61.60
   7   1   1  346.03   80.88
   7  -1   1  395.04   86.22
   7  -1   1  328.58   56.21
   7   1   2  164.19   74.80
   7  -1   2  235.10   78.49
   7   1   2  176.42   55.53
   7  -1   2  235.14   49.05
   7   1   2  235.59   55.00
   7   1   3  218.09   84.44
   7  -1   3  173.66   87.12
   7   1   4  123.24   79.02
   7  -1   4  140.05   81.97
   7  -2 -11   16.28   61.40
   7   2 -10   84.65   65.25
   7  -2 -10   12.68   59.86
   7  -2 -10   49.17   59.54
   7  -2  -9   17.82   60.67
   7   2  -9   43.74   67.88
   7  -2  -9  -18.47   68.53
   7  -2  -8  114.70   66.91
   7   2  -8  106.84   60.99
   7  -2  -7   11.50   65.69
   7   2  -7   19.68   57.55
   7   2  -6   22.84   69.01
   7  -2  -6   30.82   64.11
   7   2  -5  244.66   74.24
   7  -2  -5  205.58   69.42
   7   2  -4  393.58   75.61
   7  -2  -4  305.94   68.36
   7   2  -3  180.63   73.35
   7  -2  -3  203.72   63.83
   7   2  -2   67.47   64.03
   7  -2  -2   94.49   58.97
   7   2  -1   50.14   61.44
   7  -2  -1   62.25   53.91
   7   2  -1   48.56   62.01
   7  -2  -1   58.36   67.27
   7   2   0  625.24   77.03
   7  -2   0  555.78   60.71
   7  -2   0  544.85   86.02
   7   2   0  582.23   74.44
   7   2   1  476.69   68.36
   7  -2   1  603.37   60.10
   7   2   1  513.34   78.33
   7  -2   1  594.58   90.72
   7   2   2    8.34   56.30
   7   2   2   75.09   71.36
   7  -2   2   58.28   73.59
   7   2   3  148.47   77.48
   7  -2   3   59.09   84.32
   7   2   4   10.37   76.10
   7  -2   4   23.04   82.22
   7  -3 -10   64.88   69.54
   7   3 -10   28.80   75.21
   7  -3 -10   49.77   57.51
   7   3  -9  418.57   78.49
   7  -3  -9  368.92   77.03
   7   3  -9  398.85   83.11
   7  -3  -9  273.09   69.09
   7   3  -8  120.37   65.61
   7  -3  -8  124.21   70.75
   7  -3  -8  127.33   49.82
   7   3  -7  456.44   78.73
   7  -3  -7  384.14   71.40
   7  -3  -7  361.26   54.27
   7  -3  -6  203.19   45.44
   7   3  -6  182.21   78.00
   7  -3  -6  133.97   67.84
   7  -3  -5  289.45   59.37
   7   3  -5  262.48   75.29
   7   3  -4  487.70   85.46
   7  -3  -4  538.45   68.77
   7  -3  -3   27.74   56.54
   7   3  -3   63.18   68.53
   7  -3  -2  890.44   74.28
   7   3  -2  966.90   89.22
   7   3  -1  313.23   73.47
   7   3  -1  301.04   62.90
   7  -3  -1  395.36   64.35
   7   3   0 1062.08   81.89
   7  -3   0 1194.51  105.46
   7  -3   0 1090.67   74.68
   7   3   0 1060.17   87.97
   7   3   1   76.91   62.41
   7   3   1   84.85   64.76
   7  -3   1   76.02   82.30
   7  -3   1   82.34   47.47
   7   3   2  282.33   68.81
   7   3   2  357.25   75.57
   7  -3   2  353.04   92.10
   7   3   3   -8.26   74.80
   7  -3   3  -24.26   78.04
   7   3   4  126.72   77.88
   7   4  -9   43.17   75.69
   7   4  -9    1.82   78.57
   7   4  -8   50.38   71.08
   7  -4  -8   41.39   72.37
   7   4  -7   64.07   69.34
   7  -4  -7   23.37   68.81
   7   4  -6   26.81   76.59
   7  -4  -6   29.40   53.30
   7   4  -5  133.41   71.56
   7  -4  -5  134.22   55.89
   7   4  -4  230.81   81.45
   7  -4  -4   88.29   67.15
   7   4  -3   21.71   71.16
   7  -4  -3   45.97   62.13
   7   4  -2  519.05   81.49
   7  -4  -2  573.73   71.16
   7   4  -1  106.92   74.72
   7   4  -1   72.09   55.24
   7  -4  -1   88.61   54.23
   7   4   0  318.90   74.64
   7   4   0  395.40   67.72
   7  -4   0  281.84   56.05
   7  -4   0  348.91   87.93
   7   4   1   84.85   69.62
   7  -4   1  142.20   51.11
   7   4   1   99.35   62.41
   7  -4   1  131.63   81.16
   7   4   2  -19.12   65.73
   7   4   2   11.79   64.92
   7  -4   2   23.57   83.71
   7   4   3  140.01   72.41
   7  -4   3   47.39   80.72
   7   4   4   20.82   83.71
   7   5  -8   78.81   78.08
   7   5  -7  119.11   79.83
   7  -5  -7   42.48   71.24
   7   5  -6  180.83   84.44
   7  -5  -6  139.93   69.30
   7   5  -5   13.69   71.56
   7  -5  -5    4.50   66.66
   7   5  -4  329.91   87.12
   7  -5  -4  203.68   66.74
   7   5  -3  391.23   79.91
   7  -5  -3  404.43   71.77
   7   5  -2  207.12   73.63
   7  -5  -2  141.39   60.30
   7   5  -1   40.26   76.63
   7  -5  -1   83.47   58.52
   7   5   0  226.48   75.90
   7  -5   0  217.32   55.85
   7   5   1   72.66   76.10
   7  -5   1  148.88   76.67
   7   5   2  454.25   83.96
   7  -5   2  623.99   95.05
   7   6  -5  -25.03   76.87
   7  -6  -5   35.03   72.54
   7   6  -4   90.72   86.91
   7  -6  -4   76.59   70.11
   7   6  -3   65.61   76.71
   7  -6  -3  105.62   67.15
   7   6  -2   25.64   82.05
   7  -6  -2   43.42   64.23
   7   6  -1  262.32   84.12
   7  -6  -1  206.83   70.11
   7  -6   0   91.29   55.36
   7   6   0   17.21   75.90
   7   6   1  161.76   84.93
   7   6   2    2.63   74.76
   7  -7  -1  133.53   70.11
   8   0 -10   -6.28   76.83
   8   0  -9  -11.10   68.89
   8   0  -8  122.27   80.72
   8   0  -7  425.41   82.17
   8   0  -6  591.34   80.39
   8   0  -5   19.64   61.20
   8   0  -4  572.96   83.79
   8   0  -3   56.50   68.28
   8   0  -2 1024.78   80.39
   8   0  -1  144.46   71.24
   8   0  -1  171.40   63.38
   8   0   0  286.98   86.71
   8   0   0  276.49   61.24
   8   0   1   35.15   50.87
   8   0   1   19.68   73.55
   8   0   2  -22.32   80.60
   8   1 -10  342.87   86.14
   8   1  -9  252.60   83.96
   8  -1  -9  237.05   75.78
   8   1  -8  237.01   70.79
   8  -1  -8  183.38   74.48
   8  -1  -7  369.12   78.08
   8   1  -7  393.70   68.40
   8  -1  -6  265.03   79.70
   8   1  -6  202.74   74.12
   8   1  -5  432.62   69.38
   8  -1  -5  485.52   78.93
   8   1  -4   69.86   65.00
   8  -1  -4   22.19   69.38
   8   1  -3  141.39   64.88
   8  -1  -3  167.71   65.81
   8   1  -2  201.73   64.44
   8  -1  -2  193.96   68.89
   8   1  -1   96.75   57.79
   8   1  -1    4.74   68.16
   8  -1  -1   78.21   81.08
   8  -1  -1   73.91   58.97
   8   1   0  216.11   81.41
   8  -1   0  229.11   85.78
   8   1   0  255.47   68.45
   8  -1   0  298.73   64.96
   8   1   1   62.53   56.17
   8   1   1   26.28   74.60
   8  -1   1  -12.35   78.93
   8  -1   1   62.69   50.18
   8   1   2  160.58   78.04
   8  -1   2  183.18   85.66
   8   1   3  209.91   91.69
   8  -2 -10   55.32   62.41
   8  -2  -9  -23.49   71.16
   8   2  -9  -24.99   70.02
   8  -2  -8   69.78   62.94
   8   2  -8   34.71   65.69
   8  -2  -7  155.40   67.68
   8   2  -7  179.33   72.66
   8  -2  -6  651.73   73.87
   8   2  -6  683.03   79.58
   8   2  -5   33.82   73.14
   8  -2  -5   14.30   69.62
   8   2  -4  303.18   77.40
   8  -2  -4  353.12   73.99
   8   2  -3   24.46   70.31
   8  -2  -3   33.66   63.10
   8   2  -2  227.12   72.82
   8  -2  -2  268.88   67.15
   8   2  -1  286.34   70.51
   8  -2  -1  310.39   67.55
   8   2  -1  475.92   77.60
   8  -2  -1  342.63   90.76
   8   2   0   31.75   63.79
   8  -2   0   -8.38   51.68
   8   2   0   20.29   72.58
   8  -2   0   -5.39   82.17
   8   2   1  157.22   63.71
   8  -2   1  174.68   53.10
   8   2   1  168.64   79.79
   8  -2   1  184.40   87.60
   8   2   2    7.29   81.97
   8  -2   2   34.95   92.58
   8   2   3   50.79   79.42
   8   3  -9  124.86   84.00
   8   3  -8  345.63   87.44
   8  -3  -8  366.40   75.21
   8   3  -7  402.53   87.36
   8  -3  -7  442.71   74.64
   8   3  -6  254.22   80.72
   8  -3  -6  244.82   76.02
   8  -3  -5  365.35   76.42
   8   3  -5  442.22   86.95
   8  -3  -4  226.03   69.21
   8   3  -4  142.24   80.19
   8  -3  -3  540.68   76.87
   8   3  -3  535.94   88.53
   8  -3  -2   98.78   61.64
   8   3  -2  147.99   77.88
   8   3  -1   -0.81   69.01
   8   3  -1   15.96   61.92
   8  -3  -1   18.87   57.71
   8   3   0  -20.53   70.59
   8   3   0  -20.37   66.91
   8  -3   0  -52.16   86.02
   8  -3   0   21.71   52.61
   8   3   1  140.82   69.42
   8   3   1  148.92   74.84
   8  -3   1  220.12   93.07
   8   3   2   87.76   80.27
   8   3   3   60.71   81.00
   8   4  -7   90.40   86.79
   8  -4  -7   65.41   67.19
   8   4  -6  229.84   89.75
   8  -4  -6  179.42   76.22
   8   4  -5   41.19   73.26
   8  -4  -5    0.12   61.52
   8   4  -4  269.61   87.32
   8  -4  -4  235.35   76.55
   8   4  -3  122.27   76.75
   8  -4  -3  187.15   63.54
   8   4  -2   66.78   80.03
   8  -4  -2  113.64   61.56
   8   4  -1  115.95   80.60
   8  -4  -1  130.33   62.57
   8   4   0   68.04   73.14
   8  -4   0   18.02   53.18
   8   4   1   70.35   77.44
   8  -4   1  131.83   86.99
   8  -5  -5  326.67   75.05
   8   5  -4   78.04   81.97
   8  -5  -4   75.37   64.52
   8   5  -3   25.92   76.71
   8  -5  -3   -8.06   67.51
   8   5  -2  129.72   92.58
   8  -5  -2   60.83   63.67
   8   5  -1  175.00   88.53
   8  -5  -1  238.42   68.65
   8   5   0   -7.29   79.87
   8   5   1   13.04   80.35
   8  -6  -2  122.47   73.59
   8  -6  -1  -16.81   66.46
   9   0  -7   -0.49   78.65
   9   0  -6  161.11   79.79
   9   0  -5  -33.13   64.76
   9   0  -4   38.07   59.54
   9   0  -3   46.98   68.04
   9   0  -2  115.14   68.77
   9   0  -1    8.30   64.07
   9   0  -1  -19.80   85.82
   9   0   0   77.92   62.82
   9   0   0  163.26   84.65
   9   1  -7   42.53   83.88
   9  -1  -7   87.60   71.97
   9  -1  -6  332.63   84.48
   9   1  -6  345.75   87.52
   9  -1  -5  257.70   66.26
   9   1  -5  302.78   84.20
   9   1  -4   70.51   71.60
   9  -1  -4  101.41   67.51
   9   1  -3   81.00   74.03
   9  -1  -3   60.71   66.38
   9   1  -2  261.02   68.57
   9  -1  -2  393.22   68.61
   9   1  -1  282.16   74.80
   9   1  -1  223.64   77.72
   9  -1  -1  151.11   85.78
   9  -1  -1  141.06   64.27
   9   1   0  286.66   72.17
   9   1   0  341.94   83.63
   9  -1   0  279.78   94.37
   9  -1   0  238.59   68.81
   9   1   1   45.28   84.48
   9   2  -7   92.26   69.66
   9  -2  -6  168.89   75.65
   9   2  -6  192.21   86.39
   9  -2  -5   45.97   68.20
   9   2  -5   28.43   83.15
   9  -2  -4  334.13   79.10
   9   2  -4  324.04   78.37
   9   2  -3   74.24   69.70
   9  -2  -3   74.68   74.68
   9   2  -3   73.22   67.68
   9   2  -2  288.32   81.49
   9  -2  -2  370.41   70.31
   9   2  -1    1.90   72.70
   9  -2  -1   34.38   60.35
   9   2  -1   12.88   72.62
   9   2   0   60.51   64.80
   9  -2   0   80.35   58.40
   9   2   0   49.90   76.75
   9   2   0   14.90   68.81
   9   2   1   47.43   72.86
   9   2   1   62.37   85.86
   9  -3  -5   46.82   79.30
   9   3  -5   79.58   86.27
   9  -3  -4   14.94   61.56
   9   3  -4  -38.39   82.70
   9  -3  -3   58.56   72.54
   9   3  -3   40.91   81.53
   9  -3  -2  340.20   70.96
   9   3  -2  320.96   88.65
   9   3  -1   37.75   79.14
   9   3  -1  124.29   72.01
   9  -3  -1   59.86   66.26
   9   3   0   23.21   75.33
   9   3   0  100.04   79.10
   9   3   1   84.44   78.89
   9  -4  -4  126.40   81.81
   9  -4  -3   41.63   59.78
   9   4  -2  206.87   87.20
   9  -4  -2  202.18   64.80
   9   4  -1   71.16   87.64
   9  -4  -1   21.34   59.86
   9   4   0   87.52   88.61
  10   0  -3   82.13   85.13
  10   0  -2   46.29   76.79
  10   0  -1   14.22   75.29
  10  -1  -3   75.29   75.01
  10  -1  -2  214.93   82.05
  10   1  -2  142.20   74.44
  10  -1  -1  314.77   73.55
  10   1  -1  250.21   85.78
  10  -2  -2   19.48   62.01
  10  -2  -1   32.68   71.40
_computing_structure_solution     'SHELXT 2014/4 (Sheldrick, 2014)'
;
_shelx_hkl_checksum              5124
_shelx_res_file
;
TITL 1805 in P2(1)
    1805_a.res
    created by SHELXL-2018/1 at 17:00:48 on 08-Jan-2019
CELL  0.71073   7.7981   7.2249   8.9956   90.000  110.380   90.000
ZERR     2.00   0.0010   0.0008   0.0011    0.000    0.014    0.000
LATT  -1
SYMM  - X, 1/2 + Y, - Z
SFAC  C    H    N    O    CL   NA
UNIT  12   30   2    6    2    2
L.S.   8
ACTA
CONF
FMAP   2
PLAN  -10
OMIT 0 51
BOND $H
EQIV $1 -x+1, y+1/2, -z+1
EQIV $2 -x, y-1/2, -z+1
HTAB O1 Cl1
HTAB O2 Cl1_$1
HTAB O3 Cl1_$2
WGHT    0.013200
FVAR       1.53533
CL1   5    0.114993    0.521603    0.727528    11.00000    0.01868    0.02351 =
         0.02502    0.00139    0.01213    0.00259
NA1   6    0.470661    0.290321    0.496964    11.00000    0.01477    0.01590 =
         0.01827    0.00079    0.00574    0.00238
N1    3    0.349438    0.386125    0.207990    11.00000    0.00982    0.01069 =
         0.01778    0.00124    0.00564   -0.00203
O1    4    0.290183    0.571442    0.473900    11.00000    0.01358    0.02151 =
         0.01688   -0.00084    0.00690    0.00097
H1    2    0.236519    0.573630    0.542599    11.00000    0.03314
O2    4    0.630011    0.695125    0.296730    11.00000    0.02125    0.01903 =
         0.03097   -0.00674    0.01498   -0.00793
H2    2    0.697300    0.756335    0.285188    11.00000    0.04827
O3    4    0.306351    0.017561    0.341943    11.00000    0.01361    0.02002 =
         0.01705    0.00125    0.00497   -0.00145
H3    2    0.202271    0.009539    0.346760    11.00000    0.02131
C21   1    0.663509    0.513947    0.252753    11.00000    0.01630    0.02280 =
         0.02190   -0.00019    0.01003    0.00221
AFIX  23
H21A  2    0.713380    0.439122    0.347642    11.00000   -1.20000
H21B  2    0.754537    0.520099    0.201930    11.00000   -1.20000
AFIX   0
C22   1    0.493497    0.421023    0.141516    11.00000    0.02112    0.01159 =
         0.02405    0.00013    0.01147   -0.00075
AFIX  23
H22A  2    0.443202    0.497838    0.047906    11.00000   -1.20000
H22B  2    0.528554    0.303870    0.107800    11.00000   -1.20000
AFIX   0
C11   1    0.147307    0.555563    0.321215    11.00000    0.01297    0.01657 =
         0.02472   -0.00239    0.00272   -0.00087
AFIX  23
H11A  2    0.063574    0.659234    0.303972    11.00000   -1.20000
H11B  2    0.078900    0.442075    0.315703    11.00000   -1.20000
AFIX   0
C12   1    0.236974    0.554355    0.196727    11.00000    0.01032    0.00994 =
         0.01743    0.00257   -0.00080    0.00347
AFIX  23
H12A  2    0.143227    0.560173    0.092254    11.00000   -1.20000
H12B  2    0.313816    0.663093    0.209870    11.00000   -1.20000
AFIX   0
C31   1    0.301453    0.046463    0.182547    11.00000    0.01912    0.02029 =
         0.01647   -0.00590    0.00897   -0.00356
AFIX  23
H31A  2    0.224855   -0.047398    0.113926    11.00000   -1.20000
H31B  2    0.423976    0.033351    0.179493    11.00000   -1.20000
AFIX   0
C32   1    0.228612    0.234392    0.121840    11.00000    0.01683    0.01387 =
         0.01521    0.00065    0.00476   -0.00205
AFIX  23
H32A  2    0.213121    0.242377    0.010263    11.00000   -1.20000
H32B  2    0.109213    0.249789    0.131188    11.00000   -1.20000
AFIX   0
HKLF 4
REM  1805 in P2(1)
REM R1 =  0.0315 for    1201 Fo > 4sig(Fo)  and  0.0532 for all    1719 data
REM    121 parameters refined using      1 restraints
END
WGHT      0.0083      0.0000
REM Highest difference peak  0.196,  deepest hole -0.182,  1-sigma level  0.046
Q1    1   0.0547  0.5281  0.8635  11.00000  0.05    0.20
Q2    1   0.7973  0.4983  0.1065  11.00000  0.05    0.19
Q3    1   0.9321  0.3964  0.1287  11.00000  0.05    0.18
Q4    1   0.4767  0.7127  0.8291  11.00000  0.05    0.17
Q5    1   0.2813  0.0382  0.2418  11.00000  0.05    0.17
Q6    1   0.0574  0.1302 -0.0933  11.00000  0.05    0.17
Q7    1   0.0046  0.5528  0.6287  11.00000  0.05    0.16
Q8    1   0.2632  0.3021  0.1523  11.00000  0.05    0.16
Q9    1   0.2337  0.5960  0.7768  11.00000  0.05    0.16
Q10   1   0.1252  0.3087  0.5823  11.00000  0.05    0.15
;
_shelx_res_checksum              92499
loop_
_space_group_symop_operation_xyz
'x, y, z'
'-x, y+1/2, -z'
loop_
_atom_site_type_symbol
_atom_site_label
_atom_site_fract_x
_atom_site_fract_y
_atom_site_fract_z
_atom_site_U_iso_or_equiv
_atom_site_adp_type
_atom_site_calc_flag
_atom_site_occupancy
Cl Cl1 0.11499(13) 0.52160(16) 0.72753(10) 0.0212(3) Uani d 1
Na Na1 0.4707(2) 0.2903(2) 0.49696(18) 0.0163(4) Uani d 1
N N1 0.3494(4) 0.3861(4) 0.2080(3) 0.0125(8) Uani d 1
O O1 0.2902(4) 0.5714(4) 0.4739(3) 0.0169(7) Uani d 1
H H1 0.237(5) 0.574(6) 0.543(4) 0.033(14) Uiso d 1
O O2 0.6300(4) 0.6951(4) 0.2967(3) 0.0222(8) Uani d 1
H H2 0.697(6) 0.756(8) 0.285(5) 0.05(2) Uiso d 1
O O3 0.3064(3) 0.0176(5) 0.3419(3) 0.0170(6) Uani d 1
H H3 0.202(4) 0.010(7) 0.347(4) 0.021(12) Uiso d 1
C C21 0.6635(5) 0.5139(7) 0.2528(4) 0.0194(10) Uani d 1
H H21A 0.713380 0.439122 0.347642 0.023 Uiso calc 1
H H21B 0.754537 0.520099 0.201930 0.023 Uiso calc 1
C C22 0.4935(5) 0.4210(5) 0.1415(4) 0.0180(11) Uani d 1
H H22A 0.443202 0.497838 0.047906 0.022 Uiso calc 1
H H22B 0.528554 0.303870 0.107800 0.022 Uiso calc 1
C C11 0.1473(5) 0.5556(6) 0.3212(4) 0.0191(10) Uani d 1
H H11A 0.063574 0.659234 0.303972 0.023 Uiso calc 1
H H11B 0.078900 0.442075 0.315703 0.023 Uiso calc 1
C C12 0.2370(4) 0.5544(6) 0.1967(4) 0.0141(10) Uani d 1
H H12A 0.143227 0.560173 0.092254 0.017 Uiso calc 1
H H12B 0.313816 0.663093 0.209870 0.017 Uiso calc 1
C C31 0.3015(5) 0.0465(6) 0.1825(4) 0.0179(10) Uani d 1
H H31A 0.224855 -0.047398 0.113926 0.021 Uiso calc 1
H H31B 0.423976 0.033351 0.179493 0.021 Uiso calc 1
C C32 0.2286(5) 0.2344(5) 0.1218(4) 0.0155(10) Uani d 1
H H32A 0.213121 0.242377 0.010263 0.019 Uiso calc 1
H H32B 0.109213 0.249789 0.131188 0.019 Uiso calc 1
loop_
_atom_site_aniso_label
_atom_site_aniso_U_11
_atom_site_aniso_U_22
_atom_site_aniso_U_33
_atom_site_aniso_U_12
_atom_site_aniso_U_13
_atom_site_aniso_U_23
Cl1 0.0187(6) 0.0235(6) 0.0250(5) 0.0026(6) 0.0121(4) 0.0014(6)
Na1 0.0148(10) 0.0159(9) 0.0183(7) 0.0024(8) 0.0057(7) 0.0008(7)
N1 0.0098(19) 0.0107(19) 0.0178(18) -0.0020(14) 0.0056(15) 0.0012(14)
O1 0.0136(16) 0.0215(19) 0.0169(14) 0.0010(13) 0.0069(14) -0.0008(12)
O2 0.021(2) 0.019(2) 0.0310(18) -0.0079(15) 0.0150(16) -0.0067(15)
O3 0.0136(16) 0.0200(16) 0.0171(13) -0.0014(18) 0.0050(12) 0.0013(16)
C21 0.016(2) 0.023(3) 0.022(2) 0.002(3) 0.0100(18) 0.000(3)
C22 0.021(3) 0.012(3) 0.024(2) -0.001(2) 0.011(2) 0.0001(18)
C11 0.013(2) 0.017(3) 0.025(2) -0.001(2) 0.0027(18) -0.002(2)
C12 0.010(2) 0.010(3) 0.0174(19) 0.003(2) -0.0008(16) 0.003(2)
C31 0.019(2) 0.020(3) 0.0165(19) -0.004(2) 0.0090(17) -0.006(2)
C32 0.017(2) 0.014(3) 0.015(2) -0.0020(18) 0.0048(19) 0.0006(17)
loop_
_atom_type_symbol
_atom_type_description
_atom_type_scat_dispersion_real
_atom_type_scat_dispersion_imag
_atom_type_scat_source
C C 0.0033 0.0016 'International Tables Vol C Tables 4.2.6.8 and 6.1.1.4'
H H 0.0000 0.0000 'International Tables Vol C Tables 4.2.6.8 and 6.1.1.4'
N N 0.0061 0.0033 'International Tables Vol C Tables 4.2.6.8 and 6.1.1.4'
O O 0.0106 0.0060 'International Tables Vol C Tables 4.2.6.8 and 6.1.1.4'
Cl Cl 0.1484 0.1585 'International Tables Vol C Tables 4.2.6.8 and 6.1.1.4'
Na Na 0.0362 0.0249 'International Tables Vol C Tables 4.2.6.8 and 6.1.1.4'
loop_
_geom_angle_atom_site_label_1
_geom_angle_atom_site_label_2
_geom_angle_atom_site_label_3
_geom_angle_site_symmetry_1
_geom_angle_site_symmetry_3
_geom_angle
O2 Na1 O1 2_646 2_646 100.48(12)
O2 Na1 O1 2_646 . 88.25(12)
O1 Na1 O1 2_646 . 165.04(12)
O2 Na1 O3 2_646 2_656 95.27(11)
O1 Na1 O3 2_646 2_656 90.72(10)
O1 Na1 O3 . 2_656 76.30(10)
O2 Na1 O3 2_646 . 87.85(11)
O1 Na1 O3 2_646 . 76.57(10)
O1 Na1 O3 . . 116.20(10)
O3 Na1 O3 2_656 . 167.27(11)
O2 Na1 N1 2_646 . 141.31(12)
O1 Na1 N1 2_646 . 106.95(12)
O1 Na1 N1 . . 71.76(11)
O3 Na1 N1 2_656 . 110.88(11)
O3 Na1 N1 . . 72.95(10)
O2 Na1 C11 2_646 . 98.40(12)
O1 Na1 C11 2_646 . 157.45(11)
O1 Na1 C11 . . 26.55(9)
O3 Na1 C11 2_656 . 99.73(11)
O3 Na1 C11 . . 91.99(11)
N1 Na1 C11 . . 50.65(10)
C22 N1 C32 . . 110.7(3)
C22 N1 C12 . . 110.5(3)
C32 N1 C12 . . 108.6(3)
C22 N1 Na1 . . 113.6(2)
C32 N1 Na1 . . 106.1(2)
C12 N1 Na1 . . 107.1(2)
C11 O1 Na1 . 2_656 118.2(2)
C11 O1 Na1 . . 104.3(2)
Na1 O1 Na1 2_656 . 97.85(10)
C11 O1 H1 . . 106(2)
Na1 O1 H1 2_656 . 118(3)
Na1 O1 H1 . . 111(3)
C21 O2 Na1 . 2_656 129.3(3)
C21 O2 H2 . . 108(4)
Na1 O2 H2 2_656 . 113(4)
C31 O3 Na1 . 2_646 116.9(2)
C31 O3 Na1 . . 105.8(3)
Na1 O3 Na1 2_646 . 94.46(8)
C31 O3 H3 . . 112(2)
Na1 O3 H3 2_646 . 115(3)
Na1 O3 H3 . . 110(3)
O2 C21 C22 . . 113.0(3)
O2 C21 H21A . . 109.0
C22 C21 H21A . . 109.0
O2 C21 H21B . . 109.0
C22 C21 H21B . . 109.0
H21A C21 H21B . . 107.8
N1 C22 C21 . . 115.2(3)
N1 C22 H22A . . 108.5
C21 C22 H22A . . 108.5
N1 C22 H22B . . 108.5
C21 C22 H22B . . 108.5
H22A C22 H22B . . 107.5
O1 C11 C12 . . 107.6(3)
O1 C11 Na1 . . 49.17(18)
C12 C11 Na1 . . 82.6(2)
O1 C11 H11A . . 110.2
C12 C11 H11A . . 110.2
Na1 C11 H11A . . 159.2
O1 C11 H11B . . 110.2
C12 C11 H11B . . 110.2
Na1 C11 H11B . . 80.8
H11A C11 H11B . . 108.5
N1 C12 C11 . . 111.7(3)
N1 C12 H12A . . 109.3
C11 C12 H12A . . 109.3
N1 C12 H12B . . 109.3
C11 C12 H12B . . 109.3
H12A C12 H12B . . 107.9
O3 C31 C32 . . 111.7(3)
O3 C31 H31A . . 109.3
C32 C31 H31A . . 109.3
O3 C31 H31B . . 109.3
C32 C31 H31B . . 109.3
H31A C31 H31B . . 107.9
N1 C32 C31 . . 112.9(3)
N1 C32 H32A . . 109.0
C31 C32 H32A . . 109.0
N1 C32 H32B . . 109.0
C31 C32 H32B . . 109.0
H32A C32 H32B . . 107.8
loop_
_geom_bond_atom_site_label_1
_geom_bond_atom_site_label_2
_geom_bond_site_symmetry_2
_geom_bond_distance
Na1 O2 2_646 2.355(4)
Na1 O1 2_646 2.389(3)
Na1 O1 . 2.438(3)
Na1 O3 2_656 2.463(3)
Na1 O3 . 2.495(3)
Na1 N1 . 2.533(3)
Na1 C11 . 3.123(4)
N1 C22 . 1.467(4)
N1 C32 . 1.477(4)
N1 C12 . 1.481(4)
O1 C11 . 1.441(4)
O1 H1 . 0.86(4)
O2 C21 . 1.418(5)
O2 H2 . 0.72(5)
O3 C31 . 1.436(4)
O3 H3 . 0.83(3)
C21 C22 . 1.512(5)
C21 H21A . 0.9700
C21 H21B . 0.9700
C22 H22A . 0.9700
C22 H22B . 0.9700
C11 C12 . 1.513(4)
C11 H11A . 0.9700
C11 H11B . 0.9700
C12 H12A . 0.9700
C12 H12B . 0.9700
C31 C32 . 1.499(5)
C31 H31A . 0.9700
C31 H31B . 0.9700
C32 H32A . 0.9700
C32 H32B . 0.9700
loop_
_geom_hbond_atom_site_label_D
_geom_hbond_atom_site_label_H
_geom_hbond_atom_site_label_A
_geom_hbond_site_symmetry_A
_geom_hbond_distance_DH
_geom_hbond_distance_HA
_geom_hbond_distance_DA
_geom_hbond_angle_DHA
_geom_hbond_publ_flag
O1 H1 Cl1 . 0.86(4) 2.21(4) 3.061(3) 169(4) yes
O2 H2 Cl1 2_656 0.72(5) 2.44(5) 3.141(4) 165(6) yes
O3 H3 Cl1 2_546 0.83(3) 2.33(3) 3.124(3) 161(3) yes
loop_
_geom_torsion_atom_site_label_1
_geom_torsion_atom_site_label_2
_geom_torsion_atom_site_label_3
_geom_torsion_atom_site_label_4
_geom_torsion_site_symmetry_1
_geom_torsion
Na1 O2 C21 C22 2_656 85.8(3)
C32 N1 C22 C21 . -156.9(3)
C12 N1 C22 C21 . 82.8(4)
Na1 N1 C22 C21 . -37.7(4)
O2 C21 C22 N1 . -64.2(4)
Na1 O1 C11 C12 2_656 44.2(4)
Na1 O1 C11 C12 . -63.1(3)
Na1 O1 C11 Na1 2_656 107.2(2)
C22 N1 C12 C11 . -155.0(3)
C32 N1 C12 C11 . 83.5(3)
Na1 N1 C12 C11 . -30.7(3)
O1 C11 C12 N1 . 66.4(4)
Na1 C11 C12 N1 . 23.5(3)
Na1 O3 C31 C32 2_646 -155.0(2)
Na1 O3 C31 C32 . -51.4(3)
C22 N1 C32 C31 . 84.7(4)
C12 N1 C32 C31 . -153.9(3)
Na1 N1 C32 C31 . -39.0(3)
O3 C31 C32 N1 . 65.8(4)

_cod_database_fobs_code 1550649
