#------------------------------------------------------------------------------
#$Date: 2018-11-24 00:52:34 +0200 (Sat, 24 Nov 2018) $
#$Revision: 212157 $
#$URL: file:///home/coder/svn-repositories/cod/cif/1/55/02/1550280.cif $
#------------------------------------------------------------------------------
#
# This file is available in the Crystallography Open Database (COD),
# http://www.crystallography.net/
#
# All data on this site have been placed in the public domain by the
# contributors.
#
data_1550280
loop_
_publ_author_name
'Puylaert, Pim'
'Dell'Acqua, Andrea'
'El Ouahabi, Fatima'
'Spannenberg, Anke'
'Roisnel, Thierry'
'Lefort, Laurent'
'Hinze, Sandra'
'Tin, Sergey'
'de Vries, Johannes G.'
_publ_section_title
;
 Phosphine-Free Pincer Cobalt Catalyst Precursors for the Selective
 Hydrogenation of Olefins
;
_journal_name_full               'Catalysis Science &amp; Technology'
_journal_paper_doi               10.1039/C8CY02218F
_journal_year                    2019
_chemical_compound_source        'synthesis as described'
_chemical_formula_moiety         'C11 H18 Cl2 Co N2 S'
_chemical_formula_sum            'C11 H18 Cl2 Co N2 S'
_chemical_formula_weight         340.16
_chemical_name_systematic
;
 ?
;
_space_group_crystal_system      triclinic
_space_group_IT_number           2
_space_group_name_Hall           '-P 1'
_space_group_name_H-M_alt        'P -1'
_symmetry_space_group_name_Hall  '-P 1'
_symmetry_space_group_name_H-M   'P -1'
_atom_sites_solution_hydrogens   geom
_audit_update_record
;
2018-08-27 deposited with the CCDC.
2018-11-23 downloaded from the CCDC.
;
_cell_angle_alpha                108.210(4)
_cell_angle_beta                 98.899(4)
_cell_angle_gamma                99.291(5)
_cell_formula_units_Z            2
_cell_length_a                   7.0681(9)
_cell_length_b                   9.0140(12)
_cell_length_c                   12.2372(15)
_cell_measurement_reflns_used    9954
_cell_measurement_temperature    150(2)
_cell_measurement_theta_max      27.5147
_cell_measurement_theta_min      2.4404
_cell_measurement_wavelength     0.71073
_cell_volume                     713.18(16)
_computing_cell_refinement       'APEX3 (Bruker, 2015); SAINT (Bruker, 2014)'
_computing_data_collection       'SAINT (Bruker, 2014)'
_computing_data_reduction        'SAINT (Bruker, 2014)'
_computing_molecular_graphics
'SXGRAPH (Farrugia, 1999), Mercury (CSD, 2016)'
_computing_publication_material  'CRYSCALC (T. Roisnel, local program, 2018)'
_computing_structure_refinement  'SHELXL-2018_3 (Sheldrick, 2018)'
_computing_structure_solution    'SHELXT (Sheldrick, 2015)'
_diffrn_ambient_temperature      150(2)
_diffrn_detector                 '(CMOS) PHOTON 100'
_diffrn_measured_fraction_theta_full 0.982
_diffrn_measured_fraction_theta_max 0.984
_diffrn_measurement_device_type  'D8 VENTURE Bruker AXS'
_diffrn_measurement_method       'rotation images'
_diffrn_radiation_monochromator  'multilayer monochromator'
_diffrn_radiation_probe          x-ray
_diffrn_radiation_source         'Incoatec microfocus sealed tube'
_diffrn_radiation_type           MoK\a
_diffrn_radiation_wavelength     0.71073
_diffrn_reflns_av_R_equivalents  0.0330
_diffrn_reflns_av_unetI/netI     0.0290
_diffrn_reflns_limit_h_max       9
_diffrn_reflns_limit_h_min       -9
_diffrn_reflns_limit_k_max       11
_diffrn_reflns_limit_k_min       -11
_diffrn_reflns_limit_l_max       13
_diffrn_reflns_limit_l_min       -15
_diffrn_reflns_number            14675
_diffrn_reflns_theta_full        25.242
_diffrn_reflns_theta_max         27.484
_diffrn_reflns_theta_min         3.135
_exptl_absorpt_coefficient_mu    1.704
_exptl_absorpt_correction_T_max  0.570
_exptl_absorpt_correction_T_min  0.447
_exptl_absorpt_correction_type   multi-scan
_exptl_absorpt_process_details
;
  [Sheldrick, G.M. (2014). SADABS Bruker AXS Inc., Madison, Wisconsin, USA]
;
_exptl_crystal_colour            blue
_exptl_crystal_density_diffrn    1.584
_exptl_crystal_description       prism
_exptl_crystal_F_000             350
_exptl_crystal_size_max          0.570
_exptl_crystal_size_mid          0.480
_exptl_crystal_size_min          0.330
_refine_diff_density_max         0.826
_refine_diff_density_min         -0.496
_refine_diff_density_rms         0.094
_refine_ls_extinction_method     none
_refine_ls_goodness_of_fit_ref   1.113
_refine_ls_hydrogen_treatment    constr
_refine_ls_matrix_type           full
_refine_ls_number_parameters     156
_refine_ls_number_reflns         3215
_refine_ls_number_restraints     0
_refine_ls_restrained_S_all      1.113
_refine_ls_R_factor_all          0.0364
_refine_ls_R_factor_gt           0.0336
_refine_ls_shift/su_max          0.000
_refine_ls_shift/su_mean         0.000
_refine_ls_structure_factor_coef Fsqd
_refine_ls_weighting_details
'w=1/[\s^2^(Fo^2^)+2.4136P] where P=(Fo^2^+2Fc^2^)/3'
_refine_ls_weighting_scheme      calc
_refine_ls_wR_factor_gt          0.0838
_refine_ls_wR_factor_ref         0.0852
_reflns_Friedel_coverage         0.000
_reflns_number_gt                3005
_reflns_number_total             3215
_reflns_threshold_expression     >2sigma(I)
_cod_data_source_file            c8cy02218f2.cif
_cod_data_source_block           PP030
_cod_database_code               1550280
_shelx_res_file
;
TITL import_a.res in P-1
    job.res
    created by SHELXL-2018/3 at 10:37:53 on 20-Mar-2018
REM Old TITL PP030
REM SHELXT solution in P-1: R1 0.067, Rweak 0.009, Alpha 0.033
REM <I/s>   0.000 for    0 systematic absences,  Orientation as input
REM Formula found by SHELXT:  C11 Cl2 Co N2 S

CELL  0.71073   7.0681   9.0140  12.2372  108.210   98.899   99.291
ZERR    2.000   0.0009   0.0012   0.0015    0.004    0.004    0.005
LATT   1
SFAC  C    H    CL   CO   N    S
UNIT  22   36   4    2    4    2
MERG   2
FMAP   2
PLAN   20
SIZE     0.33   0.48   0.57
ACTA
BOND   $H
CONF
LIST   4
WPDB  -2
L.S.   4
TEMP  -123.00
WGHT    0.000000    2.413600
FVAR       0.95762
N1    5    0.273881    0.192477    0.195887    11.00000    0.01151    0.01127 =
         0.01509    0.00453    0.00287    0.00517
C2    1    0.276409    0.038048    0.143291    11.00000    0.01478    0.01312 =
         0.01783    0.00437    0.00372    0.00589
AFIX  43
H2    2    0.394932    0.012683    0.123533    11.00000   -1.20000
AFIX   0
C3    1    0.114359   -0.085227    0.116752    11.00000    0.02019    0.01011 =
         0.01706    0.00312    0.00197    0.00374
AFIX  43
H3    2    0.121244   -0.193354    0.080057    11.00000   -1.20000
AFIX   0
C4    1   -0.059341   -0.047732    0.144900    11.00000    0.01630    0.01501 =
         0.02049    0.00644    0.00332    0.00010
AFIX  43
H4    2   -0.173723   -0.130037    0.127154    11.00000   -1.20000
AFIX   0
C5    1   -0.063541    0.111897    0.199402    11.00000    0.01370    0.01556 =
         0.02097    0.00680    0.00618    0.00334
AFIX  43
H5    2   -0.180568    0.140291    0.219550    11.00000   -1.20000
AFIX   0
C6    1    0.105982    0.228640    0.223746    11.00000    0.01242    0.01236 =
         0.01046    0.00516    0.00315    0.00324
C7    1    0.118057    0.406019    0.281516    11.00000    0.01382    0.01236 =
         0.01487    0.00474    0.00715    0.00358
AFIX  23
H7A   2   -0.013279    0.429451    0.264690    11.00000   -1.20000
H7B   2    0.162878    0.438062    0.368026    11.00000   -1.20000
AFIX   0
N8    5    0.258546    0.497363    0.234506    11.00000    0.01063    0.01032 =
         0.01140    0.00532    0.00356    0.00195
C9    1    0.169750    0.471085    0.109948    11.00000    0.01437    0.01700 =
         0.01160    0.00492   -0.00227    0.00155
AFIX 137
H9A   2    0.143970    0.356755    0.063344    11.00000   -1.50000
H9B   2    0.260572    0.532012    0.078257    11.00000   -1.50000
H9C   2    0.046088    0.507140    0.106015    11.00000   -1.50000
AFIX   0
C10   1    0.306677    0.671824    0.304814    11.00000    0.01575    0.00852 =
         0.01173    0.00157    0.00237    0.00406
AFIX  23
H10A  2    0.334422    0.687126    0.389907    11.00000   -1.20000
H10B  2    0.192483    0.718092    0.287728    11.00000   -1.20000
AFIX   0
C11   1    0.484452    0.758388    0.275435    11.00000    0.01912    0.01179 =
         0.01415    0.00518    0.00105    0.00266
AFIX  23
H11A  2    0.511705    0.874125    0.322058    11.00000   -1.20000
H11B  2    0.453932    0.746139    0.190927    11.00000   -1.20000
AFIX   0
C12   1    0.762090    0.751239    0.466825    11.00000    0.01803    0.02017 =
         0.01619    0.00444   -0.00123    0.00363
AFIX  23
H12A  2    0.666636    0.684525    0.493294    11.00000   -1.20000
H12B  2    0.894103    0.734620    0.493322    11.00000   -1.20000
AFIX   0
C13   1    0.760098    0.925800    0.525637    11.00000    0.03355    0.02390 =
         0.01914   -0.00085   -0.00447    0.00859
AFIX 137
H13A  2    0.819613    0.989482    0.482757    11.00000   -1.50000
H13B  2    0.835171    0.964103    0.607292    11.00000   -1.50000
H13C  2    0.624222    0.936699    0.524896    11.00000   -1.50000
AFIX   0
CL1   3    0.598303    0.311743    0.062492    11.00000    0.02108    0.02187 =
         0.01365    0.00560    0.00948    0.00702
CL2   3    0.669468    0.340870    0.394461    11.00000    0.01962    0.02205 =
         0.01153    0.00715    0.00289    0.00646
CO1   4    0.506534    0.392545    0.238438    11.00000    0.00920    0.01239 =
         0.00995    0.00369    0.00325    0.00391
S1    6    0.702364    0.682543    0.305955    11.00000    0.01370    0.01502 =
         0.01615    0.00478    0.00476    0.00155
HKLF    4




REM  import_a.res in P-1
REM wR2 = 0.0852, GooF = S = 1.113, Restrained GooF = 1.113 for all data
REM R1 = 0.0336 for 3005 Fo > 4sig(Fo) and 0.0364 for all 3215 data
REM 156 parameters refined using 0 restraints

END

WGHT      0.0071      1.9194

REM Highest difference peak  0.826,  deepest hole -0.496,  1-sigma level  0.094
Q1    1   0.4403  0.2314  0.2008  11.00000  0.05    0.83
Q2    1   0.5870  0.5533  0.2757  11.00000  0.05    0.80
Q3    1   0.4601  0.3435  0.1607  11.00000  0.05    0.62
Q4    1   0.7357  0.3955  0.4721  11.00000  0.05    0.55
Q5    1   0.7450  0.4958  0.4376  11.00000  0.05    0.53
Q6    1   0.5658  0.4336  0.3193  11.00000  0.05    0.52
Q7    1   0.5233  0.5177  0.1967  11.00000  0.05    0.47
Q8    1   0.6735  0.5757  0.3581  11.00000  0.05    0.45
Q9    1   0.5910  0.1930  0.3445  11.00000  0.05    0.43
Q10   1   0.4997  0.2765  0.2830  11.00000  0.05    0.42
Q11   1   0.7412  0.7190  0.3882  11.00000  0.05    0.41
Q12   1   0.6400  0.3605  0.1447  11.00000  0.05    0.39
Q13   1   0.5327  0.1580  0.0193  11.00000  0.05    0.38
Q14   1   0.1873  0.5218  0.3581  11.00000  0.05    0.38
Q15   1   0.6074  0.2064  0.0947  11.00000  0.05    0.35
Q16   1   0.7669  0.5734  0.5173  11.00000  0.05    0.35
Q17   1   0.1143  0.3114  0.2547  11.00000  0.05    0.34
Q18   1   0.0492  0.1788  0.2394  11.00000  0.05    0.34
Q19   1   0.6991  0.5950  0.4423  11.00000  0.05    0.34
Q20   1   0.1818  0.4413  0.4819  11.00000  0.05    0.34
;
_shelx_res_checksum              69635
_shelx_hkl_file
;
  -2   0   0  242.27   10.84   0
  -2   0   0  220.14   10.88   0
  -2   0   0  243.02   10.88   0
   2   0   0  228.16   10.76   0
   2   0   0  213.75   10.74   0
   2   0   0  215.44   10.84   0
  -3   0   0   55.19    3.98   0
  -3   0   0   45.86    4.04   0
  -3   0   0   50.10    3.88   0
   3   0   0   46.59    3.81   0
   3   0   0   61.41    4.89   0
   3   0   0   41.24    3.90   0
   3   0   0   48.39    3.72   0
  -4   0   0  924.58   41.11   0
  -4   0   0  935.97   41.12   0
  -4   0   0  913.21   41.34   0
   4   0   0  892.02   41.11   0
   4   0   0  879.89   40.93   0
  -5   0   0 3165.86  132.72   0
  -5   0   0 3020.24  132.95   0
  -5   0   0 3055.23  132.64   0
   5   0   0 3065.00  134.24   0
   5   0   0 3065.43  132.67   0
   5   0   0 2945.04  132.52   0
   5   0   0 2965.31  132.44   0
  -6   0   0  255.82   15.08   0
  -6   0   0  260.81   15.44   0
  -6   0   0  261.85   15.10   0
   6   0   0  276.13   17.09   0
   6   0   0  277.40   15.30   0
   6   0   0  251.70   15.07   0
   6   0   0  264.46   14.91   0
  -7   0   0   58.94    8.61   0
  -7   0   0   72.34    9.16   0
  -7   0   0   73.78    8.28   0
   7   0   0   70.35    7.92   0
   7   0   0   76.26    8.81   0
   7   0   0   67.65   10.28   0
   7   0   0   62.15    8.51   0
  -8   0   0  129.21   12.07   0
  -8   0   0  131.95   13.04   0
  -8   0   0  107.68   12.38   0
   8   0   0  118.88   11.64   0
   8   0   0  138.87   12.40   0
   8   0   0  126.31   12.39   0
   8   0   0  119.89   14.43   0
   8  -1   0    4.51    5.76   0
   8  -1   0    6.96    5.51   0
   8  -1   0   -3.07    4.52   0
   8  -1   0   10.14    6.10   0
  -8   1   0    1.28    5.03   0
  -8   1   0    3.76    4.40   0
  -8   1   0    3.14    5.09   0
   7  -1   0    1.82    4.68   0
   7  -1   0    3.92    3.56   0
   7  -1   0    1.99    4.00   0
   7  -1   0    7.92    4.04   0
  -7   1   0    4.19    4.16   0
  -7   1   0    9.26    4.27   0
  -7   1   0    8.30    4.55   0
   6  -1   0 2052.31   88.51   0
   6  -1   0 1909.64   88.23   0
   6  -1   0 1848.94   88.12   0
  -6   1   0 2004.53   88.24   0
  -6   1   0 2122.54   88.74   0
   5  -1   0 1180.84   53.43   0
   5  -1   0 1181.90   53.45   0
   5  -1   0 1149.43   53.39   0
  -5   1   0 1157.53   53.25   0
  -5   1   0 1144.50   53.65   0
  -5   1   0 1294.17   53.77   0
   4  -1   0    5.46    2.07   0
   4  -1   0    8.79    2.30   0
  -4   1   0    3.13    1.64   0
  -4   1   0    6.53    2.09   0
   3  -1   0  875.41   39.77   0
   3  -1   0  902.41   39.81   0
   3  -1   0  870.10   39.71   0
  -3   1   0  873.16   39.64   0
  -3   1   0  867.66   39.87   0
  -3   1   0  967.30   39.96   0
   2  -1   0 1087.28   49.68   0
   2  -1   0 1160.15   49.81   0
   2  -1   0 1134.47   49.69   0
  -2   1   0 1259.95   49.91   0
  -2   1   0 1083.61   49.74   0
  -2   1   0 1110.43   49.61   0
   1  -1   0 5712.13  241.52   0
  -1   1   0 5374.78  241.21   0
   1   1   0 2864.95  122.97   0
  -2  -1   0 2624.98  109.69   0
  -2  -1   0 2438.44  110.34   0
  -2  -1   0 2414.05  109.59   0
  -2  -1   0 2624.27  109.56   0
   2   1   0 2545.47  109.66   0
   2   1   0 2565.88  110.34   0
   2   1   0 2514.10  109.60   0
   2   1   0 2588.11  109.53   0
  -3  -1   0 2886.80  124.68   0
  -3  -1   0 2839.87  124.59   0
  -3  -1   0 2930.76  124.50   0
   3   1   0 2978.74  124.49   0
   3   1   0 2811.18  124.59   0
   3   1   0 2850.74  125.57   0
   3   1   0 2842.92  124.55   0
  -4  -1   0  779.58   36.28   0
  -4  -1   0  818.32   36.70   0
  -4  -1   0  811.21   36.57   0
   4   1   0  761.20   36.18   0
   4   1   0  777.44   37.68   0
   4   1   0  795.56   36.46   0
   4   1   0  834.50   36.66   0
  -5  -1   0  139.57    9.20   0
  -5  -1   0  134.47    9.27   0
  -5  -1   0  135.47    9.47   0
   5   1   0  130.84    9.24   0
   5   1   0  146.27    9.04   0
   5   1   0  146.86   10.78   0
   5   1   0  134.57    9.46   0
  -6  -1   0  226.02   13.78   0
  -6  -1   0  217.64   13.76   0
  -6  -1   0  230.44   14.02   0
   6   1   0  241.49   13.58   0
   6   1   0  223.07   13.64   0
   6   1   0  194.77   13.39   0
   6   1   0  227.83   15.61   0
  -7  -1   0  187.62   14.40   0
  -7  -1   0  220.26   14.37   0
   7   1   0  199.38   13.92   0
   7   1   0  213.83   14.02   0
   7   1   0  189.91   15.80   0
   7   1   0  198.06   13.30   0
  -8  -1   0  263.17   19.26   0
  -8  -1   0  290.56   19.04   0
  -8  -1   0  256.96   18.29   0
   8   1   0  270.26   20.92   0
   8   1   0  253.63   18.03   0
   8   1   0  264.56   17.45   0
   8   1   0  296.35   18.79   0
   9  -2   0    6.59    6.52   0
   9  -2   0   -6.84    5.49   0
   9  -2   0   -1.84    7.06   0
   9  -2   0    7.78    6.94   0
  -9   2   0   -3.25    6.90   0
  -9   2   0    6.27    7.34   0
   8  -2   0   -2.57    4.30   0
   8  -2   0    2.03    5.42   0
   8  -2   0    3.33    4.69   0
   8  -2   0    2.51    5.72   0
  -8   2   0    1.20    5.43   0
  -8   2   0    1.23    5.42   0
  -8   2   0    3.36    4.55   0
   7  -2   0   15.51    5.37   0
   7  -2   0   14.10    4.49   0
   7  -2   0   26.66    5.33   0
   7  -2   0   19.28    4.85   0
  -7   2   0   17.36    5.22   0
  -7   2   0   26.37    5.20   0
  -7   2   0   27.05    5.57   0
   6  -2   0   88.01    9.26   0
   6  -2   0   78.72    7.46   0
   6  -2   0   61.30    6.90   0
   6  -2   0   65.02    7.04   0
  -6   2   0   69.86    6.83   0
  -6   2   0   55.07    7.34   0
  -6   2   0   80.93    7.62   0
   5  -2   0   39.83    5.09   0
   5  -2   0   43.05    5.24   0
  -5   2   0   43.24    5.47   0
  -5   2   0   45.31    5.76   0
  -5   2   0   48.26    4.97   0
   4  -2   0   98.10    6.48   0
   4  -2   0   85.01    6.29   0
   4  -2   0   86.81    6.22   0
  -4   2   0   94.13    6.54   0
  -4   2   0   91.22    6.09   0
  -4   2   0   91.11    6.57   0
   3  -2   0  715.64   32.63   0
   3  -2   0  763.17   32.95   0
   3  -2   0  718.78   32.64   0
  -3   2   0  771.50   32.96   0
  -3   2   0  696.78   32.46   0
  -3   2   0  683.09   32.71   0
   2  -2   0 1889.80   81.61   0
   2  -2   0 1820.27   81.80   0
  -2   2   0 1834.61   81.46   0
  -2   2   0 1964.64   81.90   0
  -2   2   0 1917.78   81.77   0
   1  -2   0 4283.72  188.27   0
  -1   2   0 4134.03  187.41   0
   0  -2   0  759.56   34.17   0
   0  -2   0  791.73   34.10   0
   0  -2   0  717.38   33.91   0
   0   2   0  791.53   34.20   0
   0   2   0  822.27   34.10   0
  -1  -2   0   98.17    5.57   0
  -1  -2   0  103.76    5.82   0
  -1  -2   0  103.40    6.22   0
   1   2   0  109.97    5.69   0
   1   2   0   98.83    5.89   0
   1   2   0  100.27    5.62   0
  -2  -2   0 3052.24  138.03   0
  -2  -2   0 3093.25  136.96   0
  -2  -2   0 3243.92  137.18   0
  -2  -2   0 3184.62  136.93   0
   2   2   0 3129.65  136.91   0
   2   2   0 3265.94  137.73   0
   2   2   0 3243.66  137.01   0
  -3  -2   0  739.57   33.66   0
  -3  -2   0  738.51   33.71   0
  -3  -2   0  729.44   33.39   0
  -3  -2   0  691.90   34.82   0
   3   2   0  745.50   33.63   0
   3   2   0  769.70   34.63   0
   3   2   0  733.70   33.52   0
  -4  -2   0  296.83   15.67   0
  -4  -2   0  301.43   16.03   0
  -4  -2   0  315.38   16.13   0
   4   2   0  317.33   17.14   0
   4   2   0  303.27   15.84   0
   4   2   0  298.96   15.89   0
   4   2   0  307.51   15.63   0
  -5  -2   0   -3.65    2.55   0
  -5  -2   0    4.26    3.08   0
  -5  -2   0   -0.03    2.66   0
   5   2   0   -0.59    2.17   0
   5   2   0   -0.28    3.32   0
   5   2   0   -0.13    2.43   0
   5   2   0    3.13    3.52   0
  -6  -2   0   15.72    4.65   0
  -6  -2   0   20.01    4.75   0
  -6  -2   0   14.02    4.74   0
   6   2   0   16.51    5.15   0
   6   2   0   19.31    4.83   0
   6   2   0   14.40    3.88   0
   6   2   0   18.17    4.19   0
  -7  -2   0  192.24   14.45   0
  -7  -2   0  151.24   13.01   0
  -7  -2   0  152.18   12.88   0
   7   2   0  129.16   14.57   0
   7   2   0  145.38   12.33   0
   7   2   0  195.00   13.40   0
  -8  -2   0  128.27   14.21   0
  -8  -2   0  124.78   14.05   0
  -8  -2   0  131.52   15.51   0
   8   2   0  134.48   13.57   0
   8   2   0  117.18   13.46   0
   8   2   0  101.77   15.61   0
   9  -3   0   31.92    7.18   0
   9  -3   0   35.81    8.48   0
  -9   3   0   58.10   10.06   0
  -9   3   0   30.63    8.21   0
   8  -3   0    7.91    6.17   0
   8  -3   0   13.03    5.09   0
   8  -3   0   20.03    6.26   0
   8  -3   0   12.27    5.60   0
  -8   3   0   14.21    5.25   0
  -8   3   0   24.26    6.69   0
  -8   3   0    6.47    5.37   0
   7  -3   0   57.13    9.30   0
   7  -3   0   52.18    7.68   0
   7  -3   0   51.20    7.64   0
   7  -3   0   44.71    7.57   0
  -7   3   0   41.88    7.17   0
  -7   3   0   63.23    8.58   0
  -7   3   0   44.17    7.11   0
   6  -3   0  942.02   40.11   0
   6  -3   0  838.68   40.05   0
   6  -3   0  754.06   39.58   0
  -6   3   0  951.95   40.90   0
  -6   3   0  754.75   39.17   0
   5  -3   0  766.92   35.00   0
   5  -3   0  724.27   34.68   0
   5  -3   0  759.24   35.18   0
  -5   3   0  717.64   34.42   0
  -5   3   0  689.08   35.04   0
  -5   3   0  816.55   35.43   0
   4  -3   0  369.66   18.94   0
   4  -3   0  386.98   18.74   0
  -4   3   0  383.68   18.39   0
  -4   3   0  369.01   18.87   0
  -4   3   0  390.11   19.09   0
   3  -3   0 1083.02   50.88   0
   3  -3   0 1155.09   50.69   0
  -3   3   0 1136.62   50.40   0
  -3   3   0 1168.28   50.92   0
  -3   3   0 1173.51   51.03   0
   2  -3   0   15.39    2.12   0
   2  -3   0   11.13    2.03   0
   2  -3   0   12.66    2.01   0
  -2   3   0   14.10    2.35   0
  -2   3   0   11.88    2.03   0
   1  -3   0 3553.20  151.09   0
   1  -3   0 3410.31  150.86   0
   1  -3   0 3610.22  151.14   0
  -1   3   0 3587.72  151.11   0
  -1   3   0 3395.90  150.93   0
   0  -3   0 4976.32  213.87   0
  -1  -3   0 2615.84  114.83   0
  -1  -3   0 2599.82  115.61   0
  -1  -3   0 2617.04  115.01   0
   1   3   0 2737.20  115.32   0
   1   3   0 2688.00  114.84   0
   1   3   0 2666.66  114.87   0
  -2  -3   0   36.90    3.79   0
  -2  -3   0   38.99    3.99   0
  -2  -3   0   37.51    4.31   0
  -2  -3   0   40.02    5.19   0
   2   3   0   39.37    4.34   0
   2   3   0   41.46    4.13   0
   2   3   0   39.57    3.93   0
  -3  -3   0  510.78   24.73   0
  -3  -3   0  512.89   24.53   0
  -3  -3   0  500.52   24.89   0
  -3  -3   0  487.34   26.29   0
   3   3   0  530.11   24.75   0
   3   3   0  536.93   24.65   0
   3   3   0  545.50   25.66   0
  -4  -3   0   37.37    5.84   0
  -4  -3   0   38.14    5.03   0
  -4  -3   0   41.12    5.50   0
  -4  -3   0   41.56    7.78   0
   4   3   0   47.42    5.56   0
   4   3   0   50.84    6.31   0
   4   3   0   45.06    5.82   0
  -5  -3   0  246.36   14.45   0
  -5  -3   0  211.71   14.08   0
  -5  -3   0  236.30   13.86   0
   5   3   0  221.98   13.57   0
   5   3   0  228.87   14.14   0
   5   3   0  231.98   15.17   0
  -6  -3   0   47.37    7.21   0
  -6  -3   0   50.57    7.90   0
  -6  -3   0   46.93    7.87   0
   6   3   0   42.55    7.74   0
   6   3   0   47.33    8.47   0
   6   3   0   57.17    7.69   0
  -7  -3   0    3.02    5.96   0
  -7  -3   0   20.45    7.14   0
  -7  -3   0   15.03    6.15   0
   7   3   0    4.21    5.87   0
   7   3   0    2.70    5.31   0
   7   3   0   14.74    5.40   0
   8  -4   0   28.13    6.97   0
   8  -4   0   32.93    7.80   0
   8  -4   0   39.00    7.18   0
  -8   4   0   44.47    7.84   0
  -8   4   0   36.29    7.35   0
  -8   4   0   21.99    7.11   0
   7  -4   0  911.13   43.65   0
   7  -4   0  902.87   43.47   0
  -7   4   0 1013.17   44.14   0
  -7   4   0  860.54   42.40   0
  -7   4   0  838.17   43.77   0
   6  -4   0 1643.14   76.83   0
   6  -4   0 1758.71   76.83   0
  -6   4   0 1663.25   77.11   0
  -6   4   0 1831.00   77.24   0
  -6   4   0 1634.44   75.86   0
   5  -4   0 2473.95  107.39   0
   5  -4   0 2379.57  107.60   0
  -5   4   0 2372.39  106.69   0
  -5   4   0 2381.68  107.62   0
  -5   4   0 2594.88  107.88   0
   4  -4   0    8.22    3.05   0
   4  -4   0   12.37    2.77   0
   4  -4   0   13.66    3.05   0
  -4   4   0   10.58    2.53   0
  -4   4   0   11.27    2.98   0
   3  -4   0  250.56   12.42   0
   3  -4   0  246.87   12.43   0
   3  -4   0  239.73   12.84   0
  -3   4   0  256.07   12.20   0
  -3   4   0  197.46   12.32   0
   2  -4   0  579.93   27.72   0
   2  -4   0  591.70   27.42   0
   2  -4   0  607.29   27.26   0
   2  -4   0  612.51   27.41   0
  -2   4   0  602.15   27.21   0
   1  -4   0  216.52   11.20   0
   1  -4   0  226.42   11.57   0
   1  -4   0  238.49   11.67   0
  -1   4   0  235.65   11.65   0
  -1   4   0  213.12   11.39   0
  -1   4   0  233.25   11.62   0
   0  -4   0  732.93   32.81   0
   0  -4   0  710.97   33.02   0
   0  -4   0  721.36   33.31   0
   0   4   0  736.81   33.28   0
   0   4   0  734.87   33.00   0
   0   4   0  734.33   33.11   0
  -1  -4   0 1862.62   86.65   0
  -1  -4   0 1939.09   87.44   0
   1   4   0 2020.09   86.62   0
   1   4   0 2067.78   87.08   0
   1   4   0 2004.52   86.50   0
  -2  -4   0 1468.20   66.58   0
  -2  -4   0 1441.08   68.10   0
  -2  -4   0 1506.05   67.02   0
   2   4   0 1480.01   66.43   0
   2   4   0 1586.69   67.36   0
   2   4   0 1534.84   66.64   0
  -3  -4   0  992.35   45.61   0
  -3  -4   0  978.21   45.07   0
  -3  -4   0  975.81   45.20   0
  -3  -4   0  916.49   47.06   0
   3   4   0  983.05   45.09   0
   3   4   0 1061.06   46.18   0
   3   4   0 1007.37   45.01   0
  -4  -4   0  233.73   14.48   0
  -4  -4   0  239.27   16.87   0
  -4  -4   0  238.23   14.17   0
  -4  -4   0  234.25   13.74   0
   4   4   0  244.29   13.77   0
   4   4   0  238.18   14.04   0
   4   4   0  233.25   14.72   0
  -5  -4   0   77.94    9.33   0
  -5  -4   0   89.41   13.03   0
  -5  -4   0   98.66    8.85   0
  -5  -4   0   85.28    9.70   0
   5   4   0   89.71    8.60   0
   5   4   0   82.75    9.73   0
   5   4   0   86.37    9.21   0
  -6  -4   0  197.73   15.70   0
  -6  -4   0  251.97   16.53   0
  -6  -4   0  226.20   15.63   0
   6   4   0  223.70   15.75   0
   6   4   0  219.35   15.21   0
   6   4   0  212.63   16.50   0
  -7  -4   0   21.75    7.95   0
  -7  -4   0    6.78    6.62   0
  -7  -4   0   20.08    7.28   0
   7   4   0   19.57    6.10   0
   7   4   0   19.10    7.11   0
   7   4   0   16.82    7.44   0
   8  -5   0  310.00   20.30   0
   8  -5   0  309.59   19.95   0
   8  -5   0  288.67   18.94   0
  -8   5   0  297.56   21.17   0
  -8   5   0  295.22   18.22   0
   7  -5   0  468.92   24.81   0
   7  -5   0  450.02   25.32   0
   7  -5   0  492.25   25.71   0
  -7   5   0  430.71   25.90   0
  -7   5   0  501.62   24.53   0
   6  -5   0 1008.82   45.59   0
   6  -5   0 1002.77   46.06   0
   6  -5   0  956.72   46.24   0
  -6   5   0  961.53   45.04   0
  -6   5   0  950.61   46.32   0
   5  -5   0  949.42   42.82   0
   5  -5   0  899.89   43.41   0
   5  -5   0  940.46   43.09   0
  -5   5   0  930.03   42.36   0
  -5   5   0  901.40   43.37   0
   4  -5   0 1516.75   68.96   0
   4  -5   0 1626.46   68.61   0
   4  -5   0 1498.19   68.25   0
  -4   5   0 1519.57   68.78   0
  -4   5   0 1519.89   67.95   0
   3  -5   0 1953.44   82.92   0
   3  -5   0 1832.56   83.40   0
   3  -5   0 1822.36   82.76   0
   3  -5   0 1865.23   82.92   0
  -3   5   0 1853.92   82.57   0
  -3   5   0 1990.82   83.38   0
   2  -5   0 1338.03   59.92   0
   2  -5   0 1322.93   59.87   0
   2  -5   0 1399.25   59.71   0
  -2   5   0 1337.69   59.72   0
  -2   5   0 1356.02   60.02   0
   1  -5   0  243.28   12.84   0
   1  -5   0  251.25   12.38   0
   1  -5   0  249.25   12.79   0
  -1   5   0  201.68   12.45   0
  -1   5   0  253.14   12.88   0
  -1   5   0  254.67   12.82   0
   0  -5   0   90.85    7.01   0
   0  -5   0   95.86    6.50   0
   0  -5   0   89.74    6.80   0
   0   5   0   98.41    7.02   0
   0   5   0  100.57    7.02   0
   0   5   0  106.27    7.00   0
  -1  -5   0 1625.91   73.59   0
  -1  -5   0 1588.69   73.99   0
  -1  -5   0 1601.76   74.81   0
   1   5   0 1781.11   74.49   0
   1   5   0 1705.07   73.76   0
   1   5   0 1704.67   73.93   0
  -2  -5   0 1829.19   85.18   0
  -2  -5   0 1820.95   83.79   0
  -2  -5   0 1930.36   83.47   0
   2   5   0 1860.62   83.40   0
   2   5   0 1954.86   84.12   0
   2   5   0 1910.87   83.27   0
  -3  -5   0 1852.82   89.24   0
  -3  -5   0 1940.75   87.47   0
  -3  -5   0 1935.61   86.88   0
  -3  -5   0 1953.35   86.98   0
   3   5   0 2048.44   87.82   0
   3   5   0 2037.88   87.01   0
   3   5   0 1919.49   86.53   0
  -4  -5   0  260.64   19.51   0
  -4  -5   0  275.33   17.10   0
  -4  -5   0  282.70   16.58   0
  -4  -5   0  296.81   16.27   0
   4   5   0  238.59   16.21   0
   4   5   0  302.77   16.35   0
   4   5   0  295.55   17.44   0
  -5  -5   0  195.47   13.78   0
  -5  -5   0  214.23   19.07   0
  -5  -5   0  187.27   15.18   0
  -5  -5   0  200.46   14.57   0
   5   5   0  207.76   14.02   0
   5   5   0  212.51   15.33   0
   5   5   0  199.32   14.50   0
  -6  -5   0  116.67   13.32   0
  -6  -5   0  122.55   13.25   0
  -6  -5   0  127.00   13.92   0
   6   5   0  141.98   14.73   0
   6   5   0  126.39   13.63   0
   6   5   0  104.05   12.81   0
   8  -6   0  184.06   15.78   0
   8  -6   0  196.68   16.19   0
   8  -6   0  164.80   16.14   0
  -8   6   0  185.83   15.43   0
  -8   6   0  181.86   17.94   0
   7  -6   0    4.63    5.46   0
   7  -6   0    7.15    6.18   0
   7  -6   0    0.65    5.06   0
  -7   6   0    1.83    6.12   0
   6  -6   0   53.41    8.74   0
   6  -6   0   63.39    8.89   0
   6  -6   0   61.30    8.86   0
  -6   6   0   61.77    8.00   0
  -6   6   0   73.58    8.33   0
   5  -6   0  342.68   18.57   0
   5  -6   0  322.35   18.08   0
  -5   6   0  344.76   19.13   0
  -5   6   0  328.61   17.60   0
   4  -6   0  337.30   16.51   0
   4  -6   0  282.87   15.82   0
   4  -6   0  288.92   16.85   0
   4  -6   0  301.15   16.34   0
  -4   6   0  293.58   15.81   0
  -4   6   0  292.58   16.70   0
   3  -6   0 4039.58  177.65   0
   3  -6   0 4198.21  177.60   0
   3  -6   0 4049.02  178.26   0
   3  -6   0 3909.15  177.48   0
  -3   6   0 4073.02  177.42   0
  -3   6   0 4322.63  178.19   0
   2  -6   0 1533.10   70.63   0
   2  -6   0 1587.84   70.77   0
   2  -6   0 1624.00   70.38   0
  -2   6   0 1630.86   70.87   0
  -2   6   0 1584.09   70.62   0
   1  -6   0    1.65    2.18   0
   1  -6   0    1.24    2.31   0
   1  -6   0    3.62    2.45   0
  -1   6   0   -1.01    2.35   0
  -1   6   0   -0.03    2.49   0
  -1   6   0    4.39    2.46   0
   0  -6   0   86.32    7.84   0
   0  -6   0   81.06    7.59   0
   0  -6   0   83.62    6.73   0
   0   6   0   95.58    7.64   0
   0   6   0   88.81    7.42   0
  -1  -6   0  139.29    9.63   0
  -1  -6   0  149.30   11.18   0
  -1  -6   0  132.79   10.55   0
   1   6   0  146.07    9.94   0
   1   6   0  173.39   10.55   0
   1   6   0  151.22   10.46   0
  -2  -6   0 1567.13   70.46   0
  -2  -6   0 1509.11   72.65   0
  -2  -6   0 1477.90   71.02   0
   2   6   0 1611.91   70.42   0
   2   6   0 1669.92   71.50   0
   2   6   0 1588.92   70.72   0
  -3  -6   0  891.78   40.93   0
  -3  -6   0  858.17   44.00   0
  -3  -6   0  878.69   41.75   0
  -3  -6   0  919.50   41.18   0
   3   6   0  918.84   41.83   0
   3   6   0  821.81   40.34   0
   3   6   0  732.14   40.48   0
  -4  -6   0  155.95   12.05   0
  -4  -6   0  164.93   13.04   0
  -4  -6   0  149.81   13.66   0
  -4  -6   0  143.42   16.33   0
   4   6   0  183.77   13.56   0
   4   6   0  167.99   13.21   0
   4   6   0  163.83   12.49   0
  -6  -6   0   79.53   13.78   0
  -6  -6   0   92.65   13.03   0
  -6  -6   0   99.67   15.57   0
   6   6   0   67.52   11.29   0
   6   6   0   76.97   12.81   0
   6   6   0   91.95   14.48   0
   8  -7   0   -4.78    8.30   0
   8  -7   0    2.25    7.71   0
   8  -7   0   13.83    8.37   0
  -8   7   0  -10.11    9.22   0
  -8   7   0    0.67    7.82   0
   7  -7   0  324.46   20.21   0
   7  -7   0  312.04   20.31   0
   7  -7   0  314.65   20.50   0
  -7   7   0  316.69   21.52   0
  -7   7   0  294.88   18.82   0
   6  -7   0  383.33   23.71   0
   6  -7   0  408.16   23.40   0
  -6   7   0  373.71   23.67   0
  -6   7   0  500.29   22.88   0
   5  -7   0  928.88   42.39   0
   5  -7   0  905.39   43.31   0
   5  -7   0  910.94   42.48   0
   5  -7   0  822.63   41.58   0
  -5   7   0  877.59   41.69   0
  -5   7   0  900.34   43.09   0
   4  -7   0   17.09    4.99   0
   4  -7   0   16.68    4.10   0
  -4   7   0   26.84    5.18   0
  -4   7   0    6.68    4.40   0
   3  -7   0  317.07   17.07   0
   3  -7   0  309.40   16.49   0
   3  -7   0  257.90   15.91   0
   3  -7   0  301.66   17.16   0
  -3   7   0  318.92   16.69   0
   2  -7   0  492.88   24.68   0
   2  -7   0  506.77   24.05   0
   2  -7   0  494.33   24.54   0
  -2   7   0  498.06   24.76   0
  -2   7   0  465.01   24.46   0
   1  -7   0    1.06    2.80   0
   1  -7   0   -0.63    3.04   0
   1  -7   0   -1.07    2.87   0
  -1   7   0    0.03    3.26   0
  -1   7   0    3.74    3.51   0
  -1   7   0    1.31    2.86   0
   0  -7   0  279.50   16.76   0
   0  -7   0  261.27   16.29   0
   0  -7   0  277.49   15.28   0
   0   7   0  293.19   16.08   0
   0   7   0  286.04   16.13   0
   0   7   0  276.42   16.05   0
  -1  -7   0   25.00    6.11   0
  -1  -7   0   30.29    5.19   0
  -1  -7   0   29.89    6.25   0
   1   7   0   21.94    4.99   0
   1   7   0   28.05    5.47   0
   1   7   0   27.26    5.50   0
  -2  -7   0    2.04    4.37   0
  -2  -7   0   -3.01    5.08   0
  -2  -7   0   -2.15    5.05   0
   2   7   0    7.69    5.16   0
   2   7   0   -1.43    3.87   0
   2   7   0    2.00    3.35   0
  -3  -7   0   26.23    5.86   0
  -3  -7   0   32.41    8.77   0
  -3  -7   0   43.64    7.83   0
  -3  -7   0   32.95    7.42   0
   3   7   0   27.64    6.04   0
   3   7   0   38.68    6.02   0
   3   7   0   29.85    6.36   0
  -4  -7   0   99.86   11.50   0
  -4  -7   0  115.86   12.66   0
  -4  -7   0   92.69   16.28   0
  -4  -7   0   96.38   13.56   0
   4   7   0  107.70   12.57   0
   4   7   0  110.51   11.94   0
  -5  -7   0    4.52    7.61   0
  -5  -7   0    4.36    7.15   0
  -5  -7   0    0.38    8.51   0
  -5  -7   0    4.62   12.08   0
   5   7   0   10.12    6.77   0
   5   7   0    6.63    7.41   0
   5   7   0    6.85    8.46   0
   7  -8   0  368.23   24.62   0
   7  -8   0  409.99   24.70   0
   7  -8   0  403.29   24.45   0
   7  -8   0  399.51   22.93   0
  -7   8   0  367.57   25.37   0
  -7   8   0  394.87   23.62   0
   6  -8   0  207.61   15.41   0
   6  -8   0  157.36   15.32   0
   6  -8   0  153.77   14.90   0
   6  -8   0  173.80   13.12   0
  -6   8   0  174.83   15.77   0
  -6   8   0  192.72   14.42   0
   5  -8   0  292.53   17.24   0
   5  -8   0  284.02   17.96   0
   5  -8   0  302.78   19.19   0
  -5   8   0  275.89   18.80   0
   4  -8   0 1349.67   60.89   0
   4  -8   0 1296.60   60.55   0
   4  -8   0 1241.56   61.34   0
   4  -8   0 1357.76   61.19   0
  -4   8   0 1363.65   60.81   0
  -4   8   0 1344.98   61.54   0
   3  -8   0  817.40   39.68   0
   3  -8   0  799.34   40.29   0
   3  -8   0  822.88   39.48   0
   3  -8   0  870.63   40.22   0
  -3   8   0  867.40   40.02   0
   2  -8   0  357.58   20.05   0
   2  -8   0  386.30   21.37   0
   2  -8   0  385.25   21.06   0
  -2   8   0  446.81   21.80   0
  -2   8   0  369.51   21.12   0
   1  -8   0   46.17    6.80   0
   1  -8   0   46.88    7.89   0
   1  -8   0   47.86    8.30   0
  -1   8   0   35.32    5.75   0
   0  -8   0   51.97    9.09   0
   0  -8   0   58.51    7.45   0
   0  -8   0   56.21    9.71   0
   0   8   0   55.16    8.72   0
   0   8   0   65.96    8.39   0
   0   8   0   61.15    9.05   0
  -1  -8   0   81.94   11.60   0
  -1  -8   0   85.56   11.84   0
  -1  -8   0   87.75    9.18   0
   1   8   0   85.09   10.03   0
   1   8   0   94.75   10.27   0
   1   8   0   80.22   10.26   0
  -2  -8   0  675.59   32.31   0
  -2  -8   0  546.10   32.92   0
  -2  -8   0  535.81   29.59   0
   2   8   0  573.63   29.36   0
   2   8   0  581.09   30.49   0
   2   8   0  556.16   30.31   0
  -3  -8   0  799.41   42.89   0
  -3  -8   0  787.80   38.44   0
  -3  -8   0  746.75   38.26   0
  -3  -8   0  735.52   39.56   0
   3   8   0  755.59   37.64   0
   3   8   0  753.98   39.05   0
  -4  -8   0  -10.10    6.40   0
  -4  -8   0    1.79   10.58   0
  -4  -8   0    3.58    8.71   0
  -4  -8   0   -7.05    6.87   0
   4   8   0    3.21    6.94   0
   4   8   0    1.68    8.55   0
   4   8   0   -3.94    5.96   0
   6  -9   0   25.49    8.96   0
   6  -9   0   19.35    7.65   0
   6  -9   0   21.66    6.46   0
   6  -9   0   37.60    8.02   0
  -6   9   0   24.35    7.92   0
  -6   9   0   34.30    9.45   0
   5  -9   0   40.78    8.62   0
   5  -9   0   36.29    7.97   0
   5  -9   0   61.40    9.36   0
  -5   9   0   42.01    8.78   0
  -5   9   0   53.18    8.49   0
   4  -9   0 1612.62   72.60   0
   4  -9   0 1459.30   73.15   0
   4  -9   0 1535.53   72.22   0
   4  -9   0 1623.25   73.11   0
  -4   9   0 1761.48   73.19   0
  -4   9   0 1536.53   73.25   0
   3  -9   0 2133.52   89.03   0
   3  -9   0 1903.47   88.12   0
   3  -9   0 1964.40   87.86   0
   3  -9   0 1850.00   88.58   0
  -3   9   0 1943.77   88.46   0
   2  -9   0  386.29   21.37   0
   2  -9   0  335.92   20.74   0
   2  -9   0  321.67   19.40   0
  -2   9   0  340.64   20.92   0
  -2   9   0  378.50   21.40   0
   1  -9   0   55.90    8.47   0
   1  -9   0   33.76    5.84   0
  -1   9   0   40.41    7.03   0
  -1   9   0   56.48    7.61   0
  -1  -9   0   72.30   10.41   0
  -1  -9   0   96.41   13.62   0
   1   9   0   99.64   11.70   0
   1   9   0   88.95   12.69   0
  -2  -9   0  393.25   23.03   0
  -2  -9   0  396.54   26.18   0
  -2  -9   0  396.97   27.53   0
   2   9   0  384.55   23.47   0
   2   9   0  407.32   24.56   0
   2   9   0  384.78   24.10   0
  -3  -9   0  127.62   16.14   0
  -3  -9   0  158.37   22.00   0
  -3  -9   0   95.60   17.60   0
   3   9   0  137.43   14.39   0
   3   9   0  104.00   13.17   0
   3   9   0  118.29   15.56   0
   5 -10   0   47.18    9.29   0
   5 -10   0   37.13    9.81   0
   5 -10   0   65.16   12.22   0
   5 -10   0   48.11    9.46   0
  -5  10   0   56.68    9.78   0
  -5  10   0   53.26   10.04   0
   4 -10   0  222.90   18.48   0
   4 -10   0  232.33   17.51   0
   4 -10   0  225.38   16.91   0
   4 -10   0  243.80   18.79   0
  -4  10   0  194.12   18.16   0
   3 -10   0  293.17   19.78   0
   3 -10   0  248.12   19.78   0
   3 -10   0  327.62   20.82   0
   3 -10   0  296.70   19.67   0
  -3  10   0  309.38   22.03   0
   2 -10   0  397.15   22.64   0
   2 -10   0  413.18   24.27   0
   2 -10   0  390.88   24.19   0
  -2  10   0  386.69   24.53   0
  -2  10   0  386.55   24.33   0
   1 -10   0  218.99   19.38   0
   1 -10   0  215.18   15.29   0
  -1  10   0  202.22   17.46   0
  -1  10   0  204.04   17.58   0
   0 -10   0  266.43   21.57   0
   0 -10   0  257.65   18.02   0
   0 -10   0  305.56   22.04   0
   0  10   0  285.51   19.76   0
   0  10   0  264.42   20.07   0
   0  10   0  250.20   20.55   0
  -1 -10   0  100.50   13.07   0
  -1 -10   0  132.18   18.83   0
  -1 -10   0  140.14   17.35   0
   1  10   0  104.53   15.60   0
   1  10   0  123.70   14.65   0
   1  10   0   98.16   17.47   0
  -2 -10   0   35.02   15.61   0
   2  10   0   17.45    8.15   0
   2  10   0   20.51    8.51   0
   2  10   0   19.21   10.09   0
   3 -11   0   39.51   16.49   0
   3 -11   0   38.19    9.90   0
  -3  11   0   62.39   12.96   0
   2 -11   0   15.53    9.50   0
   2 -11   0    8.74    9.94   0
   2 -11   0   23.01    9.53   0
  -2  11   0   27.22   11.57   0
   1 -11   0  206.99   24.18   0
   1 -11   0  299.47   23.30   0
  -1  11   0  293.60   23.39   0
  -1  11   0  282.15   22.28   0
   0  11  -1  219.08   19.76   0
   0  11  -1  221.96   22.38   0
   0  11  -1  239.53   20.46   0
   0 -11   1  183.93   22.45   0
   0 -11   1  219.61   21.40   0
  -1  11  -1  114.27   19.17   0
  -1  11  -1  116.42   17.56   0
   1 -11   1  138.99   14.44   0
   1 -11   1  102.22   17.29   0
   1 -11   1  135.96   18.70   0
  -2  11  -1  539.74   34.15   0
  -2  11  -1  567.14   32.34   0
   2 -11   1  514.76   33.19   0
   2 -11   1  583.61   30.16   0
   2 -11   1  529.65   30.83   0
  -3  11  -1  523.85   32.18   0
   3 -11   1  490.61   29.89   0
   3 -11   1  516.15   29.45   0
   3 -11   1  494.90   30.70   0
  -4  11  -1   82.23   12.93   0
   2  10  -1   14.30   10.72   0
   2  10  -1   14.63    8.71   0
   2  10  -1    3.56    7.80   0
  -2 -10   1    1.94    7.91   0
  -2 -10   1    2.75   11.33   0
  -2 -10   1    0.42   11.71   0
   1  10  -1   43.74    8.65   0
   1  10  -1   51.28    9.35   0
   1  10  -1   29.49    9.91   0
  -1 -10   1   33.71    7.28   0
  -1 -10   1   49.70   10.78   0
  -1 -10   1   46.39   11.12   0
   0  10  -1    1.45    6.03   0
   0  10  -1   -1.10    7.06   0
   0  10  -1   12.82    7.59   0
   0 -10   1    4.84    5.22   0
   0 -10   1   -5.55    7.07   0
  -1  10  -1   -4.81    6.96   0
  -1  10  -1  -10.34    7.06   0
   1 -10   1  -11.03    8.10   0
   1 -10   1    3.44    6.31   0
   1 -10   1   -3.99    4.70   0
  -2  10  -1   -3.66    6.43   0
  -2  10  -1   -4.80    7.71   0
   2 -10   1    7.49    5.53   0
   2 -10   1    2.60    6.93   0
   2 -10   1    1.71    5.78   0
   2 -10   1    7.67    6.48   0
  -3  10  -1   40.57    8.94   0
   3 -10   1   35.70    7.56   0
   3 -10   1   40.54    8.30   0
   3 -10   1   37.54    7.16   0
   3 -10   1   41.40    7.50   0
  -4  10  -1  412.81   25.94   0
  -4  10  -1  493.28   26.92   0
   4 -10   1  443.62   25.49   0
   4 -10   1  397.21   25.80   0
   4 -10   1  440.44   26.41   0
   4 -10   1  431.45   24.13   0
  -5  10  -1  268.16   20.66   0
  -5  10  -1  245.71   20.64   0
   5 -10   1  255.80   20.33   0
   5 -10   1  266.12   17.52   0
   5 -10   1  238.93   19.09   0
   5 -10   1  253.36   20.67   0
   3   9  -1   16.15    6.95   0
   3   9  -1    6.89    7.36   0
   3   9  -1    8.77    8.04   0
  -3  -9   1   20.03    7.64   0
  -3  -9   1   16.99    8.20   0
  -3  -9   1    6.35   10.66   0
   2   9  -1   11.63    6.02   0
   2   9  -1    4.01    5.34   0
   2   9  -1   22.66    8.09   0
  -2  -9   1    9.10    8.02   0
  -2  -9   1   10.92    6.41   0
  -2  -9   1    9.00    8.95   0
   1   9  -1  191.99   14.47   0
   1   9  -1  178.22   15.01   0
  -1  -9   1  171.90   13.52   0
  -1  -9   1  203.55   17.05   0
   0   9  -1   48.44    7.79   0
   0   9  -1   47.74    7.45   0
   0   9  -1   48.82    8.10   0
   0  -9   1   72.24   11.81   0
   0  -9   1   47.26    8.53   0
   0  -9   1   49.35    7.08   0
  -1   9  -1 1175.44   54.23   0
  -1   9  -1 1126.87   53.41   0
   1  -9   1 1090.85   52.29   0
   1  -9   1 1132.75   53.89   0
   1  -9   1 1162.57   54.00   0
  -2   9  -1  665.60   31.20   0
  -2   9  -1  582.58   30.64   0
   2  -9   1  571.68   30.08   0
   2  -9   1  564.38   30.08   0
   2  -9   1  578.71   30.38   0
   2  -9   1  578.17   29.26   0
   3  -9   1   45.88    8.44   0
  -5   9  -1   -2.93    6.33   0
  -5   9  -1   -0.77    6.36   0
   5  -9   1    1.27    6.09   0
   5  -9   1    1.82    6.24   0
   5  -9   1   -7.94    6.33   0
   5  -9   1   -1.95    4.58   0
  -6   9  -1   42.05    8.17   0
  -6   9  -1   47.56    9.62   0
   6  -9   1   40.79    7.09   0
   6  -9   1   39.11    8.73   0
   6  -9   1   37.35    8.94   0
   4   8  -1  558.95   29.91   0
   4   8  -1  595.49   31.69   0
   4   8  -1  540.00   30.97   0
  -4  -8   1  563.69   31.89   0
  -4  -8   1  521.90   30.61   0
  -4  -8   1  578.30   36.07   0
  -4  -8   1  551.57   29.75   0
   3   8  -1  258.62   17.00   0
   3   8  -1  248.91   17.39   0
  -3  -8   1  229.41   17.05   0
  -3  -8   1  262.54   18.69   0
  -3  -8   1  265.25   16.69   0
   2   8  -1   24.87    6.23   0
   2   8  -1   23.38    6.10   0
   2   8  -1   23.78    5.93   0
  -2  -8   1   28.60    7.12   0
  -2  -8   1   30.72    8.40   0
  -2  -8   1   32.04    5.92   0
   1   8  -1   -5.03    4.03   0
   1   8  -1   -0.83    3.61   0
   1   8  -1    3.63    5.56   0
  -1  -8   1    2.63    5.28   0
  -1  -8   1   -6.49    5.26   0
  -1  -8   1   -0.63    3.84   0
   0   8  -1   74.95    8.20   0
   0   8  -1   69.73    9.98   0
   0   8  -1   66.86    9.41   0
   0  -8   1   66.57    9.26   0
   0  -8   1   66.34    7.56   0
   0  -8   1   69.92    9.69   0
  -1   8  -1  837.38   39.97   0
  -1   8  -1  822.50   39.41   0
  -1   8  -1  846.30   39.35   0
   1  -8   1  812.23   38.56   0
   1  -8   1  828.68   39.65   0
   1  -8   1  805.72   39.47   0
  -2   8  -1  753.05   35.49   0
   2  -8   1  662.28   34.26   0
   2  -8   1  738.79   35.04   0
   2  -8   1  761.08   35.55   0
  -3   8  -1  437.24   22.12   0
   3  -8   1  427.36   22.14   0
   3  -8   1  405.15   21.38   0
   3  -8   1  342.72   20.77   0
   3  -8   1  429.31   22.44   0
  -4   8  -1  348.67   21.24   0
  -4   8  -1  376.30   20.73   0
   4  -8   1  333.12   19.85   0
   4  -8   1  367.42   21.24   0
   4  -8   1  417.32   21.16   0
   4  -8   1  448.14   22.34   0
  -5   8  -1  380.60   19.72   0
  -5   8  -1  313.44   20.03   0
   5  -8   1  330.61   19.57   0
   5  -8   1  294.75   17.96   0
   5  -8   1  335.70   20.40   0
   5  -8   1  322.12   19.32   0
  -6   8  -1  462.22   28.19   0
  -6   8  -1  514.16   26.56   0
   6  -8   1  483.43   27.96   0
   6  -8   1  508.87   27.56   0
   6  -8   1  494.87   25.66   0
   6  -8   1  512.85   27.05   0
  -7   8  -1  128.15   16.31   0
  -7   8  -1  161.62   14.44   0
   7  -8   1  126.46   12.60   0
   7  -8   1  149.82   15.85   0
   7  -8   1  156.67   15.33   0
   7  -8   1  139.50   14.81   0
   5   7  -1  473.26   27.75   0
   5   7  -1  504.59   27.66   0
   5   7  -1  435.19   26.22   0
  -5  -7   1  456.47   27.16   0
  -5  -7   1  424.19   32.24   0
  -5  -7   1  479.21   28.29   0
  -5  -7   1  485.48   26.02   0
   4   7  -1  558.77   31.28   0
   4   7  -1  560.37   30.34   0
   4   7  -1  695.06   32.24   0
  -4  -7   1  588.97   31.97   0
  -4  -7   1  685.80   36.43   0
  -4  -7   1  560.22   30.12   0
  -4  -7   1  531.86   30.48   0
   3   7  -1  760.39   37.12   0
   3   7  -1  780.09   37.84   0
   3   7  -1  785.42   38.03   0
  -3  -7   1  772.42   37.19   0
  -3  -7   1  742.61   36.93   0
  -3  -7   1  761.28   38.19   0
  -3  -7   1  752.54   40.46   0
   2   7  -1 1081.56   49.33   0
   2   7  -1 1056.05   48.62   0
   2   7  -1 1074.69   49.16   0
  -2  -7   1  997.11   49.45   0
  -2  -7   1 1020.06   48.38   0
   1   7  -1  100.47    9.04   0
   1   7  -1   98.23    9.89   0
   1   7  -1  121.75    9.27   0
  -1  -7   1   98.06   10.19   0
  -1  -7   1   85.44    8.22   0
  -1  -7   1  103.14   10.39   0
   0   7  -1  388.56   19.06   0
   0   7  -1  361.19   18.90   0
   0   7  -1  346.04   19.17   0
   0  -7   1  359.52   19.38   0
   0  -7   1  330.61   18.06   0
   0  -7   1  335.22   19.29   0
  -1   7  -1  269.39   15.38   0
  -1   7  -1  307.42   15.98   0
  -1   7  -1  273.19   15.80   0
   1  -7   1  271.49   15.78   0
   1  -7   1  277.59   14.88   0
   1  -7   1  275.07   15.57   0
  -2   7  -1  174.53   11.54   0
  -2   7  -1  166.97   11.56   0
   2  -7   1  216.13   12.05   0
   2  -7   1  187.24   10.98   0
   2  -7   1  163.77   10.89   0
   2  -7   1  179.61   11.57   0
  -3   7  -1  148.15   10.35   0
   3  -7   1  145.39    9.83   0
   3  -7   1  176.38   11.34   0
   3  -7   1  142.57   10.64   0
   3  -7   1  159.45   10.39   0
  -4   7  -1  252.34   14.72   0
  -4   7  -1  258.32   15.63   0
   4  -7   1  265.89   15.20   0
   4  -7   1  254.58   15.71   0
   4  -7   1  250.12   14.26   0
   4  -7   1  271.14   15.32   0
  -5   7  -1 1922.21   86.87   0
  -5   7  -1 1884.96   88.04   0
   5  -7   1 1985.32   87.46   0
   5  -7   1 2005.88   88.64   0
   5  -7   1 2052.91   87.91   0
   5  -7   1 1887.52   86.67   0
  -6   7  -1  581.43   26.39   0
  -6   7  -1  450.76   27.27   0
   6  -7   1  504.68   27.00   0
   6  -7   1  519.27   26.65   0
   6  -7   1  475.93   27.31   0
  -7   7  -1  115.26   11.75   0
  -7   7  -1  100.79   13.85   0
   7  -7   1  100.15   11.83   0
   7  -7   1   87.59   11.81   0
   7  -7   1   93.62   12.85   0
  -8   7  -1  116.32   14.23   0
  -8   7  -1   99.53   17.73   0
   8  -7   1   99.29   14.63   0
   8  -7   1  148.39   16.48   0
   6   6  -1   48.23    8.93   0
   6   6  -1   68.95    9.80   0
   6   6  -1   55.96    9.57   0
  -6  -6   1   45.95    8.88   0
  -6  -6   1   50.95    8.95   0
   5   6  -1    4.46    5.52   0
  -5  -6   1    4.01    6.01   0
   4   6  -1   43.25    6.53   0
   4   6  -1   36.97    7.05   0
   4   6  -1   51.04    8.35   0
  -4  -6   1   41.07    7.35   0
  -4  -6   1   35.00    6.18   0
  -4  -6   1   64.98   12.29   0
  -4  -6   1   49.87    8.10   0
   3   6  -1 1037.37   47.20   0
   3   6  -1  909.46   46.41   0
   3   6  -1 1106.72   47.97   0
  -3  -6   1 1010.91   46.66   0
  -3  -6   1 1100.65   48.07   0
  -3  -6   1  851.47   48.97   0
  -3  -6   1 1031.97   47.05   0
   2   6  -1  545.26   27.50   0
   2   6  -1  563.69   28.01   0
   2   6  -1  555.10   28.13   0
  -2  -6   1  578.10   27.65   0
  -2  -6   1  562.83   29.80   0
  -2  -6   1  597.62   28.72   0
   1   6  -1 2481.39  104.80   0
   1   6  -1 2433.07  104.64   0
   1   6  -1 2395.31  104.27   0
  -1  -6   1 2264.87  104.61   0
  -1  -6   1 2319.16  105.52   0
  -1  -6   1 2346.99  104.01   0
   0   6  -1  976.55   44.72   0
   0   6  -1  966.58   44.94   0
   0   6  -1 1027.18   45.03   0
   0  -6   1  999.70   45.37   0
   0  -6   1  988.59   44.36   0
   0  -6   1  928.28   44.91   0
  -1   6  -1   21.26    3.90   0
   1  -6   1   21.18    3.90   0
   1  -6   1   29.38    4.71   0
   1  -6   1   19.52    3.43   0
  -2   6  -1  222.98   12.45   0
  -2   6  -1  231.07   12.18   0
   2  -6   1  231.83   12.61   0
   2  -6   1  188.39   11.55   0
   2  -6   1  200.87   12.02   0
   2  -6   1  216.39   11.78   0
  -3   6  -1   94.52    7.07   0
   3  -6   1   99.80    7.44   0
   3  -6   1  100.05    7.25   0
   3  -6   1   80.15    6.51   0
  -4   6  -1 1969.84   87.25   0
  -4   6  -1 1962.84   86.28   0
   4  -6   1 1938.77   87.37   0
   4  -6   1 1961.07   86.67   0
   4  -6   1 1916.82   86.14   0
   4  -6   1 2000.99   86.82   0
  -5   6  -1  564.89   29.46   0
  -5   6  -1  585.54   28.33   0
   5  -6   1  575.96   29.60   0
   5  -6   1  610.13   28.80   0
   5  -6   1  596.71   29.16   0
  -6   6  -1   51.04    6.63   0
  -6   6  -1   45.24    7.41   0
   6  -6   1   36.02    5.76   0
   6  -6   1   43.08    6.76   0
   6  -6   1   27.33    5.58   0
  -7   6  -1   32.96    5.84   0
  -7   6  -1   29.29    7.42   0
   7  -6   1   45.49    8.03   0
   7  -6   1   31.58    6.80   0
  -8   6  -1  555.77   34.12   0
  -8   6  -1  637.15   32.34   0
   8  -6   1  595.28   33.33   0
   8  -6   1  637.87   33.21   0
   8  -6   1  648.29   32.70   0
   7   5  -1  103.94   16.65   0
   7   5  -1  122.73   16.74   0
   7   5  -1  136.89   14.64   0
  -7  -5   1  107.07   13.99   0
  -7  -5   1   92.46   14.26   0
  -7  -5   1   86.38   15.34   0
   6   5  -1    9.29    6.51   0
   6   5  -1    1.24    4.91   0
   6   5  -1   -1.56    5.67   0
  -6  -5   1    5.70    6.29   0
  -6  -5   1    7.61    5.88   0
  -6  -5   1    3.87    5.50   0
   5   5  -1  416.49   23.57   0
   5   5  -1  432.33   24.38   0
   5   5  -1  440.07   23.17   0
  -5  -5   1  424.31   23.81   0
  -5  -5   1  444.37   22.90   0
  -5  -5   1  416.67   23.38   0
   4   5  -1  755.62   41.94   0
   4   5  -1  954.94   43.50   0
   4   5  -1  935.82   42.22   0
  -4  -5   1  940.76   42.99   0
  -4  -5   1  897.67   45.43   0
  -4  -5   1  911.94   42.43   0
  -4  -5   1  884.20   41.78   0
   3   5  -1   33.06    6.28   0
  -3  -5   1   37.32    5.81   0
  -3  -5   1   55.48    8.92   0
   2   5  -1 1642.55   72.14   0
   2   5  -1 1623.80   71.51   0
   2   5  -1 1655.77   71.81   0
  -2  -5   1 1622.97   71.57   0
  -2  -5   1 1585.61   72.08   0
  -2  -5   1 1531.64   73.21   0
   1   5  -1 1587.01   65.72   0
   1   5  -1 1489.06   65.76   0
  -1  -5   1 1406.08   66.47   0
  -1  -5   1 1424.80   65.83   0
  -1  -5   1 1480.64   65.38   0
   0   5  -1  154.31   10.11   0
   0   5  -1  196.21   10.42   0
   0   5  -1  193.53   10.64   0
   0  -5   1  185.06   10.62   0
   0  -5   1  193.57   10.05   0
   0  -5   1  180.83   10.45   0
  -1   5  -1  248.47   12.32   0
  -1   5  -1  242.88   12.39   0
  -1   5  -1  225.06   12.36   0
   1  -5   1  248.83   12.54   0
   1  -5   1  207.66   11.85   0
   1  -5   1  248.61   12.37   0
  -2   5  -1  654.19   29.43   0
  -2   5  -1  601.65   28.92   0
   2  -5   1  640.85   29.02   0
   2  -5   1  631.61   29.29   0
   2  -5   1  630.80   28.93   0
  -3   5  -1  414.75   20.32   0
  -3   5  -1  446.61   21.09   0
   3  -5   1  408.09   21.11   0
   3  -5   1  425.72   20.69   0
   3  -5   1  428.08   20.68   0
   3  -5   1  432.85   20.34   0
  -4   5  -1  159.35   10.30   0
  -4   5  -1  156.39    9.40   0
   4  -5   1  161.16   10.04   0
   4  -5   1  154.71   10.50   0
   4  -5   1  160.60    9.80   0
  -5   5  -1   25.78    3.99   0
  -5   5  -1   39.31    5.60   0
   5  -5   1   28.39    4.66   0
   5  -5   1   35.32    5.86   0
   5  -5   1   30.91    5.78   0
  -6   5  -1   49.85    8.40   0
  -6   5  -1   45.67    6.33   0
  -6   5  -1   56.31    8.38   0
   6  -5   1   49.37    7.07   0
   6  -5   1   53.44    7.69   0
   6  -5   1   40.63    7.11   0
  -7   5  -1  207.72   16.41   0
  -7   5  -1  272.08   15.07   0
   7  -5   1  224.91   15.49   0
   7  -5   1  202.09   15.23   0
   7  -5   1  244.02   15.04   0
  -8   5  -1   32.28    6.21   0
  -8   5  -1   31.98    8.53   0
  -8   5  -1   42.89    8.70   0
   8  -5   1   35.05    8.04   0
   8  -5   1   26.45    6.78   0
   8  -5   1   43.76    8.01   0
   8  -5   1   29.54    6.57   0
   7   4  -1   24.10    7.20   0
   7   4  -1   23.44    7.66   0
   7   4  -1   18.89    7.55   0
  -7  -4   1   16.23    6.57   0
  -7  -4   1   23.58    6.90   0
  -7  -4   1   29.91    7.64   0
   6   4  -1   51.41    9.08   0
   6   4  -1   45.52    7.32   0
   6   4  -1   50.66   10.25   0
  -6  -4   1   58.54    8.55   0
  -6  -4   1   57.28    9.40   0
   5   4  -1 1205.35   56.26   0
   5   4  -1 1274.24   57.99   0
   5   4  -1 1255.19   56.65   0
  -5  -4   1 1177.50   56.50   0
  -5  -4   1 1229.20   56.02   0
  -5  -4   1 1213.78   56.80   0
   4   4  -1 1050.49   49.50   0
   4   4  -1 1055.27   48.33   0
   4   4  -1 1117.94   48.80   0
  -4  -4   1  999.16   50.71   0
  -4  -4   1 1063.04   48.88   0
  -4  -4   1 1063.41   48.60   0
  -4  -4   1 1027.58   47.93   0
   3   4  -1  791.19   36.00   0
   3   4  -1  769.92   35.19   0
   3   4  -1  763.06   34.99   0
  -3  -4   1  767.47   35.52   0
  -3  -4   1  742.93   34.68   0
  -3  -4   1  724.12   34.99   0
  -3  -4   1  714.49   36.87   0
   2   4  -1  360.51   17.00   0
   2   4  -1  301.62   16.93   0
   2   4  -1  333.98   16.67   0
  -2  -4   1  327.30   18.14   0
  -2  -4   1  333.78   17.12   0
  -2  -4   1  344.49   16.77   0
   1   4  -1  913.73   39.28   0
   1   4  -1  836.33   38.94   0
   1   4  -1  908.74   39.01   0
  -1  -4   1  836.36   39.68   0
  -1  -4   1  820.74   39.07   0
   0   4  -1 1044.52   45.62   0
   0   4  -1 1031.76   45.63   0
   0  -4   1 1032.60   45.34   0
   0  -4   1  989.63   45.61   0
   0  -4   1 1027.25   45.78   0
  -1   4  -1 1920.92   82.86   0
  -1   4  -1 1867.22   82.90   0
   1  -4   1 1899.49   83.10   0
   1  -4   1 1940.10   82.90   0
  -2   4  -1   42.90    3.58   0
  -2   4  -1   44.24    4.01   0
   2  -4   1   48.35    3.59   0
   2  -4   1   34.70    3.95   0
   2  -4   1   46.29    3.92   0
   2  -4   1   43.75    3.78   0
  -3   4  -1  287.27   13.44   0
  -3   4  -1  220.69   13.52   0
   3  -4   1  276.00   13.67   0
   3  -4   1  287.65   13.68   0
  -4   4  -1  131.23    9.11   0
  -4   4  -1  135.79    8.24   0
  -4   4  -1  144.14    9.19   0
   4  -4   1  134.68    8.58   0
   4  -4   1  145.85    8.88   0
   4  -4   1  139.19    9.12   0
  -5   4  -1  166.78   11.28   0
  -5   4  -1  168.04   10.25   0
  -5   4  -1  180.48   11.34   0
   5  -4   1  171.34   11.27   0
   5  -4   1  160.21   10.82   0
   5  -4   1  189.05   10.75   0
  -6   4  -1    3.38    2.87   0
  -6   4  -1    8.50    3.98   0
  -6   4  -1    7.34    3.93   0
   6  -4   1    6.66    4.04   0
   6  -4   1    8.19    3.85   0
  -7   4  -1   19.17    5.52   0
  -7   4  -1   13.14    4.03   0
  -7   4  -1   27.55    5.97   0
   7  -4   1   15.21    4.98   0
   7  -4   1   21.57    4.83   0
   7  -4   1   18.92    4.94   0
  -8   4  -1  195.23   14.06   0
  -8   4  -1  175.19   16.16   0
  -8   4  -1  205.69   16.10   0
   8  -4   1  185.76   14.98   0
   8  -4   1  215.80   17.17   0
   8  -4   1  179.74   14.75   0
   8   3  -1   80.17   11.30   0
   8   3  -1   76.72   13.29   0
   8   3  -1   74.75   15.35   0
  -8  -3   1   70.52   11.38   0
  -8  -3   1   85.59   13.61   0
  -8  -3   1   55.01   11.98   0
   7   3  -1  315.00   19.66   0
   7   3  -1  301.41   21.59   0
   7   3  -1  321.86   19.97   0
  -7  -3   1  315.54   19.75   0
  -7  -3   1  339.47   19.45   0
  -7  -3   1  301.60   20.30   0
   6   3  -1  180.42   14.81   0
   6   3  -1  186.50   13.46   0
   6   3  -1  191.68   12.94   0
  -6  -3   1  178.42   12.29   0
  -6  -3   1  164.65   12.91   0
  -6  -3   1  184.10   13.21   0
   5   3  -1  137.59    9.49   0
   5   3  -1   96.54   10.17   0
   5   3  -1  134.01    9.83   0
  -5  -3   1  101.33    8.94   0
  -5  -3   1  119.11    9.62   0
  -5  -3   1  124.15    8.91   0
   4   3  -1  267.66   15.50   0
   4   3  -1  253.38   14.45   0
   4   3  -1  263.85   14.32   0
  -4  -3   1  262.66   14.54   0
  -4  -3   1  250.08   14.32   0
  -4  -3   1  265.53   13.90   0
   3   3  -1 1170.13   51.92   0
   3   3  -1 1181.03   50.99   0
   3   3  -1 1150.11   50.90   0
  -3  -3   1 1061.55   52.31   0
  -3  -3   1 1102.71   51.02   0
  -3  -3   1 1112.80   50.46   0
  -3  -3   1 1168.54   51.00   0
   2   3  -1 6803.31  292.68   0
  -2  -3   1 6515.19  293.80   0
  -2  -3   1 6968.78  292.96   0
  -2  -3   1 7058.61  292.45   0
  -2  -3   1 6735.00  292.64   0
   1   3  -1 9999.00  438.28   0
  -1  -3   1 9766.61  438.72   0
   0   3  -1 1466.43   64.08   0
   0   3  -1 1510.14   64.16   0
   0   3  -1 1531.40   64.12   0
   0  -3   1 1427.57   63.89   0
   0  -3   1 1471.63   64.19   0
   0  -3   1 1422.05   64.11   0
  -1   3  -1    2.09    0.98   0
   1  -3   1    4.31    1.11   0
   1  -3   1    1.85    0.89   0
   1  -3   1    3.34    1.31   0
  -2   3  -1  598.22   26.80   0
  -2   3  -1  600.93   27.26   0
   2  -3   1  631.60   27.03   0
   2  -3   1  598.15   26.94   0
   2  -3   1  561.43   27.18   0
  -3   3  -1 3053.41  127.11   0
  -3   3  -1 2881.17  126.59   0
  -3   3  -1 2843.60  127.10   0
   3  -3   1 2892.73  126.82   0
   3  -3   1 3048.91  126.80   0
   3  -3   1 2858.91  127.15   0
  -4   3  -1 2048.65   92.12   0
  -4   3  -1 2183.04   92.79   0
  -4   3  -1 2092.64   92.67   0
   4  -3   1 2141.03   92.46   0
   4  -3   1 2084.25   92.75   0
  -5   3  -1   40.81    5.81   0
  -5   3  -1   44.38    5.02   0
  -5   3  -1   35.58    5.59   0
   5  -3   1   37.66    5.32   0
   5  -3   1   39.24    5.34   0
  -6   3  -1    1.39    3.06   0
  -6   3  -1    0.25    3.32   0
  -6   3  -1    4.08    3.58   0
   6  -3   1    8.83    3.45   0
   6  -3   1    2.01    2.86   0
   6  -3   1    1.02    3.12   0
   6  -3   1    0.91    3.60   0
  -7   3  -1  135.80   11.16   0
  -7   3  -1   86.17   10.50   0
  -7   3  -1   92.85    9.22   0
   7  -3   1  106.70    9.88   0
   7  -3   1  112.58   10.07   0
   7  -3   1  130.53   10.27   0
   7  -3   1  111.21   11.61   0
  -8   3  -1  900.75   42.52   0
  -8   3  -1  782.15   42.32   0
  -8   3  -1  855.78   41.25   0
   8  -3   1  876.69   41.97   0
   8  -3   1  819.26   41.79   0
   8   2  -1  700.50   38.99   0
   8   2  -1  702.73   36.36   0
   8   2  -1  713.50   36.20   0
  -8  -2   1  706.63   36.21   0
  -8  -2   1  646.45   36.84   0
  -8  -2   1  711.57   36.53   0
   7   2  -1  799.83   39.70   0
   7   2  -1  778.88   42.62   0
   7   2  -1  839.74   40.66   0
   7   2  -1  862.55   40.78   0
  -7  -2   1  852.13   40.37   0
  -7  -2   1  781.60   40.94   0
  -7  -2   1  906.56   41.30   0
   6   2  -1  366.83   21.78   0
   6   2  -1  357.61   19.85   0
   6   2  -1  366.50   18.98   0
   6   2  -1  347.94   19.63   0
  -6  -2   1  361.86   20.19   0
  -6  -2   1  365.11   19.83   0
  -6  -2   1  359.38   19.37   0
   5   2  -1  226.04   12.69   0
   5   2  -1  209.99   12.82   0
   5   2  -1  224.20   12.01   0
   5   2  -1  209.22   14.18   0
  -5  -2   1  206.02   12.10   0
  -5  -2   1  202.54   12.62   0
  -5  -2   1  201.32   12.74   0
   4   2  -1  227.48   12.46   0
   4   2  -1  211.53   13.40   0
   4   2  -1  220.68   11.70   0
   4   2  -1  232.58   12.34   0
  -4  -2   1  228.60   12.43   0
  -4  -2   1  212.46   12.33   0
  -4  -2   1  221.54   11.85   0
   3   2  -1  658.21   32.09   0
   3   2  -1  714.75   31.36   0
   3   2  -1  682.79   31.18   0
  -3  -2   1  673.82   31.20   0
  -3  -2   1  688.93   30.80   0
  -3  -2   1  666.72   31.19   0
   2   2  -1 6092.13  268.38   0
   2   2  -1 6396.40  267.78   0
   2   2  -1 6233.36  267.72   0
   1   2  -1 8713.17  383.42   0
  -1  -2   1 8716.19  384.07   0
   0   2  -1  555.67   23.65   0
   0   2  -1  612.66   23.85   0
   0   2  -1  505.34   23.61   0
   0  -2   1  489.47   23.63   0
   0  -2   1  559.39   23.78   0
   0  -2   1  489.97   23.52   0
  -1   2  -1  183.65    8.63   0
  -1   2  -1  181.80    8.88   0
  -1   2  -1  199.09    8.84   0
   1  -2   1  202.92    8.84   0
   1  -2   1  172.06    8.63   0
   1  -2   1  167.91    8.81   0
  -2   2  -1 5014.07  214.61   0
   2  -2   1 4982.72  214.64   0
  -3   2  -1 6826.89  311.15   0
   3  -2   1 7081.55  310.57   0
  -4   2  -1  246.92   12.65   0
  -4   2  -1  232.38   12.56   0
  -4   2  -1  231.95   12.13   0
   4  -2   1  243.53   12.58   0
   4  -2   1  233.86   12.18   0
   4  -2   1  201.47   12.03   0
  -5   2  -1  228.17   12.86   0
  -5   2  -1  242.78   13.49   0
  -5   2  -1  236.64   13.64   0
   5  -2   1  238.43   13.37   0
   5  -2   1  273.69   14.66   0
   5  -2   1  215.41   12.92   0
   5  -2   1  225.05   13.07   0
  -6   2  -1  169.18   11.72   0
  -6   2  -1  187.31   11.68   0
   6  -2   1  145.04   10.83   0
   6  -2   1  163.98   10.87   0
   6  -2   1  181.36   11.18   0
  -7   2  -1  284.85   18.35   0
  -7   2  -1  319.98   18.27   0
  -7   2  -1  289.82   17.40   0
   7  -2   1  323.72   18.09   0
   7  -2   1  289.04   17.19   0
   7  -2   1  296.09   17.73   0
   7  -2   1  346.07   20.15   0
  -8   2  -1  510.06   29.51   0
  -8   2  -1  572.29   28.75   0
  -8   2  -1  572.72   29.76   0
   8  -2   1  521.55   28.80   0
   8  -2   1  559.54   30.88   0
   8  -2   1  522.38   28.12   0
   8  -2   1  564.01   29.13   0
   8   1  -1  242.82   16.84   0
   8   1  -1  234.03   17.04   0
   8   1  -1  238.63   19.71   0
   8   1  -1  230.60   15.51   0
  -8  -1   1  232.18   16.43   0
  -8  -1   1  218.74   17.84   0
   7   1  -1  607.07   33.57   0
   7   1  -1  637.21   31.30   0
   7   1  -1  624.67   31.34   0
   7   1  -1  623.20   30.67   0
  -7  -1   1  605.01   30.94   0
  -7  -1   1  621.19   31.66   0
  -7  -1   1  604.07   31.11   0
   6   1  -1    9.40    4.01   0
   6   1  -1    7.85    3.44   0
   6   1  -1   13.21    3.23   0
   6   1  -1   16.20    5.51   0
  -6  -1   1    7.19    3.45   0
  -6  -1   1   10.61    3.59   0
  -6  -1   1    9.79    4.35   0
   5   1  -1  156.03    9.09   0
   5   1  -1  142.17    9.50   0
   5   1  -1  143.40   11.04   0
   5   1  -1  140.22    9.65   0
  -5  -1   1  141.77    9.63   0
  -5  -1   1  144.84    9.22   0
  -5  -1   1  148.78    9.56   0
   4   1  -1  321.12   15.24   0
   4   1  -1  307.31   15.76   0
   4   1  -1  307.20   15.62   0
   4   1  -1  302.85   16.93   0
  -4  -1   1  298.30   15.24   0
  -4  -1   1  297.72   15.65   0
  -4  -1   1  318.19   15.68   0
   3   1  -1   47.81    3.92   0
   3   1  -1   44.62    4.77   0
   3   1  -1   43.10    4.02   0
   3   1  -1   48.18    3.52   0
  -3  -1   1   46.76    3.94   0
  -3  -1   1   52.24    3.76   0
  -3  -1   1   44.81    3.97   0
   2   1  -1   97.29    5.48   0
   2   1  -1   93.07    5.32   0
   2   1  -1   94.54    5.00   0
   2   1  -1   99.88    6.04   0
  -2  -1   1   94.77    5.35   0
  -2  -1   1   91.70    5.33   0
  -2  -1   1   96.04    5.06   0
   1   1  -1  348.58   14.54   0
   1   1  -1  306.33   14.79   0
   1   1  -1  320.11   14.49   0
  -1  -1   1  292.18   14.78   0
  -1  -1   1  331.24   14.19   0
  -1  -1   1  332.17   14.49   0
  -1  -1   1  319.76   14.46   0
  -1   1  -1  535.76   22.67   0
  -1   1  -1  517.80   22.78   0
  -1   1  -1  508.43   22.59   0
   1  -1   1  515.20   22.60   0
   1  -1   1  507.05   22.77   0
   1  -1   1  513.25   22.59   0
   2  -1   1 3964.76  168.30   0
   2  -1   1 3876.24  168.45   0
  -3   1  -1   98.14    5.88   0
  -3   1  -1   95.17    6.11   0
   3  -1   1   85.94    5.74   0
   3  -1   1   97.73    6.01   0
   3  -1   1   94.19    5.94   0
   3  -1   1  115.02    6.72   0
  -4   1  -1  192.10   10.87   0
  -4   1  -1  189.80   10.70   0
  -4   1  -1  189.35   10.48   0
   4  -1   1  172.92   10.37   0
   4  -1   1  194.98   10.52   0
   4  -1   1  196.87   10.72   0
   4  -1   1  211.91   11.72   0
  -5   1  -1 1090.60   51.50   0
  -5   1  -1 1081.94   51.01   0
  -5   1  -1 1190.20   51.57   0
   5  -1   1 1100.49   51.11   0
   5  -1   1 1160.15   51.28   0
   5  -1   1 1215.71   52.83   0
   5  -1   1 1087.64   51.29   0
  -6   1  -1  354.07   18.29   0
  -6   1  -1  329.50   18.36   0
  -6   1  -1  297.48   17.44   0
   6  -1   1  338.19   17.91   0
   6  -1   1  331.95   17.68   0
   6  -1   1  323.66   17.85   0
   6  -1   1  330.44   19.42   0
  -7   1  -1   51.38    7.62   0
  -7   1  -1   45.91    8.30   0
  -7   1  -1   55.91    8.39   0
   7  -1   1   49.96    7.18   0
   7  -1   1   62.23    8.00   0
   7  -1   1   54.93    7.42   0
   7  -1   1   48.12    9.05   0
  -8   1  -1   15.21    6.24   0
  -8   1  -1   19.30    5.86   0
  -8   1  -1    7.17    6.75   0
   8  -1   1    4.32    5.97   0
   8  -1   1   11.98    5.65   0
   8  -1   1   11.39    4.95   0
   8  -1   1   15.82    5.54   0
   8   0  -1   63.41    9.86   0
   8   0  -1   84.72   12.69   0
   8   0  -1   62.37    8.84   0
   8   0  -1   61.02   10.47   0
  -8   0   1   59.75   10.09   0
  -8   0   1   81.35   11.05   0
   7   0  -1  267.20   17.91   0
   7   0  -1  235.30   14.51   0
   7   0  -1  262.85   15.69   0
   7   0  -1  238.38   15.32   0
  -7   0   1  228.79   14.91   0
  -7   0   1  214.57   15.36   0
  -7   0   1  232.76   14.98   0
   6   0  -1  456.68   22.06   0
   6   0  -1  415.68   22.30   0
   6   0  -1  438.77   22.50   0
  -6   0   1  444.67   22.32   0
  -6   0   1  403.01   22.42   0
  -6   0   1  453.34   22.35   0
   5   0  -1  243.91   13.47   0
   5   0  -1  259.87   14.09   0
   5   0  -1  275.09   15.82   0
   5   0  -1  252.79   13.98   0
  -5   0   1  243.41   14.10   0
  -5   0   1  244.46   13.73   0
  -5   0   1  265.57   13.84   0
   4   0  -1  719.47   31.84   0
   4   0  -1  678.21   30.14   0
   4   0  -1  549.34   29.96   0
   4   0  -1  647.80   30.40   0
  -4   0   1  681.46   30.33   0
  -4   0   1  668.41   30.17   0
   3   0  -1 1280.13   56.77   0
   3   0  -1 1309.53   56.60   0
   3   0  -1 1278.35   56.89   0
  -3   0   1 1315.16   56.65   0
  -3   0   1 1275.07   56.73   0
  -3   0   1 1296.68   56.95   0
   2   0  -1 8399.50  349.83   0
  -2   0   1 7574.90  349.06   0
   1   0  -1  416.87   19.15   0
   1   0  -1  411.75   19.07   0
   1   0  -1  457.20   19.24   0
  -1   0   1  411.73   19.06   0
  -1   0   1  493.21   19.27   0
  -1   0   1  433.25   19.14   0
  -1   0  -1   12.39    1.26   0
  -1   0  -1   14.19    1.33   0
  -1   0  -1   12.97    1.28   0
   1   0   1   13.74    1.26   0
   1   0   1   11.41    1.19   0
   1   0   1   12.23    1.25   0
  -2   0  -1    1.30    1.05   0
  -2   0  -1    4.53    1.18   0
  -2   0  -1    1.57    1.26   0
  -2   0  -1    1.31    0.95   0
   2   0   1    1.54    0.94   0
   2   0   1    0.14    1.02   0
   2   0   1    2.07    0.95   0
  -3   0  -1   22.19    2.95   0
  -3   0  -1   27.64    3.06   0
  -3   0  -1   21.39    3.04   0
   3   0   1   20.70    2.78   0
   3   0   1   28.97    2.89   0
   3   0   1   19.26    2.93   0
   3   0   1   24.94    3.49   0
  -4   0  -1    9.46    2.53   0
  -5   0  -1  297.46   16.20   0
  -5   0  -1  319.05   16.71   0
  -5   0  -1  295.48   16.24   0
   5   0   1  293.85   17.46   0
   5   0   1  307.84   16.15   0
   5   0   1  312.75   16.24   0
   5   0   1  313.98   16.28   0
  -6   0  -1  127.14   10.17   0
  -6   0  -1  137.11   10.38   0
  -6   0  -1  139.64    9.99   0
   6   0   1  142.97    9.97   0
   6   0   1  117.09    9.43   0
   6   0   1  133.83   11.40   0
   6   0   1  145.72   10.03   0
  -7   0  -1  579.54   29.37   0
  -7   0  -1  569.49   28.98   0
  -7   0  -1  558.13   29.42   0
   7   0   1  552.83   28.64   0
   7   0   1  551.43   28.84   0
   7   0   1  584.25   29.08   0
   7   0   1  572.33   30.84   0
  -8   0  -1    8.73    6.33   0
  -8   0  -1    4.94    6.41   0
  -8   0  -1    1.92    5.07   0
   8   0   1    7.87    5.46   0
   8   0   1    6.77    6.10   0
   8   0   1    9.28    5.17   0
   8   0   1    2.49    5.32   0
   9  -1  -1  121.82   16.65   0
   9  -1  -1  136.94   13.59   0
   9  -1  -1  128.88   15.14   0
   9  -1  -1  126.91   13.96   0
  -9   1   1  109.26   15.49   0
  -9   1   1  113.99   12.80   0
  -9   1   1  136.86   15.23   0
   8  -1  -1 1081.04   54.16   0
   8  -1  -1 1119.23   54.03   0
   8  -1  -1 1326.04   58.24   0
   8  -1  -1 1154.56   54.60   0
  -8   1   1 1077.09   54.71   0
  -8   1   1 1166.30   54.33   0
   7  -1  -1 1667.95   76.25   0
   7  -1  -1 1640.56   75.81   0
   7  -1  -1 1684.50   76.19   0
  -7   1   1 1565.38   76.36   0
  -7   1   1 1837.29   76.47   0
  -7   1   1 1699.98   75.90   0
   6  -1  -1  382.04   20.68   0
   6  -1  -1  404.61   20.75   0
   6  -1  -1  390.25   20.35   0
  -6   1   1  388.08   20.42   0
  -6   1   1  385.56   20.94   0
  -6   1   1  426.83   20.80   0
   5  -1  -1  641.80   29.70   0
   5  -1  -1  600.23   29.59   0
   5  -1  -1  640.60   29.53   0
  -5   1   1  657.73   29.65   0
  -5   1   1  588.33   29.74   0
  -5   1   1  623.29   29.43   0
   4  -1  -1  237.80   12.10   0
   4  -1  -1  218.90   12.14   0
  -4   1   1  240.34   12.10   0
  -4   1   1  208.72   12.20   0
  -4   1   1  251.93   12.31   0
   3  -1  -1  708.91   30.29   0
   3  -1  -1  657.92   30.18   0
   3  -1  -1  590.30   30.09   0
  -3   1   1  651.55   30.30   0
  -3   1   1  671.49   30.10   0
  -3   1   1  735.46   30.37   0
   2  -1  -1 5040.78  216.14   0
   1  -1  -1  207.12    9.61   0
   1  -1  -1  226.08    9.78   0
  -1   1   1  206.76    9.73   0
  -1   1   1  210.06    9.59   0
   0  -1  -1  970.51   42.60   0
   0  -1  -1  923.33   42.60   0
   0  -1  -1 1031.74   42.97   0
   0   1   1 1094.92   43.04   0
   0   1   1  958.55   42.56   0
   0   1   1  946.85   42.58   0
  -1  -1  -1  952.38   41.85   0
  -1  -1  -1  908.21   41.58   0
  -1  -1  -1  974.13   41.74   0
  -1  -1  -1  958.76   42.23   0
   1   1   1  968.26   41.62   0
   1   1   1  994.78   42.12   0
   1   1   1  934.02   41.57   0
  -2  -1  -1   29.09    2.89   0
  -2  -1  -1   29.13    3.57   0
  -2  -1  -1   28.28    2.73   0
  -2  -1  -1   35.77    2.96   0
   2   1   1   31.96    2.77   0
   2   1   1   31.93    2.87   0
   2   1   1   31.39    3.22   0
  -3  -1  -1 2492.57  109.47   0
  -3  -1  -1 2516.79  109.50   0
  -3  -1  -1 2553.75  109.48   0
  -3  -1  -1 2395.95  110.50   0
   3   1   1 2655.29  109.46   0
   3   1   1 2480.04  110.28   0
   3   1   1 2507.95  109.35   0
   3   1   1 2555.32  109.52   0
  -4  -1  -1  421.38   20.92   0
  -4  -1  -1  429.84   20.96   0
  -4  -1  -1  418.06   20.96   0
   4   1   1  413.80   20.72   0
   4   1   1  435.07   20.87   0
   4   1   1  436.28   22.05   0
   4   1   1  440.04   20.95   0
  -5  -1  -1    6.44    2.93   0
  -5  -1  -1    6.26    2.97   0
  -5  -1  -1   16.32    3.68   0
   5   1   1   13.43    4.00   0
   5   1   1    7.53    2.98   0
   5   1   1   11.86    3.38   0
   5   1   1    8.78    3.36   0
  -6  -1  -1  140.20   10.92   0
  -6  -1  -1  153.60   11.00   0
  -6  -1  -1  154.20   10.80   0
   6   1   1  145.60   10.28   0
   6   1   1  123.72   10.20   0
   6   1   1  139.45   12.07   0
   6   1   1  148.41   10.50   0
  -7  -1  -1   12.83    5.35   0
  -7  -1  -1    3.27    4.61   0
   7   1   1    5.43    4.45   0
   7   1   1    3.87    5.21   0
   7   1   1    4.73    3.97   0
   7   1   1    7.50    3.87   0
  -8  -1  -1   57.22    9.28   0
  -8  -1  -1   44.23    8.98   0
  -8  -1  -1   35.77    7.42   0
   8   1   1   52.72   10.09   0
   8   1   1   35.51    7.01   0
   8   1   1   60.17    8.82   0
   8   1   1   67.88   10.79   0
   9  -2  -1   71.12   11.29   0
   9  -2  -1   79.93   12.33   0
   9  -2  -1   98.49   17.06   0
   9  -2  -1   84.10   13.67   0
  -9   2   1   75.58   13.69   0
  -9   2   1   82.36   14.08   0
  -9   2   1   90.02   11.59   0
   8  -2  -1 1678.57   74.62   0
   8  -2  -1 1547.92   73.84   0
   8  -2  -1 1700.17   74.38   0
  -8   2   1 1526.62   74.64   0
  -8   2   1 1633.76   73.79   0
   7  -2  -1 1992.26   88.97   0
   7  -2  -1 1951.93   88.92   0
   7  -2  -1 2036.97   89.24   0
  -7   2   1 1821.72   89.27   0
  -7   2   1 1943.25   88.54   0
  -7   2   1 2167.36   89.42   0
   6  -2  -1 1465.44   67.25   0
   6  -2  -1 1494.49   67.38   0
   6  -2  -1 1521.25   67.32   0
  -6   2   1 1620.92   67.62   0
  -6   2   1 1411.56   67.53   0
  -6   2   1 1447.01   66.85   0
   5  -2  -1  751.61   36.54   0
   5  -2  -1  826.10   36.86   0
   5  -2  -1  792.59   36.75   0
  -5   2   1  858.57   36.97   0
  -5   2   1  747.71   36.85   0
  -5   2   1  768.55   36.31   0
   4  -2  -1  177.01   10.25   0
   4  -2  -1  203.29   10.57   0
   4  -2  -1  176.55   10.25   0
  -4   2   1  187.72   10.11   0
  -4   2   1  198.49   10.56   0
  -4   2   1  175.30   10.46   0
   3  -2  -1 2918.60  127.32   0
   3  -2  -1 3076.21  127.55   0
   3  -2  -1 2863.15  127.24   0
  -3   2   1 2978.91  127.46   0
  -3   2   1 3097.88  127.55   0
  -3   2   1 2729.05  126.97   0
   2  -2  -1  434.17   18.67   0
   2  -2  -1  401.31   18.47   0
   2  -2  -1  366.20   18.64   0
  -2   2   1  422.01   18.70   0
  -2   2   1  401.25   18.35   0
   1  -2  -1   51.39    3.12   0
   1  -2  -1   53.14    3.30   0
   1  -2  -1   56.08    3.55   0
  -1   2   1   53.66    3.21   0
   0  -2  -1 3385.24  145.72   0
  -1  -2  -1 2316.76  101.40   0
  -1  -2  -1 2218.87  100.61   0
  -1  -2  -1 2343.85  100.80   0
   1   2   1 2331.05  100.58   0
   1   2   1 2396.85  100.64   0
   1   2   1 2376.78  101.22   0
  -2  -2  -1 3492.36  154.43   0
  -2  -2  -1 3523.44  155.50   0
  -2  -2  -1 3623.41  154.31   0
  -2  -2  -1 3554.72  154.46   0
   2   2   1 3626.27  154.98   0
   2   2   1 3516.83  154.17   0
   2   2   1 3702.40  154.24   0
  -3  -2  -1  876.25   40.03   0
  -3  -2  -1  863.31   41.55   0
  -3  -2  -1  891.73   40.14   0
   3   2   1  886.73   39.86   0
   3   2   1  900.62   39.91   0
  -4  -2  -1  542.75   26.11   0
  -4  -2  -1  529.99   26.08   0
  -4  -2  -1  555.76   26.09   0
  -4  -2  -1  499.82   27.73   0
   4   2   1  553.57   25.89   0
   4   2   1  552.86   27.09   0
   4   2   1  543.32   25.88   0
  -5  -2  -1  931.31   43.40   0
  -5  -2  -1  919.25   43.41   0
  -5  -2  -1  906.41   43.22   0
   5   2   1  940.68   44.59   0
   5   2   1  943.37   43.08   0
   5   2   1  930.81   43.07   0
  -6  -2  -1 1157.88   52.34   0
  -6  -2  -1 1134.34   52.41   0
  -6  -2  -1 1065.72   52.22   0
   6   2   1 1094.58   51.75   0
   6   2   1 1113.50   53.63   0
   6   2   1 1146.74   51.99   0
  -7  -2  -1  208.16   15.68   0
  -7  -2  -1  212.82   16.82   0
   7   2   1  215.10   15.05   0
   7   2   1  245.66   15.75   0
   7   2   1  218.88   17.21   0
  -8  -2  -1   25.73    8.26   0
  -8  -2  -1   11.26    8.22   0
  -8  -2  -1    7.32    7.71   0
   8   2   1    0.20    5.96   0
   8   2   1   13.14    7.89   0
   8   2   1   12.21    6.12   0
   9  -3  -1   11.89    8.19   0
   9  -3  -1   26.45    7.80   0
   9  -3  -1   26.52    7.75   0
   9  -3  -1   20.34    7.73   0
  -9   3   1   29.93    7.82   0
  -9   3   1   17.02    6.96   0
  -9   3   1   23.55    7.99   0
   8  -3  -1    2.79    4.94   0
   8  -3  -1    1.03    4.77   0
   8  -3  -1    2.43    5.55   0
   8  -3  -1    3.64    6.19   0
  -8   3   1   -4.65    4.51   0
  -8   3   1    4.65    5.95   0
  -8   3   1    5.50    5.01   0
   7  -3  -1  214.96   14.13   0
   7  -3  -1  221.39   14.30   0
   7  -3  -1  197.96   13.68   0
  -7   3   1  188.83   14.42   0
  -7   3   1  242.77   14.68   0
  -7   3   1  202.74   13.30   0
   6  -3  -1 1035.31   50.77   0
   6  -3  -1 1121.21   51.29   0
   6  -3  -1 1155.19   51.32   0
  -6   3   1 1142.28   51.37   0
  -6   3   1 1097.46   50.56   0
   5  -3  -1 2664.48  112.63   0
   5  -3  -1 2584.35  112.37   0
   5  -3  -1 2455.10  112.10   0
  -5   3   1 2462.65  112.51   0
  -5   3   1 2437.56  111.72   0
  -5   3   1 2765.86  112.75   0
   4  -3  -1 3263.43  143.63   0
   4  -3  -1 3413.69  144.10   0
   4  -3  -1 3514.04  143.85   0
  -4   3   1 3221.80  143.87   0
  -4   3   1 3147.44  143.21   0
   3  -3  -1  821.86   38.17   0
   3  -3  -1  867.54   37.91   0
  -3   3   1  875.59   38.18   0
  -3   3   1  807.75   37.52   0
   2  -3  -1  102.10    5.89   0
   2  -3  -1  107.91    6.09   0
  -2   3   1  109.17    6.21   0
  -2   3   1   98.29    5.77   0
   1  -3  -1    6.79    1.51   0
   1  -3  -1    6.11    1.32   0
   1  -3  -1    4.84    1.35   0
  -1   3   1    7.63    1.69   0
  -1   3   1    6.60    1.65   0
   0  -3  -1 4340.01  191.78   0
   0  -3  -1 4507.28  192.38   0
   0  -3  -1 4482.26  191.95   0
   0   3   1 4591.38  192.44   0
   0   3   1 4493.23  191.94   0
   0   3   1 4380.97  191.79   0
  -1  -3  -1 3689.14  162.78   0
  -1  -3  -1 3720.90  162.06   0
  -1  -3  -1 3686.14  161.91   0
   1   3   1 3668.03  161.81   0
   1   3   1 3864.94  161.89   0
   1   3   1 3909.58  162.61   0
  -2  -3  -1  115.07    8.63   0
  -2  -3  -1  111.75    7.64   0
  -2  -3  -1  115.75    7.30   0
  -2  -3  -1  117.92    7.44   0
   2   3   1  118.67    7.29   0
   2   3   1  118.90    7.20   0
   2   3   1  128.66    8.01   0
  -3  -3  -1   77.50    8.16   0
  -3  -3  -1   88.00    6.52   0
  -3  -3  -1   74.13    6.77   0
  -3  -3  -1   86.14    6.70   0
   3   3   1   82.81    6.37   0
   3   3   1   84.93    6.33   0
   3   3   1   90.58    7.24   0
  -4  -3  -1  408.35   21.30   0
  -4  -3  -1  398.55   23.36   0
  -4  -3  -1  424.40   21.23   0
  -4  -3  -1  412.34   20.98   0
   4   3   1  437.79   22.12   0
   4   3   1  404.66   20.69   0
   4   3   1  399.16   20.81   0
  -5  -3  -1 1708.63   78.43   0
  -5  -3  -1 1743.53   78.55   0
  -5  -3  -1 1749.91   78.34   0
  -5  -3  -1 1680.58   81.01   0
   5   3   1 1764.24   79.54   0
   5   3   1 1768.88   77.97   0
   5   3   1 1771.80   78.09   0
  -6  -3  -1 2481.64  108.81   0
  -6  -3  -1 2454.26  108.45   0
  -6  -3  -1 2326.96  108.56   0
   6   3   1 2459.20  109.89   0
   6   3   1 2488.86  108.11   0
   6   3   1 2362.98  107.82   0
  -7  -3  -1  296.25   19.15   0
  -7  -3  -1  278.55   19.85   0
  -7  -3  -1  268.48   18.90   0
   7   3   1  267.81   17.88   0
   7   3   1  270.18   18.13   0
   7   3   1  284.33   20.23   0
   9  -4  -1    9.08    8.66   0
   9  -4  -1    6.60    6.88   0
   9  -4  -1    9.02    7.28   0
  -9   4   1    2.90   10.67   0
  -9   4   1   -1.31    6.79   0
   8  -4  -1  439.61   24.60   0
   8  -4  -1  453.91   24.97   0
  -8   4   1  438.06   23.53   0
  -8   4   1  398.13   25.33   0
   7  -4  -1  910.18   42.98   0
   7  -4  -1  908.96   43.05   0
  -7   4   1  879.83   41.87   0
  -7   4   1  863.91   43.28   0
   6  -4  -1   27.49    5.28   0
   6  -4  -1   40.45    7.12   0
  -6   4   1   40.57    5.87   0
  -6   4   1   42.24    6.49   0
   5  -4  -1 1044.51   48.45   0
   5  -4  -1 1045.94   48.08   0
  -5   4   1 1074.10   48.49   0
  -5   4   1 1033.88   47.40   0
   4  -4  -1 1106.53   50.98   0
   4  -4  -1 1141.39   50.49   0
   4  -4  -1 1126.14   50.58   0
  -4   4   1 1131.58   50.87   0
  -4   4   1 1107.56   50.06   0
   3  -4  -1   52.80    4.81   0
   3  -4  -1   61.40    4.90   0
   3  -4  -1   55.22    5.29   0
  -3   4   1   51.02    4.45   0
  -3   4   1   69.50    5.36   0
   2  -4  -1  148.34    8.42   0
   2  -4  -1  146.89    8.00   0
   2  -4  -1  147.13    8.22   0
  -2   4   1  137.73    7.95   0
   1  -4  -1   42.73    4.01   0
   1  -4  -1   47.60    3.83   0
   1  -4  -1   46.61    4.18   0
  -1   4   1   43.75    3.95   0
  -1   4   1   45.74    4.24   0
  -1   4   1   43.23    3.93   0
   0  -4  -1 2148.78   91.94   0
   0  -4  -1 2009.79   92.04   0
   0  -4  -1 2113.12   92.62   0
   0   4   1 2157.61   91.97   0
   0   4   1 2108.07   92.10   0
   0   4   1 2138.64   92.64   0
  -1  -4  -1  177.83   10.53   0
  -1  -4  -1  184.13   11.35   0
  -1  -4  -1  195.99   10.40   0
   1   4   1  189.82   10.36   0
   1   4   1  194.20   10.98   0
  -2  -4  -1   40.71    4.78   0
  -2  -4  -1   24.69    4.66   0
  -2  -4  -1   33.25    5.30   0
   2   4   1   29.87    4.52   0
   2   4   1   43.31    5.22   0
  -3  -4  -1   86.27    7.50   0
  -3  -4  -1   92.12    9.72   0
  -3  -4  -1   93.60    7.59   0
  -3  -4  -1   88.25    8.29   0
   3   4   1  101.58    7.45   0
   3   4   1   92.06    7.96   0
   3   4   1   98.21    7.73   0
  -4  -4  -1    9.88    5.97   0
  -4  -4  -1    6.87    3.44   0
  -4  -4  -1   13.09    3.96   0
  -4  -4  -1    8.32    3.88   0
   4   4   1   11.71    3.51   0
   4   4   1    9.94    4.05   0
   4   4   1    6.38    4.13   0
  -5  -4  -1  757.02   41.78   0
  -5  -4  -1  797.48   39.05   0
  -5  -4  -1  789.05   38.74   0
  -5  -4  -1  834.45   38.68   0
   5   4   1  815.49   39.77   0
   5   4   1  804.12   38.34   0
   5   4   1  764.75   37.80   0
  -6  -4  -1  318.29   20.40   0
  -6  -4  -1  327.53   20.87   0
  -6  -4  -1  354.08   20.54   0
   6   4   1  320.00   19.21   0
   6   4   1  311.27   21.27   0
   6   4   1  330.73   19.85   0
  -7  -4  -1   93.71   13.77   0
  -7  -4  -1  108.91   14.49   0
  -7  -4  -1   98.01   14.73   0
   7   4   1   77.98   15.51   0
   7   4   1   94.81   13.94   0
   7   4   1   98.24   12.16   0
   8  -5  -1  473.16   26.67   0
   8  -5  -1  500.18   27.06   0
   8  -5  -1  479.52   26.23   0
  -8   5   1  468.08   25.07   0
  -8   5   1  436.12   27.66   0
   7  -5  -1  697.44   37.24   0
   7  -5  -1  728.33   37.38   0
   7  -5  -1  829.64   37.27   0
  -7   5   1  715.05   37.84   0
  -7   5   1  791.79   36.51   0
   6  -5  -1  245.97   15.36   0
   6  -5  -1  237.12   14.68   0
   6  -5  -1  240.29   15.29   0
  -6   5   1  239.36   15.81   0
  -6   5   1  240.58   14.24   0
   5  -5  -1  253.71   15.23   0
   5  -5  -1  257.85   14.53   0
   5  -5  -1  255.72   14.69   0
  -5   5   1  239.66   14.91   0
  -5   5   1  259.81   14.04   0
   4  -5  -1  865.20   41.18   0
   4  -5  -1  893.30   40.55   0
   4  -5  -1  921.43   40.75   0
  -4   5   1  843.65   40.05   0
  -4   5   1  888.68   41.06   0
   3  -5  -1  162.19    9.33   0
   3  -5  -1  158.14    9.53   0
   3  -5  -1  148.06    9.93   0
   3  -5  -1  157.75    9.45   0
  -3   5   1  154.02    9.69   0
  -3   5   1  149.42    9.03   0
   2  -5  -1   32.10    4.39   0
   2  -5  -1   38.09    4.39   0
   2  -5  -1   37.64    4.10   0
  -2   5   1   44.12    4.52   0
   1  -5  -1   35.46    4.63   0
   1  -5  -1   39.11    4.14   0
   1  -5  -1   45.18    4.58   0
  -1   5   1   33.73    4.35   0
   0  -5  -1   35.40    5.17   0
   0  -5  -1   36.90    4.81   0
   0  -5  -1   48.81    4.71   0
   0   5   1   49.62    5.28   0
   0   5   1   36.38    4.85   0
  -1  -5  -1  314.71   17.72   0
  -1  -5  -1  315.78   16.23   0
  -1  -5  -1  305.78   16.69   0
   1   5   1  309.96   16.30   0
   1   5   1  326.41   17.17   0
   1   5   1  325.95   16.32   0
  -2  -5  -1   75.64    8.95   0
  -2  -5  -1   83.47    7.20   0
  -2  -5  -1   74.69    8.00   0
   2   5   1   73.66    7.08   0
   2   5   1   79.16    7.67   0
   2   5   1   83.99    6.96   0
  -3  -5  -1   76.62    8.55   0
  -3  -5  -1   47.94   10.04   0
  -3  -5  -1   73.61    7.43   0
  -3  -5  -1   67.29    7.43   0
   3   5   1   78.91    7.40   0
   3   5   1   62.83    7.83   0
   3   5   1   70.17    7.67   0
  -4  -5  -1   30.98    7.46   0
  -4  -5  -1   39.68    6.54   0
  -4  -5  -1   38.51    6.12   0
  -4  -5  -1   22.08    6.14   0
   4   5   1   25.82    4.76   0
   4   5   1   38.33    6.43   0
   4   5   1   33.77    6.05   0
  -5  -5  -1  179.99   13.36   0
  -5  -5  -1  174.20   14.18   0
   5   5   1  159.80   13.84   0
   5   5   1  174.54   13.26   0
   5   5   1  184.69   14.76   0
  -6  -5  -1  236.96   18.67   0
  -6  -5  -1  253.39   17.41   0
  -6  -5  -1  205.66   17.60   0
   6   5   1  215.98   17.66   0
   6   5   1  208.04   18.54   0
   6   5   1  221.57   16.58   0
   8  -6  -1    7.49    7.93   0
   8  -6  -1    5.87    6.55   0
   8  -6  -1    5.04    7.03   0
  -8   6   1   13.98    8.50   0
  -8   6   1   25.96    7.22   0
   7  -6  -1   -0.75    5.60   0
   7  -6  -1   -1.08    5.04   0
   7  -6  -1    3.91    6.06   0
  -7   6   1    4.90    5.16   0
  -7   6   1   -9.93    6.08   0
   6  -6  -1  727.61   36.27   0
   6  -6  -1  742.92   35.86   0
   6  -6  -1  734.66   35.40   0
  -6   6   1  711.64   36.14   0
  -6   6   1  703.67   34.52   0
   5  -6  -1 4734.94  212.67   0
   5  -6  -1 4889.11  212.14   0
   5  -6  -1 4936.05  211.94   0
  -5   6   1 4939.24  211.43   0
  -5   6   1 4919.22  212.63   0
   4  -6  -1  638.46   29.51   0
   4  -6  -1  604.29   29.39   0
   4  -6  -1  602.76   30.05   0
   4  -6  -1  594.01   29.36   0
  -4   6   1  612.78   29.84   0
  -4   6   1  601.27   28.93   0
   3  -6  -1   10.41    3.26   0
   3  -6  -1   12.80    3.72   0
   3  -6  -1    7.85    2.85   0
  -3   6   1    5.31    3.10   0
   2  -6  -1   86.34    7.19   0
   2  -6  -1   73.65    6.42   0
   2  -6  -1   87.84    7.26   0
  -2   6   1   97.73    7.34   0
   1  -6  -1  598.00   28.71   0
   1  -6  -1  607.59   29.13   0
   1  -6  -1  601.90   28.21   0
  -1   6   1  600.52   28.57   0
  -1   6   1  580.03   28.61   0
  -1   6   1  615.11   29.18   0
   0  -6  -1  943.39   43.88   0
   0  -6  -1  939.63   42.64   0
   0  -6  -1  906.16   43.14   0
   0   6   1  918.44   42.82   0
   0   6   1  918.92   43.04   0
   0   6   1  982.44   43.81   0
  -1  -6  -1  505.95   25.97   0
  -1  -6  -1  514.60   27.00   0
  -1  -6  -1  507.38   25.20   0
   1   6   1  505.79   25.48   0
   1   6   1  512.69   25.18   0
   1   6   1  544.15   26.41   0
  -2  -6  -1   35.58    6.46   0
  -2  -6  -1   52.26    8.53   0
  -2  -6  -1   25.00    6.84   0
   2   6   1   23.96    5.00   0
   2   6   1   32.90    5.92   0
   2   6   1   36.37    6.01   0
  -3  -6  -1    2.39    3.94   0
  -3  -6  -1    1.81    5.98   0
  -3  -6  -1    4.64    4.37   0
  -3  -6  -1    1.17    4.77   0
   3   6   1    3.46    3.72   0
   3   6   1    1.11    4.28   0
   3   6   1   -4.09    3.77   0
  -4  -6  -1  156.69   13.86   0
  -4  -6  -1  116.44   11.19   0
  -4  -6  -1  114.00   11.83   0
   4   6   1  126.63   11.21   0
   4   6   1  113.33   11.56   0
   4   6   1  125.14   12.13   0
  -5  -6  -1  567.70   36.20   0
  -5  -6  -1  555.91   31.67   0
  -5  -6  -1  711.89   32.15   0
  -5  -6  -1  579.05   32.64   0
   5   6   1  552.22   31.98   0
   5   6   1  581.44   30.46   0
  -6  -6  -1  733.28   38.71   0
  -6  -6  -1  790.31   41.93   0
   6   6   1  715.95   37.60   0
   6   6   1  702.66   38.70   0
   8  -7  -1   83.97   14.43   0
   8  -7  -1   71.27   11.76   0
  -8   7   1   72.03    9.44   0
  -8   7   1   84.13   12.04   0
   7  -7  -1    1.47    5.94   0
   7  -7  -1    5.40    6.06   0
   7  -7  -1   -2.51    6.38   0
  -7   7   1    6.33    5.25   0
  -7   7   1    4.91    7.57   0
   6  -7  -1  399.40   24.06   0
   6  -7  -1  407.41   23.52   0
  -6   7   1  372.88   23.66   0
  -6   7   1  472.99   22.81   0
   5  -7  -1 1433.73   64.13   0
   5  -7  -1 1331.24   64.75   0
   5  -7  -1 1361.80   63.90   0
   5  -7  -1 1433.83   64.22   0
  -5   7   1 1392.57   63.55   0
  -5   7   1 1464.62   65.03   0
   4  -7  -1  869.34   43.44   0
   4  -7  -1  959.59   42.85   0
   4  -7  -1  898.04   42.77   0
   4  -7  -1  920.00   42.87   0
  -4   7   1  907.84   43.27   0
  -4   7   1  913.39   42.46   0
   3  -7  -1  171.55   11.06   0
   3  -7  -1  145.11   11.26   0
   3  -7  -1  150.09   11.53   0
   3  -7  -1  172.13   11.28   0
  -3   7   1  167.55   11.22   0
  -3   7   1  169.07   11.49   0
   2  -7  -1  581.89   28.27   0
   2  -7  -1  539.89   27.44   0
   2  -7  -1  585.12   28.47   0
  -2   7   1  604.91   28.33   0
  -2   7   1  555.60   28.10   0
   1  -7  -1  625.90   31.08   0
   1  -7  -1  630.11   31.48   0
   1  -7  -1  639.33   30.32   0
  -1   7   1  655.93   31.50   0
  -1   7   1  634.48   30.82   0
  -1   7   1  642.40   31.13   0
   0  -7  -1  943.80   45.47   0
   0  -7  -1  951.59   46.35   0
   0  -7  -1 1029.25   47.45   0
   0   7   1 1052.38   47.07   0
   0   7   1 1034.23   46.03   0
   0   7   1  946.89   46.15   0
  -1  -7  -1  363.88   19.85   0
  -1  -7  -1  373.96   21.84   0
  -1  -7  -1  348.05   21.03   0
   1   7   1  358.01   19.77   0
   1   7   1  369.86   20.41   0
   1   7   1  384.88   20.89   0
  -2  -7  -1   47.56    8.03   0
  -2  -7  -1   54.35    9.75   0
  -2  -7  -1   56.51    8.28   0
   2   7   1   46.44    8.46   0
   2   7   1   46.60    7.74   0
   2   7   1   48.89    8.73   0
  -3  -7  -1   -0.99    5.37   0
  -3  -7  -1    1.97    5.08   0
   3   7   1   -0.24    4.01   0
   3   7   1   -6.23    5.36   0
   3   7   1    1.10    5.26   0
  -4  -7  -1   24.25   10.58   0
  -4  -7  -1   32.55    7.88   0
  -4  -7  -1   26.24    6.88   0
   4   7   1   47.07    8.69   0
   4   7   1   44.31    7.13   0
  -5  -7  -1  195.25   17.07   0
  -5  -7  -1  191.99   20.09   0
  -5  -7  -1  183.13   18.55   0
  -5  -7  -1  191.56   24.23   0
   5   7   1  159.52   15.57   0
   5   7   1  199.44   18.20   0
   5   7   1  204.77   18.20   0
   7  -8  -1   87.27   14.37   0
   7  -8  -1   54.40   10.48   0
   7  -8  -1   35.20    9.05   0
  -7   8   1   87.55   15.43   0
  -7   8   1   64.22    9.82   0
   6  -8  -1    2.70    6.55   0
   6  -8  -1   -6.02    6.50   0
   6  -8  -1    8.25    5.35   0
   6  -8  -1    8.90    6.50   0
  -6   8   1    5.78    6.87   0
  -6   8   1    2.49    5.76   0
   5  -8  -1  184.60   13.43   0
   5  -8  -1  171.59   14.45   0
   5  -8  -1  170.01   13.70   0
  -5   8   1  168.65   14.97   0
   4  -8  -1   70.35   10.29   0
   4  -8  -1   74.71    9.50   0
   4  -8  -1  108.05   10.08   0
  -4   8   1   98.83   10.87   0
   3  -8  -1  355.89   19.49   0
   3  -8  -1  327.48   18.46   0
   3  -8  -1  303.73   19.19   0
   3  -8  -1  348.59   19.20   0
  -3   8   1  320.85   19.14   0
   2  -8  -1  493.57   25.90   0
   2  -8  -1  466.51   24.64   0
   2  -8  -1  511.01   25.94   0
  -2   8   1  495.04   25.85   0
   1  -8  -1  594.45   31.23   0
   1  -8  -1  630.89   31.89   0
   1  -8  -1  622.73   30.29   0
  -1   8   1  633.00   31.33   0
  -1   8   1  629.98   31.07   0
   0  -8  -1  314.92   19.75   0
   0  -8  -1  293.32   17.12   0
   0  -8  -1  300.29   19.18   0
   0   8   1  299.54   17.96   0
   0   8   1  310.02   18.28   0
   0   8   1  308.13   18.66   0
  -1  -8  -1  225.37   17.70   0
  -1  -8  -1  210.71   16.77   0
  -1  -8  -1  221.38   14.71   0
   1   8   1  234.64   15.28   0
   1   8   1  220.63   15.83   0
   1   8   1  232.06   15.92   0
  -2  -8  -1  234.96   16.55   0
   2   8   1  221.67   16.50   0
   2   8   1  246.10   16.22   0
   2   8   1  247.77   17.22   0
  -3  -8  -1  283.12   20.65   0
  -3  -8  -1  241.64   18.58   0
  -3  -8  -1  263.03   23.81   0
   3   8   1  260.86   19.23   0
   3   8   1  267.53   17.52   0
  -4  -8  -1  107.43   14.33   0
  -4  -8  -1  107.88   18.16   0
  -4  -8  -1   96.41   15.23   0
  -4  -8  -1  100.42   16.05   0
   4   8   1  115.07   15.82   0
   4   8   1   91.51   12.98   0
   4   8   1   84.63   15.71   0
   6  -9  -1  177.45   16.27   0
   6  -9  -1  150.23   17.17   0
   6  -9  -1  155.80   17.59   0
  -6   9   1  161.66   18.41   0
  -6   9   1  152.52   15.70   0
   5  -9  -1  170.97   16.23   0
   5  -9  -1  190.27   16.52   0
   5  -9  -1  157.87   15.08   0
   5  -9  -1  188.33   14.76   0
  -5   9   1  184.72   15.23   0
  -5   9   1  182.75   16.72   0
   4  -9  -1   88.20   12.19   0
   4  -9  -1   79.03   10.88   0
   4  -9  -1  117.66   11.43   0
  -4   9   1  103.99   12.63   0
   3  -9  -1   11.49    5.84   0
   3  -9  -1    5.55    5.29   0
   3  -9  -1   13.32    6.62   0
   3  -9  -1   14.38    5.12   0
  -3   9   1    8.16    5.84   0
   2  -9  -1  318.79   19.74   0
   2  -9  -1  285.05   17.89   0
  -2   9   1  322.80   19.69   0
   0  -9  -1   75.29   10.02   0
   0  -9  -1   76.13   12.37   0
   0   9   1   71.57   11.29   0
   0   9   1   67.17   11.54   0
   0   9   1   67.31   11.73   0
  -1  -9  -1   -8.27    7.32   0
  -1  -9  -1    9.73    7.72   0
  -1  -9  -1    1.27    5.96   0
   1   9   1    6.01    5.92   0
   1   9   1    6.25    5.73   0
  -2  -9  -1  207.72   21.51   0
  -2  -9  -1  244.44   23.25   0
  -2  -9  -1  248.77   18.15   0
   2   9   1  234.99   17.57   0
   2   9   1  231.79   18.85   0
   2   9   1  244.75   18.98   0
  -3  -9  -1  695.54   43.81   0
  -3  -9  -1  748.44   40.55   0
  -3  -9  -1  699.64   37.66   0
   3   9   1  648.47   36.09   0
   3   9   1  749.46   38.53   0
   3   9   1  672.92   39.50   0
   5 -10  -1  133.48   15.49   0
   5 -10  -1  143.54   18.24   0
   5 -10  -1  123.80   16.96   0
   5 -10  -1  147.04   15.59   0
  -5  10   1  177.37   18.13   0
  -5  10   1  167.69   18.41   0
   4 -10  -1  482.92   27.84   0
   4 -10  -1  525.12   29.75   0
   4 -10  -1  447.72   29.02   0
  -4  10   1  552.68   30.04   0
  -4  10   1  516.01   29.65   0
   3 -10  -1   51.96    8.81   0
   3 -10  -1   35.28    9.33   0
   3 -10  -1   52.56    8.04   0
  -3  10   1   48.84    9.81   0
  -3  10   1   44.64    8.64   0
   2 -10  -1    8.37    5.69   0
   2 -10  -1   13.27    6.92   0
  -2  10   1   11.88    8.35   0
   1 -10  -1  231.00   20.51   0
   1 -10  -1  249.21   17.01   0
   1 -10  -1  254.15   20.40   0
  -1  10   1  222.78   18.77   0
  -1  10   1  235.80   19.61   0
   0 -10  -1  344.31   21.71   0
   0 -10  -1  337.90   25.36   0
   0 -10  -1  355.92   25.02   0
   0  10   1  335.92   22.10   0
   0  10   1  343.64   23.33   0
   0  10   1  343.28   23.06   0
  -1 -10  -1  342.29   22.74   0
  -1 -10  -1  373.98   27.85   0
  -1 -10  -1  288.96   24.98   0
   1  10   1  339.68   24.43   0
   1  10   1  338.85   22.61   0
   1  10   1  346.63   23.75   0
   0  11  -2  798.38   43.50   0
   0  11  -2  864.56   43.24   0
   0  11  -2  843.65   45.54   0
   0 -11   2  851.66   45.16   0
   0 -11   2  778.16   41.55   0
   0 -11   2  926.09   45.88   0
  -1  11  -2   95.97   16.44   0
  -1  11  -2  144.51   19.19   0
   1 -11   2  100.76   13.26   0
   1 -11   2  111.43   17.22   0
  -2  11  -2    4.17    8.57   0
  -2  11  -2   12.96   11.60   0
   2 -11   2   11.36    7.64   0
   2 -11   2   15.03   10.29   0
   2 -11   2   16.16    7.90   0
   2 -11   2    9.52    7.59   0
  -3  11  -2   20.27   10.35   0
   3 -11   2   21.61    7.98   0
   3 -11   2   26.37    9.45   0
   3 -11   2   22.68    7.37   0
   3 -11   2   32.01    9.07   0
  -4  11  -2  203.65   21.15   0
  -4  11  -2  162.28   17.97   0
   4 -11   2  151.72   18.52   0
   4 -11   2  140.58   17.62   0
   4 -11   2  162.77   17.28   0
   4 -11   2  162.68   14.94   0
   2  10  -2   -7.43    7.01   0
   2  10  -2   -3.56    7.13   0
   2  10  -2   -9.19    8.98   0
  -2 -10   2    0.29    7.09   0
  -2 -10   2   15.29   10.50   0
  -2 -10   2    7.13   10.44   0
   1  10  -2   89.09   16.43   0
   1  10  -2   87.84   15.41   0
   1  10  -2  121.78   13.17   0
  -1 -10   2  120.14   16.90   0
  -1 -10   2  116.21   12.35   0
   0  10  -2  153.98   13.73   0
   0  10  -2  144.74   15.08   0
   0  10  -2  147.41   15.98   0
   0 -10   2  146.47   12.67   0
   0 -10   2  147.16   15.28   0
   0 -10   2  124.09   16.24   0
  -1  10  -2   17.63    7.09   0
  -1  10  -2   15.92    7.79   0
   1 -10   2    7.67    5.42   0
   1 -10   2    9.11    6.79   0
   1 -10   2    9.24    6.43   0
  -2  10  -2   74.73   12.88   0
  -2  10  -2   84.55   14.04   0
   2 -10   2   73.38   11.25   0
   2 -10   2   90.63   13.87   0
   2 -10   2   81.30   10.83   0
   2 -10   2   60.84   10.38   0
  -3  10  -2  240.89   19.76   0
   3 -10   2  244.88   17.03   0
   3 -10   2  256.04   18.03   0
   3 -10   2  223.41   15.74   0
   3 -10   2  246.91   17.56   0
  -4  10  -2  421.26   24.88   0
  -4  10  -2  356.05   23.94   0
   4 -10   2  371.65   21.67   0
   4 -10   2  391.04   24.10   0
   4 -10   2  377.90   24.02   0
   4 -10   2  432.64   23.91   0
  -5  10  -2  159.96   16.91   0
  -5  10  -2  168.57   17.54   0
   5 -10   2  164.94   16.22   0
   5 -10   2  148.76   15.62   0
   5 -10   2  161.97   17.17   0
   5 -10   2  134.37   12.70   0
   4   9  -2  265.56   21.19   0
   4   9  -2  294.32   21.37   0
   4   9  -2  267.87   24.28   0
  -4  -9   2  301.26   28.18   0
  -4  -9   2  258.87   22.93   0
  -4  -9   2  296.81   23.05   0
   3   9  -2  789.64   39.45   0
   3   9  -2  733.72   37.88   0
   3   9  -2  731.07   38.38   0
  -3  -9   2  735.15   37.30   0
  -3  -9   2  753.67   42.11   0
  -3  -9   2  739.80   39.88   0
  -3  -9   2  728.97   37.72   0
   2   9  -2  393.00   22.19   0
   2   9  -2  343.20   21.81   0
   2   9  -2  383.28   23.47   0
  -2  -9   2  372.69   24.92   0
  -2  -9   2  344.66   20.96   0
   1   9  -2  124.93   11.57   0
   1   9  -2  124.75   13.20   0
  -1  -9   2  116.10   13.74   0
  -1  -9   2  110.52   10.56   0
   0   9  -2   37.45    6.30   0
   0  -9   2   31.78    7.67   0
   0  -9   2   46.11    7.72   0
   0  -9   2   38.30    7.87   0
  -1   9  -2   29.37    6.31   0
   1  -9   2   27.86    7.41   0
   1  -9   2   35.36    5.55   0
   1  -9   2   27.00    6.00   0
  -2   9  -2  403.75   21.54   0
  -2   9  -2  355.14   20.75   0
   2  -9   2  348.86   19.45   0
   2  -9   2  311.61   19.35   0
   2  -9   2  335.50   19.92   0
   2  -9   2  347.87   20.49   0
  -3   9  -2  945.45   44.71   0
   3  -9   2  906.53   43.52   0
   3  -9   2  877.02   44.59   0
   3  -9   2  958.11   44.89   0
   3  -9   2  967.24   44.31   0
  -4   9  -2   26.96    6.70   0
   4  -9   2   37.69    7.31   0
   4  -9   2   53.50    9.58   0
   4  -9   2   52.96    8.37   0
  -5   9  -2    5.91    5.91   0
  -5   9  -2   -4.20    6.34   0
   5  -9   2    0.25    4.16   0
   5  -9   2   -4.24    5.97   0
   5  -9   2    1.32    5.76   0
  -6   9  -2  167.36   15.97   0
  -6   9  -2  131.69   17.02   0
   6  -9   2  117.30   11.74   0
   6  -9   2  144.95   15.20   0
   6  -9   2  136.50   15.30   0
   5   8  -2   20.22    7.94   0
   5   8  -2   20.50    8.15   0
   5   8  -2   15.65    9.52   0
  -5  -8   2   15.78    9.44   0
  -5  -8   2   20.83    9.86   0
   4   8  -2  153.97   14.94   0
   4   8  -2  178.63   17.66   0
   4   8  -2  159.18   14.86   0
  -4  -8   2  173.38   16.87   0
  -4  -8   2  195.74   20.25   0
  -4  -8   2  171.44   15.40   0
  -4  -8   2  161.74   13.51   0
   3   8  -2 1088.50   52.71   0
   3   8  -2 1062.22   52.07   0
   3   8  -2 1243.04   53.55   0
  -3  -8   2 1059.60   55.69   0
  -3  -8   2 1066.08   51.69   0
  -3  -8   2 1205.71   54.22   0
  -3  -8   2 1037.54   51.93   0
   2   8  -2  535.77   28.91   0
   2   8  -2  559.04   28.37   0
   2   8  -2  578.22   28.32   0
  -2  -8   2  528.29   30.59   0
  -2  -8   2  537.36   27.60   0
  -2  -8   2  512.60   29.41   0
   1   8  -2    6.66    3.87   0
   1   8  -2    8.55    4.33   0
  -1  -8   2    7.52    5.21   0
  -1  -8   2    8.39    4.43   0
  -1  -8   2   13.67    5.31   0
   0   8  -2   92.99    9.08   0
   0  -8   2  120.68    9.14   0
   0  -8   2  123.66   11.03   0
  -1   8  -2  157.56   11.01   0
   1  -8   2  159.05   11.39   0
  -2   8  -2 1142.78   54.78   0
  -2   8  -2 1183.51   54.77   0
   2  -8   2 1282.60   55.06   0
   2  -8   2 1199.87   54.20   0
   2  -8   2 1146.68   54.09   0
   2  -8   2 1191.52   54.97   0
  -3   8  -2  450.55   21.94   0
   3  -8   2  393.53   21.56   0
   3  -8   2  413.78   21.92   0
   3  -8   2  405.22   21.19   0
   3  -8   2  358.91   20.27   0
  -4   8  -2   29.37    5.71   0
   4  -8   2   44.37    7.77   0
   4  -8   2   23.80    5.20   0
   4  -8   2   24.01    4.46   0
   5  -8   2   78.36   10.27   0
   5  -8   2  100.24   11.18   0
   5  -8   2   85.64   10.22   0
  -6   8  -2  163.16   15.97   0
  -6   8  -2  193.22   14.12   0
   6  -8   2  143.34   11.79   0
   6  -8   2  189.18   14.36   0
   6  -8   2  170.52   14.87   0
   6  -8   2  209.28   15.24   0
  -7   8  -2  516.02   30.80   0
  -7   8  -2  530.36   28.45   0
   7  -8   2  587.46   30.24   0
   7  -8   2  528.44   29.11   0
   7  -8   2  522.83   30.21   0
   7  -8   2  493.56   27.16   0
   6   7  -2  103.60   16.43   0
   6   7  -2  123.53   17.64   0
  -6  -7   2  147.47   18.61   0
   5   7  -2  323.50   21.35   0
   5   7  -2  294.88   20.09   0
   5   7  -2  273.90   20.52   0
  -5  -7   2  316.48   19.00   0
  -5  -7   2  324.66   20.48   0
  -5  -7   2  311.71   21.76   0
   3   7  -2    0.62    4.57   0
   3   7  -2    1.04    4.05   0
   3   7  -2    3.71    3.91   0
  -3  -7   2    4.12    3.96   0
  -3  -7   2    4.68    4.31   0
  -3  -7   2    2.78    5.43   0
   2   7  -2  578.99   28.21   0
   2   7  -2  508.56   27.07   0
   2   7  -2  533.83   27.55   0
  -2  -7   2  540.77   27.04   0
  -2  -7   2  562.67   29.73   0
  -2  -7   2  549.95   28.54   0
   1   7  -2    0.68    3.13   0
   1   7  -2    7.92    4.10   0
   1   7  -2    5.96    3.22   0
  -1  -7   2    2.41    2.80   0
  -1  -7   2    1.38    3.65   0
  -1  -7   2   10.99    4.42   0
   0   7  -2  207.30   12.91   0
   0  -7   2  206.55   13.38   0
   0  -7   2  221.62   12.49   0
   0  -7   2  239.24   13.74   0
  -1   7  -2  165.67   10.37   0
   1  -7   2  174.18   10.16   0
   1  -7   2  157.73   10.54   0
  -2   7  -2    1.30    3.10   0
  -2   7  -2   -2.63    3.31   0
   2  -7   2    8.94    3.34   0
   2  -7   2    2.28    2.41   0
   2  -7   2    0.15    2.83   0
  -3   7  -2   68.40    7.14   0
   3  -7   2   74.40    7.01   0
   3  -7   2   64.78    7.19   0
   3  -7   2   60.90    5.91   0
  -4   7  -2    4.51    3.78   0
   4  -7   2   -1.19    3.33   0
   4  -7   2    1.45    2.41   0
   4  -7   2    1.30    3.05   0
  -5   7  -2  368.56   20.67   0
   5  -7   2  363.08   19.71   0
   5  -7   2  335.85   18.50   0
   5  -7   2  386.54   20.34   0
  -6   7  -2  168.46   14.42   0
   6  -7   2  189.35   13.73   0
   6  -7   2  187.32   13.17   0
   6  -7   2  178.88   14.01   0
  -7   7  -2  263.92   16.55   0
  -7   7  -2  222.45   18.45   0
   7  -7   2  252.36   17.36   0
   7  -7   2  234.31   17.66   0
   7  -7   2  222.90   16.26   0
  -8   7  -2   -7.71    6.92   0
   8  -7   2   -0.79    7.91   0
   8  -7   2   -0.78    6.72   0
   8  -7   2  -10.56    6.52   0
   6   6  -2   91.77   13.47   0
   6   6  -2   64.32   10.67   0
   6   6  -2   54.21    9.68   0
  -6  -6   2   44.35    8.20   0
  -6  -6   2   64.29   10.82   0
  -6  -6   2   66.93   11.75   0
   5   6  -2  174.84   14.61   0
   5   6  -2  186.62   14.31   0
  -5  -6   2  175.35   14.31   0
  -5  -6   2  179.02   12.90   0
   4   6  -2  678.02   33.83   0
   4   6  -2  676.42   32.93   0
   4   6  -2  675.34   33.63   0
  -4  -6   2  667.94   33.20   0
  -4  -6   2  662.53   32.19   0
  -4  -6   2  657.68   33.69   0
  -4  -6   2  651.38   36.43   0
   3   6  -2 1501.91   78.70   0
   3   6  -2 1897.77   79.88   0
   3   6  -2 1874.98   80.17   0
  -3  -6   2 1880.11   79.50   0
  -3  -6   2 1788.59   78.88   0
  -3  -6   2 1952.45   82.56   0
  -3  -6   2 1517.28   79.49   0
   2   6  -2 2318.41  100.66   0
   2   6  -2 2292.38  100.95   0
   2   6  -2 2347.00  101.09   0
  -2  -6   2 2225.56  101.24   0
  -2  -6   2 2218.47  100.37   0
  -2  -6   2 2291.44  102.67   0
   1   6  -2  106.27    7.75   0
   1   6  -2   82.66    7.30   0
   0   6  -2   11.24    3.11   0
   0   6  -2   21.66    4.00   0
   0   6  -2   18.34    3.62   0
  -1   6  -2 1185.23   51.69   0
  -1   6  -2 1175.49   52.17   0
  -1   6  -2 1141.52   51.98   0
   1  -6   2 1174.14   51.59   0
   1  -6   2 1157.39   51.83   0
   1  -6   2 1108.26   52.07   0
  -2   6  -2 1430.85   63.15   0
  -2   6  -2 1396.61   62.78   0
   2  -6   2 1407.09   63.27   0
   2  -6   2 1443.21   62.74   0
   2  -6   2 1410.25   63.07   0
   2  -6   2 1398.60   62.43   0
  -3   6  -2  431.57   21.63   0
   3  -6   2  474.55   22.13   0
   3  -6   2  444.82   22.56   0
   3  -6   2  451.61   22.11   0
   3  -6   2  439.79   21.28   0
  -4   6  -2  467.00   23.12   0
   4  -6   2  442.45   22.37   0
   4  -6   2  469.17   22.75   0
   4  -6   2  436.52   21.58   0
   4  -6   2  439.85   23.15   0
  -5   6  -2   22.97    4.83   0
   5  -6   2   20.08    4.86   0
   5  -6   2   18.52    4.47   0
   5  -6   2   18.08    4.32   0
  -6   6  -2  373.53   19.77   0
  -6   6  -2  360.28   21.01   0
   6  -6   2  358.31   19.83   0
   6  -6   2  344.60   20.62   0
   6  -6   2  380.92   20.58   0
  -7   6  -2  805.03   43.39   0
  -7   6  -2  844.91   41.72   0
   7  -6   2 1010.51   42.78   0
   7  -6   2  912.23   42.97   0
   7  -6   2  811.95   42.96   0
  -8   6  -2  571.15   29.75   0
  -8   6  -2  513.26   31.93   0
   8  -6   2  577.89   30.29   0
   8  -6   2  551.27   31.23   0
   8  -6   2  603.51   31.10   0
   8  -6   2  540.27   30.80   0
   7   5  -2    3.73    7.89   0
   7   5  -2   16.21    7.42   0
   7   5  -2    3.20    6.60   0
  -7  -5   2   12.98    6.82   0
  -7  -5   2    6.97    7.48   0
  -7  -5   2    9.53    7.62   0
   6   5  -2   49.74    8.48   0
   6   5  -2   47.91    8.24   0
   6   5  -2   73.95    9.51   0
  -6  -5   2   64.99    9.19   0
  -6  -5   2   39.75    6.90   0
  -6  -5   2   54.61    8.27   0
   5   5  -2  157.30   12.79   0
   5   5  -2  123.61   11.94   0
   5   5  -2  160.14   12.01   0
  -5  -5   2  141.72   12.23   0
  -5  -5   2  147.98   11.78   0
  -5  -5   2  127.99   10.42   0
   4   5  -2  442.08   21.14   0
   4   5  -2  349.87   20.75   0
   4   5  -2  411.41   21.88   0
  -4  -5   2  381.67   19.91   0
  -4  -5   2  394.09   20.85   0
  -4  -5   2  372.82   21.28   0
   3   5  -2 2594.88  112.82   0
   3   5  -2 2670.93  113.74   0
   3   5  -2 2615.79  113.10   0
  -3  -5   2 2582.24  113.41   0
  -3  -5   2 2512.59  112.29   0
  -3  -5   2 2494.68  114.95   0
  -3  -5   2 2522.73  112.85   0
   2   5  -2 2148.88   92.57   0
   2   5  -2 2112.08   92.74   0
   2   5  -2 2169.87   93.04   0
  -2  -5   2 2035.10   92.95   0
  -2  -5   2 2086.62   92.41   0
  -2  -5   2 2071.76   94.18   0
   1   5  -2  198.71   10.92   0
   1   5  -2  192.29   11.05   0
   1   5  -2  179.54   10.76   0
  -1  -5   2  191.76   10.62   0
  -1  -5   2  217.11   12.10   0
  -1  -5   2  180.63   11.16   0
   0   5  -2 1323.64   56.60   0
   0   5  -2 1264.93   56.73   0
   0  -5   2 1271.78   56.94   0
   0  -5   2 1250.98   56.83   0
   0  -5   2 1267.86   56.31   0
  -1   5  -2 1982.08   88.33   0
  -1   5  -2 1963.09   88.12   0
  -1   5  -2 2053.04   87.88   0
   1  -5   2 2030.35   87.97   0
   1  -5   2 2030.31   88.41   0
   1  -5   2 2059.31   87.97   0
  -2   5  -2 3349.28  150.17   0
  -2   5  -2 3675.80  150.72   0
   2  -5   2 3517.05  149.92   0
   2  -5   2 3540.37  150.59   0
   2  -5   2 3304.28  150.62   0
  -3   5  -2  656.26   30.41   0
   3  -5   2  694.38   30.84   0
   3  -5   2  683.54   30.09   0
   3  -5   2  633.47   31.13   0
   3  -5   2  645.74   30.63   0
  -4   5  -2   52.78    6.18   0
  -4   5  -2   63.47    6.37   0
  -4   5  -2   54.80    5.41   0
   4  -5   2   58.83    6.08   0
   4  -5   2   52.08    5.54   0
   4  -5   2   53.83    6.08   0
  -5   5  -2   18.96    4.44   0
  -5   5  -2   18.64    4.13   0
   5  -5   2   17.13    4.08   0
   5  -5   2   14.27    3.50   0
   5  -5   2   16.16    3.99   0
  -6   5  -2  129.13   10.86   0
  -6   5  -2  131.42   11.06   0
  -6   5  -2  119.26    9.30   0
   6  -5   2  122.61    9.74   0
   6  -5   2  127.82   10.19   0
   6  -5   2  110.80   10.08   0
  -7   5  -2  648.92   30.22   0
  -7   5  -2  546.04   31.50   0
  -7   5  -2  669.78   31.88   0
   7  -5   2  580.49   31.15   0
   7  -5   2  595.98   30.10   0
   7  -5   2  547.18   31.01   0
   7  -5   2  614.90   30.88   0
  -8   5  -2  720.11   39.04   0
  -8   5  -2  727.24   36.78   0
  -8   5  -2  812.83   39.18   0
   8  -5   2  727.50   38.30   0
   8  -5   2  721.06   36.92   0
   8  -5   2  747.43   38.73   0
   8  -5   2  745.32   37.81   0
   7   4  -2   -2.03    5.52   0
   7   4  -2   -1.90    7.02   0
   7   4  -2    7.83    6.98   0
  -7  -4   2   -3.30    5.45   0
  -7  -4   2   -6.53    5.94   0
  -7  -4   2   -2.73    5.84   0
   6   4  -2    6.01    4.71   0
   6   4  -2    5.46    4.79   0
   6   4  -2   11.18    5.17   0
  -6  -4   2   13.66    4.51   0
  -6  -4   2    8.32    4.97   0
  -6  -4   2   16.92    6.25   0
   5   4  -2   24.20    5.43   0
  -5  -4   2   14.75    4.17   0
  -5  -4   2   15.10    3.96   0
   4   4  -2  115.79    8.87   0
   4   4  -2  127.59    9.45   0
   4   4  -2  144.49   10.42   0
  -4  -4   2  125.31    9.14   0
  -4  -4   2  110.38    9.24   0
   3   4  -2  194.43   10.95   0
   3   4  -2  193.47   11.18   0
   3   4  -2  182.16   11.56   0
  -3  -4   2  181.55   10.84   0
  -3  -4   2  183.74   11.19   0
  -3  -4   2  186.28   10.18   0
  -3  -4   2  171.16   12.75   0
   2   4  -2  184.71   10.21   0
   2   4  -2  177.07    9.94   0
   2   4  -2  193.01   10.58   0
  -2  -4   2  173.86   11.25   0
  -2  -4   2  188.10   10.47   0
  -2  -4   2  145.46    9.62   0
   1   4  -2  798.90   34.93   0
   1   4  -2  800.09   35.07   0
  -1  -4   2  761.97   34.67   0
  -1  -4   2  736.63   35.55   0
  -1  -4   2  753.64   35.12   0
   0   4  -2  886.24   39.51   0
   0   4  -2  913.48   39.62   0
   0   4  -2  914.87   39.36   0
   0  -4   2  840.15   39.55   0
   0  -4   2  860.24   39.19   0
   0  -4   2  893.74   39.65   0
  -1   4  -2 2111.80   88.56   0
  -1   4  -2 2065.03   87.95   0
  -1   4  -2 1991.09   88.22   0
   1  -4   2 2093.90   88.03   0
   1  -4   2 2012.78   88.47   0
   1  -4   2 1964.16   88.38   0
   1  -4   2 2000.31   88.13   0
  -2   4  -2 1695.84   75.68   0
  -2   4  -2 1828.43   76.15   0
   2  -4   2 1692.59   76.21   0
   2  -4   2 1735.26   75.92   0
   2  -4   2 1769.22   75.35   0
   2  -4   2 1714.13   75.84   0
  -3   4  -2  689.51   31.60   0
  -3   4  -2  675.40   32.24   0
   3  -4   2  705.32   31.79   0
   3  -4   2  721.10   31.98   0
  -4   4  -2 1048.39   47.96   0
  -4   4  -2 1031.16   47.97   0
  -4   4  -2 1071.88   47.28   0
   4  -4   2 1089.43   47.69   0
   4  -4   2 1045.42   47.31   0
   4  -4   2 1038.36   48.09   0
  -5   4  -2  397.58   21.76   0
  -5   4  -2  408.36   21.86   0
  -5   4  -2  441.16   21.21   0
   5  -4   2  417.81   21.94   0
   5  -4   2  452.23   21.67   0
   5  -4   2  445.41   21.28   0
  -6   4  -2   63.07    8.17   0
  -6   4  -2   54.00    7.72   0
  -6   4  -2   55.12    6.64   0
   6  -4   2   54.99    6.70   0
   6  -4   2   55.09    7.43   0
   6  -4   2   65.70    7.60   0
   6  -4   2   45.08    6.87   0
  -7   4  -2   10.15    5.96   0
  -7   4  -2    9.33    3.89   0
  -7   4  -2    6.07    4.99   0
   7  -4   2    4.49    4.15   0
   7  -4   2   14.08    4.77   0
   7  -4   2    6.12    4.61   0
   7  -4   2   -0.06    4.81   0
  -8   4  -2   -1.18    6.19   0
  -8   4  -2    1.97    6.02   0
  -8   4  -2    2.55    5.29   0
   8  -4   2    2.37    5.08   0
   8  -4   2   -0.54    5.92   0
   8  -4   2    6.91    6.05   0
   8  -4   2    4.39    4.95   0
   8   3  -2   38.40   10.28   0
   8   3  -2   24.09    8.53   0
  -8  -3   2   23.92    8.04   0
  -8  -3   2   42.68    9.48   0
   7   3  -2  107.39   11.15   0
   7   3  -2  116.74   13.61   0
   7   3  -2   96.75   11.65   0
  -7  -3   2   73.51   11.54   0
  -7  -3   2   94.76   11.47   0
  -7  -3   2  102.78   10.38   0
   6   3  -2  373.27   20.47   0
   6   3  -2  372.33   22.40   0
   6   3  -2  380.32   20.86   0
  -6  -3   2  382.38   20.75   0
  -6  -3   2  359.57   20.64   0
  -6  -3   2  346.12   19.60   0
   5   3  -2  104.71    8.74   0
   5   3  -2   97.48    8.13   0
   5   3  -2  103.79    9.70   0
  -5  -3   2   83.55    7.15   0
  -5  -3   2   83.27    8.11   0
  -5  -3   2   88.30    8.33   0
   4   3  -2  197.51   11.59   0
   4   3  -2  190.87   12.48   0
   4   3  -2  195.07   11.32   0
  -4  -3   2  189.32   10.53   0
  -4  -3   2  187.93   11.41   0
  -4  -3   2  180.88   11.23   0
   3   3  -2  313.64   16.23   0
   3   3  -2  335.08   17.33   0
   3   3  -2  345.19   16.53   0
  -3  -3   2  310.92   15.53   0
  -3  -3   2  330.72   16.33   0
  -3  -3   2  312.87   16.38   0
   2   3  -2  115.45    6.80   0
   2   3  -2  114.01    6.89   0
   2   3  -2  107.88    7.32   0
  -2  -3   2  107.69    6.92   0
  -2  -3   2  107.12    6.12   0
  -2  -3   2  126.46    6.92   0
  -2  -3   2   91.65    7.57   0
   1   3  -2    5.08    1.60   0
   1   3  -2    5.83    1.77   0
   1   3  -2    4.82    1.63   0
  -1  -3   2    1.46    1.64   0
  -1  -3   2    4.86    1.33   0
  -1  -3   2    2.43    1.54   0
   0   3  -2  537.29   24.77   0
   0   3  -2  558.49   24.92   0
   0   3  -2  578.52   24.70   0
   0  -3   2  540.37   24.62   0
   0  -3   2  545.80   24.87   0
   0  -3   2  557.21   24.97   0
  -1   3  -2    8.38    1.42   0
  -1   3  -2    8.73    1.53   0
   1  -3   2    9.84    1.53   0
   1  -3   2   10.11    1.67   0
   1  -3   2   12.19    1.93   0
  -2   3  -2   25.62    2.47   0
  -2   3  -2   22.48    3.05   0
   2  -3   2   28.76    2.72   0
   2  -3   2   19.19    2.93   0
   2  -3   2   23.36    2.57   0
  -3   3  -2  869.73   39.04   0
  -3   3  -2  853.68   39.55   0
  -3   3  -2  875.57   39.42   0
   3  -3   2  887.02   39.22   0
   3  -3   2  888.02   39.07   0
   3  -3   2  875.24   39.67   0
  -4   3  -2 1259.06   56.22   0
  -4   3  -2 1290.26   56.87   0
  -4   3  -2 1304.49   56.82   0
   4  -3   2 1243.79   56.36   0
   4  -3   2 1233.32   56.82   0
  -5   3  -2 1944.08   86.52   0
  -5   3  -2 1880.05   85.77   0
  -5   3  -2 1949.41   86.57   0
   5  -3   2 1948.79   86.59   0
   5  -3   2 2019.43   86.18   0
  -6   3  -2   45.85    7.18   0
  -6   3  -2   44.50    5.90   0
  -6   3  -2   47.99    6.93   0
   6  -3   2   51.31    7.46   0
   6  -3   2   45.22    6.21   0
   6  -3   2   39.53    6.15   0
  -7   3  -2  160.96   12.37   0
  -7   3  -2  134.94   10.61   0
  -7   3  -2  123.09   11.90   0
   7  -3   2  138.09   11.08   0
   7  -3   2  135.15   10.95   0
   7  -3   2  139.74   12.10   0
  -8   3  -2   76.90   10.17   0
  -8   3  -2   95.11   12.93   0
  -8   3  -2   93.14   12.74   0
   8  -3   2   88.88   10.75   0
   8  -3   2   70.74   11.18   0
   8  -3   2   83.10   11.58   0
   8   2  -2  173.69   14.95   0
   8   2  -2  152.59   14.30   0
  -8  -2   2  154.94   14.67   0
  -8  -2   2  176.32   14.46   0
  -8  -2   2  149.24   15.72   0
   7   2  -2    5.06    3.69   0
   7   2  -2    8.16    4.49   0
   7   2  -2    9.29    5.46   0
  -7  -2   2    9.15    5.45   0
  -7  -2   2    3.47    4.35   0
   6   2  -2  159.48   10.87   0
   6   2  -2  152.60   11.31   0
   6   2  -2  142.55    9.46   0
   6   2  -2  137.70   12.53   0
  -6  -2   2  142.60   11.16   0
  -6  -2   2  141.63   10.82   0
  -6  -2   2  141.31   10.09   0
   5   2  -2  121.89    9.26   0
   5   2  -2  114.16   10.15   0
   5   2  -2  125.31    7.91   0
   5   2  -2  119.71    8.76   0
  -5  -2   2  116.20    9.01   0
  -5  -2   2  148.09    8.50   0
  -5  -2   2  116.80    8.80   0
   4   2  -2  882.17   42.11   0
   4   2  -2  906.95   40.74   0
   4   2  -2  915.74   39.99   0
   4   2  -2  895.12   40.84   0
  -4  -2   2  870.33   39.99   0
  -4  -2   2  893.14   40.70   0
  -4  -2   2  873.65   40.71   0
   3   2  -2  502.83   22.48   0
   3   2  -2  494.20   23.15   0
   3   2  -2  466.68   24.10   0
   3   2  -2  520.47   23.37   0
  -3  -2   2  499.51   22.52   0
  -3  -2   2  499.88   23.16   0
  -3  -2   2  471.93   23.07   0
   2   2  -2  250.81   13.55   0
   2   2  -2  278.21   12.96   0
   2   2  -2  263.59   12.91   0
  -2  -2   2  274.17   12.95   0
  -2  -2   2  266.42   12.25   0
  -2  -2   2  260.25   12.82   0
   1   2  -2  278.54   12.34   0
   1   2  -2  255.88   12.55   0
   1   2  -2  278.79   12.34   0
  -1  -2   2  255.88   12.26   0
  -1  -2   2  246.64   12.13   0
  -1  -2   2  249.41   12.63   0
   0   2  -2  422.02   16.83   0
   0   2  -2  350.15   16.56   0
   0   2  -2  380.40   16.54   0
   0  -2   2  390.77   16.78   0
   0  -2   2  365.66   16.50   0
   0  -2   2  349.45   16.44   0
   0  -2   2  350.12   16.58   0
  -1   2  -2 1638.10   70.84   0
  -1   2  -2 1626.70   70.99   0
  -1   2  -2 1648.95   70.73   0
   1  -2   2 1609.50   71.00   0
   1  -2   2 1621.86   70.74   0
   1  -2   2 1702.27   70.84   0
  -2   2  -2  766.22   34.48   0
  -2   2  -2  771.96   34.11   0
  -2   2  -2  813.07   34.34   0
   2  -2   2  767.09   34.14   0
   2  -2   2  788.18   34.09   0
   2  -2   2  729.38   34.43   0
  -3   2  -2  203.81   11.02   0
  -3   2  -2  215.43   10.98   0
  -3   2  -2  210.23   10.67   0
   3  -2   2  211.82   10.73   0
   3  -2   2  210.02   11.08   0
   3  -2   2  203.62   10.96   0
  -4   2  -2  766.95   35.35   0
  -4   2  -2  749.28   34.88   0
  -4   2  -2  754.20   35.33   0
   4  -2   2  782.78   35.45   0
   4  -2   2  757.94   35.58   0
   4  -2   2  769.06   34.83   0
   4  -2   2  782.20   35.01   0
  -5   2  -2  411.83   20.37   0
  -5   2  -2  387.22   19.72   0
  -5   2  -2  381.79   20.31   0
   5  -2   2  383.92   19.65   0
   5  -2   2  400.48   19.80   0
   5  -2   2  394.63   20.22   0
   5  -2   2  401.26   20.88   0
  -6   2  -2  173.91   12.28   0
  -6   2  -2  183.27   12.19   0
  -6   2  -2  177.51   11.47   0
   6  -2   2  176.60   11.29   0
   6  -2   2  183.16   12.84   0
   6  -2   2  184.65   11.77   0
   6  -2   2  187.23   11.89   0
  -7   2  -2    5.80    5.06   0
  -7   2  -2    3.40    4.31   0
  -7   2  -2   -0.20    3.57   0
   7  -2   2    5.27    4.73   0
   7  -2   2   -2.25    3.89   0
   7  -2   2    5.33    4.07   0
   7  -2   2    3.49    3.76   0
  -8   2  -2   87.02   11.51   0
  -8   2  -2   69.54   11.91   0
  -8   2  -2   89.62   11.01   0
   8  -2   2  105.36   11.19   0
   8  -2   2   83.27   12.35   0
   8  -2   2  102.33   11.67   0
   8   1  -2 1068.67   48.57   0
   8   1  -2  971.68   48.26   0
   8   1  -2  976.81   50.86   0
   8   1  -2  991.12   47.15   0
  -8  -1   2  935.86   48.37   0
  -8  -1   2  992.55   47.65   0
  -8  -1   2 1016.19   48.19   0
   7   1  -2  465.26   25.20   0
   7   1  -2  453.92   27.68   0
   7   1  -2  493.41   24.40   0
   7   1  -2  497.75   25.49   0
  -7  -1   2  494.74   25.70   0
  -7  -1   2  470.97   25.04   0
  -7  -1   2  453.72   24.71   0
   6   1  -2   35.03    6.33   0
   6   1  -2   47.83    7.80   0
   6   1  -2   35.28    5.08   0
   6   1  -2   43.68    6.59   0
  -6  -1   2   41.99    5.82   0
  -6  -1   2   41.56    6.46   0
  -6  -1   2   33.06    5.18   0
   5   1  -2 1117.24   54.00   0
   5   1  -2 1208.39   52.72   0
   5   1  -2 1155.85   51.70   0
   5   1  -2 1156.94   52.39   0
  -5  -1   2 1085.35   51.75   0
  -5  -1   2 1190.28   52.64   0
  -5  -1   2 1180.00   52.41   0
   4   1  -2 2162.04   97.22   0
   4   1  -2 2274.74   95.96   0
   4   1  -2 2168.68   95.25   0
   4   1  -2 2219.71   96.05   0
  -4  -1   2 2238.63   96.00   0
  -4  -1   2 2127.18   95.33   0
  -4  -1   2 2150.56   95.76   0
   3   1  -2  364.02   17.71   0
   3   1  -2  387.81   17.68   0
   3   1  -2  380.49   17.09   0
   3   1  -2  370.85   18.66   0
  -3  -1   2  366.02   17.61   0
  -3  -1   2  360.82   17.53   0
  -3  -1   2  363.74   17.14   0
   2   1  -2  197.47   10.35   0
   2   1  -2  225.84   10.40   0
   2   1  -2  214.73    9.85   0
  -2  -1   2  226.59   10.39   0
  -2  -1   2  215.59   10.37   0
  -2  -1   2  204.55    9.87   0
   1   1  -2 1626.82   69.82   0
   1   1  -2 1596.52   69.84   0
  -1  -1   2 1641.07   69.78   0
   0   1  -2 6694.01  289.01   0
  -1   1  -2 3857.36  173.11   0
   1  -1   2 4031.01  173.09   0
  -2   1  -2  803.39   35.53   0
  -2   1  -2  791.77   35.31   0
  -2   1  -2  805.70   35.21   0
   2  -1   2  817.31   35.16   0
   2  -1   2  847.78   35.18   0
   2  -1   2  753.97   35.42   0
   2  -1   2  777.41   35.51   0
  -3   1  -2 2034.76   83.67   0
  -3   1  -2 1851.75   83.28   0
  -3   1  -2 1908.91   83.65   0
   3  -1   2 1901.28   83.25   0
   3  -1   2 1867.01   83.88   0
   3  -1   2 1904.32   83.68   0
   3  -1   2 1935.58   83.23   0
  -4   1  -2 1729.49   77.00   0
  -4   1  -2 1750.54   77.38   0
  -4   1  -2 1760.77   77.38   0
   4  -1   2 1733.36   77.92   0
   4  -1   2 1751.26   76.96   0
   4  -1   2 1768.72   76.88   0
   4  -1   2 1773.62   77.44   0
  -5   1  -2  420.09   21.46   0
  -5   1  -2  412.41   21.28   0
  -5   1  -2  413.12   20.91   0
   5  -1   2  417.29   22.12   0
   5  -1   2  447.42   21.03   0
   5  -1   2  428.13   21.32   0
   5  -1   2  401.26   20.64   0
  -6   1  -2  222.33   14.22   0
  -6   1  -2  227.30   13.62   0
  -6   1  -2  242.39   14.37   0
   6  -1   2  218.59   14.83   0
   6  -1   2  225.38   13.40   0
   6  -1   2  239.51   14.00   0
   6  -1   2  236.03   13.79   0
  -7   1  -2  469.04   25.32   0
  -7   1  -2  501.67   25.38   0
  -7   1  -2  421.85   24.20   0
   7  -1   2  455.72   24.44   0
   7  -1   2  472.38   24.91   0
   7  -1   2  474.92   23.93   0
   7  -1   2  445.62   25.79   0
  -8   1  -2   -4.89    5.05   0
  -8   1  -2   13.73    7.41   0
  -8   1  -2   11.82    6.60   0
   8  -1   2    2.91    6.05   0
   8  -1   2    4.70    5.50   0
   8  -1   2   10.58    5.98   0
   8  -1   2    3.17    4.87   0
   9   0  -2  242.30   20.10   0
   9   0  -2  248.92   22.04   0
   9   0  -2  262.62   17.82   0
   9   0  -2  249.56   18.87   0
  -9   0   2  214.07   17.63   0
  -9   0   2  228.99   22.47   0
  -9   0   2  251.10   18.92   0
   8   0  -2  226.24   16.65   0
   8   0  -2  233.43   16.61   0
   8   0  -2  211.24   19.20   0
   8   0  -2  242.34   15.24   0
  -8   0   2  241.52   16.16   0
  -8   0   2  246.78   17.46   0
  -8   0   2  219.10   15.82   0
   7   0  -2  560.33   28.95   0
   7   0  -2  503.20   25.90   0
   7   0  -2  486.44   25.90   0
   7   0  -2  493.80   24.95   0
  -7   0   2  462.51   25.30   0
  -7   0   2  541.26   26.40   0
  -7   0   2  418.66   24.89   0
   6   0  -2 2399.65  100.70   0
   6   0  -2 2216.69   98.37   0
   6   0  -2 2219.96   97.71   0
  -6   0   2 2126.86   97.74   0
  -6   0   2 2128.58   97.93   0
  -6   0   2 2217.86   98.41   0
   5   0  -2 2631.37  116.41   0
   5   0  -2 2736.54  116.06   0
   5   0  -2 2573.51  116.49   0
  -5   0   2 2601.47  116.05   0
  -5   0   2 2703.83  116.31   0
  -5   0   2 2722.06  116.71   0
   4   0  -2  621.29   28.75   0
   4   0  -2  595.87   28.49   0
   4   0  -2  644.44   28.27   0
  -4   0   2  593.11   28.64   0
  -4   0   2  629.65   28.34   0
  -4   0   2  613.38   28.42   0
   3   0  -2   18.56    2.58   0
   3   0  -2   11.67    2.11   0
   3   0  -2   15.75    2.18   0
  -3   0   2   13.07    2.13   0
  -3   0   2   15.09    2.31   0
  -3   0   2   14.70    2.38   0
   2   0  -2 2068.11   95.28   0
   2   0  -2 2128.69   95.49   0
   2   0  -2 2446.25   95.75   0
  -2   0   2 2048.12   95.29   0
  -2   0   2 2208.42   95.46   0
  -2   0   2 2394.23   95.66   0
   1   0  -2 6530.91  250.26   0
  -1   0   2 4983.13  249.15   0
  -1   0  -2  404.18   18.79   0
  -1   0  -2  463.20   19.38   0
  -1   0  -2  423.91   18.82   0
  -1   0  -2  432.92   19.22   0
   1   0   2  420.41   18.71   0
   1   0   2  423.45   18.67   0
   1   0   2  438.89   19.22   0
   1   0   2  405.26   19.18   0
  -2   0  -2  641.74   29.46   0
  -2   0  -2  654.06   28.84   0
  -2   0  -2  642.21   29.04   0
  -2   0  -2  667.88   28.76   0
   2   0   2  606.90   28.58   0
   2   0   2  645.53   29.06   0
   2   0   2  657.87   28.63   0
   2   0   2  647.08   29.25   0
  -3   0  -2 3515.05  156.05   0
  -3   0  -2 3629.37  155.83   0
  -3   0  -2 3790.61  156.08   0
  -3   0  -2 3525.05  156.68   0
   3   0   2 3515.71  156.53   0
   3   0   2 3636.16  155.71   0
   3   0   2 3637.00  156.14   0
   3   0   2 3645.13  155.69   0
  -4   0  -2 4545.49  198.97   0
  -4   0  -2 4564.56  198.74   0
  -4   0  -2 4627.00  199.04   0
   4   0   2 4685.72  198.63   0
   4   0   2 4633.17  199.05   0
   4   0   2 4561.90  198.52   0
  -5   0  -2 4810.67  205.01   0
  -5   0  -2 4630.73  204.50   0
  -5   0  -2 4781.64  204.93   0
   5   0   2 4879.71  204.98   0
   5   0   2 4603.98  204.33   0
   5   0   2 4638.88  205.77   0
   5   0   2 4719.23  204.29   0
  -6   0  -2   39.36    6.75   0
  -6   0  -2   47.06    6.94   0
  -6   0  -2   31.89    5.08   0
   6   0   2   41.08    5.88   0
   6   0   2   30.89    5.88   0
   6   0   2   53.25    6.82   0
   6   0   2   36.67    6.33   0
  -7   0  -2   -2.51    4.10   0
  -7   0  -2    7.17    5.00   0
   7   0   2    5.11    4.08   0
   7   0   2    1.18    4.10   0
   7   0   2   -3.83    4.50   0
   7   0   2   -0.77    3.72   0
  -8   0  -2   69.01   10.59   0
  -8   0  -2   85.69   12.50   0
  -8   0  -2   67.14   11.18   0
   8   0   2   71.51   10.34   0
   8   0   2   58.04   10.52   0
   8   0   2   71.17   10.09   0
   8   0   2   61.61   12.05   0
   9  -1  -2  386.06   24.58   0
   9  -1  -2  413.71   24.00   0
   9  -1  -2  414.87   25.36   0
   9  -1  -2  440.70   29.24   0
  -9   1   2  477.22   25.51   0
  -9   1   2  375.81   23.80   0
  -9   1   2  364.41   25.27   0
   8  -1  -2   10.13    4.94   0
   8  -1  -2   17.13    6.02   0
   8  -1  -2   25.31    5.88   0
   8  -1  -2   17.31    6.53   0
  -8   1   2   11.27    4.51   0
  -8   1   2   24.95    6.33   0
  -8   1   2   31.14    6.36   0
   7  -1  -2  762.33   35.91   0
   7  -1  -2  617.30   32.11   0
   7  -1  -2  664.02   33.00   0
   7  -1  -2  645.96   32.85   0
  -7   1   2  656.68   33.19   0
  -7   1   2  610.21   32.15   0
  -7   1   2  697.65   32.81   0
   6  -1  -2 1067.15   48.41   0
   6  -1  -2 1034.00   47.92   0
   6  -1  -2 1112.19   48.65   0
  -6   1   2 1026.59   48.06   0
  -6   1   2 1015.48   47.92   0
  -6   1   2 1030.68   48.58   0
   5  -1  -2  321.32   16.93   0
   5  -1  -2  345.20   16.79   0
   5  -1  -2  318.56   16.96   0
  -5   1   2  325.54   16.70   0
  -5   1   2  315.50   17.10   0
  -5   1   2  336.08   16.86   0
   4  -1  -2   20.32    3.15   0
   4  -1  -2   18.99    3.16   0
  -4   1   2   12.82    2.43   0
  -4   1   2   26.24    3.75   0
  -4   1   2   18.54    2.96   0
   3  -1  -2 1370.39   58.79   0
   3  -1  -2 1334.71   58.64   0
   3  -1  -2 1232.81   58.53   0
  -3   1   2 1408.24   58.84   0
  -3   1   2 1272.81   58.41   0
  -3   1   2 1403.07   58.72   0
   2  -1  -2  738.40   35.00   0
   2  -1  -2  831.17   35.27   0
   2  -1  -2  825.46   35.25   0
  -2   1   2  783.41   34.92   0
  -2   1   2  810.96   35.19   0
   1  -1  -2 2249.87   95.25   0
   1  -1  -2 2183.48   95.36   0
  -1   1   2 2228.61   95.32   0
   0  -1  -2  198.50    9.41   0
   0  -1  -2  217.08   10.04   0
   0  -1  -2  212.56    9.39   0
   0   1   2  215.61   10.04   0
   0   1   2  196.60    9.27   0
  -1  -1  -2  500.92   22.60   0
  -1  -1  -2  464.01   22.05   0
  -1  -1  -2  493.40   22.19   0
  -1  -1  -2  488.96   22.79   0
   1   1   2  554.71   22.08   0
   1   1   2  491.24   22.68   0
   1   1   2  483.66   21.96   0
  -2  -1  -2    4.81    1.82   0
  -2  -1  -2    2.98    1.55   0
  -2  -1  -2    2.91    1.43   0
  -2  -1  -2    4.57    1.43   0
   2   1   2    3.99    1.44   0
   2   1   2    4.67    1.39   0
   2   1   2    3.28    1.35   0
  -3  -1  -2  452.46   24.40   0
  -3  -1  -2  503.24   23.52   0
  -3  -1  -2  492.33   23.30   0
  -3  -1  -2  506.05   23.32   0
   3   1   2  492.66   23.98   0
   3   1   2  505.50   23.08   0
   3   1   2  505.29   23.09   0
   3   1   2  504.96   23.52   0
  -4  -1  -2 1788.60   78.64   0
  -4  -1  -2 1669.43   79.92   0
  -4  -1  -2 1751.29   78.51   0
  -4  -1  -2 1818.59   78.83   0
   4   1   2 1775.48   78.28   0
   4   1   2 1830.47   79.64   0
   4   1   2 1828.14   78.80   0
   4   1   2 1757.43   78.21   0
  -5  -1  -2 1365.08   62.00   0
  -5  -1  -2 1369.77   61.82   0
  -5  -1  -2 1371.59   61.96   0
   5   1   2 1390.11   61.98   0
   5   1   2 1365.35   61.38   0
   5   1   2 1362.40   61.46   0
   5   1   2 1348.81   62.87   0
  -6  -1  -2  585.90   29.11   0
  -6  -1  -2  566.21   29.20   0
  -6  -1  -2  601.22   29.49   0
   6   1   2  528.35   28.28   0
   6   1   2  591.18   30.35   0
   6   1   2  569.50   28.96   0
   6   1   2  603.25   28.62   0
  -7  -1  -2  162.77   13.66   0
  -7  -1  -2  148.80   13.00   0
   7   1   2  154.72   14.07   0
   7   1   2  151.77   12.04   0
   7   1   2  193.24   12.74   0
   7   1   2  154.65   12.39   0
  -8  -1  -2  405.69   24.71   0
  -8  -1  -2  457.00   25.86   0
  -8  -1  -2  379.45   25.32   0
   8   1   2  409.77   26.33   0
   8   1   2  393.97   24.08   0
   8   1   2  406.66   23.18   0
   9  -2  -2  273.30   19.62   0
   9  -2  -2  262.22   21.66   0
   9  -2  -2  233.16   17.15   0
   9  -2  -2  207.22   17.16   0
  -9   2   2  226.22   19.13   0
  -9   2   2  240.73   17.32   0
  -9   2   2  277.50   19.40   0
   8  -2  -2  149.29   12.61   0
   8  -2  -2  122.50   12.27   0
   8  -2  -2  120.22   11.32   0
   8  -2  -2  156.70   15.60   0
  -8   2   2  132.81   11.39   0
  -8   2   2  117.37   12.49   0
  -8   2   2  148.85   12.80   0
   7  -2  -2    8.67    3.91   0
   7  -2  -2    6.28    4.75   0
   7  -2  -2   14.57    5.26   0
  -7   2   2   13.30    4.57   0
  -7   2   2    6.78    4.12   0
  -7   2   2    7.77    4.61   0
   6  -2  -2   71.99    7.64   0
   6  -2  -2   79.15    7.87   0
   6  -2  -2   87.46    7.46   0
  -6   2   2   80.12    8.05   0
  -6   2   2   82.77    7.82   0
  -6   2   2   88.02    7.35   0
   5  -2  -2  223.03   13.35   0
   5  -2  -2  245.04   13.58   0
   5  -2  -2  261.90   13.68   0
  -5   2   2  255.04   13.67   0
  -5   2   2  243.93   13.78   0
  -5   2   2  240.58   13.13   0
   4  -2  -2  172.38    9.53   0
   4  -2  -2  153.79    9.24   0
   4  -2  -2  165.18    9.39   0
  -4   2   2  146.82    8.80   0
  -4   2   2  151.28    9.36   0
  -4   2   2  177.43    9.56   0
   3  -2  -2    9.49    2.16   0
   3  -2  -2    7.23    1.75   0
  -3   2   2    9.05    2.02   0
  -3   2   2   10.97    2.01   0
   2  -2  -2  123.68    6.56   0
   2  -2  -2  129.70    6.79   0
  -2   2   2  123.57    6.45   0
  -2   2   2  128.63    6.79   0
   1  -2  -2  547.14   24.68   0
   1  -2  -2  576.33   25.40   0
   1  -2  -2  552.95   24.79   0
  -1   2   2  573.43   24.81   0
  -1   2   2  542.44   24.72   0
   0  -2  -2   71.23    4.27   0
   0  -2  -2   73.14    4.26   0
   0  -2  -2   82.31    4.92   0
   0   2   2   70.80    4.20   0
   0   2   2   83.37    4.94   0
   0   2   2   69.65    4.09   0
  -1  -2  -2  121.60    7.37   0
  -1  -2  -2  120.81    6.74   0
  -1  -2  -2  118.06    6.56   0
   1   2   2  127.98    7.30   0
   1   2   2  121.54    6.47   0
   1   2   2  121.16    6.44   0
  -2  -2  -2   41.98    4.07   0
  -2  -2  -2   46.29    4.47   0
  -2  -2  -2   53.56    5.34   0
  -2  -2  -2   47.85    4.33   0
   2   2   2   49.78    4.04   0
   2   2   2   48.63    4.57   0
   2   2   2   47.78    3.91   0
  -3  -2  -2  358.84   17.78   0
  -3  -2  -2  355.00   17.88   0
  -3  -2  -2  365.59   17.97   0
  -3  -2  -2  340.50   19.36   0
   3   2   2  367.82   17.49   0
   3   2   2  366.29   18.52   0
   3   2   2  345.70   17.42   0
  -4  -2  -2  118.13    8.59   0
  -4  -2  -2  116.80    8.64   0
  -4  -2  -2  124.06    8.62   0
  -4  -2  -2  117.99   10.79   0
   4   2   2  121.28    8.19   0
   4   2   2  130.37    9.35   0
   4   2   2  110.39    8.20   0
  -5  -2  -2   16.54    4.42   0
  -5  -2  -2    8.12    3.89   0
  -5  -2  -2    9.23    3.95   0
  -5  -2  -2    2.38    4.91   0
   5   2   2    8.27    3.58   0
   5   2   2    9.78    3.80   0
   5   2   2    4.87    3.35   0
  -6  -2  -2   85.15    9.60   0
  -6  -2  -2   86.42    9.60   0
   6   2   2   95.52    8.95   0
   6   2   2   89.88    8.93   0
   6   2   2   82.84   10.16   0
  -7  -2  -2  512.17   28.81   0
  -7  -2  -2  524.38   28.28   0
  -7  -2  -2  513.20   27.76   0
   7   2   2  472.99   26.42   0
   7   2   2  547.15   27.40   0
   7   2   2  488.71   28.92   0
   9  -3  -2   44.01    8.50   0
   9  -3  -2   58.74   10.44   0
   9  -3  -2   33.57    9.99   0
   9  -3  -2   24.81    7.12   0
  -9   3   2   37.62    8.51   0
  -9   3   2   29.09    7.39   0
  -9   3   2   33.89    8.63   0
   8  -3  -2   41.01    7.69   0
   8  -3  -2   34.28    6.08   0
   8  -3  -2   51.36    7.58   0
  -8   3   2   31.88    5.96   0
  -8   3   2   44.98    7.50   0
   7  -3  -2  618.22   32.80   0
   7  -3  -2  676.84   33.11   0
   7  -3  -2  676.51   33.45   0
  -7   3   2  664.37   32.41   0
  -7   3   2  643.44   33.50   0
  -7   3   2  734.49   33.74   0
   6  -3  -2 2007.90   84.60   0
   6  -3  -2 1971.58   84.57   0
   6  -3  -2 1611.60   83.74   0
  -6   3   2 1872.09   83.63   0
  -6   3   2 1985.37   84.85   0
   5  -3  -2  569.92   26.75   0
   5  -3  -2  529.02   26.46   0
   5  -3  -2  561.10   26.88   0
  -5   3   2  511.68   25.89   0
  -5   3   2  581.10   27.09   0
   4  -3  -2   22.45    3.73   0
   4  -3  -2   22.21    3.61   0
   4  -3  -2   15.34    2.82   0
  -4   3   2   18.44    3.40   0
  -4   3   2   15.04    2.58   0
   3  -3  -2   57.88    4.99   0
   3  -3  -2   64.09    4.71   0
  -3   3   2   55.96    4.31   0
  -3   3   2   57.03    4.79   0
   2  -3  -2 1459.01   62.91   0
   2  -3  -2 1416.32   62.73   0
  -2   3   2 1386.95   62.64   0
  -2   3   2 1490.17   63.03   0
   1  -3  -2 1155.26   50.03   0
   1  -3  -2 1133.15   50.57   0
   1  -3  -2 1130.13   49.84   0
  -1   3   2 1137.58   49.98   0
   0  -3  -2  613.60   28.39   0
   0  -3  -2  608.56   27.71   0
   0  -3  -2  604.33   27.64   0
   0   3   2  620.15   27.66   0
   0   3   2  618.29   27.55   0
   0   3   2  615.49   28.43   0
  -1  -3  -2   10.13    2.43   0
  -1  -3  -2   10.25    2.83   0
   1   3   2   11.17    2.57   0
   1   3   2    9.05    1.93   0
   1   3   2    8.47    1.97   0
  -2  -3  -2   22.41    3.79   0
  -2  -3  -2   20.98    4.48   0
  -2  -3  -2   25.47    3.81   0
   2   3   2   22.94    3.63   0
   2   3   2   25.99    4.15   0
   2   3   2   19.35    3.41   0
  -3  -3  -2  517.80   27.80   0
  -3  -3  -2  529.21   25.86   0
  -3  -3  -2  531.40   26.11   0
  -3  -3  -2  548.26   26.23   0
   3   3   2  522.03   25.47   0
   3   3   2  565.11   26.79   0
   3   3   2  554.03   25.47   0
  -4  -3  -2 1884.45   83.04   0
  -4  -3  -2 1848.19   82.87   0
  -4  -3  -2 1802.92   85.20   0
  -4  -3  -2 1850.34   83.02   0
   4   3   2 1932.63   83.91   0
   4   3   2 1834.03   82.17   0
   4   3   2 1863.86   82.36   0
  -5  -3  -2  449.32   24.64   0
  -5  -3  -2  496.82   24.83   0
  -5  -3  -2  450.97   27.84   0
  -5  -3  -2  446.98   24.62   0
   5   3   2  481.63   24.09   0
   5   3   2  496.19   25.87   0
   5   3   2  460.81   23.69   0
  -6  -3  -2  143.52   13.32   0
  -6  -3  -2  130.09   12.48   0
   6   3   2  140.47   11.05   0
   6   3   2  122.43   13.28   0
   6   3   2  135.48   11.61   0
  -7  -3  -2   79.96   12.54   0
  -7  -3  -2   73.82   12.36   0
  -7  -3  -2   66.64   10.93   0
   7   3   2   62.39    8.47   0
   7   3   2   76.70   14.01   0
   9  -4  -2    6.96    7.47   0
   9  -4  -2   14.03    9.16   0
  -9   4   2   12.14    6.18   0
  -9   4   2    7.87    8.25   0
   8  -4  -2   99.84   12.17   0
   8  -4  -2   68.97   10.57   0
  -8   4   2   89.77    9.77   0
  -8   4   2   86.48   11.05   0
   7  -4  -2 1798.62   77.40   0
   7  -4  -2 1661.45   77.05   0
  -7   4   2 1626.30   77.29   0
  -7   4   2 1692.21   75.97   0
   6  -4  -2 1130.66   53.33   0
   6  -4  -2 1166.17   53.29   0
  -6   4   2 1134.22   53.51   0
  -6   4   2 1180.59   52.40   0
   5  -4  -2  279.86   15.19   0
   5  -4  -2  268.44   15.55   0
  -5   4   2  273.68   15.44   0
  -5   4   2  263.83   14.31   0
   4  -4  -2  213.97   12.98   0
   4  -4  -2  234.95   12.68   0
   4  -4  -2  243.81   12.73   0
  -4   4   2  233.63   12.91   0
  -4   4   2  218.61   11.98   0
   3  -4  -2 2130.55   90.11   0
   3  -4  -2 2122.52   90.82   0
   3  -4  -2 2196.36   90.27   0
  -3   4   2 2010.89   89.77   0
  -3   4   2 1849.32   90.10   0
   2  -4  -2 4513.05  192.74   0
   2  -4  -2 4491.14  192.97   0
   2  -4  -2 4430.16  193.46   0
  -2   4   2 4271.90  192.72   0
  -2   4   2 4686.82  193.11   0
   1  -4  -2  132.21    7.77   0
   1  -4  -2  133.81    8.29   0
   1  -4  -2  128.18    7.39   0
  -1   4   2  127.38    7.60   0
  -1   4   2  138.34    7.66   0
   0  -4  -2  537.12   25.67   0
   0  -4  -2  567.78   25.57   0
   0  -4  -2  554.91   26.43   0
   0   4   2  570.63   25.51   0
   0   4   2  532.78   26.34   0
   0   4   2  552.68   25.61   0
  -1  -4  -2   17.76    3.47   0
  -1  -4  -2   14.69    3.56   0
   1   4   2   13.08    2.75   0
   1   4   2   21.19    3.93   0
   1   4   2   15.15    2.82   0
  -2  -4  -2   10.87    3.41   0
  -2  -4  -2    9.85    2.72   0
   2   4   2    3.54    2.50   0
  -3  -4  -2  295.28   16.26   0
  -3  -4  -2  289.81   18.51   0
  -3  -4  -2  299.63   16.78   0
  -3  -4  -2  298.31   16.50   0
   3   4   2  278.99   15.76   0
   3   4   2  302.71   15.76   0
   3   4   2  311.29   17.05   0
  -4  -4  -2  521.98   25.39   0
  -4  -4  -2  465.64   25.32   0
  -4  -4  -2  469.21   27.96   0
  -4  -4  -2  478.21   25.07   0
   4   4   2  472.45   24.46   0
   4   4   2  505.38   24.36   0
   4   4   2  505.03   26.05   0
  -5  -4  -2  570.48   28.78   0
  -5  -4  -2  528.10   28.73   0
  -5  -4  -2  542.81   32.48   0
  -5  -4  -2  549.56   28.96   0
   5   4   2  538.76   29.50   0
   5   4   2  555.49   28.07   0
   5   4   2  566.94   27.69   0
  -6  -4  -2  369.25   21.76   0
  -6  -4  -2  318.84   21.30   0
  -6  -4  -2  323.31   21.46   0
   6   4   2  318.57   21.77   0
   6   4   2  337.29   20.47   0
   6   4   2  339.60   19.80   0
  -7  -4  -2  141.31   16.29   0
  -7  -4  -2  114.53   16.15   0
   7   4   2  148.86   15.29   0
   7   4   2  171.75   19.58   0
   7   4   2  159.25   15.35   0
   8  -5  -2  194.57   15.67   0
   8  -5  -2  229.01   16.86   0
   8  -5  -2  192.79   15.63   0
  -8   5   2  190.25   14.91   0
  -8   5   2  195.38   17.18   0
   7  -5  -2  126.54   12.11   0
   7  -5  -2  139.00   12.59   0
  -7   5   2  122.55   12.94   0
  -7   5   2  148.42   11.13   0
   6  -5  -2  160.06   11.68   0
   6  -5  -2  167.52   12.47   0
   6  -5  -2  173.81   12.25   0
  -6   5   2  152.55   12.49   0
  -6   5   2  163.64   10.94   0
   5  -5  -2  424.34   23.84   0
   5  -5  -2  484.03   23.50   0
   5  -5  -2  483.46   23.74   0
  -5   5   2  447.88   22.65   0
  -5   5   2  483.48   23.94   0
   4  -5  -2  386.43   19.03   0
   4  -5  -2  358.00   19.52   0
   4  -5  -2  370.32   18.90   0
  -4   5   2  369.25   19.29   0
  -4   5   2  366.17   18.40   0
   3  -5  -2  940.21   43.24   0
   3  -5  -2  979.05   43.13   0
   3  -5  -2  935.58   43.67   0
  -3   5   2  924.78   42.92   0
  -3   5   2  982.09   43.56   0
   2  -5  -2 2402.36  101.25   0
   2  -5  -2 2323.52  102.06   0
   2  -5  -2 2270.39  101.42   0
  -2   5   2 2292.45  101.34   0
   1  -5  -2 2132.31   89.25   0
   1  -5  -2 2069.98   89.57   0
   1  -5  -2 2082.71   90.22   0
  -1   5   2 1793.68   89.05   0
  -1   5   2 2127.61   89.63   0
   0  -5  -2 1220.80   53.33   0
   0  -5  -2 1145.84   53.49   0
   0  -5  -2 1211.96   54.45   0
   0   5   2 1219.24   54.43   0
   0   5   2 1167.14   53.39   0
  -1  -5  -2  707.23   35.20   0
  -1  -5  -2  772.61   35.04   0
  -1  -5  -2  746.51   36.43   0
   1   5   2  718.57   34.80   0
   1   5   2  795.82   36.22   0
   1   5   2  781.55   34.81   0
  -2  -5  -2   52.36    7.74   0
  -2  -5  -2   51.24    8.41   0
  -2  -5  -2   59.65    6.88   0
   2   5   2   72.47    7.52   0
   2   5   2   56.17    6.03   0
   2   5   2   46.87    6.48   0
  -3  -5  -2  629.94   31.62   0
  -3  -5  -2  644.46   31.36   0
  -3  -5  -2  577.68   31.50   0
  -3  -5  -2  632.31   34.12   0
   3   5   2  663.39   30.63   0
   3   5   2  657.11   30.96   0
   3   5   2  659.57   32.24   0
  -4  -5  -2    9.84    4.79   0
  -4  -5  -2   12.02    7.39   0
  -4  -5  -2   -0.02    5.37   0
  -4  -5  -2    4.60    5.52   0
   4   5   2    1.42    3.60   0
   4   5   2    6.87    4.67   0
   4   5   2    1.70    4.49   0
  -5  -5  -2    7.28    5.56   0
  -5  -5  -2   -4.70    8.85   0
  -5  -5  -2    5.07    6.35   0
  -5  -5  -2   -0.99    6.28   0
   5   5   2    8.80    5.69   0
   5   5   2   -1.99    4.60   0
   5   5   2    4.68    5.73   0
  -6  -5  -2  594.76   39.62   0
  -6  -5  -2  626.43   34.71   0
  -6  -5  -2  635.94   34.46   0
  -6  -5  -2  631.94   33.99   0
   6   5   2  653.12   32.43   0
   6   5   2  623.11   35.06   0
   6   5   2  614.43   33.07   0
   8  -6  -2   -6.89    7.22   0
   8  -6  -2   -4.81    6.45   0
   8  -6  -2   -6.50    6.51   0
  -8   6   2    3.19    8.11   0
  -8   6   2    1.65    6.62   0
   7  -6  -2   -1.31    5.32   0
   7  -6  -2   -3.72    5.21   0
   7  -6  -2    9.40    6.66   0
  -7   6   2   -3.03    6.57   0
  -7   6   2    0.01    4.24   0
   6  -6  -2    9.18    5.32   0
   6  -6  -2   13.89    4.98   0
   6  -6  -2   16.43    5.17   0
  -6   6   2    9.96    3.98   0
  -6   6   2   13.34    5.44   0
   5  -6  -2    6.96    4.44   0
   5  -6  -2    3.10    4.03   0
  -5   6   2    7.99    3.40   0
   4  -6  -2   64.66    7.02   0
   4  -6  -2   73.49    7.43   0
   4  -6  -2   78.92    7.52   0
   4  -6  -2   71.10    8.03   0
  -4   6   2   71.23    7.63   0
   3  -6  -2  640.99   29.98   0
   3  -6  -2  619.88   30.20   0
   3  -6  -2  613.74   30.55   0
  -3   6   2  653.93   30.51   0
  -3   6   2  637.11   29.98   0
   2  -6  -2  280.55   14.71   0
   2  -6  -2  282.94   15.38   0
   2  -6  -2  277.18   15.73   0
  -2   6   2  273.48   15.11   0
   1  -6  -2   11.77    3.20   0
   1  -6  -2    3.01    2.49   0
   1  -6  -2    6.70    3.00   0
  -1   6   2    5.94    3.16   0
  -1   6   2    2.61    2.81   0
   0  -6  -2  671.39   32.31   0
   0  -6  -2  688.46   31.78   0
   0  -6  -2  652.71   33.09   0
   0   6   2  642.62   31.87   0
   0   6   2  710.52   33.17   0
   0   6   2  679.95   31.77   0
  -1  -6  -2  940.92   45.14   0
  -1  -6  -2  974.02   44.57   0
  -1  -6  -2  979.24   46.53   0
   1   6   2 1021.04   46.05   0
   1   6   2  911.01   44.42   0
   1   6   2  970.56   44.30   0
  -2  -6  -2 2634.82  121.59   0
  -2  -6  -2 2666.71  119.19   0
  -2  -6  -2 2674.86  119.94   0
   2   6   2 2734.64  118.78   0
   2   6   2 2753.11  119.06   0
   2   6   2 2779.02  120.53   0
  -3  -6  -2    6.18    5.15   0
  -3  -6  -2    9.70    6.54   0
  -3  -6  -2    2.19    5.25   0
  -3  -6  -2    8.48    5.00   0
   3   6   2    7.45    3.94   0
   3   6   2    5.66    4.87   0
   3   6   2   14.90    5.31   0
  -4  -6  -2  357.15   20.37   0
  -4  -6  -2  328.89   24.43   0
  -4  -6  -2  319.03   20.38   0
   4   6   2  323.00   20.92   0
   4   6   2  317.74   19.00   0
   4   6   2  353.89   20.31   0
  -5  -6  -2    3.53    7.46   0
  -5  -6  -2   -0.60    6.93   0
  -5  -6  -2   18.10    9.93   0
  -5  -6  -2   -0.79    6.91   0
   5   6   2   -0.02    6.53   0
   5   6   2    6.96    5.49   0
   7  -7  -2  415.19   25.27   0
   7  -7  -2  411.87   24.64   0
   7  -7  -2  418.18   24.50   0
  -7   7   2  402.22   22.65   0
  -7   7   2  389.19   25.18   0
   6  -7  -2  127.97   12.98   0
   6  -7  -2  109.83   11.91   0
   6  -7  -2  150.24   12.98   0
   6  -7  -2  120.39   12.23   0
  -6   7   2  140.61   11.66   0
  -6   7   2  114.41   12.77   0
   5  -7  -2   88.58    9.73   0
   5  -7  -2   56.28    9.77   0
   5  -7  -2   62.87    8.94   0
   5  -7  -2   87.42    9.26   0
  -5   7   2  109.43    9.65   0
   4  -7  -2    7.65    3.63   0
   4  -7  -2   -2.17    4.20   0
   4  -7  -2    2.85    3.81   0
   4  -7  -2    5.14    4.18   0
  -4   7   2   -2.40    4.11   0
  -4   7   2   -0.13    3.58   0
   3  -7  -2   79.13    8.16   0
   3  -7  -2  106.18    9.40   0
   3  -7  -2   93.84    8.93   0
  -3   7   2   96.25    8.83   0
  -3   7   2   86.09    8.85   0
   2  -7  -2 1258.43   55.29   0
   2  -7  -2 1073.05   54.29   0
  -2   7   2 1242.19   54.61   0
   1  -7  -2  835.28   39.50   0
   1  -7  -2  839.28   38.09   0
   1  -7  -2  759.72   38.64   0
  -1   7   2  827.02   38.32   0
  -1   7   2  806.11   38.48   0
   0  -7  -2   45.02    6.85   0
   0  -7  -2   39.77    7.07   0
   0  -7  -2   45.06    6.70   0
   0   7   2   37.85    6.44   0
   0   7   2   34.49    5.76   0
   0   7   2   42.20    7.47   0
  -1  -7  -2  670.53   34.95   0
  -1  -7  -2  706.91   36.26   0
  -1  -7  -2  687.32   33.78   0
   1   7   2  692.80   33.93   0
   1   7   2  693.15   33.56   0
   1   7   2  729.79   35.34   0
  -2  -7  -2   17.76    7.81   0
  -2  -7  -2   26.79    6.46   0
  -2  -7  -2   28.61    7.45   0
   2   7   2   26.81    6.16   0
   2   7   2   22.99    5.17   0
   2   7   2   13.50    5.61   0
  -3  -7  -2   -1.00    6.15   0
  -3  -7  -2    0.62    5.65   0
  -3  -7  -2   -4.60    7.94   0
  -3  -7  -2    7.33    6.25   0
   3   7   2   -0.99    5.28   0
   3   7   2   -1.08    4.50   0
   3   7   2    3.09    5.64   0
  -4  -7  -2   56.37   10.08   0
  -4  -7  -2   53.58    9.44   0
  -4  -7  -2   42.52   12.11   0
  -4  -7  -2   50.72    8.81   0
   4   7   2   57.12    7.75   0
   4   7   2   46.63    8.66   0
   7  -8  -2  180.38   16.45   0
   7  -8  -2  213.59   17.93   0
   7  -8  -2  198.62   18.46   0
   7  -8  -2  179.02   18.60   0
  -7   8   2  222.58   19.71   0
  -7   8   2  173.40   16.52   0
   6  -8  -2    9.73    7.13   0
   6  -8  -2    9.75    7.26   0
   6  -8  -2    6.77    5.48   0
   6  -8  -2    1.50    5.83   0
  -6   8   2   -8.92    7.21   0
  -6   8   2    7.79    5.69   0
   5  -8  -2   32.22    6.90   0
   5  -8  -2   50.39    7.65   0
   5  -8  -2   31.84    6.87   0
   5  -8  -2   20.93    6.55   0
  -5   8   2   43.90    7.91   0
   4  -8  -2  233.20   15.37   0
   4  -8  -2  199.57   13.90   0
   4  -8  -2  185.26   14.92   0
   4  -8  -2  199.02   14.39   0
  -4   8   2  198.61   14.59   0
  -4   8   2  191.62   14.69   0
   3  -8  -2  525.11   26.91   0
   3  -8  -2  503.97   25.97   0
   3  -8  -2  499.62   26.77   0
  -3   8   2  518.28   26.74   0
  -3   8   2  503.32   26.57   0
   2  -8  -2  708.21   34.79   0
   2  -8  -2  716.64   35.93   0
   2  -8  -2  743.38   36.32   0
  -2   8   2  740.90   35.78   0
   1  -8  -2  508.10   28.02   0
   1  -8  -2  578.88   29.26   0
   1  -8  -2  515.14   26.97   0
  -1   8   2  531.07   27.91   0
  -1   8   2  573.98   27.74   0
   0  -8  -2  399.86   21.88   0
   0  -8  -2  387.52   23.52   0
   0  -8  -2  420.58   24.45   0
   0   8   2  423.31   22.25   0
   0   8   2  428.65   23.72   0
   0   8   2  393.52   22.55   0
  -1  -8  -2  491.93   27.30   0
  -1  -8  -2  593.20   30.03   0
   1   8   2  515.77   28.80   0
   1   8   2  510.57   27.20   0
   1   8   2  544.42   28.06   0
  -2  -8  -2  165.90   17.76   0
  -2  -8  -2  160.11   15.00   0
  -2  -8  -2  163.01   18.76   0
   2   8   2  189.88   14.04   0
   2   8   2  166.99   15.98   0
   2   8   2  176.57   15.36   0
   6  -9  -2   25.18    9.11   0
   6  -9  -2   35.15    9.61   0
   6  -9  -2   20.18    8.95   0
   6  -9  -2   29.48    8.06   0
  -6   9   2   19.33    9.00   0
  -6   9   2   16.06    8.45   0
   5  -9  -2  124.98   15.72   0
   5  -9  -2  128.04   13.66   0
   5  -9  -2  113.05   14.74   0
  -5   9   2  119.78   15.48   0
  -5   9   2  131.24   14.49   0
   4  -9  -2  351.88   23.62   0
   4  -9  -2  392.74   23.86   0
   4  -9  -2  410.31   22.72   0
   4  -9  -2  401.19   23.46   0
  -4   9   2  410.41   23.76   0
   3  -9  -2   15.25    5.45   0
   3  -9  -2   14.85    6.88   0
   3  -9  -2   15.99    6.29   0
  -3   9   2    8.48    6.28   0
  -3   9   2    2.87    6.06   0
   2  -9  -2   56.70    9.42   0
   2  -9  -2   22.94    5.79   0
   2  -9  -2   42.11    7.67   0
  -2   9   2   36.73    7.39   0
   1  -9  -2  142.15   14.61   0
  -1   9   2  128.77   13.91   0
  -1   9   2  126.20   12.79   0
   0  -9  -2  336.54   22.25   0
   0  -9  -2  371.25   24.08   0
   0  -9  -2  314.05   19.97   0
   0   9   2  330.28   21.55   0
   0   9   2  337.82   22.06   0
   0   9   2  329.31   20.42   0
  -1  -9  -2 1580.76   74.96   0
  -1  -9  -2 1418.76   72.49   0
  -1  -9  -2 1520.61   71.00   0
   1   9   2 1572.41   70.82   0
   1   9   2 1548.66   72.97   0
   1   9   2 1627.33   71.79   0
  -2  -9  -2  347.47   26.43   0
  -2  -9  -2  289.66   26.93   0
  -2  -9  -2  329.89   22.15   0
   2   9   2  317.99   20.87   0
   2   9   2  322.59   23.00   0
   2   9   2  319.40   23.98   0
   4 -10  -2  241.86   20.31   0
   4 -10  -2  244.71   20.80   0
   4 -10  -2  241.53   19.55   0
   4 -10  -2  245.11   18.42   0
  -4  10   2  226.05   20.32   0
  -4  10   2  230.57   20.24   0
   3 -10  -2   -7.57    7.54   0
   3 -10  -2    6.95    6.78   0
   3 -10  -2    4.33    8.38   0
  -3  10   2    9.60    8.32   0
  -3  10   2   -9.15    7.80   0
   2 -10  -2   99.56   15.41   0
   2 -10  -2  102.46   16.14   0
   2 -10  -2   98.11   13.18   0
  -2  10   2  116.02   15.61   0
   1 -10  -2   16.99    8.82   0
   1 -10  -2    1.51    9.34   0
   1 -10  -2    8.76    7.04   0
  -1  10   2    4.12    8.54   0
   0 -10  -2  599.12   34.71   0
   0 -10  -2  514.63   30.10   0
   0 -10  -2  553.05   34.05   0
   0  10   2  529.07   30.20   0
   0  10   2  557.39   31.74   0
   1  11  -3  290.96   25.66   0
   1  11  -3  336.96   22.63   0
   1  11  -3  335.77   25.58   0
  -1 -11   3  337.81   26.72   0
  -1 -11   3  377.49   26.88   0
  -1 -11   3  306.54   21.22   0
   0  11  -3  633.93   33.22   0
   0  11  -3  585.48   34.27   0
   0  11  -3  640.77   35.80   0
   0 -11   3  616.19   32.23   0
   0 -11   3  598.08   35.32   0
  -1  11  -3  268.79   24.38   0
  -1  11  -3  261.38   21.21   0
   1 -11   3  264.80   19.40   0
   1 -11   3  297.65   19.27   0
   1 -11   3  261.34   22.39   0
   1 -11   3  323.80   20.92   0
  -2  11  -3   42.80    9.51   0
  -2  11  -3   47.95   11.43   0
   2 -11   3   42.09    8.24   0
   2 -11   3   47.26    9.08   0
   2 -11   3   41.62    8.81   0
   2 -11   3   71.84   10.97   0
  -3  11  -3   96.71   12.92   0
   3 -11   3  118.68   12.76   0
   3 -11   3   92.04   11.84   0
   3 -11   3   89.90   16.53   0
   3 -11   3  111.29   14.40   0
  -4  11  -3   14.51    9.22   0
  -4  11  -3   13.94    9.70   0
   4 -11   3    0.30    7.83   0
   4 -11   3   10.37    7.63   0
   4 -11   3   13.33    8.79   0
   4 -11   3   23.37    6.71   0
   3  10  -3  145.73   16.57   0
   3  10  -3  156.51   19.46   0
   3  10  -3  136.16   16.00   0
  -3 -10   3  156.24   19.77   0
  -3 -10   3  133.13   22.56   0
  -3 -10   3  110.77   16.23   0
   2  10  -3    4.25    8.65   0
   2  10  -3   13.97    7.05   0
   2  10  -3   10.43    8.05   0
  -2 -10   3    1.61    8.29   0
  -2 -10   3    5.89    6.26   0
  -2 -10   3    4.29   10.08   0
   1  10  -3  214.31   16.26   0
   1  10  -3  217.11   17.74   0
   1  10  -3  238.83   19.09   0
  -1 -10   3  198.13   18.81   0
  -1 -10   3  200.57   18.63   0
  -1 -10   3  203.36   15.32   0
   0  10  -3  351.73   21.03   0
   0  10  -3  408.89   24.45   0
   0  10  -3  345.40   22.14   0
   0 -10   3  353.27   22.76   0
   0 -10   3  331.31   22.88   0
   0 -10   3  337.09   20.29   0
  -1  10  -3  178.36   16.77   0
  -1  10  -3  153.77   15.50   0
   1 -10   3  174.91   13.28   0
   1 -10   3  173.12   13.65   0
   1 -10   3  214.54   15.97   0
   1 -10   3  158.22   14.14   0
  -2  10  -3   -7.15    5.79   0
  -2  10  -3  -11.63    6.46   0
   2 -10   3   -3.29    5.59   0
   2 -10   3    7.32    4.82   0
   2 -10   3    1.54    6.57   0
   2 -10   3    5.47    5.11   0
  -3  10  -3    7.74    6.39   0
   3 -10   3    4.22    6.21   0
   3 -10   3    2.13    4.53   0
   3 -10   3   -0.45    5.35   0
   3 -10   3   -1.83    5.71   0
  -4  10  -3   10.91    7.34   0
  -4  10  -3   24.75    8.11   0
   4 -10   3    7.67    6.61   0
   4 -10   3   12.47    6.99   0
   4 -10   3   21.87    7.19   0
   4 -10   3    3.59    4.46   0
  -5  10  -3   -0.32    7.52   0
  -5  10  -3    0.31    8.37   0
   5 -10   3    1.13    6.08   0
   5 -10   3   -8.50    7.16   0
   5 -10   3    0.03    4.60   0
   5 -10   3   -6.43    6.72   0
   4   9  -3  307.59   24.12   0
   4   9  -3  314.76   21.95   0
   4   9  -3  319.90   22.17   0
  -4  -9   3  305.00   28.43   0
  -4  -9   3  335.22   22.49   0
  -4  -9   3  321.66   23.91   0
  -4  -9   3  317.62   20.03   0
   3   9  -3  120.34   13.99   0
   3   9  -3  121.40   13.10   0
   3   9  -3  113.21   15.72   0
  -3  -9   3  116.85   15.96   0
  -3  -9   3   97.77   11.23   0
  -3  -9   3  117.99   17.57   0
  -3  -9   3  112.84   13.22   0
   2   9  -3   96.89   11.17   0
   2   9  -3   90.61   11.57   0
   2   9  -3  101.34   14.22   0
  -2  -9   3   91.72   10.98   0
  -2  -9   3  103.60   14.57   0
  -2  -9   3  122.08   15.45   0
   1   9  -3   21.74    5.74   0
   1   9  -3   12.89    4.84   0
  -1  -9   3   11.85    5.31   0
  -1  -9   3   32.82    8.05   0
  -1  -9   3   24.05    7.63   0
   0   9  -3  431.05   23.15   0
   0   9  -3  408.44   21.73   0
   0  -9   3  389.30   23.11   0
   0  -9   3  379.82   21.16   0
   0  -9   3  394.44   23.39   0
   1  -9   3  151.57   11.14   0
   1  -9   3  137.74   11.81   0
   1  -9   3  151.88   11.62   0
   1  -9   3  172.67   13.81   0
   2  -9   3  382.59   20.12   0
   2  -9   3  298.74   18.32   0
   2  -9   3  328.51   19.26   0
  -3   9  -3   93.92   11.55   0
   3  -9   3  108.86   11.03   0
   3  -9   3   89.55    8.43   0
  -4   9  -3   11.17    5.89   0
   4  -9   3   12.61    4.79   0
   4  -9   3   26.14    6.65   0
   4  -9   3   12.80    4.12   0
   4  -9   3   17.76    6.34   0
  -5   9  -3  705.78   34.94   0
  -5   9  -3  631.88   35.38   0
   5  -9   3  669.38   35.57   0
   5  -9   3  705.63   34.82   0
   5  -9   3  665.71   32.60   0
   5  -9   3  730.08   35.24   0
  -6   9  -3  607.09   31.17   0
  -6   9  -3  543.31   32.55   0
   6  -9   3  594.09   31.88   0
   6  -9   3  593.09   32.09   0
   6  -9   3  560.45   28.53   0
   6  -9   3  584.91   31.28   0
   5   8  -3  446.22   28.99   0
   5   8  -3  446.71   27.94   0
   5   8  -3  454.72   27.46   0
  -5  -8   3  495.18   25.76   0
  -5  -8   3  445.59   27.21   0
  -5  -8   3  455.54   28.94   0
   4   8  -3  161.97   15.34   0
   4   8  -3  185.34   15.66   0
   4   8  -3  203.82   17.54   0
  -4  -8   3  184.42   13.62   0
  -4  -8   3  177.87   15.39   0
  -4  -8   3  210.07   21.35   0
  -4  -8   3  188.97   16.97   0
   3   8  -3  211.29   16.09   0
   3   8  -3  224.77   15.86   0
  -3  -8   3  249.44   19.58   0
  -3  -8   3  245.33   15.83   0
  -3  -8   3  245.71   14.79   0
   2   8  -3  104.19   11.08   0
   2   8  -3   89.96    9.96   0
   2   8  -3  109.12   10.80   0
  -2  -8   3  112.16    9.95   0
  -2  -8   3   87.81   11.91   0
  -2  -8   3  116.74   12.61   0
   1   8  -3  596.85   29.54   0
   1   8  -3  672.46   30.91   0
  -1  -8   3  566.38   28.83   0
  -1  -8   3  552.85   30.90   0
  -1  -8   3  579.11   30.77   0
   0   8  -3 1976.52   87.09   0
   0  -8   3 2023.14   88.09   0
   0  -8   3 1980.32   86.67   0
   0  -8   3 1851.21   87.86   0
  -1   8  -3 1427.70   62.77   0
   1  -8   3 1393.63   63.23   0
   1  -8   3 1362.75   62.93   0
   2  -8   3  133.62    9.86   0
  -3   8  -3  303.17   16.50   0
  -3   8  -3  244.64   16.71   0
   3  -8   3  283.85   16.08   0
   3  -8   3  321.56   17.04   0
   3  -8   3  256.81   14.68   0
   3  -8   3  263.13   16.20   0
  -4   8  -3   47.31    7.80   0
  -4   8  -3   38.10    6.27   0
   4  -8   3   50.45    7.34   0
   4  -8   3   38.82    5.98   0
   4  -8   3   40.85    5.97   0
   4  -8   3   42.89    5.68   0
  -5   8  -3  331.68   20.45   0
   5  -8   3  342.61   19.40   0
   5  -8   3  337.82   17.59   0
   5  -8   3  343.39   20.00   0
   5  -8   3  329.77   20.22   0
  -6   8  -3 1273.62   59.90   0
  -6   8  -3 1263.10   61.81   0
   6  -8   3 1381.48   60.52   0
   6  -8   3 1346.72   61.08   0
   6  -8   3 1249.87   61.56   0
   6  -8   3 1294.84   58.75   0
  -7   8  -3  206.61   15.94   0
  -7   8  -3  157.77   17.13   0
   7  -8   3  154.03   16.45   0
   7  -8   3  198.49   15.87   0
   7  -8   3  165.79   15.20   0
   7  -8   3  140.87   12.25   0
   6   7  -3   38.10    9.94   0
   6   7  -3   31.88    8.34   0
   6   7  -3   31.34   10.52   0
  -6  -7   3   29.22    9.65   0
  -6  -7   3   50.03   10.04   0
  -6  -7   3   43.67    8.66   0
   5   7  -3  249.69   18.99   0
   5   7  -3  287.41   19.57   0
   5   7  -3  293.60   20.27   0
  -5  -7   3  276.57   18.90   0
  -5  -7   3  278.66   20.25   0
  -5  -7   3  275.84   17.20   0
   4   7  -3  287.11   17.59   0
   4   7  -3  313.47   18.99   0
   4   7  -3  266.17   17.84   0
  -4  -7   3  252.74   15.74   0
  -4  -7   3  253.97   20.80   0
  -4  -7   3  282.55   18.61   0
  -4  -7   3  262.28   17.30   0
   3   7  -3   45.80    7.62   0
   3   7  -3   51.31    7.83   0
   3   7  -3   53.44    8.61   0
  -3  -7   3   40.10    7.49   0
  -3  -7   3   57.59   11.43   0
  -3  -7   3   55.87    6.68   0
  -3  -7   3   41.32    5.83   0
   2   7  -3   62.64    7.66   0
   2   7  -3   50.17    7.25   0
   1   7  -3  147.06   10.08   0
   1   7  -3  149.82   11.07   0
   1   7  -3  152.26   10.62   0
  -1  -7   3  135.68   11.43   0
  -1  -7   3  143.17   11.49   0
  -1  -7   3  141.98    9.64   0
   0   7  -3 4536.12  189.56   0
   0   7  -3 4317.11  190.02   0
   0   7  -3 4574.87  190.00   0
   0  -7   3 4441.05  189.20   0
   0  -7   3 4191.21  189.98   0
   0  -7   3 4179.75  190.12   0
  -1   7  -3 1707.44   75.25   0
  -1   7  -3 1765.15   76.16   0
   1  -7   3 1660.96   75.61   0
   1  -7   3 1686.97   75.67   0
   1  -7   3 1662.11   76.07   0
   1  -7   3 1751.36   75.43   0
  -2   7  -3  317.75   17.45   0
  -2   7  -3  327.92   17.18   0
   2  -7   3  325.03   16.28   0
   2  -7   3  312.35   17.15   0
   2  -7   3  321.86   17.34   0
   2  -7   3  332.17   16.87   0
  -3   7  -3  300.16   16.93   0
  -3   7  -3  303.11   16.17   0
   3  -7   3  310.38   16.96   0
   3  -7   3  317.52   16.45   0
   3  -7   3  291.11   15.17   0
   3  -7   3  294.26   16.56   0
  -4   7  -3   34.24    6.01   0
  -4   7  -3   38.31    6.88   0
   4  -7   3   35.16    4.60   0
   4  -7   3   35.98    6.47   0
   4  -7   3   32.08    5.58   0
   4  -7   3   31.19    4.96   0
  -5   7  -3  462.02   24.71   0
  -5   7  -3  471.81   23.47   0
   5  -7   3  447.61   23.57   0
   5  -7   3  465.52   24.82   0
   5  -7   3  447.64   22.31   0
   5  -7   3  470.84   24.24   0
  -6   7  -3   54.40    8.69   0
   6  -7   3   56.77    8.76   0
   6  -7   3   52.87    9.56   0
   6  -7   3   55.40    8.17   0
  -7   7  -3  127.55   15.27   0
  -7   7  -3  145.24   13.61   0
   7  -7   3  147.89   12.91   0
   7  -7   3  144.19   13.88   0
   7  -7   3  184.58   14.70   0
   6   6  -3  152.29   15.41   0
   6   6  -3  139.21   15.16   0
   6   6  -3  137.29   14.97   0
  -6  -6   3  142.94   12.50   0
  -6  -6   3  146.02   14.64   0
  -6  -6   3  155.37   15.50   0
   5   6  -3   36.88    6.46   0
   5   6  -3   27.90    6.22   0
  -5  -6   3   52.30    7.76   0
  -5  -6   3   40.33    6.87   0
   4   6  -3   73.86    9.12   0
   4   6  -3   54.10    9.54   0
   4   6  -3   54.49    8.51   0
  -4  -6   3   63.08    6.74   0
  -4  -6   3   85.26    9.95   0
   3   6  -3  382.72   20.85   0
   3   6  -3  387.74   20.32   0
   3   6  -3  399.07   20.93   0
  -3  -6   3  363.40   19.20   0
   2   6  -3  225.71   13.05   0
   2   6  -3  231.62   13.49   0
   2   6  -3  205.34   12.84   0
   1   6  -3  242.97   12.60   0
   1   6  -3  218.35   12.76   0
   1   6  -3  221.44   12.56   0
  -1  -6   3  224.10   12.06   0
  -1  -6   3  200.66   13.32   0
  -1  -6   3  201.34   13.04   0
   0   6  -3   72.01    6.21   0
   0   6  -3   52.53    5.15   0
   0   6  -3   53.91    5.70   0
   0  -6   3   56.39    5.98   0
   0  -6   3   41.93    5.62   0
   0  -6   3   71.03    5.39   0
  -1   6  -3  358.77   18.51   0
  -1   6  -3  422.53   18.65   0
  -1   6  -3  332.89   17.52   0
   1  -6   3  369.47   18.02   0
   1  -6   3  369.34   18.54   0
   1  -6   3  351.66   17.85   0
  -2   6  -3 2885.29  123.70   0
  -2   6  -3 2932.88  124.11   0
   2  -6   3 2895.78  123.65   0
   2  -6   3 2781.44  123.00   0
   2  -6   3 2832.39  124.10   0
   2  -6   3 2735.96  123.86   0
  -3   6  -3 2299.46  100.78   0
   3  -6   3 2312.81  100.08   0
   3  -6   3 2355.34  101.22   0
   3  -6   3 2257.79  101.61   0
   3  -6   3 2305.32  101.07   0
  -4   6  -3  605.10   27.63   0
  -4   6  -3  596.65   28.49   0
   4  -6   3  578.95   26.70   0
   4  -6   3  550.73   28.42   0
   4  -6   3  568.79   27.66   0
   4  -6   3  569.89   27.92   0
  -5   6  -3   63.87    7.33   0
  -5   6  -3   85.29    8.87   0
   5  -6   3   81.93    7.57   0
   5  -6   3   76.56    8.13   0
   5  -6   3   74.17    8.29   0
  -6   6  -3   14.55    5.48   0
  -6   6  -3   17.35    5.54   0
  -6   6  -3   18.26    4.76   0
   6  -6   3   19.30    4.37   0
   6  -6   3   15.11    5.30   0
   6  -6   3   10.15    4.72   0
  -7   6  -3   41.13    6.79   0
  -7   6  -3   38.36    8.05   0
  -7   6  -3   29.97    7.69   0
   7  -6   3   27.85    6.98   0
   7  -6   3   50.79    9.87   0
   7  -6   3   41.44    6.82   0
  -8   6  -3  411.86   26.38   0
  -8   6  -3  418.43   26.97   0
  -8   6  -3  410.60   23.81   0
   8  -6   3  414.87   25.42   0
   8  -6   3  432.88   24.66   0
   8  -6   3  434.07   23.91   0
   8  -6   3  396.49   24.52   0
   7   5  -3  109.32   15.45   0
   7   5  -3  119.80   14.41   0
   7   5  -3   79.93   10.31   0
  -7  -5   3   80.37   13.31   0
  -7  -5   3  112.20   14.29   0
  -7  -5   3   93.54   11.83   0
   6   5  -3    3.55    5.05   0
   6   5  -3    3.58    5.99   0
   6   5  -3    5.60    6.20   0
  -6  -5   3    1.68    4.38   0
  -6  -5   3    3.25    5.01   0
  -6  -5   3    9.14    5.94   0
   5   5  -3  753.44   36.35   0
   5   5  -3  738.59   35.84   0
   5   5  -3  739.61   37.13   0
  -5  -5   3  738.05   36.23   0
  -5  -5   3  714.01   35.69   0
  -5  -5   3  693.55   34.43   0
   4   5  -3   17.40    4.19   0
   4   5  -3   11.47    4.20   0
  -4  -5   3   19.33    3.52   0
  -4  -5   3   18.58    4.74   0
   3   5  -3 1383.54   59.39   0
   3   5  -3 1385.50   58.59   0
   3   5  -3 1266.48   58.57   0
  -3  -5   3 1295.89   58.83   0
  -3  -5   3 1140.51   57.25   0
  -3  -5   3 1298.33   58.36   0
   1   5  -3 1048.12   44.95   0
   1   5  -3 1003.40   44.93   0
   1   5  -3 1027.76   45.13   0
  -1  -5   3  925.76   45.50   0
  -1  -5   3  968.86   45.20   0
   0   5  -3 1541.59   69.38   0
   0   5  -3 1543.29   69.34   0
   0   5  -3 1654.33   69.07   0
   0  -5   3 1510.14   69.45   0
   0  -5   3 1641.65   69.01   0
   0  -5   3 1555.95   69.50   0
  -1   5  -3  139.31    7.83   0
  -1   5  -3  141.19    7.16   0
  -1   5  -3  147.36    8.19   0
   1  -5   3  121.62    7.40   0
   1  -5   3  124.19    7.69   0
   1  -5   3  123.06    7.25   0
   1  -5   3  123.62    7.93   0
  -2   5  -3 1872.58   80.18   0
  -2   5  -3 1870.04   80.56   0
   2  -5   3 1827.17   80.42   0
   2  -5   3 1747.79   80.60   0
   2  -5   3 1855.82   80.25   0
   2  -5   3 1836.78   79.50   0
  -3   5  -3 1832.44   80.15   0
  -3   5  -3 1826.24   80.86   0
   3  -5   3 1768.27   80.27   0
   3  -5   3 1898.41   79.49   0
   3  -5   3 1853.96   80.47   0
   3  -5   3 1802.37   80.97   0
  -4   5  -3  465.41   23.65   0
  -4   5  -3  461.91   22.69   0
  -4   5  -3  493.51   23.68   0
   4  -5   3  480.94   22.90   0
   4  -5   3  477.24   23.16   0
   4  -5   3  464.43   23.70   0
  -5   5  -3    6.96    3.78   0
  -5   5  -3   14.43    4.26   0
  -5   5  -3   10.54    3.24   0
   5  -5   3    8.52    3.42   0
   5  -5   3    7.08    2.97   0
   5  -5   3    4.45    3.33   0
  -6   5  -3   58.67    7.26   0
  -6   5  -3   61.86    8.86   0
  -6   5  -3   64.22    8.22   0
   6  -5   3   62.59    7.99   0
   6  -5   3   73.89    7.81   0
   6  -5   3   51.89    7.99   0
   6  -5   3   53.81    7.88   0
  -7   5  -3   65.71   11.16   0
  -7   5  -3   79.85    9.31   0
  -7   5  -3   65.66   10.66   0
   7  -5   3   53.06    9.12   0
   7  -5   3   73.04    9.25   0
   7  -5   3   74.56    9.12   0
   7  -5   3   69.31    9.83   0
  -8   5  -3   47.98    9.38   0
  -8   5  -3   42.66    7.51   0
  -8   5  -3   77.76   10.67   0
   8  -5   3   53.73    8.09   0
   8  -5   3   61.97    9.71   0
   8  -5   3   57.85    8.88   0
   8  -5   3   51.92   10.67   0
   7   4  -3    6.57    5.90   0
   7   4  -3    4.71    6.61   0
   7   4  -3    5.57    6.40   0
  -7  -4   3    9.39    6.55   0
  -7  -4   3   13.70    5.41   0
  -7  -4   3    6.56    5.72   0
   6   4  -3  555.11   28.70   0
   6   4  -3  551.00   28.32   0
   6   4  -3  542.25   30.17   0
  -6  -4   3  536.74   26.97   0
  -6  -4   3  540.03   28.36   0
  -6  -4   3  531.13   28.46   0
   5   4  -3  941.01   45.74   0
   5   4  -3  991.09   44.59   0
   5   4  -3  961.46   44.22   0
  -5  -4   3  894.87   43.98   0
  -5  -4   3  949.55   44.34   0
  -5  -4   3  891.15   42.83   0
   4   4  -3   53.28    6.76   0
   4   4  -3   58.16    7.53   0
  -4  -4   3   52.83    5.20   0
  -4  -4   3   57.93    6.67   0
  -4  -4   3   69.25    6.55   0
   3   4  -3   76.44    6.70   0
   3   4  -3   98.02    6.89   0
   3   4  -3   80.38    7.40   0
  -3  -4   3   78.75    6.83   0
  -3  -4   3   86.49    6.51   0
  -3  -4   3   81.04    5.44   0
   2   4  -3    7.07    2.22   0
  -2  -4   3   13.00    2.90   0
  -2  -4   3    5.49    2.82   0
  -2  -4   3    9.98    2.14   0
   1   4  -3 2102.25   89.08   0
   1   4  -3 2089.16   89.10   0
  -1  -4   3 2001.24   89.12   0
  -1  -4   3 1978.33   89.49   0
  -1  -4   3 2028.13   88.66   0
   0   4  -3 2819.74  116.78   0
   0   4  -3 2773.69  116.30   0
   0  -4   3 2534.15  116.67   0
   0  -4   3 2711.35  116.70   0
   0  -4   3 2637.65  116.27   0
  -1   4  -3 2057.11   88.98   0
  -1   4  -3 2012.59   88.69   0
   1  -4   3 2002.87   88.91   0
   1  -4   3 2096.07   88.31   0
   1  -4   3 2061.93   88.66   0
   1  -4   3 2052.38   89.00   0
  -2   4  -3 1240.97   53.57   0
  -2   4  -3 1203.54   53.70   0
  -2   4  -3 1165.09   53.14   0
   2  -4   3 1229.48   53.36   0
   2  -4   3 1242.34   53.47   0
   2  -4   3 1222.71   52.50   0
   2  -4   3 1179.24   53.74   0
  -3   4  -3   85.97    6.57   0
  -3   4  -3   85.62    5.80   0
  -3   4  -3   99.25    6.47   0
   3  -4   3   85.14    6.01   0
   3  -4   3   88.45    6.49   0
   3  -4   3   82.80    5.92   0
  -4   4  -3   68.70    6.14   0
  -4   4  -3   58.17    6.17   0
   4  -4   3   54.79    5.79   0
   4  -4   3   64.68    5.76   0
   4  -4   3   53.80    5.31   0
  -5   4  -3   69.18    7.07   0
  -5   4  -3   57.98    7.13   0
  -5   4  -3   60.40    6.04   0
   5  -4   3   65.77    6.51   0
   5  -4   3   67.76    6.24   0
   5  -4   3   57.95    6.56   0
   5  -4   3   58.40    6.60   0
  -6   4  -3   49.15    6.53   0
  -6   4  -3   55.66    8.13   0
  -6   4  -3   53.54    8.04   0
   6  -4   3   41.47    7.29   0
   6  -4   3   55.51    6.75   0
   6  -4   3   48.69    7.09   0
   6  -4   3   58.52    6.86   0
  -7   4  -3   84.40   11.19   0
   7  -4   3   85.05    9.38   0
   7  -4   3   80.28    9.42   0
   7  -4   3   80.42    9.91   0
   7  -4   3   91.96    9.23   0
  -8   4  -3   66.94    8.87   0
  -8   4  -3   42.23    9.04   0
  -8   4  -3   93.45   13.58   0
   8  -4   3   54.74    8.80   0
   8  -4   3   57.55    8.71   0
   8  -4   3   76.55   10.56   0
   8  -4   3   55.71   10.14   0
   8   3  -3  252.82   18.52   0
   8   3  -3  230.88   18.39   0
   8   3  -3  233.49   21.21   0
  -8  -3   3  243.81   18.25   0
  -8  -3   3  228.79   17.05   0
  -8  -3   3  219.21   18.88   0
   7   3  -3  767.21   39.37   0
   7   3  -3  772.20   41.97   0
   7   3  -3  857.95   40.26   0
  -7  -3   3  778.22   39.66   0
  -7  -3   3  809.13   39.67   0
   6   3  -3  715.95   35.27   0
   6   3  -3  769.16   37.70   0
   6   3  -3  740.49   35.66   0
  -6  -3   3  696.59   35.31   0
  -6  -3   3  674.71   34.04   0
  -6  -3   3  728.45   35.32   0
   5   3  -3  803.18   38.33   0
   5   3  -3  825.16   40.17   0
   5   3  -3  839.48   38.70   0
  -5  -3   3  808.60   38.44   0
  -5  -3   3  800.30   38.37   0
  -5  -3   3  803.31   37.31   0
   4   3  -3  278.55   15.16   0
   4   3  -3  283.79   16.31   0
   4   3  -3  275.39   14.85   0
  -4  -3   3  268.56   14.81   0
  -4  -3   3  277.30   13.83   0
  -4  -3   3  279.85   14.97   0
   3   3  -3  233.86   11.77   0
   3   3  -3  209.71   11.43   0
   3   3  -3  181.65   12.07   0
  -3  -3   3  205.77   11.41   0
  -3  -3   3  214.99   10.44   0
  -3  -3   3  215.22   11.39   0
   2   3  -3 4810.61  207.57   0
   2   3  -3 4880.25  206.92   0
   2   3  -3 4896.15  206.96   0
  -2  -3   3 4725.98  206.83   0
  -2  -3   3 4908.51  205.96   0
  -2  -3   3 4618.56  206.69   0
   1   3  -3  188.97    9.53   0
   1   3  -3  190.44    9.59   0
   1   3  -3  186.74    9.73   0
  -1  -3   3  171.99    9.83   0
  -1  -3   3  188.50    9.28   0
  -1  -3   3  196.85    9.66   0
   0   3  -3   30.06    2.57   0
   0   3  -3   30.05    2.70   0
   0   3  -3   32.61    2.29   0
   0  -3   3   27.12    2.47   0
   0  -3   3   27.63    2.23   0
   0  -3   3   27.91    2.22   0
   0  -3   3   29.13    2.74   0
  -1   3  -3 1925.43   83.62   0
  -1   3  -3 1978.12   83.94   0
  -1   3  -3 1956.05   83.85   0
   1  -3   3 1954.65   83.82   0
   1  -3   3 1909.82   83.94   0
   1  -3   3 1901.23   83.62   0
  -2   3  -3 7418.56  318.14   0
  -3   3  -3 8456.15  388.90   0
   3  -3   3 9055.54  389.27   0
  -4   3  -3  913.82   40.12   0
  -4   3  -3  909.17   40.79   0
  -4   3  -3  903.49   40.62   0
   4  -3   3  860.50   40.33   0
   4  -3   3  919.74   39.94   0
   4  -3   3  929.81   40.91   0
   4  -3   3  765.79   39.87   0
  -5   3  -3   22.53    4.42   0
  -5   3  -3   33.78    5.15   0
  -5   3  -3   24.40    4.43   0
   5  -3   3   28.38    4.74   0
   5  -3   3   18.84    3.93   0
   5  -3   3   25.48    4.41   0
  -6   3  -3   -0.73    3.51   0
  -6   3  -3    7.48    4.53   0
   6  -3   3    7.67    3.52   0
   6  -3   3    6.75    3.63   0
   6  -3   3    7.73    3.42   0
  -7   3  -3  552.84   28.39   0
  -7   3  -3  542.36   29.57   0
  -7   3  -3  612.58   29.83   0
   7  -3   3  567.36   28.55   0
   7  -3   3  570.24   29.32   0
   7  -3   3  524.54   29.32   0
  -8   3  -3  734.42   36.43   0
  -8   3  -3  669.22   34.46   0
  -8   3  -3  669.38   36.16   0
   8  -3   3  665.86   35.53   0
   8  -3   3  696.23   34.85   0
   8  -3   3  659.07   35.74   0
   8   2  -3  947.59   45.82   0
   8   2  -3  921.11   48.70   0
   8   2  -3  933.33   45.87   0
   8   2  -3  895.67   43.88   0
  -8  -2   3  938.14   44.69   0
  -8  -2   3  891.67   45.91   0
  -8  -2   3  949.14   45.53   0
   7   2  -3  635.45   31.26   0
   7   2  -3  677.06   31.88   0
   7   2  -3  557.92   33.28   0
   7   2  -3  558.18   29.36   0
  -7  -2   3  636.22   31.17   0
  -7  -2   3  595.10   30.23   0
  -7  -2   3  609.16   31.42   0
   6   2  -3   33.08    7.22   0
   6   2  -3   24.95    4.66   0
   6   2  -3   18.90    4.61   0
   6   2  -3   25.70    5.10   0
  -6  -2   3   27.20    5.01   0
  -6  -2   3   22.51    4.86   0
  -6  -2   3   34.51    4.93   0
   5   2  -3   44.34    7.02   0
   5   2  -3   35.27    5.76   0
   5   2  -3   37.63    5.38   0
  -5  -2   3   31.74    5.61   0
  -5  -2   3   30.33    5.30   0
  -5  -2   3   37.93    4.56   0
   4   2  -3 1127.05   49.42   0
   4   2  -3 1100.46   48.40   0
   4   2  -3 1077.82   50.78   0
   4   2  -3 1105.50   49.59   0
  -4  -2   3 1067.46   49.26   0
  -4  -2   3 1104.77   49.31   0
  -4  -2   3 1083.30   48.49   0
   3   2  -3 4279.91  193.16   0
   3   2  -3 4521.87  192.17   0
   3   2  -3 4431.58  192.22   0
   3   2  -3 4565.20  191.27   0
  -3  -2   3 4442.97  192.06   0
  -3  -2   3 4401.09  191.28   0
  -3  -2   3 4565.33  192.14   0
   2   2  -3 2404.94  101.26   0
   2   2  -3 2301.01  101.97   0
   2   2  -3 2338.19  101.28   0
  -2  -2   3 2371.72  101.15   0
  -2  -2   3 2279.58  100.33   0
   1   2  -3  791.46   36.38   0
   1   2  -3  849.96   36.11   0
   1   2  -3  805.45   36.03   0
  -1  -2   3  848.00   35.97   0
  -1  -2   3  809.76   35.86   0
   0   2  -3 3881.40  173.94   0
   0  -2   3 3917.19  174.49   0
  -1   2  -3 2542.24  108.86   0
  -1   2  -3 2554.37  109.14   0
  -1   2  -3 2587.65  108.79   0
   1  -2   3 2511.66  108.75   0
   1  -2   3 2528.76  108.71   0
   1  -2   3 2477.21  109.12   0
  -2   2  -3 3541.43  149.30   0
  -2   2  -3 3492.63  149.14   0
  -2   2  -3 3462.62  149.59   0
   2  -2   3 3300.36  148.95   0
   2  -2   3 3405.73  149.62   0
   2  -2   3 3617.32  149.13   0
  -3   2  -3 4531.72  191.56   0
  -3   2  -3 4472.39  191.25   0
  -3   2  -3 4390.28  191.73   0
   3  -2   3 4291.30  191.44   0
   3  -2   3 4418.53  191.83   0
   3  -2   3 4567.39  191.22   0
  -4   2  -3 1978.98   87.90   0
  -4   2  -3 2053.69   87.86   0
  -4   2  -3 1976.17   87.36   0
   4  -2   3 1979.28   87.28   0
   4  -2   3 2048.85   88.10   0
   4  -2   3 1939.84   87.91   0
  -5   2  -3  295.13   15.82   0
  -5   2  -3  283.52   15.12   0
  -5   2  -3  278.21   15.68   0
   5  -2   3  293.50   15.74   0
   5  -2   3  281.41   15.04   0
   5  -2   3  278.32   14.92   0
   5  -2   3  270.43   15.78   0
  -6   2  -3  408.23   21.26   0
  -6   2  -3  411.26   22.02   0
  -6   2  -3  418.69   22.06   0
   6  -2   3  396.48   20.69   0
   6  -2   3  409.36   21.02   0
   6  -2   3  429.48   21.97   0
   6  -2   3  390.70   22.04   0
  -7   2  -3  454.08   23.11   0
  -7   2  -3  391.97   21.69   0
  -7   2  -3  362.47   22.49   0
   7  -2   3  374.22   21.40   0
   7  -2   3  395.36   22.08   0
   7  -2   3  402.61   21.07   0
   7  -2   3  379.73   22.54   0
  -8   2  -3  673.04   35.98   0
  -8   2  -3  697.46   35.13   0
  -8   2  -3  639.71   36.09   0
   8  -2   3  705.92   34.93   0
   8  -2   3  700.39   36.00   0
   8  -2   3  698.13   36.56   0
   8   1  -3  130.80   16.28   0
   8   1  -3  121.70   10.64   0
   8   1  -3  108.01   12.33   0
   8   1  -3  119.40   12.34   0
  -8  -1   3  112.66   11.70   0
  -8  -1   3  115.60   11.70   0
  -8  -1   3  127.66   13.94   0
   7   1  -3   69.44   11.31   0
   7   1  -3   76.51    9.22   0
   7   1  -3   71.49    7.34   0
   7   1  -3   81.67    9.31   0
  -7  -1   3   71.14    8.45   0
  -7  -1   3   73.78    8.22   0
  -7  -1   3   71.98    9.54   0
   6   1  -3  237.99   14.26   0
   6   1  -3  232.93   16.06   0
   6   1  -3  232.19   13.89   0
   6   1  -3  238.64   12.80   0
  -6  -1   3  220.09   13.12   0
  -6  -1   3  201.06   13.69   0
  -6  -1   3  249.21   13.87   0
   5   1  -3  509.37   24.48   0
   5   1  -3  560.03   25.66   0
   5   1  -3  527.65   25.69   0
   5   1  -3  508.89   27.17   0
  -5  -1   3  524.30   25.27   0
  -5  -1   3  531.10   25.50   0
  -5  -1   3  500.04   24.76   0
   4   1  -3  226.99   12.59   0
   4   1  -3  236.58   11.66   0
   4   1  -3  249.27   12.56   0
  -4  -1   3  232.66   11.88   0
  -4  -1   3  223.06   12.25   0
   3   1  -3  646.66   30.54   0
   3   1  -3  702.48   29.80   0
   3   1  -3  695.63   30.46   0
  -3  -1   3  644.19   29.83   0
  -3  -1   3  678.27   30.40   0
  -3  -1   3  664.62   30.31   0
   2   1  -3 1196.81   52.44   0
   2   1  -3 1313.00   53.21   0
   2   1  -3 1225.09   53.05   0
  -2  -1   3 1237.86   53.01   0
  -2  -1   3 1214.42   52.97   0
  -2  -1   3 1115.71   52.45   0
   1   1  -3   51.38    2.90   0
   1   1  -3   44.75    2.73   0
  -1  -1   3   46.80    2.63   0
  -1  -1   3   56.09    2.72   0
   0   1  -3 1472.35   64.73   0
   0  -1   3 1538.50   64.81   0
  -1   1  -3 7631.83  334.29   0
   1  -1   3 7814.06  334.16   0
  -2   1  -3  152.08    7.60   0
  -2   1  -3  147.36    7.97   0
  -2   1  -3  146.86    7.66   0
  -2   1  -3  150.85    8.03   0
   2  -1   3  149.84    7.40   0
   2  -1   3  146.68    7.97   0
   2  -1   3  155.48    7.81   0
  -3   1  -3  485.50   23.11   0
  -3   1  -3  473.74   22.63   0
  -3   1  -3  498.57   22.95   0
   3  -1   3  498.49   22.46   0
   3  -1   3  504.97   23.21   0
   3  -1   3  489.94   23.13   0
   3  -1   3  484.47   22.49   0
  -4   1  -3  592.23   28.18   0
  -4   1  -3  615.67   28.76   0
  -4   1  -3  614.52   28.63   0
   4  -1   3  612.37   28.71   0
   4  -1   3  606.39   27.92   0
   4  -1   3  598.42   28.90   0
   4  -1   3  600.40   28.04   0
  -5   1  -3  820.25   38.74   0
  -5   1  -3  818.95   39.19   0
  -5   1  -3  835.45   39.35   0
   5  -1   3  848.83   39.83   0
   5  -1   3  820.12   38.34   0
   5  -1   3  861.95   38.66   0
   5  -1   3  857.57   39.39   0
  -6   1  -3   38.30    7.08   0
  -6   1  -3   34.30    6.25   0
  -6   1  -3   30.91    5.68   0
   6  -1   3   26.68    5.17   0
   6  -1   3   22.72    4.68   0
   6  -1   3   28.34    4.66   0
   6  -1   3   26.85    4.67   0
  -7   1  -3  670.08   30.97   0
  -7   1  -3  634.45   30.01   0
  -7   1  -3  543.97   30.14   0
   7  -1   3  566.88   28.63   0
   7  -1   3  548.11   30.60   0
   7  -1   3  559.48   29.94   0
   7  -1   3  532.58   29.09   0
  -8   1  -3   85.01   11.63   0
  -8   1  -3   83.36   10.94   0
  -8   1  -3   56.39    9.77   0
   8  -1   3   70.29   11.75   0
   8  -1   3   83.40   11.86   0
   8  -1   3   56.11   10.24   0
   9   0  -3   90.51   12.76   0
   9   0  -3   82.13   13.46   0
   9   0  -3   99.23   18.49   0
   9   0  -3   97.97   14.43   0
  -9   0   3   85.09   13.31   0
  -9   0   3   90.27   12.31   0
  -9   0   3   84.74   15.16   0
   8   0  -3  147.78   13.65   0
   8   0  -3  168.22   12.22   0
   8   0  -3  170.83   14.24   0
   8   0  -3  137.56   16.38   0
  -8   0   3  191.07   13.49   0
  -8   0   3  165.42   14.09   0
  -8   0   3  157.73   12.97   0
   7   0  -3  781.06   36.71   0
   7   0  -3  766.20   35.57   0
   7   0  -3  714.75   36.43   0
   7   0  -3  722.81   38.82   0
  -7   0   3  774.10   36.77   0
  -7   0   3  719.57   35.89   0
  -7   0   3  747.24   35.94   0
   6   0  -3    6.93    3.12   0
   6   0  -3    9.39    3.02   0
   6   0  -3    6.29    4.76   0
   6   0  -3    2.54    3.09   0
  -6   0   3    9.24    3.55   0
  -6   0   3   11.54    3.29   0
  -6   0   3   13.65    4.01   0
   5   0  -3   36.61    4.92   0
   5   0  -3   37.36    5.27   0
  -5   0   3   40.16    5.09   0
  -5   0   3   35.67    4.83   0
  -5   0   3   38.65    4.87   0
   4   0  -3  840.92   36.96   0
   4   0  -3  789.42   36.60   0
   4   0  -3  815.43   36.20   0
  -4   0   3  805.47   36.29   0
  -4   0   3  803.54   36.45   0
  -4   0   3  780.17   36.60   0
   3   0  -3  346.75   15.46   0
   3   0  -3  308.38   15.08   0
   3   0  -3  297.01   14.72   0
  -3   0   3  303.54   14.92   0
  -3   0   3  302.28   14.82   0
  -3   0   3  337.55   15.19   0
   2   0  -3  987.71   38.36   0
   2   0  -3  819.33   38.02   0
   2   0  -3  774.20   37.84   0
  -2   0   3  899.14   38.05   0
  -2   0   3  866.15   37.93   0
   1   0  -3 4226.96  181.97   0
  -1   0   3 4114.06  181.90   0
   0   0  -3  339.89   15.46   0
  -1   0  -3    2.55    1.13   0
  -1   0  -3    1.83    0.88   0
  -1   0  -3    1.53    0.74   0
  -1   0  -3    2.36    1.01   0
   1   0   3    2.84    1.10   0
  -2   0  -3 1507.12   67.66   0
  -2   0  -3 1604.18   67.29   0
  -2   0  -3 1524.88   67.14   0
  -2   0  -3 1526.36   68.05   0
   2   0   3 1532.13   66.93   0
   2   0   3 1539.63   67.75   0
   2   0   3 1543.81   67.71   0
   2   0   3 1585.80   66.89   0
  -3   0  -3 1227.52   52.13   0
  -3   0  -3 1164.91   52.36   0
  -3   0  -3 1078.32   52.78   0
  -3   0  -3 1146.85   51.83   0
   3   0   3 1160.70   51.63   0
   3   0   3 1200.79   52.62   0
   3   0   3 1227.93   51.65   0
  -4   0  -3   88.37    7.07   0
  -4   0  -3   87.57    8.35   0
  -4   0  -3   84.81    6.64   0
  -4   0  -3   92.12    7.19   0
   4   0   3   99.51    7.46   0
   4   0   3   87.14    6.40   0
   4   0   3   96.90    6.54   0
   4   0   3   94.27    7.07   0
  -5   0  -3  105.59    8.56   0
  -5   0  -3  102.48    8.09   0
  -5   0  -3  107.28    8.50   0
   5   0   3  110.22    7.74   0
   5   0   3   97.81    8.55   0
   5   0   3   98.23    8.20   0
   5   0   3   89.80    7.44   0
  -6   0  -3  316.27   18.64   0
  -6   0  -3  320.39   18.37   0
  -6   0  -3  356.61   19.26   0
   6   0   3  337.57   17.88   0
   6   0   3  298.75   18.77   0
   6   0   3  315.59   17.39   0
   6   0   3  345.80   18.72   0
  -7   0  -3    1.16    5.33   0
  -7   0  -3    1.30    4.77   0
  -7   0  -3   -2.85    4.17   0
   7   0   3    1.59    4.53   0
   7   0   3    0.62    4.48   0
   7   0   3   -3.30    3.79   0
  -8   0  -3  110.60   13.44   0
  -8   0  -3  115.90   14.44   0
  -8   0  -3  125.30   14.78   0
   8   0   3   95.42   12.62   0
   8   0   3  115.80   11.56   0
   8   0   3  112.10   14.36   0
   9  -1  -3  113.35   12.37   0
   9  -1  -3  124.14   15.23   0
   9  -1  -3   90.41   13.56   0
   9  -1  -3  129.55   17.79   0
  -9   1   3  115.51   14.66   0
  -9   1   3  101.15   13.36   0
  -9   1   3   94.96   12.94   0
   8  -1  -3  832.70   41.96   0
   8  -1  -3  843.47   42.11   0
   8  -1  -3  850.61   41.07   0
   8  -1  -3  901.23   45.33   0
  -8   1   3  896.06   41.86   0
  -8   1   3  821.71   41.01   0
  -8   1   3  837.92   42.09   0
   7  -1  -3  778.23   37.94   0
   7  -1  -3  780.80   38.09   0
   7  -1  -3  881.63   41.04   0
   7  -1  -3  772.27   37.24   0
  -7   1   3  767.12   37.58   0
  -7   1   3  776.30   37.34   0
  -7   1   3  736.59   37.91   0
   6  -1  -3   53.33    6.60   0
   6  -1  -3   74.82    7.54   0
   6  -1  -3   74.48    6.69   0
  -6   1   3   65.47    6.50   0
  -6   1   3   70.83    6.97   0
  -6   1   3   68.51    7.09   0
   5  -1  -3  401.10   19.70   0
   5  -1  -3  384.88   19.16   0
   5  -1  -3  401.65   19.58   0
  -5   1   3  362.05   18.96   0
  -5   1   3  409.54   19.72   0
  -5   1   3  361.47   19.14   0
   4  -1  -3 2746.83  113.89   0
   4  -1  -3 2546.78  113.41   0
   4  -1  -3 2399.74  113.47   0
  -4   1   3 2576.98  113.51   0
  -4   1   3 2931.37  114.00   0
  -4   1   3 2472.59  113.24   0
   3  -1  -3 4638.04  212.47   0
   3  -1  -3 5093.79  212.78   0
   3  -1  -3 4689.97  212.50   0
  -3   1   3 4834.94  212.29   0
  -3   1   3 5478.27  212.78   0
   2  -1  -3 2506.78  108.65   0
   2  -1  -3 2533.84  108.81   0
  -2   1   3 2595.71  108.45   0
  -2   1   3 2457.96  108.63   0
   1  -1  -3  362.11   15.72   0
   1  -1  -3  341.21   15.55   0
   0  -1  -3 2940.71  129.16   0
   0  -1  -3 3074.41  130.07   0
   0   1   3 3031.47  130.08   0
  -1  -1  -3   42.92    3.52   0
  -1  -1  -3   42.29    2.86   0
  -1  -1  -3   39.29    3.52   0
  -1  -1  -3   40.86    3.01   0
   1   1   3   39.79    3.44   0
   1   1   3   40.15    2.54   0
   1   1   3   40.80    2.56   0
  -2  -1  -3 1866.35   82.64   0
  -2  -1  -3 1882.85   83.28   0
  -2  -1  -3 1885.06   82.15   0
  -2  -1  -3 1874.99   82.06   0
   2   1   3 1899.46   82.82   0
   2   1   3 1898.79   81.75   0
   2   1   3 1909.82   81.74   0
  -3  -1  -3 3312.80  148.36   0
  -3  -1  -3 3398.22  146.89   0
  -3  -1  -3 3365.98  147.32   0
  -3  -1  -3 3434.08  146.92   0
   3   1   3 3510.11  146.49   0
   3   1   3 3423.13  147.67   0
   3   1   3 3304.23  146.43   0
  -4  -1  -3  130.25    8.73   0
  -4  -1  -3  127.59   10.78   0
  -4  -1  -3  134.40    9.11   0
  -4  -1  -3  124.07    8.70   0
   4   1   3  123.74    8.13   0
   4   1   3  133.47    8.20   0
   4   1   3  138.10    9.45   0
   4   1   3  134.26    8.98   0
  -5  -1  -3   18.11    4.42   0
  -5  -1  -3   16.96    3.88   0
  -5  -1  -3   13.39    4.19   0
   5   1   3   14.73    3.45   0
   5   1   3   15.35    4.23   0
   5   1   3   21.66    4.09   0
  -6  -1  -3  192.44   13.90   0
  -6  -1  -3  192.61   13.48   0
  -6  -1  -3  211.48   14.10   0
   6   1   3  202.61   12.69   0
   6   1   3  204.47   14.57   0
   6   1   3  204.10   13.63   0
   6   1   3  196.14   12.70   0
  -7  -1  -3  143.10   13.87   0
  -7  -1  -3  152.11   13.52   0
   7   1   3  177.58   14.88   0
   7   1   3  182.97   12.22   0
   7   1   3  147.84   12.10   0
   9  -2  -3  284.72   20.73   0
   9  -2  -3  305.42   23.98   0
   9  -2  -3  262.92   18.53   0
   9  -2  -3  247.60   19.19   0
  -9   2   3  302.90   18.93   0
  -9   2   3  288.30   20.09   0
  -9   2   3  259.05   20.19   0
   8  -2  -3  629.12   31.53   0
   8  -2  -3  597.99   34.04   0
   8  -2  -3  585.88   30.59   0
   8  -2  -3  632.87   31.47   0
  -8   2   3  556.08   31.26   0
  -8   2   3  595.26   31.12   0
  -8   2   3  606.38   30.45   0
   7  -2  -3  277.34   16.57   0
   7  -2  -3  269.23   16.13   0
   7  -2  -3  305.26   16.89   0
  -7   2   3  266.84   16.69   0
  -7   2   3  268.29   15.80   0
  -7   2   3  262.09   16.41   0
   6  -2  -3   67.18    7.37   0
   6  -2  -3   70.21    7.00   0
   6  -2  -3   78.07    7.67   0
  -6   2   3   63.10    6.53   0
  -6   2   3   74.13    7.57   0
  -6   2   3   89.88    7.85   0
   5  -2  -3  266.05   14.96   0
   5  -2  -3  320.53   15.52   0
   5  -2  -3  277.49   15.16   0
  -5   2   3  257.11   14.39   0
  -5   2   3  297.34   15.40   0
   4  -2  -3 3653.51  170.00   0
   4  -2  -3 4183.76  170.41   0
   4  -2  -3 3783.61  170.16   0
  -4   2   3 3676.00  169.60   0
  -4   2   3 4384.63  170.52   0
   3  -2  -3 6558.96  281.10   0
   3  -2  -3 6450.75  281.39   0
   3  -2  -3 6596.98  281.26   0
  -3   2   3 6520.95  281.19   0
  -3   2   3 6629.61  280.78   0
   2  -2  -3 3130.68  129.72   0
   2  -2  -3 2976.71  129.44   0
  -2   2   3 3058.52  129.59   0
  -2   2   3 2867.11  129.26   0
   1  -2  -3 2588.31  113.76   0
   1  -2  -3 2522.77  112.81   0
   1  -2  -3 2636.65  112.93   0
  -1   2   3 2689.55  112.86   0
  -1   2   3 2683.93  112.82   0
   0  -2  -3  558.35   24.59   0
   0  -2  -3  558.38   25.48   0
   0  -2  -3  566.40   24.66   0
   0   2   3  546.40   24.27   0
   0   2   3  545.88   25.50   0
   0   2   3  530.47   24.32   0
  -1  -2  -3  318.32   16.32   0
  -1  -2  -3  336.13   15.53   0
  -1  -2  -3  307.22   15.34   0
   1   2   3  333.78   15.10   0
   1   2   3  328.14   15.10   0
   1   2   3  338.00   16.36   0
  -2  -2  -3  565.16   27.56   0
  -2  -2  -3  574.57   27.20   0
  -2  -2  -3  578.89   27.02   0
  -2  -2  -3  586.25   28.43   0
   2   2   3  579.36   26.61   0
   2   2   3  601.78   27.93   0
   2   2   3  625.59   26.74   0
  -3  -2  -3   61.87    7.49   0
  -3  -2  -3   68.21    5.94   0
  -3  -2  -3   66.21    6.13   0
  -3  -2  -3   78.56    6.34   0
   3   2   3   74.47    5.49   0
   3   2   3   70.49    6.54   0
   3   2   3   66.43    5.50   0
  -4  -2  -3  658.85   31.90   0
  -4  -2  -3  657.94   31.63   0
  -4  -2  -3  633.99   33.65   0
  -4  -2  -3  671.92   31.62   0
   4   2   3  681.80   30.90   0
   4   2   3  648.62   30.86   0
   4   2   3  674.88   32.46   0
  -5  -2  -3 1143.84   52.11   0
  -5  -2  -3 1117.00   51.71   0
  -5  -2  -3 1119.82   51.74   0
  -5  -2  -3 1096.39   54.22   0
   5   2   3 1136.66   50.88   0
   5   2   3 1045.21   50.61   0
   5   2   3 1155.16   52.78   0
  -6  -2  -3  742.28   36.22   0
  -6  -2  -3  691.98   35.57   0
  -6  -2  -3  708.53   36.01   0
   6   2   3  718.53   34.56   0
   6   2   3  717.20   34.71   0
   6   2   3  723.94   36.87   0
  -7  -2  -3  152.24   14.40   0
  -7  -2  -3  165.71   15.20   0
  -7  -2  -3  156.09   16.05   0
   7   2   3  167.20   13.82   0
   7   2   3  156.74   15.96   0
   7   2   3  152.86   12.74   0
   9  -3  -3   22.75    7.17   0
   9  -3  -3   20.48    7.19   0
   9  -3  -3   18.21    7.64   0
   9  -3  -3   25.36    9.99   0
  -9   3   3   31.47    7.69   0
  -9   3   3   44.71    9.91   0
   8  -3  -3    2.51    5.15   0
   8  -3  -3   -4.41    4.56   0
   8  -3  -3   -2.93    4.81   0
  -8   3   3    9.65    5.80   0
  -8   3   3   -7.40    4.33   0
   7  -3  -3  158.58   11.47   0
   7  -3  -3  153.86   11.80   0
   7  -3  -3  141.84   11.09   0
  -7   3   3  133.39   11.78   0
  -7   3   3  140.91   10.30   0
   6  -3  -3    9.68    3.42   0
   6  -3  -3   13.32    4.23   0
   6  -3  -3   11.23    3.84   0
  -6   3   3    9.32    3.16   0
  -6   3   3    6.98    3.59   0
   5  -3  -3  253.83   14.40   0
   5  -3  -3  254.27   14.43   0
   5  -3  -3  256.42   14.72   0
  -5   3   3  288.83   14.91   0
  -5   3   3  263.46   13.81   0
   4  -3  -3  195.21   10.67   0
   4  -3  -3  178.98   10.20   0
   4  -3  -3  170.29   10.12   0
  -4   3   3  163.38    9.47   0
  -4   3   3  166.59   10.15   0
   3  -3  -3  394.53   18.76   0
   3  -3  -3  369.16   18.08   0
  -3   3   3  386.69   18.28   0
  -3   3   3  366.16   17.74   0
   2  -3  -3 2377.50  101.88   0
   2  -3  -3 2283.99  101.64   0
   2  -3  -3 2359.96  102.66   0
  -2   3   3 2512.27  101.98   0
  -2   3   3 2220.51  101.59   0
   1  -3  -3 2548.34  112.83   0
   1  -3  -3 2570.61  111.85   0
   1  -3  -3 2563.08  111.98   0
  -1   3   3 2683.65  111.98   0
   0  -3  -3 5130.32  224.28   0
   0  -3  -3 5110.70  223.33   0
   0  -3  -3 5173.83  223.39   0
   0   3   3 5311.18  223.18   0
   0   3   3 5212.00  223.04   0
   0   3   3 5266.51  224.45   0
  -1  -3  -3 1062.45   46.84   0
  -1  -3  -3 1052.76   47.94   0
  -1  -3  -3 1005.12   46.82   0
   1   3   3 1091.59   46.45   0
   1   3   3 1048.25   46.41   0
  -2  -3  -3    3.25    2.66   0
  -2  -3  -3    3.50    3.23   0
  -2  -3  -3    7.96    2.67   0
   2   3   3    2.90    2.05   0
   2   3   3    4.75    2.49   0
   2   3   3    5.11    2.06   0
  -3  -3  -3   20.31    3.93   0
  -3  -3  -3   18.59    3.90   0
  -3  -3  -3   18.21    3.65   0
  -3  -3  -3   18.21    4.80   0
   3   3   3   19.91    4.10   0
   3   3   3   15.73    3.21   0
  -4  -3  -3  207.26   13.48   0
  -4  -3  -3  222.78   13.44   0
  -4  -3  -3  186.55   16.01   0
  -4  -3  -3  216.00   13.58   0
   4   3   3  218.97   12.37   0
   4   3   3  221.50   12.56   0
   4   3   3  194.20   13.75   0
  -5  -3  -3 1727.64   75.71   0
  -5  -3  -3 1639.42   75.31   0
  -5  -3  -3 1640.29   75.26   0
  -5  -3  -3 1609.36   78.23   0
   5   3   3 1693.39   76.32   0
   5   3   3 1669.85   74.14   0
   5   3   3 1622.31   74.16   0
  -6  -3  -3  678.75   36.67   0
  -6  -3  -3  714.66   36.54   0
  -6  -3  -3  753.91   37.05   0
   6   3   3  717.61   35.19   0
   6   3   3  706.93   37.36   0
   6   3   3  740.08   35.19   0
  -7  -3  -3   12.33    7.92   0
  -7  -3  -3   16.14    8.64   0
  -7  -3  -3   17.16    8.26   0
   7   3   3   26.81    8.07   0
   7   3   3    6.43    6.32   0
   8  -4  -3   63.72    9.65   0
   8  -4  -3   40.55    7.15   0
  -8   4   3   50.23    8.55   0
  -8   4   3   49.71    7.31   0
   7  -4  -3    6.07    4.87   0
   7  -4  -3    3.37    4.37   0
  -7   4   3    8.66    4.75   0
  -7   4   3    3.06    3.53   0
   6  -4  -3   61.89    8.06   0
   6  -4  -3   77.35    8.26   0
  -6   4   3   76.16    8.58   0
  -6   4   3   57.16    6.50   0
   5  -4  -3   26.88    4.77   0
   5  -4  -3   31.78    4.86   0
  -5   4   3   25.71    4.49   0
  -5   4   3   24.93    4.83   0
   4  -4  -3  249.03   14.58   0
   4  -4  -3  272.90   14.24   0
  -4   4   3  259.50   14.26   0
  -4   4   3  272.16   13.59   0
   3  -4  -3 1338.16   60.80   0
   3  -4  -3 1389.06   60.73   0
  -3   4   3 1329.38   60.45   0
  -3   4   3 1435.89   61.08   0
   2  -4  -3  414.24   20.78   0
   2  -4  -3  425.06   20.07   0
   2  -4  -3  377.85   19.63   0
  -2   4   3  432.65   19.94   0
  -2   4   3  452.65   20.17   0
   1  -4  -3  771.09   36.81   0
   1  -4  -3  787.62   36.03   0
   1  -4  -3  804.00   35.82   0
  -1   4   3  824.86   36.00   0
   0  -4  -3 3683.98  159.63   0
   0  -4  -3 3596.57  158.63   0
   0  -4  -3 3606.16  158.47   0
   0   4   3 3743.41  158.42   0
   0   4   3 3717.31  158.25   0
  -1  -4  -3  791.87   37.43   0
  -1  -4  -3  752.23   36.16   0
  -1  -4  -3  771.01   36.09   0
   1   4   3  792.86   35.62   0
   1   4   3  774.32   35.66   0
   1   4   3  848.47   37.45   0
  -2  -4  -3  399.72   20.85   0
  -2  -4  -3  358.87   20.41   0
  -2  -4  -3  391.37   20.14   0
  -2  -4  -3  399.24   21.94   0
   2   4   3  392.54   19.59   0
   2   4   3  432.21   19.69   0
   2   4   3  431.70   21.35   0
  -3  -4  -3   36.85    6.97   0
  -3  -4  -3   41.40    6.44   0
  -3  -4  -3   40.02    5.78   0
  -3  -4  -3   53.22    6.96   0
   3   4   3   35.24    6.89   0
   3   4   3   38.87    5.89   0
   3   4   3   42.62    5.60   0
  -4  -4  -3   85.37   12.75   0
  -4  -4  -3   98.87   10.23   0
  -4  -4  -3   94.79    9.73   0
  -4  -4  -3   97.81    9.44   0
   4   4   3   96.15    8.46   0
   4   4   3  100.19    9.00   0
   4   4   3   89.96    9.81   0
  -5  -4  -3  609.97   30.89   0
  -5  -4  -3  566.12   30.60   0
  -5  -4  -3  579.78   30.91   0
   5   4   3  583.54   29.48   0
   5   4   3  602.94   29.17   0
   5   4   3  587.94   31.46   0
  -6  -4  -3   21.95    7.85   0
  -6  -4  -3    2.26    6.61   0
  -6  -4  -3    9.56   10.89   0
  -6  -4  -3    9.94    7.04   0
   6   4   3    8.17    5.51   0
   6   4   3   13.60    6.70   0
   8  -5  -3   77.02   13.02   0
   8  -5  -3   64.31   11.48   0
  -8   5   3   69.31    9.94   0
  -8   5   3   53.40    9.40   0
   7  -5  -3   10.15    5.23   0
   7  -5  -3    4.69    5.19   0
   7  -5  -3   10.13    5.18   0
  -7   5   3    5.51    4.91   0
  -7   5   3    3.18    5.72   0
   6  -5  -3    1.21    4.44   0
   6  -5  -3    0.11    3.88   0
   6  -5  -3    5.66    4.67   0
  -6   5   3   -2.69    4.52   0
  -6   5   3   -1.25    3.11   0
   5  -5  -3   12.74    4.24   0
   5  -5  -3    8.98    4.11   0
   5  -5  -3    3.10    3.23   0
  -5   5   3    7.30    3.81   0
  -5   5   3    5.80    2.76   0
   4  -5  -3 1807.47   78.59   0
   4  -5  -3 1762.99   78.52   0
  -4   5   3 1747.99   78.02   0
  -4   5   3 1764.86   78.77   0
   3  -5  -3  889.28   39.43   0
   3  -5  -3  854.98   40.28   0
   3  -5  -3  873.03   39.61   0
  -3   5   3  832.91   39.23   0
  -3   5   3  868.09   39.69   0
   2  -5  -3 1570.30   68.20   0
   2  -5  -3 1499.85   67.17   0
  -2   5   3 1499.91   67.06   0
  -2   5   3 1495.47   67.11   0
   1  -5  -3  239.82   13.25   0
   1  -5  -3  248.69   14.26   0
   1  -5  -3  245.10   12.92   0
  -1   5   3  252.09   13.22   0
   0  -5  -3   32.98    6.06   0
   0  -5  -3   41.76    5.61   0
   0  -5  -3   40.62    5.16   0
   0   5   3   42.98    5.93   0
   0   5   3   39.43    4.95   0
  -1  -5  -3  644.79   32.79   0
  -1  -5  -3  685.72   32.57   0
  -1  -5  -3  697.76   34.25   0
   1   5   3  706.65   32.17   0
   1   5   3  700.62   32.28   0
   1   5   3  727.38   34.06   0
  -2  -5  -3  364.98   19.10   0
  -2  -5  -3  346.97   19.68   0
  -2  -5  -3  371.24   21.30   0
   2   5   3  380.74   18.37   0
   2   5   3  357.05   18.36   0
   2   5   3  306.82   19.45   0
  -3  -5  -3    2.02    4.47   0
  -3  -5  -3   -0.91    3.76   0
  -3  -5  -3   -2.03    5.38   0
  -3  -5  -3    0.93    4.18   0
   3   5   3    0.04    3.08   0
   3   5   3   -2.46    3.70   0
   3   5   3    3.04    4.63   0
  -4  -5  -3   44.64    7.33   0
  -4  -5  -3   54.50    8.87   0
   4   5   3   50.64    6.37   0
   4   5   3   52.13    8.51   0
   4   5   3   37.05    6.20   0
  -5  -5  -3  120.38   14.55   0
  -5  -5  -3  129.09   13.17   0
  -5  -5  -3  155.12   19.97   0
  -5  -5  -3  129.09   13.90   0
   5   5   3  132.01   13.12   0
   5   5   3  118.90   11.63   0
   5   5   3  134.18   14.31   0
  -6  -5  -3  114.76   23.92   0
  -6  -5  -3  118.23   18.07   0
  -6  -5  -3  117.89   15.66   0
  -6  -5  -3  128.51   17.11   0
   6   5   3  140.40   17.21   0
   6   5   3  120.74   14.01   0
   8  -6  -3   32.57    8.83   0
   8  -6  -3   31.37    8.89   0
   8  -6  -3   24.41    8.09   0
  -8   6   3   21.96    6.40   0
  -8   6   3   20.98    9.07   0
   7  -6  -3   70.57   11.74   0
   7  -6  -3   82.49   11.98   0
   7  -6  -3   72.60   11.61   0
  -7   6   3   91.62   12.49   0
   6  -6  -3  161.87   12.96   0
   6  -6  -3  183.53   13.28   0
   6  -6  -3  152.33   13.56   0
  -6   6   3  175.82   11.68   0
  -6   6   3  158.74   13.24   0
   5  -6  -3  799.29   37.21   0
   5  -6  -3  749.59   36.50   0
   5  -6  -3  718.64   37.10   0
   5  -6  -3  753.66   36.46   0
  -5   6   3  754.61   35.74   0
  -5   6   3  779.14   36.82   0
   4  -6  -3   46.20    7.14   0
   4  -6  -3   53.86    6.94   0
   4  -6  -3   56.55    8.09   0
   4  -6  -3   73.69    7.65   0
  -4   6   3   56.30    6.65   0
  -4   6   3   59.96    7.47   0
   3  -6  -3   25.04    4.61   0
   3  -6  -3   27.42    4.45   0
   3  -6  -3   41.85    5.37   0
  -3   6   3   31.85    4.72   0
  -3   6   3   26.27    4.36   0
   2  -6  -3  914.58   42.98   0
   2  -6  -3  911.26   42.26   0
   2  -6  -3  876.98   41.54   0
  -2   6   3  895.33   41.98   0
  -2   6   3  964.32   42.10   0
   1  -6  -3 2752.05  121.03   0
   1  -6  -3 2800.94  122.55   0
   1  -6  -3 2682.65  121.48   0
  -1   6   3 2773.00  121.34   0
  -1   6   3 2867.15  121.21   0
   0  -6  -3 2739.98  123.13   0
   0  -6  -3 2893.55  124.51   0
   0  -6  -3 2729.62  122.67   0
   0   6   3 2682.05  122.64   0
   0   6   3 2999.90  124.66   0
   0   6   3 2805.21  122.51   0
  -1  -6  -3   18.96    4.52   0
  -1  -6  -3   26.78    5.72   0
  -1  -6  -3   19.61    5.52   0
   1   6   3   22.03    4.32   0
   1   6   3   17.11    4.47   0
   1   6   3   27.23    5.89   0
  -2  -6  -3   60.74   10.83   0
  -2  -6  -3   54.30    7.94   0
  -2  -6  -3   47.91    7.95   0
   2   6   3   47.71    7.88   0
   2   6   3   52.00    8.57   0
   2   6   3   44.21    7.39   0
  -3  -6  -3   30.78    6.68   0
  -3  -6  -3   40.28    8.11   0
  -3  -6  -3   49.47    7.79   0
   3   6   3   52.10    9.22   0
   3   6   3   30.55    6.00   0
   3   6   3   34.29    5.49   0
  -4  -6  -3  509.72   27.86   0
  -4  -6  -3  497.68   27.03   0
  -4  -6  -3  466.61   31.46   0
  -4  -6  -3  441.10   26.80   0
   4   6   3  462.08   27.48   0
   4   6   3  476.31   24.71   0
   4   6   3  473.38   25.58   0
  -5  -6  -3   84.46   14.31   0
  -5  -6  -3  103.22   15.99   0
  -5  -6  -3   79.10   11.78   0
  -5  -6  -3  109.10   16.99   0
   5   6   3   75.48   11.75   0
   5   6   3   98.22   14.91   0
   7  -7  -3  478.90   26.39   0
   7  -7  -3  415.82   26.59   0
   7  -7  -3  440.72   26.02   0
  -7   7   3  415.85   24.17   0
  -7   7   3  448.53   26.90   0
   6  -7  -3  844.89   43.94   0
   6  -7  -3  917.64   43.72   0
   6  -7  -3  894.08   43.20   0
   6  -7  -3  849.10   43.23   0
  -6   7   3  921.72   43.85   0
  -6   7   3  896.26   42.27   0
   5  -7  -3  301.62   19.47   0
   5  -7  -3  316.40   18.70   0
   5  -7  -3  318.51   19.04   0
   5  -7  -3  322.49   19.07   0
  -5   7   3  323.93   17.92   0
  -5   7   3  313.47   19.09   0
   4  -7  -3   58.31    7.97   0
   4  -7  -3   62.06    9.40   0
   4  -7  -3   58.70    8.58   0
   4  -7  -3   54.66    9.09   0
  -4   7   3   60.32    8.33   0
  -4   7   3   55.53    8.60   0
   3  -7  -3  136.45   11.27   0
   3  -7  -3  142.67   11.43   0
   3  -7  -3  132.04   10.48   0
  -3   7   3  141.02   10.80   0
  -3   7   3  138.77   10.93   0
   2  -7  -3  422.33   22.76   0
   2  -7  -3  446.33   23.51   0
   2  -7  -3  424.76   21.89   0
  -2   7   3  431.94   22.42   0
   1  -7  -3  994.35   46.10   0
   1  -7  -3 1047.23   48.01   0
   1  -7  -3 1000.14   46.96   0
  -1   7   3  970.94   46.37   0
  -1   7   3  994.87   46.22   0
   0  -7  -3 1426.00   65.56   0
   0  -7  -3 1400.32   63.46   0
   0  -7  -3 1393.49   64.34   0
   0   7   3 1474.14   65.52   0
   0   7   3 1374.52   63.21   0
   0   7   3 1355.44   63.55   0
  -1  -7  -3  528.38   29.03   0
  -1  -7  -3  512.69   26.49   0
  -1  -7  -3  501.87   27.79   0
   1   7   3  484.49   25.92   0
   1   7   3  539.15   27.96   0
   1   7   3  507.89   25.77   0
  -2  -7  -3   23.56    6.70   0
  -2  -7  -3   33.88    8.65   0
   2   7   3   20.93    5.18   0
   2   7   3   22.55    6.02   0
   2   7   3   22.69    5.90   0
  -3  -7  -3  308.56   22.21   0
  -3  -7  -3  306.31   20.55   0
  -3  -7  -3  322.11   21.06   0
  -3  -7  -3  377.48   25.69   0
   3   7   3  325.05   21.49   0
   3   7   3  316.97   20.00   0
   3   7   3  327.44   18.96   0
  -4  -7  -3  108.18   14.85   0
  -4  -7  -3  119.57   16.93   0
  -4  -7  -3   88.48   15.76   0
  -4  -7  -3  107.77   15.75   0
   4   7   3  113.02   14.95   0
   4   7   3  105.81   12.36   0
   7  -8  -3  170.24   16.47   0
   7  -8  -3  165.07   18.13   0
   7  -8  -3  130.81   24.54   0
  -7   8   3  141.88   18.73   0
  -7   8   3  174.82   15.66   0
   6  -8  -3  687.73   34.91   0
   6  -8  -3  628.71   35.57   0
   6  -8  -3  653.83   34.41   0
   6  -8  -3  666.35   34.87   0
  -6   8   3  663.61   35.50   0
  -6   8   3  681.38   33.79   0
   5  -8  -3  251.16   18.97   0
   5  -8  -3  273.14   18.04   0
   5  -8  -3  277.19   19.17   0
   5  -8  -3  297.19   18.95   0
  -5   8   3  287.69   18.15   0
  -5   8   3  291.24   19.27   0
   3  -8  -3    1.58    4.46   0
   3  -8  -3   10.37    4.79   0
   3  -8  -3   10.48    5.49   0
  -3   8   3   12.82    5.18   0
  -3   8   3    5.46    5.27   0
   2  -8  -3    5.02    4.24   0
   2  -8  -3    4.54    5.08   0
   2  -8  -3    9.04    5.03   0
  -2   8   3   -2.06    5.02   0
   1  -8  -3   97.65   11.25   0
   1  -8  -3   97.99   10.05   0
   1  -8  -3  110.99   12.39   0
  -1   8   3   77.41   10.63   0
   0  -8  -3   78.42    9.73   0
   0   8   3   66.74    8.46   0
   0   8   3   81.01   11.34   0
   0   8   3   75.81    9.67   0
  -1  -8  -3  126.31   16.69   0
  -1  -8  -3  154.19   12.94   0
   1   8   3  139.55   12.54   0
   1   8   3  134.92   12.42   0
   1   8   3  121.74   13.21   0
  -2  -8  -3  306.01   24.93   0
  -2  -8  -3  306.99   21.24   0
  -2  -8  -3  336.91   23.99   0
   2   8   3  321.31   19.41   0
   2   8   3  305.45   21.57   0
   2   8   3  318.21   20.47   0
  -3  -8  -3  449.57   32.00   0
  -3  -8  -3  403.66   26.07   0
  -3  -8  -3  406.06   25.78   0
  -3  -8  -3  388.29   27.48   0
   3   8   3  407.57   23.28   0
   3   8   3  366.82   25.54   0
   6  -9  -3   17.38    8.59   0
   6  -9  -3   -5.48    9.80   0
  -6   9   3   19.36    9.24   0
  -6   9   3   -2.79    8.01   0
   5  -9  -3   80.11   14.38   0
   5  -9  -3  100.55   12.21   0
   5  -9  -3   93.14   14.26   0
   5  -9  -3   83.83   13.17   0
  -5   9   3   95.38   14.33   0
  -5   9   3   74.47   10.98   0
   4  -9  -3   14.48    7.34   0
   3  -9  -3  135.31   15.10   0
   3  -9  -3  130.14   13.68   0
   3  -9  -3  175.22   15.29   0
  -3   9   3  132.59   14.12   0
  -3   9   3  148.93   14.65   0
   2  -9  -3   13.87    7.47   0
   2  -9  -3    5.24    5.11   0
   2  -9  -3    1.83    6.93   0
  -2   9   3   11.23    6.53   0
  -2   9   3    9.64    6.28   0
   1  -9  -3  475.43   26.61   0
   1  -9  -3  476.51   28.50   0
   1  -9  -3  542.52   29.66   0
  -1   9   3  497.86   27.41   0
   0  -9  -3  160.84   14.23   0
   0  -9  -3  159.47   18.48   0
   0  -9  -3  145.98   17.11   0
   0   9   3  168.77   14.11   0
   0   9   3  147.57   16.43   0
   0   9   3  138.87   15.04   0
  -1  -9  -3   -1.52    9.81   0
  -1  -9  -3    7.28    7.38   0
  -1  -9  -3    4.79   10.10   0
   1   9   3    8.74    7.33   0
   1   9   3   -0.99    6.69   0
   1   9   3   -5.41    7.43   0
   3 -10  -3   31.72    8.93   0
   3 -10  -3   26.14    9.87   0
   3 -10  -3   27.97    9.22   0
  -3  10   3   26.95    9.76   0
  -3  10   3   41.36    9.28   0
   2 -10  -3    1.93    8.25   0
   2 -10  -3    1.41    7.19   0
  -2  10   3   17.22    8.96   0
  -2  10   3    7.29    8.22   0
   1 -10  -3  437.13   26.34   0
   1 -10  -3  473.77   30.07   0
   1 -10  -3  416.58   29.91   0
  -1  10   3  442.00   27.58   0
   1  11  -4  309.25   24.07   0
   1  11  -4  318.48   26.29   0
   1  11  -4  335.62   21.74   0
  -1 -11   4  329.85   27.09   0
  -1 -11   4  299.52   25.81   0
  -1 -11   4  320.11   20.94   0
   0  11  -4  127.24   17.22   0
   0  11  -4  113.76   13.52   0
   0  11  -4  138.84   20.28   0
   0 -11   4  111.03   13.68   0
   0 -11   4  139.40   18.22   0
   0 -11   4  122.42   13.71   0
  -1  11  -4  311.41   23.83   0
  -1  11  -4  256.37   20.83   0
   1 -11   4  265.63   19.33   0
   1 -11   4  255.93   21.84   0
   1 -11   4  253.44   19.07   0
   1 -11   4  278.25   18.32   0
  -2  11  -4   10.77    9.23   0
  -2  11  -4   -0.03    8.28   0
   2 -11   4   10.64    6.43   0
   2 -11   4   27.82    8.39   0
   2 -11   4    0.47    6.67   0
   2 -11   4   17.45    7.77   0
  -3  11  -4  147.93   18.74   0
  -3  11  -4  161.33   20.24   0
   3 -11   4  157.23   18.24   0
   3 -11   4  183.02   16.73   0
   3 -11   4  161.96   13.42   0
   3 -11   4  192.93   16.80   0
  -4  11  -4  200.29   21.03   0
   4 -11   4  240.99   19.07   0
   4 -11   4  209.85   19.30   0
   4 -11   4  201.63   14.58   0
   4 -11   4  211.82   19.47   0
   3  10  -4   47.84   11.51   0
   3  10  -4   80.66   14.17   0
   3  10  -4   83.40   15.12   0
  -3 -10   4  106.49   15.68   0
  -3 -10   4   80.27   13.54   0
  -3 -10   4   47.08   11.20   0
  -3 -10   4   77.94   12.21   0
   2  10  -4  723.88   39.32   0
   2  10  -4  822.33   41.53   0
   2  10  -4  762.25   39.19   0
  -2 -10   4  735.93   38.05   0
  -2 -10   4  820.56   41.43   0
   1  10  -4  929.28   47.25   0
   1  10  -4  945.73   45.30   0
   1  10  -4  928.54   45.82   0
  -1 -10   4  866.99   44.20   0
  -1 -10   4  952.34   47.74   0
  -1 -10   4  972.97   47.48   0
   0  10  -4  342.12   19.66   0
   0  10  -4  328.71   22.55   0
   0  10  -4  314.80   21.30   0
   0 -10   4  321.64   21.36   0
   0 -10   4  314.26   19.24   0
   0 -10   4  389.21   22.54   0
  -1  10  -4   10.41    7.34   0
  -3  10  -4  184.07   16.39   0
  -3  10  -4  220.72   17.20   0
   3 -10   4  166.02   15.13   0
   3 -10   4  204.38   15.17   0
   3 -10   4  187.50   12.87   0
  -4  10  -4  206.45   17.16   0
   4 -10   4  182.06   15.47   0
   4 -10   4  179.28   12.11   0
   4 -10   4  188.65   16.42   0
   4 -10   4  174.60   16.25   0
  -5  10  -4   83.52   15.10   0
  -5  10  -4   53.63   10.11   0
   5 -10   4   68.32    9.22   0
   5 -10   4   70.95   13.15   0
   5 -10   4   55.14    8.29   0
   5 -10   4   77.89   14.14   0
   4   9  -4    1.67    8.72   0
   4   9  -4   -5.66    7.13   0
   4   9  -4    6.39    7.33   0
  -4  -9   4   -0.82    9.01   0
  -4  -9   4   -0.75    6.02   0
  -4  -9   4    2.18    8.03   0
   3   9  -4  100.61   12.20   0
   3   9  -4  114.46   12.41   0
   3   9  -4   98.21   13.17   0
  -3  -9   4   79.92   14.28   0
  -3  -9   4   91.19   11.70   0
  -3  -9   4   78.51   10.08   0
   2   9  -4  180.05   14.93   0
   2   9  -4  197.27   15.93   0
   2   9  -4  187.12   14.01   0
  -2  -9   4  193.89   17.75   0
  -2  -9   4  185.31   13.66   0
   1   9  -4  995.94   46.47   0
   1   9  -4  946.43   45.00   0
   1   9  -4  975.93   45.59   0
  -1  -9   4  945.05   46.54   0
  -1  -9   4  925.22   44.28   0
  -1  -9   4  905.74   46.82   0
   0   9  -4  398.26   21.89   0
   0   9  -4  474.35   23.80   0
   0  -9   4  401.02   23.65   0
   0  -9   4  436.68   21.94   0
   0  -9   4  381.07   23.29   0
  -1   9  -4  620.12   30.99   0
  -1   9  -4  635.93   31.46   0
   1  -9   4  598.81   29.70   0
   1  -9   4  612.29   30.16   0
   1  -9   4  640.51   31.34   0
   1  -9   4  548.00   30.02   0
  -2   9  -4  913.58   43.34   0
  -2   9  -4  872.26   43.19   0
   2  -9   4  932.30   42.42   0
   2  -9   4  870.61   41.87   0
   2  -9   4  933.58   42.94   0
   2  -9   4  886.63   43.25   0
  -3   9  -4  312.90   18.88   0
  -3   9  -4  303.45   19.36   0
   3  -9   4  316.13   18.58   0
   3  -9   4  286.81   16.21   0
   3  -9   4  303.86   18.56   0
   3  -9   4  321.77   18.09   0
  -5   9  -4  109.97   13.13   0
   5  -9   4  111.30   12.84   0
  -6   9  -4  290.02   18.58   0
  -6   9  -4  225.29   19.39   0
   6  -9   4  228.72   17.47   0
   6  -9   4  219.71   18.34   0
   6  -9   4  209.60   13.84   0
   6  -9   4  276.73   19.05   0
   5   8  -4  102.72   14.35   0
   5   8  -4  106.83   14.03   0
   5   8  -4  104.01   14.63   0
  -5  -8   4  132.00   16.74   0
  -5  -8   4  107.50   14.71   0
  -5  -8   4  113.15   11.99   0
   4   8  -4  231.18   16.92   0
   4   8  -4  220.92   16.91   0
   4   8  -4  223.77   18.58   0
  -4  -8   4  219.53   14.47   0
  -4  -8   4  231.38   16.81   0
  -4  -8   4  262.70   18.41   0
   3   8  -4    2.45    4.67   0
   3   8  -4   -0.78    4.61   0
  -3  -8   4    4.94    7.37   0
  -3  -8   4    0.28    5.67   0
  -3  -8   4   -5.12    4.89   0
  -3  -8   4    8.27    4.03   0
   2   8  -4  272.57   16.13   0
   2   8  -4  285.52   16.88   0
   2   8  -4  235.41   15.28   0
  -2  -8   4  226.87   14.83   0
  -2  -8   4  227.75   17.82   0
  -2  -8   4  252.49   16.97   0
   1   8  -4  598.69   31.63   0
   1   8  -4  700.38   33.22   0
   1   8  -4  727.70   32.73   0
  -1  -8   4  675.25   33.30   0
  -1  -8   4  587.38   33.09   0
  -1  -8   4  655.10   31.47   0
   0   8  -4 1229.70   58.87   0
   0  -8   4 1354.27   58.94   0
   0  -8   4 1338.68   60.27   0
  -1   8  -4 1719.69   81.41   0
  -1   8  -4 1907.80   81.75   0
   1  -8   4 1742.89   81.50   0
   1  -8   4 1828.36   80.64   0
   1  -8   4 1733.84   80.91   0
   1  -8   4 1987.95   81.26   0
  -2   8  -4  990.90   45.24   0
  -2   8  -4  981.87   45.47   0
   2  -8   4  945.42   45.19   0
   2  -8   4  936.67   44.99   0
   2  -8   4 1017.61   44.72   0
   2  -8   4  941.49   44.00   0
  -3   8  -4   44.86    7.39   0
   3  -8   4   25.91    4.55   0
   3  -8   4   24.59    5.08   0
  -4   8  -4   48.38    7.76   0
  -4   8  -4   30.89    5.88   0
   4  -8   4   36.88    5.61   0
   4  -8   4   27.70    4.78   0
   4  -8   4   41.99    6.48   0
   4  -8   4   49.54    7.96   0
  -5   8  -4  955.69   41.82   0
  -5   8  -4  852.50   42.66   0
   5  -8   4  865.10   41.66   0
   5  -8   4  841.26   42.63   0
   5  -8   4  924.16   42.35   0
   5  -8   4  808.76   39.53   0
  -6   8  -4  200.60   17.70   0
   6  -8   4  254.10   16.83   0
   6  -8   4  205.52   12.71   0
  -7   8  -4   57.53   10.26   0
  -7   8  -4   80.46   13.59   0
   7  -8   4   74.76    8.76   0
   7  -8   4   82.49   13.79   0
   7  -8   4   69.61   11.79   0
   7  -8   4   58.48    9.63   0
   6   7  -4    1.29    9.61   0
   6   7  -4   11.17    7.69   0
   6   7  -4    8.24    8.41   0
  -6  -7   4   -1.20    8.31   0
  -6  -7   4    4.03    8.63   0
  -6  -7   4   20.33    6.96   0
   5   7  -4  202.62   16.92   0
   5   7  -4  214.15   17.38   0
   5   7  -4  204.33   18.09   0
  -5  -7   4  240.55   14.84   0
  -5  -7   4  248.38   16.57   0
  -5  -7   4  262.14   18.33   0
   4   7  -4  359.31   21.02   0
   4   7  -4  327.11   19.89   0
   4   7  -4  311.70   19.62   0
  -4  -7   4  338.87   20.73   0
  -4  -7   4  326.42   17.62   0
  -4  -7   4  320.62   19.09   0
   3   7  -4  261.86   16.16   0
   3   7  -4  254.45   16.70   0
   3   7  -4  267.16   16.24   0
  -3  -7   4  284.78   15.95   0
  -3  -7   4  238.84   18.09   0
  -3  -7   4  272.98   16.95   0
  -3  -7   4  263.18   14.61   0
   2   7  -4 3653.43  155.91   0
   2   7  -4 3614.67  155.86   0
  -2  -7   4 3597.42  155.30   0
  -2  -7   4 3423.40  157.34   0
  -2  -7   4 3542.07  156.43   0
   1   7  -4   74.16    8.46   0
   1   7  -4   79.54    8.05   0
  -1  -7   4   75.44    8.74   0
  -1  -7   4   96.82    9.05   0
  -1  -7   4   86.55    7.20   0
   1  -7   4  142.92   11.02   0
   1  -7   4  197.00   10.43   0
  -2   7  -4   62.39    7.57   0
   2  -7   4   78.27    6.82   0
   2  -7   4   77.26    7.28   0
   2  -7   4   83.71    5.86   0
  -3   7  -4   54.40    7.36   0
   3  -7   4   66.57    6.88   0
   3  -7   4   60.30    4.83   0
   3  -7   4   60.18    6.72   0
  -4   7  -4  204.87   13.49   0
  -4   7  -4  199.93   12.54   0
   4  -7   4  213.62   13.22   0
   4  -7   4  220.24   13.16   0
   4  -7   4  210.71   13.50   0
   4  -7   4  217.30   11.11   0
  -5   7  -4   80.24    9.50   0
   5  -7   4   61.41    7.47   0
   5  -7   4   55.51    5.52   0
   5  -7   4   59.22    8.70   0
   5  -7   4   63.93    8.55   0
  -6   7  -4    3.06    5.89   0
   6  -7   4    1.18    5.26   0
   6  -7   4   10.20    4.73   0
   6  -7   4   11.82    5.27   0
  -7   7  -4    0.81    7.01   0
  -7   7  -4    7.05    5.61   0
   7  -7   4    0.88    5.17   0
   7  -7   4    9.16    6.36   0
   7  -7   4    2.92    6.21   0
   6   6  -4  174.06   16.69   0
   6   6  -4  190.65   17.19   0
   6   6  -4  212.53   16.74   0
  -6  -6   4  201.74   16.86   0
  -6  -6   4  178.02   16.03   0
  -6  -6   4  199.13   13.65   0
   5   6  -4   45.26    7.85   0
   5   6  -4   37.00    7.62   0
  -5  -6   4   28.22    6.88   0
  -5  -6   4   41.45    5.70   0
  -5  -6   4   37.89    7.16   0
   4   6  -4   36.31    6.34   0
   4   6  -4   31.18    6.39   0
   4   6  -4   27.10    5.31   0
  -4  -6   4   38.04    6.85   0
  -4  -6   4   32.38    4.50   0
  -4  -6   4   23.65    5.79   0
   3   6  -4  317.54   17.92   0
   3   6  -4  307.76   17.44   0
  -3  -6   4  382.65   20.42   0
  -3  -6   4  328.12   17.25   0
  -3  -6   4  302.35   17.88   0
  -3  -6   4  279.92   15.94   0
   2   6  -4  384.14   20.37   0
   2   6  -4  401.14   20.18   0
   2   6  -4  395.82   20.16   0
  -2  -6   4  390.10   21.51   0
  -2  -6   4  379.09   20.49   0
  -2  -6   4  395.86   19.69   0
   1   6  -4  530.97   24.76   0
   1   6  -4  508.00   25.26   0
   1   6  -4  521.40   25.05   0
  -1  -6   4  523.13   25.81   0
  -1  -6   4  483.76   25.25   0
  -1  -6   4  525.40   24.46   0
   0   6  -4 2145.17   90.73   0
   0   6  -4 1988.43   90.53   0
   0   6  -4 2117.21   90.01   0
   0  -6   4 2054.11   89.91   0
   0  -6   4 1955.49   90.68   0
   0  -6   4 2045.60   90.73   0
   0  -6   4 2118.96   90.04   0
  -1   6  -4 3335.21  144.43   0
  -1   6  -4 3356.65  145.31   0
  -1   6  -4 3423.51  145.55   0
   1  -6   4 3329.68  144.88   0
   1  -6   4 3313.87  145.19   0
   1  -6   4 3445.97  145.01   0
   1  -6   4 3247.58  145.46   0
  -2   6  -4  573.27   28.48   0
   2  -6   4  693.93   28.92   0
   2  -6   4  599.32   28.38   0
   2  -6   4  573.92   27.05   0
   2  -6   4  574.29   27.95   0
   3  -6   4  482.26   23.59   0
   3  -6   4  473.85   21.49   0
   3  -6   4  457.12   22.80   0
   3  -6   4  474.63   22.91   0
  -4   6  -4  114.41    9.11   0
  -4   6  -4  137.52    8.54   0
  -4   6  -4  126.62    9.72   0
   4  -6   4  102.59    8.11   0
   4  -6   4  112.93    6.82   0
   4  -6   4  105.00    9.00   0
   4  -6   4  121.84    8.84   0
  -5   6  -4  109.64    9.87   0
  -5   6  -4   96.17    9.80   0
  -5   6  -4  100.87    8.59   0
   5  -6   4  100.48    9.04   0
   5  -6   4  105.80    8.58   0
   5  -6   4   90.56    9.26   0
  -6   6  -4  383.44   22.65   0
  -6   6  -4  386.59   20.94   0
  -6   6  -4  380.35   22.48   0
   6  -6   4  408.35   22.55   0
   6  -6   4  386.84   20.95   0
   6  -6   4  401.59   20.99   0
   6  -6   4  425.76   21.86   0
  -7   6  -4   65.14    9.21   0
  -7   6  -4   39.60    8.79   0
  -7   6  -4   80.30   11.77   0
   7  -6   4   39.12    7.62   0
   7  -6   4   49.95    7.40   0
   7  -6   4   63.18   10.21   0
   7  -6   4   55.34    8.82   0
  -8   6  -4   37.13    8.96   0
  -8   6  -4   28.38   10.40   0
  -8   6  -4   21.45    7.33   0
   8  -6   4   10.61   11.37   0
   8  -6   4   32.50    7.05   0
   8  -6   4   19.48    6.28   0
   8  -6   4   34.78    8.17   0
   7   5  -4   47.66    9.26   0
   7   5  -4   64.44   10.68   0
   7   5  -4   44.32    9.28   0
  -7  -5   4   55.73    7.71   0
  -7  -5   4   39.00    7.98   0
  -7  -5   4   70.57   12.70   0
   6   5  -4  590.12   30.50   0
   6   5  -4  557.70   29.79   0
   6   5  -4  560.70   31.54   0
  -6  -5   4  568.58   28.00   0
  -6  -5   4  548.63   29.60   0
   5   5  -4 1562.57   69.52   0
   5   5  -4 1597.93   71.16   0
   5   5  -4 1539.96   69.84   0
  -5  -5   4 1531.65   69.67   0
  -5  -5   4 1413.13   67.64   0
  -5  -5   4 1499.07   69.27   0
   4   5  -4  471.95   23.00   0
   4   5  -4  452.54   23.27   0
   4   5  -4  447.47   23.94   0
  -4  -5   4  433.84   22.58   0
  -4  -5   4  418.75   21.12   0
  -4  -5   4  424.79   22.88   0
   3   5  -4  225.81   13.52   0
  -3  -5   4  195.21   11.48   0
  -3  -5   4  264.77   13.24   0
  -3  -5   4  230.62   13.38   0
   2   5  -4  107.21    7.87   0
   2   5  -4   99.81    7.40   0
   2   5  -4  125.65    7.97   0
  -2  -5   4  103.56    7.10   0
  -2  -5   4   94.59    7.77   0
  -2  -5   4  100.26    8.61   0
   1   5  -4   61.92    5.05   0
   1   5  -4   54.57    5.28   0
   0   5  -4 2701.90  115.17   0
   0   5  -4 2668.04  115.03   0
   0   5  -4 2701.71  114.50   0
   0  -5   4 2505.13  115.11   0
   0  -5   4 2643.82  115.08   0
   0  -5   4 2685.74  114.59   0
   0  -5   4 2626.92  114.49   0
  -1   5  -4 2312.80  101.52   0
  -1   5  -4 2367.60  101.83   0
   1  -5   4 2334.95  101.67   0
   1  -5   4 2394.18  101.39   0
   1  -5   4 2330.67  101.05   0
   1  -5   4 2285.82  101.76   0
  -2   5  -4 3123.25  137.07   0
  -2   5  -4 3156.12  137.50   0
   2  -5   4 3172.00  136.09   0
   2  -5   4 3264.08  137.27   0
   2  -5   4 3138.88  137.71   0
   2  -5   4 3178.59  137.38   0
  -3   5  -4  605.67   28.97   0
  -3   5  -4  605.80   28.17   0
   3  -5   4  633.04   27.10   0
   3  -5   4  611.42   28.36   0
   3  -5   4  597.07   29.03   0
  -4   5  -4  133.68    8.69   0
  -4   5  -4  138.34    9.94   0
  -4   5  -4  158.00    9.82   0
   4  -5   4  131.32    9.66   0
   4  -5   4  150.50    9.34   0
   4  -5   4  137.97    8.78   0
  -5   5  -4  999.66   42.93   0
  -5   5  -4  898.74   43.73   0
  -5   5  -4  825.21   43.46   0
   5  -5   4 1017.20   43.32   0
   5  -5   4  875.73   42.59   0
   5  -5   4  950.65   42.68   0
   5  -5   4  954.16   44.03   0
  -6   5  -4 1354.75   58.33   0
  -6   5  -4 1354.09   59.56   0
  -6   5  -4 1274.38   59.40   0
   6  -5   4 1272.72   58.41   0
   6  -5   4 1268.04   58.36   0
   6  -5   4 1348.34   59.73   0
   6  -5   4 1075.64   57.32   0
  -7   5  -4  558.93   28.19   0
  -7   5  -4  549.40   29.54   0
  -7   5  -4  530.61   29.85   0
   7  -5   4  515.84   28.12   0
   7  -5   4  573.24   28.39   0
   7  -5   4  547.93   29.32   0
   7  -5   4  549.86   27.60   0
  -8   5  -4   14.23    8.33   0
  -8   5  -4   -3.31    5.63   0
  -8   5  -4    0.58    7.45   0
   8  -5   4    7.38    5.58   0
   8  -5   4   13.32    6.37   0
   8  -5   4    3.98    5.72   0
   8  -5   4    6.07    6.08   0
   7   4  -4   18.33    6.55   0
   7   4  -4   24.57    6.85   0
   7   4  -4   15.50    7.65   0
  -7  -4   4   14.63    6.31   0
  -7  -4   4   20.17    5.37   0
  -7  -4   4   18.88    6.70   0
   6   4  -4  462.92   24.14   0
   6   4  -4  440.37   24.32   0
  -6  -4   4  434.97   23.90   0
  -6  -4   4  436.54   23.91   0
  -6  -4   4  436.80   22.40   0
   5   4  -4 1947.64   87.39   0
   5   4  -4 2157.88   89.45   0
   5   4  -4 1971.71   87.11   0
  -5  -4   4 1852.77   85.49   0
  -5  -4   4 1817.72   86.74   0
   4   4  -4 1281.65   57.37   0
   4   4  -4 1313.96   57.30   0
   4   4  -4 1289.19   58.63   0
  -4  -4   4 1248.63   57.13   0
  -4  -4   4 1233.24   56.93   0
  -4  -4   4 1207.45   55.62   0
   3   4  -4   59.22    5.97   0
   3   4  -4   61.56    5.85   0
   3   4  -4   67.88    6.72   0
  -3  -4   4   54.60    5.46   0
  -3  -4   4   53.53    5.67   0
  -3  -4   4   62.96    4.23   0
   2   4  -4   19.57    3.35   0
   2   4  -4   18.00    3.31   0
  -2  -4   4   18.56    2.29   0
  -2  -4   4   21.89    3.25   0
  -2  -4   4   25.44    3.80   0
   1   4  -4  224.19   11.67   0
   1   4  -4  235.03   11.69   0
   1   4  -4  245.88   11.77   0
  -1  -4   4  202.69   11.56   0
  -1  -4   4  219.27   11.19   0
   0   4  -4  336.07   15.39   0
   0   4  -4  318.06   15.13   0
   0   4  -4  337.45   14.74   0
   0  -4   4  308.98   14.73   0
   0  -4   4  309.80   14.74   0
   0  -4   4  308.65   15.28   0
   0  -4   4  301.20   14.98   0
  -1   4  -4 1021.50   44.45   0
  -1   4  -4  990.00   44.11   0
   1  -4   4 1002.93   44.43   0
   1  -4   4 1000.51   44.06   0
   1  -4   4 1041.92   44.42   0
   1  -4   4  962.51   43.38   0
  -2   4  -4  320.47   16.07   0
  -2   4  -4  315.33   15.51   0
  -2   4  -4  340.89   15.92   0
   2  -4   4  315.14   16.12   0
   2  -4   4  338.82   15.73   0
   2  -4   4  337.74   15.67   0
  -3   4  -4  389.34   20.53   0
  -3   4  -4  431.30   20.24   0
  -3   4  -4  442.62   21.07   0
   3  -4   4  407.53   19.60   0
   3  -4   4  444.58   20.44   0
   3  -4   4  441.33   21.15   0
   3  -4   4  452.20   20.27   0
  -4   4  -4  383.10   19.59   0
  -4   4  -4  389.06   19.01   0
  -4   4  -4  394.65   19.95   0
   4  -4   4  385.99   19.88   0
   4  -4   4  415.91   19.26   0
   4  -4   4  389.43   18.78   0
   4  -4   4  360.72   18.72   0
  -5   4  -4  500.30   25.81   0
  -5   4  -4  511.46   24.96   0
  -5   4  -4  503.46   25.72   0
   5  -4   4  547.07   25.17   0
   5  -4   4  499.46   25.02   0
   5  -4   4  482.23   25.71   0
   5  -4   4  549.17   24.78   0
  -6   4  -4 1240.26   56.45   0
  -6   4  -4 1183.27   55.20   0
  -6   4  -4 1168.19   56.20   0
   6  -4   4 1210.71   54.79   0
   6  -4   4 1285.07   55.50   0
   6  -4   4 1244.43   56.57   0
   6  -4   4 1145.57   55.56   0
  -7   4  -4  235.09   16.56   0
  -7   4  -4  220.71   16.96   0
  -7   4  -4  264.06   15.67   0
   7  -4   4  216.61   14.38   0
   7  -4   4  216.64   15.01   0
   7  -4   4  231.10   15.69   0
   7  -4   4  215.82   14.91   0
  -8   4  -4   50.62   10.07   0
  -8   4  -4   42.90    8.62   0
  -8   4  -4   43.92    8.91   0
   8  -4   4   58.67   10.92   0
   8  -4   4   63.12    8.74   0
   8  -4   4   46.33    9.00   0
   8   3  -4  152.32   18.86   0
   8   3  -4  118.14   14.08   0
   8   3  -4  102.99   14.42   0
  -8  -3   4  103.70   14.76   0
  -8  -3   4  130.93   13.98   0
  -8  -3   4  135.10   12.31   0
   7   3  -4  293.01   18.51   0
   7   3  -4  269.17   18.93   0
  -7  -3   4  352.60   19.23   0
  -7  -3   4  288.78   17.22   0
  -7  -3   4  268.07   18.60   0
   6   3  -4   71.38    8.88   0
   6   3  -4   84.27    8.50   0
  -6  -3   4   68.72    7.14   0
  -6  -3   4   84.50    8.99   0
  -6  -3   4   58.47    8.31   0
   5   3  -4   12.50    3.89   0
   5   3  -4    4.66    3.46   0
  -5  -3   4    6.67    2.92   0
  -5  -3   4    9.83    2.76   0
  -5  -3   4   12.76    3.91   0
   4   3  -4   91.04    8.23   0
   4   3  -4   80.75    7.18   0
   4   3  -4   81.42    6.81   0
  -4  -3   4   73.30    6.56   0
  -4  -3   4   82.04    5.35   0
  -4  -3   4   74.09    6.58   0
   3   3  -4 1469.69   63.59   0
   3   3  -4 1439.60   63.63   0
  -3  -3   4 1433.92   62.21   0
  -3  -3   4 1442.93   63.39   0
  -3  -3   4 1387.95   63.33   0
   2   3  -4  838.16   38.25   0
   2   3  -4  857.88   38.97   0
   2   3  -4  875.92   38.28   0
  -2  -3   4  831.14   37.97   0
  -2  -3   4  844.57   36.91   0
  -2  -3   4  868.92   38.10   0
   1   3  -4   54.44    3.92   0
   1   3  -4   58.73    3.99   0
   1   3  -4   46.18    3.93   0
  -1  -3   4   53.68    3.77   0
  -1  -3   4   54.31    3.50   0
   0   3  -4  550.67   24.11   0
   0   3  -4  530.57   23.73   0
   0   3  -4  518.84   23.85   0
   0  -3   4  539.46   23.74   0
   0  -3   4  535.77   23.67   0
   0  -3   4  543.39   23.99   0
  -1   3  -4  179.16    8.79   0
  -1   3  -4  173.81    8.98   0
  -1   3  -4  184.63    8.60   0
   1  -3   4  178.74    8.51   0
   1  -3   4  167.11    8.91   0
   1  -3   4  178.55    8.69   0
  -2   3  -4    8.80    1.64   0
  -2   3  -4    7.71    2.06   0
   2  -3   4    7.55    1.91   0
   2  -3   4   11.51    2.06   0
   2  -3   4    8.67    1.21   0
   2  -3   4   13.49    2.31   0
  -3   3  -4  352.51   17.34   0
  -3   3  -4  355.57   16.64   0
  -3   3  -4  349.79   16.95   0
   3  -3   4  350.32   16.38   0
   3  -3   4  316.60   17.12   0
   3  -3   4  331.07   16.25   0
   3  -3   4  370.50   16.64   0
  -4   3  -4   12.32    2.93   0
  -4   3  -4   18.37    3.32   0
  -4   3  -4   14.83    3.33   0
   4  -3   4   16.66    2.92   0
   4  -3   4   12.48    2.69   0
   4  -3   4   10.38    2.57   0
   4  -3   4   16.31    3.43   0
  -5   3  -4  132.85    9.72   0
  -5   3  -4  126.90    9.69   0
  -5   3  -4  128.17    8.86   0
   5  -3   4  135.75    8.45   0
   5  -3   4  133.43    8.72   0
   5  -3   4  134.25    9.49   0
   5  -3   4  120.46    8.92   0
  -6   3  -4  116.95   10.83   0
  -6   3  -4  122.75   10.52   0
  -6   3  -4  122.49    9.62   0
   6  -3   4  118.52    9.70   0
   6  -3   4  120.00    9.41   0
   6  -3   4  123.66    9.07   0
   6  -3   4  115.04    9.79   0
  -7   3  -4   47.32    8.18   0
  -7   3  -4   34.26    6.86   0
   7  -3   4   44.46    7.46   0
   7  -3   4   24.51    5.60   0
   7  -3   4   39.13    6.43   0
   7  -3   4   40.60    8.21   0
  -8   3  -4  204.39   15.72   0
  -8   3  -4  225.85   17.70   0
  -8   3  -4  222.83   18.39   0
   8  -3   4  201.15   15.56   0
   8  -3   4  214.09   16.88   0
   8  -3   4  212.97   16.49   0
   8   2  -4  128.52   13.08   0
   8   2  -4  104.50   12.15   0
   8   2  -4   98.98    9.50   0
  -8  -2   4   80.91   12.79   0
  -8  -2   4   89.57   11.64   0
   7   2  -4   72.52    9.23   0
   7   2  -4   51.54    6.62   0
  -7  -2   4   74.92    9.80   0
  -7  -2   4   62.72    8.32   0
  -7  -2   4   59.18    7.90   0
   6   2  -4  929.17   41.87   0
   6   2  -4  895.52   41.41   0
   6   2  -4  852.69   43.50   0
   6   2  -4  880.32   39.90   0
  -6  -2   4  852.77   41.20   0
  -6  -2   4  879.48   41.12   0
  -6  -2   4  821.60   40.10   0
   5   2  -4 1376.67   60.89   0
   5   2  -4 1381.68   61.14   0
   5   2  -4 1303.63   62.56   0
   5   2  -4 1379.19   59.54   0
  -5  -2   4 1278.13   59.69   0
  -5  -2   4 1389.24   60.71   0
  -5  -2   4 1332.36   60.71   0
   4   2  -4 2256.91   97.50   0
   4   2  -4 2254.31   96.31   0
   4   2  -4 2155.22   98.93   0
   4   2  -4 2285.81   97.78   0
  -4  -2   4 2125.10   97.20   0
  -4  -2   4 2316.55   97.48   0
  -4  -2   4 2182.45   96.45   0
   3   2  -4 1015.46   42.32   0
   3   2  -4  950.64   43.46   0
   3   2  -4  954.95   43.34   0
  -3  -2   4  996.88   43.33   0
  -3  -2   4  934.04   43.18   0
  -3  -2   4  973.68   42.41   0
   2   2  -4 1098.17   49.73   0
   2   2  -4 1123.70   49.87   0
  -2  -2   4 1146.14   49.64   0
  -2  -2   4 1168.56   49.69   0
   1   2  -4   71.35    4.12   0
   1   2  -4   74.49    4.19   0
  -1  -2   4   71.76    3.85   0
  -1  -2   4   71.84    3.77   0
   0   2  -4  232.43   10.61   0
   0   2  -4  245.57   10.84   0
   0   2  -4  240.42   10.82   0
   0  -2   4  229.74   10.78   0
  -1   2  -4 4197.69  178.12   0
  -1   2  -4 4205.97  177.66   0
   1  -2   4 4040.25  178.12   0
  -2   2  -4  153.41    8.42   0
  -2   2  -4  159.93    8.00   0
  -2   2  -4  155.60    7.85   0
   2  -2   4  152.90    7.55   0
   2  -2   4  157.69    7.55   0
   2  -2   4  151.81    8.38   0
   2  -2   4  150.20    7.55   0
  -3   2  -4    5.05    2.02   0
  -3   2  -4    3.10    1.59   0
  -3   2  -4    5.17    2.06   0
   3  -2   4    3.33    1.53   0
   3  -2   4    4.46    1.60   0
   3  -2   4    3.44    1.50   0
  -4   2  -4    4.42    2.45   0
  -4   2  -4   -0.44    2.26   0
  -4   2  -4    2.59    1.94   0
   4  -2   4   -1.04    1.93   0
   4  -2   4    7.45    2.25   0
   4  -2   4    2.88    2.12   0
  -5   2  -4  205.10   11.88   0
  -5   2  -4  203.31   12.65   0
  -5   2  -4  195.15   12.57   0
   5  -2   4  209.72   12.52   0
   5  -2   4  197.28   12.31   0
   5  -2   4  206.19   11.72   0
  -6   2  -4  766.89   37.34   0
  -6   2  -4  799.44   38.28   0
  -6   2  -4  792.08   38.18   0
   6  -2   4  788.93   38.26   0
   6  -2   4  791.68   37.16   0
   6  -2   4  786.45   38.20   0
  -7   2  -4   51.61    7.79   0
   7  -2   4   60.77    8.26   0
   7  -2   4   45.39    8.47   0
   7  -2   4   53.32    8.84   0
  -8   2  -4  168.45   14.85   0
  -8   2  -4  174.85   16.55   0
  -8   2  -4  154.62   16.33   0
   8  -2   4  184.94   16.02   0
   8  -2   4  174.80   15.22   0
   8  -2   4  182.08   14.27   0
   8   1  -4   -6.02    4.94   0
   8   1  -4    1.81    7.15   0
   8   1  -4    2.50    4.20   0
   8   1  -4   -0.09    6.19   0
  -8  -1   4    0.48    4.92   0
  -8  -1   4    1.33    5.50   0
  -8  -1   4    1.66    4.75   0
   7   1  -4   63.94    6.72   0
   7   1  -4   56.24   11.36   0
   7   1  -4   63.00    8.68   0
   7   1  -4   61.97    8.61   0
  -7  -1   4   50.83    9.24   0
  -7  -1   4   60.06    7.87   0
  -7  -1   4   62.79    7.79   0
   6   1  -4  278.55   16.06   0
   6   1  -4  286.89   16.44   0
   6   1  -4  273.21   14.63   0
   6   1  -4  262.32   18.08   0
  -6  -1   4  280.60   15.69   0
  -6  -1   4  310.92   16.23   0
  -6  -1   4  277.02   15.23   0
   5   1  -4 7597.58  312.81   0
   5   1  -4 7537.50  313.05   0
   5   1  -4 7279.54  311.67   0
  -5  -1   4 6785.76  311.77   0
  -5  -1   4 7117.69  312.34   0
  -5  -1   4 7249.09  312.59   0
   4   1  -4 4714.83  198.09   0
   4   1  -4 4786.24  197.88   0
   4   1  -4 4760.70  196.97   0
  -4  -1   4 4348.78  197.01   0
  -4  -1   4 4409.35  197.49   0
  -4  -1   4 4479.45  197.66   0
   3   1  -4  935.05   39.57   0
   3   1  -4  857.20   39.21   0
   3   1  -4  872.49   38.50   0
  -3  -1   4  871.44   39.07   0
  -3  -1   4  816.76   38.56   0
  -3  -1   4  930.82   39.24   0
   2   1  -4   84.90    4.39   0
   2   1  -4   81.24    4.91   0
   2   1  -4   94.00    5.20   0
  -2  -1   4   91.94    4.88   0
  -2  -1   4   90.93    4.81   0
   1   1  -4  176.92    8.07   0
  -1   1  -4 3126.33  132.65   0
   1  -1   4 3032.48  132.70   0
  -2   1  -4  149.41    8.29   0
  -2   1  -4  148.87    7.66   0
  -2   1  -4  149.25    8.30   0
  -2   1  -4  153.11    7.78   0
   2  -1   4  152.56    8.32   0
   2  -1   4  154.03    7.95   0
  -3   1  -4    6.71    2.45   0
  -3   1  -4    2.95    1.99   0
  -3   1  -4    4.27    1.90   0
  -3   1  -4    2.39    1.72   0
   3  -1   4    2.47    1.68   0
   3  -1   4    1.63    1.40   0
   3  -1   4    4.62    1.82   0
  -4   1  -4  942.24   44.42   0
  -4   1  -4 1000.56   45.24   0
  -4   1  -4 1009.81   44.94   0
   4  -1   4  989.01   45.11   0
   4  -1   4  991.83   43.97   0
   4  -1   4  977.81   44.17   0
   4  -1   4  999.44   45.32   0
  -5   1  -4 1928.34   84.42   0
  -5   1  -4 1903.93   84.10   0
  -5   1  -4 1859.05   83.59   0
   5  -1   4 1871.36   84.37   0
   5  -1   4 1837.84   83.18   0
   5  -1   4 1879.56   82.90   0
   5  -1   4 1934.08   84.51   0
  -6   1  -4  650.46   32.85   0
  -6   1  -4  683.31   33.31   0
  -6   1  -4  646.61   32.19   0
   6  -1   4  649.42   31.74   0
   6  -1   4  684.86   33.10   0
   6  -1   4  659.98   31.30   0
   6  -1   4  652.94   32.96   0
  -7   1  -4   22.78    6.53   0
  -7   1  -4   32.64    7.32   0
  -7   1  -4   21.96    5.33   0
   7  -1   4   42.28    6.03   0
   7  -1   4   32.22    6.55   0
   7  -1   4   25.42    6.36   0
   7  -1   4   30.85    5.90   0
  -8   1  -4  279.55   20.30   0
  -8   1  -4  256.77   18.96   0
  -8   1  -4  238.74   20.00   0
   8  -1   4  264.43   19.46   0
   8  -1   4  262.16   17.53   0
   8  -1   4  283.69   19.83   0
   9   0  -4   23.28    8.70   0
   9   0  -4   26.27    6.95   0
   9   0  -4   25.77    9.83   0
  -9   0   4   21.66    7.32   0
  -9   0   4   14.37    6.56   0
  -9   0   4   44.16   10.28   0
   8   0  -4   15.62    7.27   0
   8   0  -4   21.64    6.06   0
   8   0  -4   20.25    6.85   0
   8   0  -4   24.57    5.24   0
  -8   0   4   14.22    4.89   0
  -8   0   4   24.11    6.03   0
  -8   0   4   19.56    6.74   0
   7   0  -4    3.89    4.01   0
   7   0  -4    2.54    5.15   0
   7   0  -4    1.12    3.87   0
   7   0  -4    1.24    3.03   0
  -7   0   4   -0.19    3.38   0
  -7   0   4    6.90    3.99   0
  -7   0   4    1.15    3.33   0
   6   0  -4  201.25   11.13   0
   6   0  -4  200.67   12.09   0
   6   0  -4  184.22   12.18   0
  -6   0   4  171.99   11.32   0
  -6   0   4  190.72   11.46   0
  -6   0   4  173.87   11.68   0
   5   0  -4 1349.17   58.38   0
   5   0  -4 1290.10   57.31   0
   5   0  -4 1295.72   58.02   0
  -5   0   4 1314.58   57.96   0
  -5   0   4 1252.80   57.59   0
  -5   0   4 1246.94   57.48   0
   4   0  -4 2824.48  128.99   0
   4   0  -4 2949.98  129.58   0
   4   0  -4 3188.65  129.99   0
  -4   0   4 2858.95  129.14   0
  -4   0   4 2876.59  129.24   0
  -4   0   4 3221.28  129.64   0
   3   0  -4 1822.39   85.26   0
   3   0  -4 2078.57   85.94   0
   3   0  -4 1942.63   85.63   0
  -3   0   4 2142.57   85.64   0
  -3   0   4 1869.82   85.32   0
   2   0  -4 5491.94  235.32   0
   1   0  -4 3234.48  149.54   0
  -1   0   4 3612.68  150.23   0
   0   0  -4 1392.82   60.68   0
  -1   0  -4  359.04   17.36   0
  -1   0  -4  378.57   17.41   0
   1   0   4  373.07   17.34   0
  -2   0  -4   15.17    2.45   0
  -2   0  -4    9.54    2.02   0
  -2   0  -4   17.30    3.43   0
  -2   0  -4   15.18    2.50   0
   2   0   4   12.22    2.19   0
   2   0   4   12.48    2.26   0
  -3   0  -4 2544.45  112.65   0
  -3   0  -4 2513.54  111.89   0
  -3   0  -4 2637.06  112.16   0
  -3   0  -4 2428.69  113.12   0
   3   0   4 2618.10  111.39   0
   3   0   4 2602.60  111.51   0
   3   0   4 2665.65  112.73   0
   3   0   4 2627.64  112.80   0
  -4   0  -4 1417.68   65.30   0
  -4   0  -4 1506.72   66.14   0
  -4   0  -4 1503.82   65.73   0
  -4   0  -4 1380.54   66.69   0
   4   0   4 1424.84   64.64   0
   4   0   4 1549.28   66.31   0
   4   0   4 1541.12   66.32   0
   4   0   4 1453.34   64.89   0
  -5   0  -4  180.88   11.92   0
  -5   0  -4  189.28   12.65   0
  -5   0  -4  208.73   12.64   0
   5   0   4  212.41   12.89   0
   5   0   4  198.60   12.49   0
   5   0   4  189.25   11.14   0
   5   0   4  201.59   11.72   0
  -6   0  -4    0.76    4.15   0
  -6   0  -4   -4.42    4.12   0
  -6   0  -4    4.23    4.94   0
   6   0   4    2.19    3.67   0
   6   0   4    3.93    3.25   0
   6   0   4    0.94    3.54   0
   6   0   4    2.14    3.89   0
  -7   0  -4  715.40   35.39   0
  -7   0  -4  677.62   34.27   0
  -7   0  -4  611.04   34.33   0
   7   0   4  669.91   32.53   0
   7   0   4  650.11   34.62   0
   7   0   4  712.48   35.46   0
   7   0   4  680.77   33.35   0
   9  -1  -4    2.39    8.96   0
   9  -1  -4    5.64    7.27   0
   9  -1  -4    7.33    8.54   0
   9  -1  -4    5.63    5.68   0
  -9   1   4   20.11    8.55   0
  -9   1   4   13.91    7.09   0
  -9   1   4   12.36    6.44   0
   8  -1  -4  477.82   30.43   0
   8  -1  -4  497.40   26.52   0
   8  -1  -4  546.16   28.17   0
   8  -1  -4  544.29   28.02   0
  -8   1   4  503.08   26.77   0
  -8   1   4  512.25   27.81   0
  -8   1   4  526.19   27.39   0
   7  -1  -4    3.29    3.63   0
   7  -1  -4    7.63    4.01   0
   7  -1  -4    8.53    4.78   0
  -7   1   4   14.94    4.51   0
  -7   1   4    1.70    3.79   0
  -7   1   4    6.98    4.12   0
   6  -1  -4  400.85   20.41   0
   6  -1  -4  375.91   19.39   0
   6  -1  -4  382.51   20.02   0
  -6   1   4  383.19   19.75   0
  -6   1   4  381.87   20.00   0
  -6   1   4  363.46   19.28   0
   5  -1  -4  615.46   28.48   0
   5  -1  -4  558.35   27.73   0
   5  -1  -4  582.36   28.17   0
  -5   1   4  564.69   27.59   0
  -5   1   4  637.86   28.37   0
   4  -1  -4  300.19   15.42   0
   4  -1  -4  314.47   15.60   0
   4  -1  -4  314.83   15.78   0
  -4   1   4  294.05   15.03   0
  -4   1   4  329.77   15.65   0
   3  -1  -4 2359.41  102.53   0
   3  -1  -4 2340.31  102.33   0
   3  -1  -4 2350.66  102.42   0
  -3   1   4 2352.76  102.25   0
  -3   1   4 2407.04  101.97   0
   2  -1  -4 3906.45  163.86   0
   2  -1  -4 3690.63  163.59   0
  -2   1   4 3843.81  163.51   0
   1  -1  -4 1630.54   71.75   0
   1  -1  -4 1707.09   71.89   0
   0  -1  -4    2.97    0.81   0
   0  -1  -4    3.57    1.46   0
  -1  -1  -4   39.35    3.83   0
  -1  -1  -4   34.94    2.92   0
  -1  -1  -4   31.65    3.45   0
  -1  -1  -4   33.59    2.70   0
   1   1   4   30.69    3.39   0
  -2  -1  -4 1409.74   61.41   0
  -2  -1  -4 1373.25   62.19   0
  -2  -1  -4 1405.09   62.76   0
  -2  -1  -4 1356.94   61.46   0
   2   1   4 1451.39   60.85   0
   2   1   4 1416.67   60.78   0
   2   1   4 1397.70   62.32   0
  -3  -1  -4  838.46   40.70   0
  -3  -1  -4  860.17   39.70   0
  -3  -1  -4  874.11   39.09   0
  -3  -1  -4  837.94   39.03   0
   3   1   4  850.63   38.31   0
   3   1   4  883.88   38.45   0
   3   1   4  884.05   39.94   0
  -4  -1  -4  438.10   22.41   0
  -4  -1  -4  418.10   23.68   0
  -4  -1  -4  439.95   21.91   0
  -4  -1  -4  436.42   21.90   0
   4   1   4  458.97   22.74   0
   4   1   4  452.80   21.19   0
   4   1   4  432.27   20.98   0
  -5  -1  -4   66.92   10.81   0
  -5  -1  -4   36.51    6.07   0
  -5  -1  -4   44.96    7.46   0
   5   1   4   44.76    6.11   0
   5   1   4   55.64    7.52   0
  -6  -1  -4  130.10   10.98   0
  -6  -1  -4  112.70   11.26   0
  -6  -1  -4   95.21   10.36   0
   6   1   4  112.03    9.65   0
   6   1   4  103.68    8.68   0
  -7  -1  -4  230.76   16.53   0
  -7  -1  -4  228.51   17.07   0
  -7  -1  -4  220.33   17.21   0
   7   1   4  226.84   15.33   0
   7   1   4  222.21   17.71   0
   7   1   4  192.64   13.87   0
   9  -2  -4    5.72    6.35   0
   9  -2  -4   -1.52    6.25   0
   9  -2  -4   -6.31    8.60   0
   9  -2  -4    9.70    9.93   0
  -9   2   4    6.22    7.27   0
  -9   2   4    3.25    6.37   0
   8  -2  -4  428.77   24.82   0
   8  -2  -4  440.18   24.12   0
   8  -2  -4  444.92   24.84   0
  -8   2   4  435.78   24.70   0
  -8   2   4  470.30   23.80   0
   7  -2  -4  125.05   10.37   0
   7  -2  -4  132.08   11.46   0
   7  -2  -4  159.30   11.62   0
  -7   2   4  133.76   10.10   0
  -7   2   4  148.47   11.19   0
   6  -2  -4  690.48   36.19   0
   6  -2  -4  757.09   36.39   0
   6  -2  -4  769.26   36.22   0
  -6   2   4  725.97   35.46   0
  -6   2   4  890.61   36.95   0
   5  -2  -4 1733.21   74.19   0
   5  -2  -4 1591.33   73.77   0
   5  -2  -4 1645.14   73.91   0
  -5   2   4 1791.06   74.12   0
  -5   2   4 1559.57   73.13   0
   4  -2  -4 1043.62   47.38   0
   4  -2  -4 1066.56   47.58   0
  -4   2   4 1070.17   47.39   0
  -4   2   4 1045.18   46.83   0
   3  -2  -4  248.62   12.77   0
   3  -2  -4  255.88   12.66   0
   3  -2  -4  243.99   12.98   0
  -3   2   4  250.14   12.59   0
  -3   2   4  267.89   12.23   0
   2  -2  -4  199.86    9.86   0
   2  -2  -4  188.64    9.58   0
  -2   2   4  197.96    9.59   0
  -2   2   4  196.01    9.44   0
   1  -2  -4    1.97    1.07   0
   1  -2  -4    1.61    1.14   0
   1  -2  -4    1.77    1.42   0
   0  -2  -4   96.25    6.52   0
   0  -2  -4  101.18    5.56   0
   0  -2  -4  101.54    5.63   0
   0   2   4  100.65    6.61   0
  -1  -2  -4    4.87    1.64   0
  -1  -2  -4    4.42    2.27   0
   1   2   4    5.06    1.30   0
   1   2   4    6.05    2.01   0
   1   2   4    5.24    1.33   0
  -2  -2  -4   15.85    3.19   0
  -2  -2  -4   14.50    3.03   0
  -2  -2  -4   12.75    2.77   0
  -2  -2  -4   17.26    4.11   0
   2   2   4   13.11    2.14   0
   2   2   4   17.77    3.41   0
  -3  -2  -4  296.62   17.90   0
  -3  -2  -4  308.27   16.49   0
  -3  -2  -4  301.34   16.06   0
  -3  -2  -4  294.77   15.84   0
   3   2   4  319.15   15.17   0
   3   2   4  292.53   14.98   0
   3   2   4  323.89   16.91   0
  -4  -2  -4   22.66    4.25   0
  -4  -2  -4   31.77    5.46   0
  -4  -2  -4   27.25    4.73   0
  -4  -2  -4   20.97    5.83   0
   4   2   4   27.72    4.52   0
   4   2   4   20.39    4.37   0
  -5  -2  -4  154.19   11.83   0
  -5  -2  -4  162.01   12.31   0
   5   2   4  172.84   10.32   0
   5   2   4  127.74   12.02   0
  -6  -2  -4  155.76   13.48   0
   6   2   4  115.08   13.02   0
  -7  -2  -4    7.62    6.35   0
  -7  -2  -4   12.82    7.67   0
  -7  -2  -4   17.51    8.15   0
   7   2   4   12.52    5.07   0
   7   2   4   14.80    8.12   0
   7   2   4   23.11    6.41   0
   9  -3  -4   36.21   10.37   0
   9  -3  -4   28.17    8.34   0
  -9   3   4   46.84   10.02   0
  -9   3   4   25.40    6.84   0
   8  -3  -4   -1.15    5.04   0
   8  -3  -4   -0.64    5.06   0
   8  -3  -4    1.76    5.05   0
  -8   3   4    3.54    4.10   0
  -8   3   4    7.46    5.65   0
   7  -3  -4  139.92   11.24   0
   7  -3  -4  141.43   11.60   0
   7  -3  -4  127.51   10.94   0
  -7   3   4  138.50    9.98   0
  -7   3   4  140.31   11.57   0
   6  -3  -4   34.11    6.08   0
   6  -3  -4   21.37    4.60   0
   6  -3  -4   26.62    4.74   0
  -6   3   4   27.66    5.06   0
  -6   3   4   27.10    4.91   0
   5  -3  -4   54.61    6.07   0
   5  -3  -4   51.95    6.21   0
  -5   3   4   59.58    6.42   0
  -5   3   4   54.15    5.17   0
   4  -3  -4  713.98   32.02   0
   4  -3  -4  678.77   32.21   0
   4  -3  -4  687.84   31.82   0
  -4   3   4  665.85   31.14   0
   3  -3  -4 1990.25   93.70   0
  -3   3   4 2353.05   94.07   0
  -3   3   4 2126.07   93.51   0
   2  -3  -4 1873.61   80.45   0
   2  -3  -4 1806.97   80.20   0
   2  -3  -4 1853.02   81.51   0
  -2   3   4 1787.31   80.13   0
  -2   3   4 1911.73   80.30   0
   1  -3  -4 1055.20   48.63   0
   1  -3  -4 1064.67   47.39   0
   1  -3  -4 1067.06   47.51   0
  -1   3   4 1100.20   47.27   0
  -1   3   4 1100.65   47.21   0
   0  -3  -4   14.53    2.51   0
   0  -3  -4   20.28    3.15   0
   0   3   4   15.06    2.59   0
  -1  -3  -4   59.03    5.18   0
  -1  -3  -4   63.15    6.36   0
  -1  -3  -4   65.46    5.40   0
   1   3   4   57.88    5.94   0
   1   3   4   61.80    4.46   0
   1   3   4   57.60    4.42   0
  -2  -3  -4  242.62   13.29   0
  -2  -3  -4  248.43   15.06   0
  -2  -3  -4  238.82   13.63   0
  -2  -3  -4  250.08   14.12   0
   2   3   4  249.87   12.56   0
   2   3   4  248.67   12.53   0
   2   3   4  253.29   14.40   0
  -3  -3  -4  400.13   20.57   0
  -3  -3  -4  396.16   20.85   0
  -3  -3  -4  413.93   21.33   0
  -3  -3  -4  374.12   22.88   0
   3   3   4  427.49   21.82   0
   3   3   4  411.22   19.60   0
   3   3   4  395.82   19.57   0
  -4  -3  -4   48.73    8.03   0
  -4  -3  -4   48.77    8.01   0
  -4  -3  -4   53.32    9.29   0
  -4  -3  -4   53.24    8.32   0
   4   3   4   60.82    6.74   0
   4   3   4   55.85    8.18   0
   4   3   4   59.42    6.57   0
  -5  -3  -4  235.49   19.71   0
  -5  -3  -4  230.29   15.80   0
  -5  -3  -4  205.29   15.48   0
  -5  -3  -4  251.60   16.29   0
   5   3   4  238.30   14.02   0
   5   3   4  223.01   16.15   0
   5   3   4  232.40   13.76   0
  -6  -3  -4    7.83    9.88   0
  -6  -3  -4   18.49    7.52   0
  -6  -3  -4    7.80    7.50   0
  -6  -3  -4    0.30    6.23   0
   6   3   4   20.09    5.44   0
   6   3   4   16.85    6.39   0
   6   3   4   11.20    4.64   0
   8  -4  -4  706.54   36.10   0
   8  -4  -4  735.29   36.81   0
  -8   4   4  686.55   36.45   0
  -8   4   4  701.08   34.70   0
   7  -4  -4  718.53   35.71   0
   7  -4  -4  727.56   35.86   0
  -7   4   4  717.81   34.25   0
  -7   4   4  703.13   35.61   0
   6  -4  -4    3.03    4.12   0
   6  -4  -4    5.38    4.10   0
  -6   4   4   -3.08    3.38   0
  -6   4   4    1.15    2.93   0
   5  -4  -4  287.64   16.88   0
   5  -4  -4  323.80   16.68   0
  -5   4   4  293.18   15.53   0
  -5   4   4  307.71   16.60   0
   4  -4  -4  492.34   23.14   0
   4  -4  -4  463.67   23.63   0
  -4   4   4  478.73   23.10   0
  -4   4   4  455.46   22.36   0
   3  -4  -4 1240.07   54.86   0
   3  -4  -4 1198.66   53.74   0
   3  -4  -4 1200.07   53.55   0
  -3   4   4 1229.73   53.71   0
  -3   4   4 1154.32   53.28   0
   2  -4  -4 4176.01  180.98   0
   2  -4  -4 4029.67  180.64   0
   2  -4  -4 4248.65  182.13   0
  -2   4   4 4362.07  180.85   0
  -2   4   4 4156.81  180.75   0
   1  -4  -4  905.73   43.36   0
   1  -4  -4  985.17   43.75   0
   1  -4  -4  975.13   44.88   0
  -1   4   4  998.51   43.45   0
  -1   4   4 1011.14   43.37   0
   0  -4  -4   59.29    5.47   0
   0  -4  -4   73.12    6.85   0
   0   4   4   66.12    5.06   0
   0   4   4   64.65    6.39   0
   0   4   4   64.89    5.08   0
  -1  -4  -4  426.13   21.88   0
  -1  -4  -4  420.96   20.45   0
  -1  -4  -4  389.45   20.43   0
   1   4   4  407.98   19.57   0
   1   4   4  441.62   21.87   0
   1   4   4  398.15   19.60   0
  -2  -4  -4 1483.09   66.84   0
  -2  -4  -4 1495.35   68.92   0
  -2  -4  -4 1424.23   67.10   0
  -2  -4  -4 1504.10   67.88   0
   2   4   4 1532.31   65.97   0
   2   4   4 1552.93   68.32   0
   2   4   4 1473.95   66.01   0
  -3  -4  -4 1645.44   76.31   0
  -3  -4  -4 1748.32   76.15   0
  -3  -4  -4 1730.25   76.98   0
  -3  -4  -4 1687.09   78.78   0
   3   4   4 1725.12   77.34   0
   3   4   4 1718.78   74.94   0
   3   4   4 1619.25   74.90   0
  -4  -4  -4   19.00    5.84   0
  -4  -4  -4    6.05    4.74   0
  -4  -4  -4   14.85    7.73   0
  -4  -4  -4   18.52    6.32   0
   4   4   4   15.05    3.93   0
   4   4   4   12.07    4.05   0
   4   4   4   10.32    5.29   0
  -5  -4  -4   14.37    6.98   0
  -5  -4  -4    3.41    5.62   0
  -5  -4  -4    9.63    8.17   0
   5   4   4    8.71    4.53   0
   5   4   4    9.86    6.02   0
   5   4   4   13.90    4.70   0
  -6  -4  -4   -6.63   10.76   0
  -6  -4  -4    3.77    7.81   0
  -6  -4  -4    4.53    7.74   0
  -6  -4  -4    0.96    8.99   0
   6   4   4    9.76    5.55   0
   6   4   4    9.28    5.81   0
   6   4   4    5.29    7.41   0
   8  -5  -4  871.12   44.45   0
   8  -5  -4  936.45   45.02   0
  -8   5   4  861.93   44.47   0
  -8   5   4  888.98   42.65   0
   7  -5  -4 1233.39   58.25   0
   7  -5  -4 1230.81   57.99   0
  -7   5   4 1227.10   57.95   0
  -7   5   4 1243.24   56.46   0
   6  -5  -4  134.50   10.93   0
   6  -5  -4  130.64   11.11   0
   6  -5  -4  114.55   11.46   0
  -6   5   4  141.25   11.35   0
  -6   5   4  113.59    9.12   0
   5  -5  -4    3.90    3.47   0
   5  -5  -4    3.80    3.75   0
   5  -5  -4   -0.88    3.78   0
  -5   5   4   10.30    3.60   0
  -5   5   4    7.84    3.72   0
   4  -5  -4  172.70   11.13   0
   4  -5  -4  182.88   12.27   0
   4  -5  -4  182.82   12.26   0
   4  -5  -4  164.66   11.25   0
  -4   5   4  188.58   10.78   0
  -4   5   4  189.53   11.34   0
   3  -5  -4 1021.10   48.17   0
   3  -5  -4 1028.04   47.17   0
   3  -5  -4 1048.41   46.97   0
  -3   5   4 1012.98   46.81   0
  -3   5   4 1089.74   47.28   0
   2  -5  -4 1338.59   58.80   0
   2  -5  -4 1281.46   57.48   0
   2  -5  -4 1322.61   57.19   0
  -2   5   4 1267.06   57.27   0
  -2   5   4 1220.48   57.13   0
   1  -5  -4  316.72   17.13   0
   1  -5  -4  295.67   15.77   0
   1  -5  -4  313.11   15.54   0
  -1   5   4  287.65   15.34   0
   0  -5  -4  203.22   12.49   0
   0  -5  -4  226.68   13.75   0
   0  -5  -4  209.21   12.08   0
   0   5   4  207.20   11.62   0
   0   5   4  195.51   11.56   0
   0   5   4  225.70   13.69   0
  -1  -5  -4  399.99   21.58   0
  -1  -5  -4  418.85   21.13   0
  -1  -5  -4  426.04   23.07   0
   1   5   4  411.82   20.38   0
   1   5   4  407.35   20.49   0
   1   5   4  441.78   22.77   0
  -2  -5  -4 1445.84   64.48   0
  -2  -5  -4 1441.06   65.58   0
  -2  -5  -4 1446.67   66.84   0
  -2  -5  -4 1386.34   64.84   0
   2   5   4 1374.84   63.39   0
   2   5   4 1398.77   63.24   0
   2   5   4 1465.57   65.94   0
  -3  -5  -4 1185.70   56.87   0
  -3  -5  -4 1193.59   56.52   0
  -3  -5  -4 1252.16   59.77   0
  -3  -5  -4 1245.47   57.55   0
   3   5   4 1269.42   55.25   0
   3   5   4 1246.65   57.82   0
   3   5   4 1157.55   55.15   0
  -4  -5  -4  189.78   15.48   0
  -4  -5  -4  228.13   16.54   0
  -4  -5  -4  190.28   19.72   0
   4   5   4  210.04   15.94   0
   4   5   4  170.50   13.44   0
   4   5   4  182.68   12.78   0
  -5  -5  -4  158.55   20.53   0
  -5  -5  -4  149.29   16.03   0
  -5  -5  -4  120.50   15.86   0
  -5  -5  -4  147.36   14.98   0
   5   5   4  164.75   13.32   0
   5   5   4  146.84   15.91   0
   5   5   4  138.28   12.54   0
   8  -6  -4   39.49   12.14   0
   8  -6  -4   26.70    8.78   0
   8  -6  -4   40.30    8.89   0
  -8   6   4   38.60    9.37   0
  -8   6   4   31.00    6.65   0
   7  -6  -4  368.92   22.95   0
   7  -6  -4  392.85   23.05   0
   7  -6  -4  369.10   23.42   0
  -7   6   4  378.51   23.20   0
   6  -6  -4  140.63   13.38   0
   6  -6  -4  173.23   13.00   0
  -6   6   4  136.69   11.45   0
  -6   6   4  165.34   13.54   0
   5  -6  -4    6.17    4.26   0
   5  -6  -4    6.04    4.77   0
   5  -6  -4    5.10    4.12   0
   5  -6  -4    2.86    4.87   0
  -5   6   4    5.12    4.18   0
  -5   6   4    5.55    3.60   0
   4  -6  -4   65.20    8.07   0
   4  -6  -4   69.71    7.71   0
   4  -6  -4   71.93    8.87   0
   4  -6  -4   74.64    8.54   0
  -4   6   4   66.19    7.50   0
  -4   6   4   70.51    8.03   0
   3  -6  -4    3.54    3.58   0
   3  -6  -4   -1.91    3.53   0
   3  -6  -4   -0.27    3.15   0
  -3   6   4    2.78    3.28   0
  -3   6   4    2.14    3.48   0
   2  -6  -4   35.04    4.91   0
   2  -6  -4   23.83    4.71   0
   2  -6  -4   37.22    6.24   0
  -2   6   4   29.19    4.73   0
  -2   6   4   30.32    5.47   0
   1  -6  -4   27.64    5.72   0
   1  -6  -4   22.92    4.59   0
  -1   6   4   25.17    4.38   0
   0  -6  -4  223.52   14.01   0
   0  -6  -4  216.55   13.16   0
   0  -6  -4  220.14   15.13   0
   0   6   4  224.80   14.99   0
   0   6   4  212.55   12.82   0
   0   6   4  214.80   12.84   0
  -1  -6  -4  154.54   13.54   0
  -1  -6  -4  150.75   11.29   0
  -1  -6  -4  134.88   12.81   0
   1   6   4  170.07   12.63   0
   1   6   4  150.16   11.03   0
   1   6   4  153.78   10.59   0
  -2  -6  -4  100.35   13.44   0
  -2  -6  -4  126.78   11.33   0
  -2  -6  -4  161.79   14.79   0
   2   6   4  122.37   10.21   0
   2   6   4  127.16   10.41   0
   2   6   4  145.38   12.40   0
  -3  -6  -4    0.49    6.21   0
  -3  -6  -4    7.32    8.03   0
  -3  -6  -4   13.05    7.41   0
   3   6   4    5.69    4.98   0
   3   6   4    5.39    4.46   0
   3   6   4    3.84    5.67   0
  -4  -6  -4   49.64   12.70   0
  -4  -6  -4   30.09    8.16   0
  -4  -6  -4   44.48    9.33   0
  -4  -6  -4   45.77    9.41   0
   4   6   4   40.73    6.54   0
   4   6   4   33.34    6.70   0
   4   6   4   40.60    8.77   0
   7  -7  -4  385.29   24.37   0
   7  -7  -4  427.97   25.39   0
   7  -7  -4  392.22   24.83   0
   7  -7  -4  356.69   24.97   0
  -7   7   4  351.21   21.96   0
  -7   7   4  389.81   24.44   0
   6  -7  -4   72.42   11.95   0
   6  -7  -4   61.44   11.18   0
   6  -7  -4   97.40   12.45   0
  -6   7   4   78.06   10.05   0
  -6   7   4  102.79   12.40   0
   5  -7  -4  225.21   15.76   0
   5  -7  -4  199.52   15.92   0
   5  -7  -4  215.96   14.94   0
  -5   7   4  243.14   15.51   0
  -5   7   4  227.47   14.33   0
   4  -7  -4    1.41    5.09   0
   4  -7  -4    7.94    5.03   0
   4  -7  -4   -2.61    4.78   0
   4  -7  -4    3.38    4.89   0
  -4   7   4   -2.45    4.36   0
  -4   7   4    1.51    4.43   0
   3  -7  -4  370.33   20.29   0
   3  -7  -4  363.01   20.90   0
   3  -7  -4  343.77   19.41   0
  -3   7   4  361.11   19.61   0
  -3   7   4  357.89   19.66   0
   2  -7  -4 1062.62   48.51   0
   2  -7  -4 1028.09   47.31   0
   2  -7  -4 1005.19   46.37   0
  -2   7   4 1016.41   46.60   0
  -2   7   4  928.53   46.40   0
   1  -7  -4   17.42    4.60   0
   1  -7  -4   12.61    4.89   0
   1  -7  -4    9.91    5.61   0
  -1   7   4   14.37    4.66   0
   0  -7  -4   38.76    7.91   0
   0  -7  -4   50.74    6.61   0
   0  -7  -4   38.26    6.77   0
   0   7   4   28.50    5.40   0
   0   7   4   32.49    5.23   0
   0   7   4   28.84    6.02   0
  -1  -7  -4   65.09   10.08   0
  -1  -7  -4   74.55    9.52   0
   1   7   4   58.31   10.09   0
   1   7   4   75.07   10.16   0
   1   7   4   52.47    8.80   0
  -2  -7  -4  338.36   24.94   0
  -2  -7  -4  375.86   21.74   0
   2   7   4  379.03   22.93   0
   2   7   4  355.06   20.55   0
   2   7   4  364.49   20.11   0
  -3  -7  -4  453.78   31.74   0
  -3  -7  -4  476.49   27.93   0
  -3  -7  -4  473.23   28.46   0
  -3  -7  -4  453.91   27.13   0
   3   7   4  460.92   27.76   0
   3   7   4  473.03   25.61   0
   3   7   4  481.95   24.97   0
   6  -8  -4  165.80   16.02   0
   6  -8  -4  122.00   15.40   0
   6  -8  -4  119.11   15.54   0
   6  -8  -4  119.44   14.28   0
  -6   8   4  136.47   13.28   0
  -6   8   4  123.51   15.78   0
   5  -8  -4    3.82    7.15   0
   5  -8  -4   -9.58    6.13   0
   5  -8  -4    5.13    6.34   0
   5  -8  -4    3.69    6.32   0
  -5   8   4    9.75    6.37   0
  -5   8   4    5.12    6.33   0
   4  -8  -4   78.20   11.92   0
   4  -8  -4   76.25   11.50   0
   4  -8  -4  101.76   12.55   0
  -4   8   4   76.82   11.73   0
  -4   8   4   85.47   10.99   0
   3  -8  -4  557.49   28.02   0
   3  -8  -4  469.54   25.44   0
  -3   8   4  455.01   25.60   0
  -3   8   4  460.96   25.58   0
   2  -8  -4  165.76   12.42   0
  -2   8   4  159.29   12.72   0
  -2   8   4  145.69   12.59   0
   1  -8  -4  128.74   13.54   0
   0  -8  -4   34.62    6.33   0
   0  -8  -4   33.48    8.45   0
   0   8   4   30.84    5.97   0
   0   8   4   29.66    7.40   0
   0   8   4   37.25    6.79   0
  -1  -8  -4  239.98   21.28   0
  -1  -8  -4  241.95   20.91   0
  -1  -8  -4  260.39   17.77   0
   1   8   4  241.96   16.26   0
   1   8   4  237.26   18.03   0
   1   8   4  266.89   19.53   0
  -2  -8  -4  366.09   24.37   0
  -2  -8  -4  378.19   26.97   0
  -2  -8  -4  392.49   29.07   0
  -2  -8  -4  375.64   25.19   0
   2   8   4  388.49   22.85   0
   2   8   4  384.85   22.23   0
   2   8   4  379.42   24.70   0
   5  -9  -4  484.37   28.28   0
   5  -9  -4  495.20   29.72   0
   5  -9  -4  428.78   29.19   0
   5  -9  -4  484.03   29.09   0
  -5   9   4  480.00   28.02   0
  -5   9   4  505.79   28.66   0
   4  -9  -4  436.48   26.58   0
   4  -9  -4  430.13   25.52   0
   4  -9  -4  415.25   26.22   0
   4  -9  -4  431.24   26.53   0
  -4   9   4  428.51   25.76   0
   3  -9  -4   12.54    7.19   0
   3  -9  -4    2.93    7.48   0
   3  -9  -4    1.19    6.50   0
  -3   9   4   -2.32    6.70   0
  -3   9   4   -3.80    6.92   0
   2  -9  -4   14.89    6.38   0
   2  -9  -4    9.25    8.37   0
   2  -9  -4    8.69    6.87   0
  -2   9   4    4.77    6.59   0
  -2   9   4   -1.69    6.78   0
   1  -9  -4   72.28   12.47   0
   1  -9  -4  104.09   12.93   0
   1  -9  -4   77.47   15.78   0
  -1   9   4  117.50   13.86   0
   0  -9  -4  350.05   24.26   0
   0  -9  -4  278.44   24.01   0
   0  -9  -4  289.70   20.54   0
   0   9   4  313.90   20.24   0
  -1  -9  -4  200.87   24.29   0
  -1  -9  -4  232.01   19.35   0
  -1  -9  -4  236.17   24.41   0
   1   9   4  250.87   29.83   0
   1   9   4  274.88   21.44   0
   1   9   4  220.54   17.45   0
   1  11  -5  648.81   33.28   0
   1  11  -5  627.27   37.63   0
   1  11  -5  585.32   35.21   0
  -1 -11   5  627.08   32.84   0
  -1 -11   5  637.54   32.16   0
  -1 -11   5  636.56   37.99   0
   0  11  -5  567.62   29.70   0
   0  11  -5  490.42   31.62   0
   0  11  -5  592.02   34.37   0
   0 -11   5  619.35   34.34   0
   0 -11   5  557.68   29.81   0
   0 -11   5  532.38   29.64   0
   0 -11   5  599.69   32.33   0
  -1  11  -5  207.21   20.72   0
  -1  11  -5  164.75   18.58   0
   1 -11   5  226.50   17.15   0
   1 -11   5  219.96   19.40   0
   1 -11   5  234.33   16.57   0
   1 -11   5  213.88   16.35   0
  -2  11  -5   27.16    9.02   0
  -2  11  -5   28.07    9.02   0
   2 -11   5   37.66    7.19   0
   2 -11   5   34.47    8.54   0
   2 -11   5   24.01    8.29   0
   2 -11   5   44.82    8.49   0
  -3  11  -5   54.14   10.50   0
  -3  11  -5   44.91    9.41   0
   3 -11   5   69.99    9.96   0
   3 -11   5   66.06   10.78   0
   3 -11   5   53.57    9.45   0
   3 -11   5   61.43    9.25   0
  -4  11  -5  515.74   31.30   0
   4 -11   5  470.99   25.35   0
   4 -11   5  545.70   29.71   0
   4 -11   5  537.29   30.06   0
   4 -11   5  495.65   29.61   0
   3  10  -5  391.95   27.85   0
   3  10  -5  366.94   24.28   0
   3  10  -5  361.44   24.90   0
  -3 -10   5  371.33   23.31   0
  -3 -10   5  400.89   22.37   0
  -3 -10   5  442.38   27.30   0
   2  10  -5   17.70    7.70   0
   2  10  -5   10.23    6.61   0
   2  10  -5   11.08    7.06   0
  -2 -10   5   17.09    8.45   0
  -2 -10   5   20.14   10.25   0
  -2 -10   5   -1.78    5.91   0
   1  10  -5  139.24   16.69   0
   1  10  -5  123.35   13.05   0
   1  10  -5  130.14   12.48   0
  -1 -10   5  136.08   15.19   0
  -1 -10   5  128.15   12.05   0
  -1 -10   5  142.18   17.26   0
   0  10  -5   33.17    8.58   0
   0  10  -5   29.66    7.16   0
   0  10  -5   27.76    5.57   0
   0 -10   5   25.41    5.95   0
   0 -10   5   25.80    5.74   0
   0 -10   5   26.50    7.38   0
  -1  10  -5   21.19    6.77   0
  -1  10  -5   19.60    6.58   0
   1 -10   5   19.10    5.60   0
   1 -10   5   14.49    5.71   0
   1 -10   5   28.40    6.21   0
  -2  10  -5   18.95    6.87   0
  -2  10  -5   10.92    7.13   0
   2 -10   5   21.44    7.09   0
   2 -10   5   16.45    5.65   0
   2 -10   5   13.99    4.59   0
   2 -10   5   17.84    6.08   0
  -3  10  -5  165.00   16.32   0
  -3  10  -5  222.63   17.16   0
   3 -10   5  220.40   15.49   0
   3 -10   5  170.27   11.84   0
   3 -10   5  190.65   15.30   0
  -4  10  -5  255.51   18.52   0
   4 -10   5  255.42   17.50   0
   4 -10   5  210.21   12.83   0
   4 -10   5  203.57   16.80   0
   4 -10   5  218.25   16.86   0
  -5  10  -5  103.41   15.09   0
  -5  10  -5   84.82   11.15   0
   5 -10   5   82.22   14.63   0
   5 -10   5  105.32   13.78   0
   5 -10   5  106.14   13.88   0
   5 -10   5   93.13    7.73   0
   4   9  -5  285.70   22.25   0
   4   9  -5  257.31   20.26   0
   4   9  -5  273.23   20.08   0
  -4  -9   5  269.37   19.68   0
  -4  -9   5  290.39   17.11   0
  -4  -9   5  295.55   22.47   0
   3   9  -5   97.54   14.92   0
   3   9  -5  115.70   12.34   0
   3   9  -5   99.82   13.25   0
  -3  -9   5  124.38   12.00   0
  -3  -9   5  125.07   10.63   0
  -3  -9   5   98.26   14.84   0
   2   9  -5   12.33    6.19   0
   2   9  -5   28.89    7.10   0
  -2  -9   5   14.38    7.88   0
  -2  -9   5   14.90    5.37   0
   1   9  -5  618.60   30.24   0
   1   9  -5  628.26   32.07   0
   1   9  -5  593.16   30.88   0
  -1  -9   5  623.25   29.79   0
  -1  -9   5  580.80   31.96   0
  -1  -9   5  587.92   32.14   0
   0   9  -5  662.49   31.20   0
   0   9  -5  641.91   33.39   0
   0   9  -5  605.63   32.23   0
   0  -9   5  651.06   31.11   0
   0  -9   5  642.96   33.13   0
   0  -9   5  674.90   31.29   0
   0  -9   5  625.47   32.50   0
  -1   9  -5  457.55   26.02   0
  -1   9  -5  462.00   25.93   0
   1  -9   5  506.77   24.79   0
   1  -9   5  511.65   26.46   0
   1  -9   5  503.57   25.13   0
  -2   9  -5    3.00    4.84   0
  -3   9  -5   56.28    8.54   0
   3  -9   5   74.23    9.41   0
   3  -9   5   77.80    9.59   0
   3  -9   5   59.28    6.16   0
   4  -9   5  122.47    8.54   0
   4  -9   5  139.52   12.55   0
   4  -9   5  163.63   12.51   0
   4  -9   5  143.14   12.51   0
  -5   9  -5   91.58   12.78   0
  -5   9  -5   85.43   12.06   0
   5  -9   5  101.52   11.95   0
   5  -9   5   84.80    9.48   0
   5  -9   5   75.35    6.75   0
  -6   9  -5    8.97    8.21   0
  -6   9  -5   25.02    7.60   0
   6  -9   5    9.54    3.34   0
   6  -9   5   17.65    8.07   0
   6  -9   5    6.61    6.85   0
   6  -9   5    8.02    7.02   0
   5   8  -5  178.50   19.09   0
   5   8  -5  199.92   18.23   0
   5   8  -5  182.81   16.90   0
  -5  -8   5  162.15   18.20   0
  -5  -8   5  198.30   13.87   0
  -5  -8   5  188.57   16.72   0
   4   8  -5   -1.28    5.67   0
   4   8  -5    2.56    5.36   0
   4   8  -5    3.81    6.98   0
  -4  -8   5    5.41    4.94   0
  -4  -8   5    2.65    4.39   0
  -4  -8   5  -11.07    6.48   0
   3   8  -5   22.57    5.54   0
   3   8  -5   19.99    5.75   0
  -3  -8   5   11.97    6.22   0
  -3  -8   5   26.16    5.28   0
  -3  -8   5   35.74    6.34   0
   2   8  -5  349.64   20.50   0
   2   8  -5  336.71   20.93   0
   2   8  -5  369.40   20.07   0
  -2  -8   5  396.78   22.88   0
  -2  -8   5  361.99   21.55   0
  -2  -8   5  366.96   19.53   0
   1   8  -5  585.78   28.88   0
   1   8  -5  565.29   27.98   0
   1   8  -5  602.21   29.46   0
  -1  -8   5  610.00   27.90   0
  -1  -8   5  492.38   29.09   0
   0   8  -5 1511.73   67.95   0
   0   8  -5 1372.84   66.38   0
   0   8  -5 1469.90   67.60   0
   0  -8   5 1413.45   67.80   0
   0  -8   5 1448.40   66.52   0
   0  -8   5 1614.81   68.03   0
   0  -8   5 1623.66   66.80   0
  -1   8  -5  517.96   25.55   0
   1  -8   5  510.15   24.36   0
   1  -8   5  456.90   25.23   0
  -2   8  -5  392.82   20.42   0
   2  -8   5  389.61   18.57   0
   2  -8   5  344.63   19.22   0
  -3   8  -5  538.21   27.42   0
  -3   8  -5  515.81   26.58   0
   3  -8   5  559.05   26.59   0
   3  -8   5  526.59   24.53   0
   3  -8   5  545.78   26.86   0
   3  -8   5  505.02   26.82   0
  -4   8  -5  596.66   30.01   0
   4  -8   5  618.01   31.01   0
   4  -8   5  663.40   30.62   0
   4  -8   5  584.85   27.71   0
   4  -8   5  604.50   30.17   0
  -5   8  -5  615.99   33.33   0
  -5   8  -5  724.70   32.47   0
   5  -8   5  678.90   33.62   0
   5  -8   5  668.65   32.61   0
   5  -8   5  634.49   32.22   0
   5  -8   5  585.21   29.35   0
  -6   8  -5  369.43   20.87   0
  -6   8  -5  330.78   22.70   0
   6  -8   5  330.16   17.26   0
   6  -8   5  313.83   21.34   0
   6  -8   5  355.75   20.54   0
   6  -8   5  361.70   21.31   0
   6  -8   5  381.23   18.53   0
  -7   8  -5   99.02   14.34   0
   7  -8   5   84.76    8.23   0
   7  -8   5   82.88   13.90   0
   7  -8   5   63.56   11.23   0
   7  -8   5   73.62    9.06   0
   7  -8   5   82.26   13.49   0
   6   7  -5  744.45   41.37   0
   6   7  -5  814.58   42.29   0
   6   7  -5  819.61   42.12   0
  -6  -7   5  847.54   42.14   0
  -6  -7   5  788.51   38.33   0
  -6  -7   5  779.62   40.59   0
   5   7  -5  203.07   16.07   0
   5   7  -5  195.42   16.78   0
   5   7  -5  184.28   16.02   0
  -5  -7   5  195.52   16.57   0
  -5  -7   5  203.24   15.38   0
  -5  -7   5  214.30   13.15   0
   4   7  -5   15.98    5.42   0
   4   7  -5    9.98    4.57   0
   4   7  -5   13.71    5.62   0
  -4  -7   5   15.02    3.75   0
  -4  -7   5   22.51    6.21   0
  -4  -7   5   27.35    5.78   0
   3   7  -5    7.06    3.57   0
   3   7  -5   10.29    4.73   0
  -3  -7   5   11.80    5.14   0
  -3  -7   5    8.89    3.28   0
   1   7  -5  447.79   22.57   0
   1   7  -5  468.15   23.17   0
   1   7  -5  435.63   21.87   0
  -1  -7   5  426.07   23.13   0
  -1  -7   5  434.45   21.54   0
  -1  -7   5  432.29   23.05   0
   0   7  -5  737.56   33.80   0
   0   7  -5  744.86   32.77   0
   0   7  -5  699.96   33.78   0
   0  -7   5  683.08   33.53   0
   0  -7   5  712.04   32.79   0
   0  -7   5  700.31   33.94   0
   0  -7   5  695.29   32.71   0
  -1   7  -5  352.83   17.97   0
  -1   7  -5  344.96   18.03   0
  -1   7  -5  341.93   16.42   0
   1  -7   5  352.63   17.29   0
   1  -7   5  332.01   17.99   0
   1  -7   5  337.64   17.10   0
   1  -7   5  330.96   17.39   0
  -2   7  -5   45.18    6.84   0
  -2   7  -5   50.76    6.33   0
   2  -7   5   61.08    6.47   0
   2  -7   5   57.24    4.49   0
   2  -7   5   44.88    5.75   0
   2  -7   5   46.99    6.32   0
  -3   7  -5  495.85   24.45   0
  -3   7  -5  503.16   25.35   0
   3  -7   5  494.09   24.72   0
   3  -7   5  518.35   24.69   0
   3  -7   5  504.85   22.74   0
   3  -7   5  503.81   25.31   0
  -4   7  -5  787.73   38.33   0
  -4   7  -5  793.16   37.31   0
   4  -7   5  784.02   37.55   0
   4  -7   5  852.04   37.95   0
   4  -7   5  787.98   35.40   0
   4  -7   5  804.39   38.63   0
  -5   7  -5 2196.99   99.90   0
  -5   7  -5 2339.33   98.84   0
   5  -7   5 2044.80   97.31   0
   5  -7   5 2322.60  100.44   0
   5  -7   5 2290.81   96.88   0
   5  -7   5 2149.48   98.69   0
   5  -7   5 2292.62   99.22   0
  -6   7  -5  224.97   14.54   0
  -6   7  -5  179.84   15.32   0
  -6   7  -5  173.79   15.92   0
   6  -7   5  212.76   14.41   0
   6  -7   5  183.69   14.68   0
   6  -7   5  182.27   11.65   0
   6  -7   5  179.65   13.17   0
  -7   7  -5   11.80    7.28   0
  -7   7  -5   29.74    7.85   0
  -7   7  -5    9.59    7.85   0
   7  -7   5   18.83    6.93   0
   7  -7   5   12.15    6.73   0
   7  -7   5   10.61    4.84   0
  -7  -6   5  290.87   21.94   0
  -7  -6   5  297.75   22.08   0
   6   6  -5  198.74   17.41   0
   6   6  -5  220.05   17.16   0
   6   6  -5  190.30   17.01   0
  -6  -6   5  194.35   16.50   0
  -6  -6   5  202.11   13.24   0
  -6  -6   5  200.98   16.06   0
   5   6  -5  182.49   14.64   0
   5   6  -5  192.55   14.46   0
  -5  -6   5  155.81   10.70   0
  -5  -6   5  165.34   13.93   0
  -5  -6   5  174.40   13.38   0
  -4  -6   5   72.64    8.03   0
  -4  -6   5   62.58    8.95   0
  -4  -6   5   61.31    5.97   0
   3   6  -5  710.30   32.11   0
   3   6  -5  661.45   32.40   0
  -3  -6   5  617.24   29.98   0
  -3  -6   5  686.68   31.40   0
  -3  -6   5  618.80   31.85   0
   2   6  -5  134.91    9.61   0
   2   6  -5  151.71   10.40   0
  -2  -6   5  143.34   10.07   0
   1   6  -5   50.24    5.32   0
  -1  -6   5   68.78    5.49   0
  -1  -6   5   62.91    6.74   0
   0   6  -5  154.83    8.75   0
   0   6  -5  164.57    9.88   0
  -1   6  -5   87.42    7.01   0
   1  -6   5  103.46    7.49   0
  -2   6  -5  423.97   20.26   0
  -2   6  -5  431.30   20.91   0
   2  -6   5  411.14   20.51   0
   2  -6   5  407.02   20.69   0
   2  -6   5  439.40   20.34   0
   2  -6   5  406.14   18.87   0
  -3   6  -5  199.62   11.11   0
   3  -6   5  196.00   11.14   0
   3  -6   5  198.04   11.34   0
   3  -6   5  188.25   11.84   0
  -4   6  -5  161.71   11.62   0
  -4   6  -5  156.31   11.02   0
  -4   6  -5  158.02   10.25   0
   4  -6   5  170.08    8.29   0
   4  -6   5  171.39   10.64   0
   4  -6   5  151.64    8.67   0
   4  -6   5  165.28   11.23   0
   4  -6   5  168.05   10.36   0
  -5   6  -5  300.72   17.73   0
  -5   6  -5  293.24   16.05   0
  -5   6  -5  293.53   17.42   0
   5  -6   5  315.71   16.55   0
   5  -6   5  287.84   15.91   0
   5  -6   5  275.46   17.14   0
   5  -6   5  274.74   14.91   0
  -6   6  -5  293.07   18.73   0
  -6   6  -5  308.94   17.05   0
   6  -6   5  280.59   16.69   0
   6  -6   5  269.28   15.75   0
   6  -6   5  287.85   18.34   0
   6  -6   5  316.72   17.56   0
  -7   6  -5  606.98   34.24   0
  -7   6  -5  688.66   32.88   0
  -7   6  -5  649.89   34.32   0
   7  -6   5  606.12   31.50   0
   7  -6   5  643.97   32.63   0
   7  -6   5  664.78   34.16   0
   7  -6   5  663.17   32.03   0
   7   5  -5  123.43   15.66   0
   7   5  -5  147.61   17.31   0
   7   5  -5  132.53   15.35   0
  -7  -5   5  134.61   12.15   0
  -7  -5   5  155.39   14.87   0
  -7  -5   5  101.82   14.24   0
   6   5  -5  328.96   19.60   0
   6   5  -5  276.96   19.71   0
  -6  -5   5  320.95   19.48   0
  -6  -5   5  324.21   16.95   0
  -6  -5   5  299.90   18.92   0
   5   5  -5  246.57   17.02   0
  -5  -5   5  247.52   16.45   0
  -5  -5   5  329.33   17.01   0
  -5  -5   5  277.01   14.45   0
   4   5  -5  452.07   22.82   0
   4   5  -5  467.90   23.27   0
   4   5  -5  482.57   24.25   0
  -4  -5   5  391.97   20.54   0
  -4  -5   5  406.95   22.45   0
  -4  -5   5  446.54   22.43   0
   3   5  -5  632.59   28.55   0
   3   5  -5  600.20   29.14   0
   3   5  -5  588.05   28.56   0
  -3  -5   5  592.30   27.85   0
  -3  -5   5  539.79   28.08   0
  -3  -5   5  570.00   26.41   0
   2   5  -5   29.06    4.76   0
  -2  -5   5   35.94    4.32   0
   1   5  -5  143.83    8.55   0
   1   5  -5  137.18    8.88   0
   1   5  -5  160.33    9.07   0
  -1  -5   5  142.96    7.53   0
  -1  -5   5  132.83    8.85   0
  -1  -5   5  156.83    8.22   0
   0   5  -5  389.74   17.04   0
   0   5  -5  363.48   17.10   0
   0   5  -5  340.14   16.12   0
   0  -5   5  333.38   16.28   0
   0  -5   5  326.46   17.00   0
   0  -5   5  321.19   16.20   0
  -1   5  -5  229.91   11.96   0
  -1   5  -5  238.72   11.56   0
   1  -5   5  217.28   11.79   0
   1  -5   5  219.16   11.23   0
   1  -5   5  219.17   11.60   0
  -2   5  -5  273.52   13.99   0
  -2   5  -5  275.28   13.54   0
  -2   5  -5  271.23   14.08   0
   2  -5   5  272.12   13.74   0
   2  -5   5  264.41   14.05   0
   2  -5   5  269.16   13.54   0
  -3   5  -5  162.45    9.44   0
  -3   5  -5  169.24   10.35   0
   3  -5   5  169.02    9.59   0
   3  -5   5  164.01   10.29   0
   3  -5   5  171.41    9.51   0
  -4   5  -5  537.83   25.31   0
  -4   5  -5  553.07   26.20   0
  -4   5  -5  532.20   26.36   0
   4  -5   5  526.54   25.11   0
   4  -5   5  494.93   24.25   0
   4  -5   5  529.50   26.45   0
   4  -5   5  554.43   25.52   0
  -5   5  -5  112.74    9.89   0
  -5   5  -5  105.81    8.42   0
  -5   5  -5  105.71   10.20   0
   5  -5   5  104.66    9.31   0
   5  -5   5  118.66    8.39   0
   5  -5   5   93.38    7.39   0
   5  -5   5  131.91    8.94   0
  -6   5  -5  214.29   14.95   0
  -6   5  -5  214.16   13.60   0
  -6   5  -5  212.22   15.42   0
   6  -5   5  215.52   13.43   0
   6  -5   5  213.92   14.57   0
   6  -5   5  227.36   12.94   0
   6  -5   5  187.69   12.69   0
  -7   5  -5  557.17   31.79   0
  -7   5  -5  600.35   31.83   0
  -7   5  -5  582.77   29.97   0
   7  -5   5  614.13   29.96   0
   7  -5   5  603.34   31.49   0
   7  -5   5  587.31   29.05   0
   7  -5   5  573.57   29.37   0
  -8   5  -5  213.89   19.56   0
  -8   5  -5  207.27   17.34   0
  -8   5  -5  214.80   20.28   0
   8  -5   5  248.03   17.08   0
   8  -5   5  237.11   16.00   0
  -8  -4   5   58.28   10.11   0
   7   4  -5  994.75   51.69   0
   7   4  -5  998.66   48.91   0
   7   4  -5 1005.29   49.27   0
  -7  -4   5  998.97   48.83   0
  -7  -4   5 1037.29   48.94   0
  -7  -4   5 1025.10   47.02   0
   6   4  -5 1982.26   89.57   0
   6   4  -5 1969.58   89.30   0
   6   4  -5 2086.64   91.88   0
  -6  -4   5 1963.06   87.37   0
  -6  -4   5 1954.10   89.07   0
  -6  -4   5 1941.65   88.99   0
   5   4  -5 1128.38   48.93   0
   5   4  -5 1077.80   49.12   0
  -5  -4   5 1001.84   46.69   0
  -5  -4   5  996.64   48.35   0
  -5  -4   5 1030.63   48.35   0
   4   4  -5    6.56    3.83   0
  -4  -4   5    3.49    2.64   0
  -4  -4   5    5.30    1.97   0
  -4  -4   5    6.18    2.90   0
   3   4  -5   12.24    3.63   0
   3   4  -5   17.50    3.92   0
  -3  -4   5   14.98    3.11   0
  -3  -4   5   13.48    2.69   0
  -3  -4   5   16.18    2.17   0
   2   4  -5 1268.73   55.78   0
   2   4  -5 1247.80   56.26   0
   2   4  -5 1238.73   55.63   0
  -2  -4   5 1285.75   55.22   0
  -2  -4   5 1219.96   55.42   0
   1   4  -5 1905.06   81.78   0
   1   4  -5 1852.88   81.84   0
  -1  -4   5 1879.11   81.18   0
  -1  -4   5 1856.77   81.55   0
  -1  -4   5 1872.11   80.57   0
   0   4  -5  165.13    7.94   0
   0   4  -5  164.38    8.64   0
   0   4  -5  155.21    8.36   0
   0  -4   5  154.17    7.94   0
   0  -4   5  156.79    7.99   0
   0  -4   5  160.30    8.50   0
  -1   4  -5   10.13    2.04   0
  -1   4  -5   12.19    1.89   0
  -1   4  -5    9.18    2.08   0
   1  -4   5   11.96    2.06   0
   1  -4   5    7.10    1.88   0
  -2   4  -5   -0.36    1.73   0
  -2   4  -5    1.10    1.46   0
  -2   4  -5    2.26    1.95   0
   2  -4   5    2.61    1.62   0
   2  -4   5   -0.23    1.55   0
   2  -4   5    3.81    1.56   0
  -3   4  -5  895.45   40.77   0
  -3   4  -5  893.91   39.95   0
  -3   4  -5  843.61   40.28   0
   3  -4   5  934.52   39.87   0
   3  -4   5  928.82   39.94   0
   3  -4   5  887.23   40.87   0
   3  -4   5  860.25   38.81   0
  -4   4  -5 2487.48  106.99   0
  -4   4  -5 2422.18  107.84   0
  -4   4  -5 2498.91  107.63   0
   4  -4   5 2516.15  106.92   0
   4  -4   5 2499.25  108.14   0
   4  -4   5 2362.52  106.33   0
   4  -4   5 2380.14  106.54   0
  -5   4  -5  231.14   14.45   0
  -5   4  -5  246.77   13.70   0
  -5   4  -5  239.17   14.70   0
   5  -4   5  239.50   14.48   0
   5  -4   5  242.23   13.06   0
   5  -4   5  248.12   13.46   0
   5  -4   5  238.84   13.15   0
  -6   4  -5  267.38   16.19   0
  -6   4  -5  305.89   17.98   0
  -6   4  -5  306.59   17.79   0
   6  -4   5  268.94   15.85   0
   6  -4   5  281.94   16.00   0
   6  -4   5  283.50   15.68   0
   6  -4   5  277.42   17.21   0
  -7   4  -5  106.17   10.59   0
   7  -4   5   87.68    9.23   0
   7  -4   5   94.76   10.59   0
   7  -4   5   80.54    9.37   0
  -8   4  -5   17.68    8.07   0
  -8   4  -5   -5.47    7.20   0
  -8   4  -5   11.99    8.66   0
   8  -4   5    2.06    5.10   0
   8  -4   5    2.23    6.39   0
   8   3  -5   80.14   13.32   0
   8   3  -5   76.82   12.73   0
   8   3  -5   93.49   16.15   0
  -8  -3   5   74.77   13.36   0
  -8  -3   5   81.38   11.45   0
  -8  -3   5   73.25   11.87   0
   7   3  -5  643.91   36.42   0
   7   3  -5  666.85   34.30   0
   7   3  -5  627.67   33.47   0
  -7  -3   5  647.96   31.94   0
  -7  -3   5  663.57   33.79   0
  -7  -3   5  717.96   33.80   0
   6   3  -5 1299.80   62.51   0
   6   3  -5 1395.53   60.67   0
   6   3  -5 1314.43   60.10   0
  -6  -3   5 1281.27   59.80   0
  -6  -3   5 1322.95   59.84   0
  -6  -3   5 1224.44   58.30   0
   5   3  -5  525.01   26.22   0
   5   3  -5  509.56   27.70   0
   5   3  -5  523.60   25.79   0
  -5  -3   5  507.15   24.22   0
  -5  -3   5  524.00   25.53   0
  -5  -3   5  518.07   25.50   0
   4   3  -5 1052.85   50.67   0
   4   3  -5 1089.25   49.26   0
   4   3  -5 1100.25   49.50   0
  -4  -3   5 1094.66   47.72   0
  -4  -3   5 1099.81   49.03   0
  -4  -3   5 1080.15   48.97   0
   3   3  -5 1703.27   77.28   0
   3   3  -5 1522.53   78.11   0
   3   3  -5 1835.19   77.55   0
  -3  -3   5 1815.27   75.78   0
  -3  -3   5 1798.21   77.13   0
  -3  -3   5 1883.55   77.22   0
   2   3  -5 4433.96  191.49   0
   2   3  -5 4412.95  190.67   0
   2   3  -5 4408.59  190.74   0
  -2  -3   5 4459.38  190.38   0
  -2  -3   5 4432.15  190.28   0
   1   3  -5  667.21   29.96   0
   1   3  -5  699.88   30.00   0
   1   3  -5  647.51   30.24   0
  -1  -3   5  662.87   29.53   0
  -1  -3   5  669.02   29.36   0
   0   3  -5  501.88   23.48   0
   0   3  -5  542.22   23.79   0
   0   3  -5  516.92   23.50   0
   0   3  -5  558.39   23.56   0
   0  -3   5  531.13   23.50   0
  -1   3  -5  598.87   26.69   0
  -1   3  -5  610.82   27.25   0
  -1   3  -5  608.87   26.92   0
   1  -3   5  597.29   27.23   0
  -2   3  -5  707.98   32.47   0
  -2   3  -5  710.07   31.79   0
   2  -3   5  731.22   31.51   0
   2  -3   5  701.96   32.53   0
   2  -3   5  721.84   31.53   0
  -3   3  -5 2027.95   87.00   0
  -3   3  -5 1991.93   87.28   0
  -3   3  -5 2010.53   87.79   0
   3  -3   5 1997.25   86.45   0
   3  -3   5 1973.74   87.88   0
   3  -3   5 1981.77   86.52   0
   3  -3   5 2001.43   86.67   0
  -4   3  -5  154.73    9.51   0
  -4   3  -5  162.39   10.23   0
  -4   3  -5  159.65   10.37   0
   4  -3   5  165.42    9.32   0
   4  -3   5  168.33   10.36   0
   4  -3   5  170.29    9.22   0
   4  -3   5  163.45    9.07   0
  -5   3  -5  199.88   12.36   0
  -5   3  -5  181.97   11.36   0
  -5   3  -5  164.68   11.96   0
   5  -3   5  192.09   11.16   0
   5  -3   5  192.73   10.85   0
   5  -3   5  186.98   11.09   0
   5  -3   5  196.10   12.21   0
  -6   3  -5 1331.15   58.47   0
  -6   3  -5 1278.71   58.38   0
  -6   3  -5 1242.68   57.19   0
   6  -3   5 1200.53   56.68   0
   6  -3   5 1257.24   58.36   0
   6  -3   5 1214.19   57.31   0
   6  -3   5 1249.40   56.28   0
  -7   3  -5 1970.74   89.38   0
  -7   3  -5 1986.07   88.30   0
  -7   3  -5 1993.14   89.62   0
   7  -3   5 1974.78   86.99   0
   7  -3   5 1937.52   89.52   0
   7  -3   5 1971.25   87.74   0
   7  -3   5 1901.41   88.45   0
  -8   3  -5  471.46   26.48   0
  -8   3  -5  451.05   28.13   0
  -8   3  -5  432.88   28.04   0
   8  -3   5  409.06   27.67   0
   8  -3   5  496.79   25.00   0
   8  -3   5  516.54   26.36   0
   8  -3   5  485.62   26.62   0
   8   2  -5   37.75    7.31   0
   8   2  -5   41.76   11.69   0
   8   2  -5   25.63    6.59   0
   8   2  -5   42.87    6.05   0
  -8  -2   5   33.74    8.49   0
  -8  -2   5   45.88    7.15   0
  -8  -2   5   36.83    6.66   0
   7   2  -5   59.34   11.51   0
   7   2  -5   55.22    6.36   0
   7   2  -5   52.09    9.11   0
  -7  -2   5   53.68    9.20   0
  -7  -2   5   63.61    8.35   0
  -7  -2   5   59.19    6.83   0
   6   2  -5  257.64   15.36   0
   6   2  -5  253.60   17.36   0
   6   2  -5  238.42   14.73   0
   6   2  -5  247.56   12.98   0
  -6  -2   5  237.46   13.51   0
  -6  -2   5  258.56   14.49   0
  -6  -2   5  217.39   14.45   0
   5   2  -5 1141.04   51.51   0
   5   2  -5 1120.41   51.80   0
   5   2  -5 1124.16   53.56   0
   5   2  -5 1158.03   50.06   0
  -5  -2   5 1151.71   51.25   0
  -5  -2   5 1113.61   51.30   0
  -5  -2   5 1112.04   50.30   0
   4   2  -5 1059.74   46.41   0
   4   2  -5 1075.37   45.01   0
   4   2  -5 1065.44   46.71   0
  -4  -2   5 1052.74   45.19   0
  -4  -2   5  881.75   45.83   0
  -4  -2   5 1023.37   46.06   0
   3   2  -5 1552.08   69.63   0
   3   2  -5 1497.76   69.43   0
   3   2  -5 1586.17   68.25   0
  -3  -2   5 1584.93   69.28   0
  -3  -2   5 1707.83   69.45   0
   2   2  -5 1075.30   47.71   0
   2   2  -5 1067.88   47.81   0
  -2  -2   5 1117.83   47.44   0
  -2  -2   5 1088.64   47.41   0
   1   2  -5  142.50    7.20   0
   1   2  -5  154.42    7.33   0
   0   2  -5 1793.33   77.03   0
   0  -2   5 1779.37   77.14   0
  -1   2  -5 2200.49   94.42   0
  -1   2  -5 2249.49   93.79   0
  -1   2  -5 2178.39   93.69   0
   1  -2   5 2096.07   94.44   0
  -2   2  -5  971.91   44.62   0
  -2   2  -5 1022.53   44.64   0
  -2   2  -5 1034.64   44.53   0
  -2   2  -5 1000.33   45.28   0
   2  -2   5 1052.28   45.44   0
   2  -2   5 1015.42   44.41   0
  -3   2  -5  303.04   15.38   0
  -3   2  -5  301.67   15.09   0
  -3   2  -5  317.57   16.03   0
   3  -2   5  323.64   14.55   0
   3  -2   5  312.75   15.93   0
   3  -2   5  317.86   15.10   0
   3  -2   5  306.96   14.65   0
  -4   2  -5  180.16   11.19   0
  -4   2  -5  179.41   10.27   0
  -4   2  -5  181.14   10.82   0
   4  -2   5  180.18    9.87   0
   4  -2   5  179.13   10.97   0
   4  -2   5  183.70   10.32   0
   4  -2   5  183.69    9.74   0
  -5   2  -5   40.18    6.65   0
  -5   2  -5   42.41    6.81   0
  -5   2  -5   31.99    5.27   0
   5  -2   5   41.37    5.72   0
   5  -2   5   39.36    5.81   0
   5  -2   5   45.51    5.23   0
  -6   2  -5 1638.44   75.72   0
  -6   2  -5 1642.72   76.45   0
  -6   2  -5 1721.51   76.84   0
   6  -2   5 1743.88   77.12   0
   6  -2   5 1670.63   75.23   0
   6  -2   5 1702.72   76.34   0
  -7   2  -5  770.07   40.51   0
  -7   2  -5  829.16   40.90   0
  -7   2  -5  807.51   39.73   0
   7  -2   5  825.19   38.89   0
   7  -2   5  829.54   40.19   0
   7  -2   5  807.03   40.78   0
  -8   2  -5  481.65   28.30   0
  -8   2  -5  481.79   29.27   0
  -8   2  -5  506.33   29.69   0
   8  -2   5  494.12   26.76   0
   8  -2   5  520.10   26.00   0
   8  -2   5  502.49   28.50   0
   8   1  -5   47.44    7.97   0
   8   1  -5   22.19    7.58   0
   8   1  -5   32.71    7.31   0
   8   1  -5   40.46    6.20   0
  -8  -1   5   39.30    7.33   0
  -8  -1   5   33.64    7.30   0
  -8  -1   5   45.16    6.99   0
   7   1  -5  842.00   40.78   0
   7   1  -5  837.59   38.78   0
   7   1  -5  825.46   43.25   0
   7   1  -5  844.73   40.54   0
  -7  -1   5  855.39   39.87   0
  -7  -1   5  840.84   40.45   0
  -7  -1   5  813.94   39.37   0
   6   1  -5   49.90    6.65   0
   6   1  -5   55.77    7.23   0
   6   1  -5   36.70    4.64   0
   6   1  -5   34.81    7.37   0
  -6  -1   5   39.60    6.31   0
  -6  -1   5   34.79    5.67   0
  -6  -1   5   42.01    5.93   0
   5   1  -5   17.80    3.90   0
   5   1  -5   13.45    2.82   0
   5   1  -5   14.95    3.22   0
  -5  -1   5   13.36    3.40   0
  -5  -1   5   13.05    2.99   0
  -5  -1   5   17.64    3.28   0
   4   1  -5   -1.44    1.39   0
   4   1  -5   -0.89    2.18   0
   4   1  -5    3.07    2.22   0
  -4  -1   5    1.38    1.86   0
  -4  -1   5    2.10    1.89   0
   3   1  -5    4.58    2.07   0
   3   1  -5    2.45    1.52   0
   3   1  -5    3.75    1.21   0
  -3  -1   5    1.74    1.36   0
  -3  -1   5    0.35    1.41   0
   2   1  -5   60.17    3.36   0
   2   1  -5   58.85    3.97   0
   2   1  -5   59.93    3.79   0
   1   1  -5   77.94   10.11   0
   0   1  -5 1503.68   64.67   0
   0   1  -5 1472.85   64.56   0
  -1   1  -5  440.73   20.18   0
  -1   1  -5  446.32   20.44   0
   1  -1   5  459.90   20.16   0
   1  -1   5  419.24   20.48   0
  -2   1  -5 1220.10   53.88   0
  -2   1  -5 1200.76   53.11   0
  -2   1  -5 1201.38   53.00   0
  -2   1  -5 1229.77   53.99   0
   2  -1   5 1237.27   53.53   0
   2  -1   5 1206.70   54.08   0
  -3   1  -5  171.79   10.56   0
  -3   1  -5  176.27    9.53   0
  -3   1  -5  178.49    9.81   0
  -3   1  -5  167.59   10.25   0
   3  -1   5  181.69    9.87   0
   3  -1   5  181.75   10.42   0
  -4   1  -5  256.97   13.94   0
  -4   1  -5  252.59   15.35   0
  -4   1  -5  283.32   14.60   0
  -4   1  -5  262.76   14.86   0
   4  -1   5  273.23   14.52   0
   4  -1   5  280.01   15.04   0
   4  -1   5  259.58   13.39   0
  -5   1  -5    4.13    3.55   0
  -5   1  -5    2.88    3.03   0
  -5   1  -5    6.25    3.78   0
   5  -1   5    2.84    3.06   0
   5  -1   5    2.83    3.07   0
  -6   1  -5   27.59    6.16   0
  -6   1  -5   27.94    5.46   0
  -6   1  -5   35.11    6.63   0
   6  -1   5   35.48    5.26   0
   6  -1   5   44.10    6.64   0
   6  -1   5   36.94    6.32   0
  -7   1  -5  141.83   12.58   0
  -7   1  -5  133.86   13.94   0
  -7   1  -5  142.84   13.80   0
   7  -1   5  161.60   13.33   0
   7  -1   5  131.66   11.68   0
   8   0  -5   -8.38    7.46   0
   8   0  -5   -2.02    5.08   0
   8   0  -5   -3.66    6.07   0
   8   0  -5    2.56    4.06   0
  -8   0   5   -8.38    4.64   0
  -8   0   5    1.13    4.60   0
  -8   0   5   -0.75    5.38   0
   7   0  -5  333.24   18.80   0
   7   0  -5  313.12   17.22   0
   7   0  -5  339.50   19.01   0
  -7   0   5  322.19   18.01   0
  -7   0   5  319.93   17.86   0
  -7   0   5  309.11   18.46   0
   6   0  -5  102.80    8.34   0
   6   0  -5   84.67    8.49   0
   6   0  -5   95.08    7.34   0
  -6   0   5   95.80    7.67   0
  -6   0   5  104.20    8.24   0
   5   0  -5  165.55   10.25   0
   5   0  -5  143.51    8.98   0
   5   0  -5  157.60    9.81   0
  -5   0   5  139.41    9.14   0
  -5   0   5  167.33    9.78   0
   4   0  -5 1002.68   46.39   0
   4   0  -5 1089.05   47.34   0
   4   0  -5 1026.43   46.93   0
  -4   0   5  986.53   46.44   0
  -4   0   5 1139.85   46.88   0
   3   0  -5  115.67    6.48   0
   3   0  -5  116.77    6.99   0
   3   0  -5  110.73    6.64   0
  -3   0   5  120.23    6.21   0
  -3   0   5  116.61    6.41   0
   2   0  -5 1823.54   77.10   0
   2   0  -5 1738.85   76.87   0
   0   0  -5  167.02    8.80   0
  -1   0  -5   46.42    3.93   0
  -1   0  -5   44.29    4.06   0
   1   0   5   50.01    3.92   0
  -2   0  -5    6.50    1.94   0
  -2   0  -5    7.59    1.81   0
  -2   0  -5    7.79    2.34   0
   2   0   5    5.86    2.19   0
  -3   0  -5  148.29    8.59   0
  -3   0  -5  132.66    9.93   0
  -3   0  -5  150.20    8.71   0
  -3   0  -5  149.38    9.46   0
   3   0   5  145.78    9.16   0
   3   0   5  154.63    9.40   0
  -4   0  -5  137.56    9.24   0
  -4   0  -5  132.74    9.10   0
  -4   0  -5  134.50    9.76   0
  -4   0  -5  136.09   11.08   0
   4   0   5  138.05    7.83   0
   4   0   5  146.72    8.49   0
   4   0   5  141.39    9.64   0
   4   0   5  142.17    9.64   0
  -5   0  -5   18.95    4.44   0
  -5   0  -5   13.23    4.04   0
  -5   0  -5   20.19    5.00   0
   5   0   5   27.36    5.29   0
   5   0   5   12.17    3.70   0
   5   0   5   24.34    4.27   0
  -6   0  -5  103.54   10.64   0
  -6   0  -5   99.69   10.34   0
   6   0   5  121.74   11.28   0
   6   0   5  109.80    9.54   0
   6   0   5  126.76    8.77   0
   6   0   5  119.19   10.69   0
  -7   0  -5  340.56   22.25   0
  -7   0  -5  355.56   22.92   0
  -7   0  -5  328.69   21.43   0
   7   0   5  362.26   19.28   0
   7   0   5  396.97   23.09   0
   7   0   5  352.17   20.19   0
   9  -1  -5  132.50   14.57   0
   9  -1  -5  124.03   11.89   0
   9  -1  -5  100.10   19.03   0
  -9   1   5  105.82   15.86   0
  -9   1   5  109.62   12.80   0
   8  -1  -5  298.43   19.47   0
   8  -1  -5  293.22   17.64   0
   8  -1  -5  306.97   19.21   0
  -8   1   5  294.45   19.15   0
   7  -1  -5   39.60    6.97   0
   7  -1  -5   41.78    5.77   0
   7  -1  -5   37.21    6.27   0
  -7   1   5   39.78    6.15   0
  -7   1   5   41.34    6.29   0
   6  -1  -5    8.14    3.23   0
   6  -1  -5    9.61    3.50   0
   6  -1  -5    6.69    3.49   0
  -6   1   5    8.69    3.15   0
  -6   1   5    7.65    3.06   0
   5  -1  -5  712.62   31.81   0
   5  -1  -5  637.12   31.29   0
   5  -1  -5  631.37   30.92   0
  -5   1   5  733.37   31.37   0
  -5   1   5  621.02   30.56   0
   4  -1  -5 1691.34   74.43   0
   4  -1  -5 1642.90   74.71   0
   4  -1  -5 1675.38   74.53   0
  -4   1   5 1635.63   73.89   0
  -4   1   5 1832.48   74.44   0
   3  -1  -5 2488.63  107.04   0
   3  -1  -5 2450.64  106.80   0
   3  -1  -5 2566.91  107.10   0
  -3   1   5 2392.58  106.42   0
  -3   1   5 2436.49  106.24   0
   2  -1  -5  777.33   33.27   0
   2  -1  -5  722.34   32.94   0
   1  -1  -5  267.20   12.00   0
   1  -1  -5  256.91   13.30   0
   0  -1  -5 1800.92   78.93   0
  -1  -1  -5 3777.44  163.26   0
  -1  -1  -5 3818.82  164.51   0
  -1  -1  -5 3902.20  164.62   0
  -1  -1  -5 3725.87  163.22   0
   1   1   5 3785.69  164.56   0
  -2  -1  -5 1484.86   67.56   0
  -2  -1  -5 1449.90   66.02   0
  -2  -1  -5 1547.43   67.24   0
  -2  -1  -5 1524.83   66.22   0
   2   1   5 1539.74   67.27   0
  -3  -1  -5   51.57    5.78   0
  -3  -1  -5   51.19    7.25   0
  -3  -1  -5   57.31    5.67   0
   3   1   5   53.56    4.43   0
   3   1   5   44.63    5.88   0
   3   1   5   50.56    3.91   0
  -4  -1  -5  305.06   19.12   0
  -4  -1  -5  321.30   16.99   0
  -4  -1  -5  317.66   17.01   0
  -4  -1  -5  328.23   17.79   0
   4   1   5  333.80   15.97   0
   4   1   5  326.96   17.75   0
   4   1   5  294.83   15.41   0
  -5  -1  -5   15.15    6.61   0
  -5  -1  -5    7.82    4.48   0
  -5  -1  -5    8.27    4.13   0
  -5  -1  -5   10.81    4.68   0
   5   1   5    8.56    3.30   0
   5   1   5   13.85    4.51   0
   5   1   5    7.41    2.72   0
  -6  -1  -5  285.62   17.87   0
  -6  -1  -5  309.92   19.25   0
  -6  -1  -5  284.07   18.45   0
   6   1   5  299.11   19.15   0
   6   1   5  306.22   16.94   0
   6   1   5  293.99   16.07   0
  -7  -1  -5  345.86   23.04   0
  -7  -1  -5  368.18   22.89   0
  -7  -1  -5  386.82   24.17   0
   7   1   5  385.58   19.98   0
   7   1   5  350.11   23.86   0
   7   1   5  376.00   21.08   0
   9  -2  -5  636.01   39.36   0
   9  -2  -5  713.70   34.81   0
  -9   2   5  683.14   33.95   0
  -9   2   5  624.50   35.55   0
   8  -2  -5  310.13   19.56   0
   8  -2  -5  306.08   18.74   0
   8  -2  -5  301.11   19.48   0
  -8   2   5  327.36   19.77   0
   7  -2  -5   54.71    9.06   0
   7  -2  -5   69.73    8.02   0
   7  -2  -5   68.61    8.80   0
  -7   2   5   85.91    9.03   0
  -7   2   5   67.20    7.21   0
   6  -2  -5   18.98    4.02   0
   6  -2  -5   10.01    3.78   0
   6  -2  -5   17.31    3.99   0
  -6   2   5   19.84    3.76   0
  -6   2   5   23.12    4.63   0
   5  -2  -5  737.81   33.60   0
   5  -2  -5  680.97   33.17   0
   5  -2  -5  675.79   33.18   0
  -5   2   5  704.54   32.42   0
  -5   2   5  740.49   33.15   0
   4  -2  -5 2170.30   94.80   0
   4  -2  -5 2059.70   94.69   0
   4  -2  -5 2155.32   94.59   0
  -4   2   5 2180.07   94.40   0
  -4   2   5 2250.97   93.99   0
   3  -2  -5  690.07   31.70   0
   3  -2  -5  692.88   31.49   0
  -3   2   5  697.16   30.98   0
  -3   2   5  708.07   31.26   0
   2  -2  -5  222.11   10.97   0
   2  -2  -5  233.44   11.29   0
   1  -2  -5  613.02   28.71   0
   1  -2  -5  605.29   27.23   0
   1  -2  -5  620.58   27.32   0
   0  -2  -5 1628.88   72.41   0
   0  -2  -5 1720.23   72.39   0
   0  -2  -5 1621.40   73.72   0
   0   2   5 1702.36   73.97   0
  -1  -2  -5 6616.04  281.97   0
  -1  -2  -5 6344.36  280.48   0
   1   2   5 6660.58  282.03   0
  -2  -2  -5 1976.59   87.05   0
  -2  -2  -5 1932.30   85.83   0
  -2  -2  -5 1929.10   87.53   0
  -2  -2  -5 1948.07   86.02   0
   2   2   5 2027.51   87.29   0
  -3  -2  -5  159.54   10.77   0
  -3  -2  -5  158.74   11.16   0
  -3  -2  -5  178.69   13.11   0
   3   2   5  170.17    9.14   0
   3   2   5  172.96    9.33   0
   3   2   5  174.81   11.47   0
  -4  -2  -5  238.34   14.81   0
  -4  -2  -5  232.61   14.35   0
  -4  -2  -5  220.07   16.86   0
  -4  -2  -5  234.81   14.22   0
   4   2   5  243.87   14.99   0
   4   2   5  248.25   12.99   0
   4   2   5  222.82   12.34   0
  -5  -2  -5  189.05   13.48   0
  -5  -2  -5  166.55   16.61   0
  -5  -2  -5  168.09   13.04   0
  -5  -2  -5  163.08   13.22   0
   5   2   5  165.24   10.41   0
   5   2   5  170.53   11.25   0
   5   2   5  153.15   13.04   0
  -6  -2  -5  189.71   14.96   0
  -6  -2  -5  179.67   15.64   0
  -6  -2  -5  191.87   16.05   0
   6   2   5  180.97   15.77   0
   6   2   5  171.53   11.56   0
   6   2   5  201.46   13.42   0
   8  -3  -5  271.99   18.99   0
   8  -3  -5  276.23   18.60   0
   8  -3  -5  258.06   17.69   0
  -8   3   5  325.78   19.34   0
   7  -3  -5  215.48   14.63   0
   7  -3  -5  212.67   14.89   0
   7  -3  -5  244.29   15.04   0
  -7   3   5  214.63   14.58   0
  -7   3   5  208.94   13.18   0
   6  -3  -5    1.38    3.64   0
   6  -3  -5    4.54    3.67   0
   6  -3  -5   -1.78    3.67   0
  -6   3   5    2.21    2.60   0
  -6   3   5    2.88    3.38   0
   5  -3  -5  342.86   18.29   0
   5  -3  -5  357.67   18.46   0
   5  -3  -5  341.00   18.50   0
  -5   3   5  354.22   17.34   0
  -5   3   5  352.00   18.05   0
   4  -3  -5  575.37   27.18   0
   4  -3  -5  576.01   27.58   0
   4  -3  -5  574.62   27.02   0
  -4   3   5  568.52   26.83   0
  -4   3   5  568.87   26.32   0
  -3   3   5   15.08    2.57   0
   2  -3  -5    2.03    1.62   0
   2  -3  -5    4.59    2.05   0
   2  -3  -5    4.56    2.32   0
  -2   3   5    4.30    1.66   0
   1  -3  -5   18.01    3.37   0
   1  -3  -5   16.80    2.64   0
   1  -3  -5   20.07    3.23   0
   0  -3  -5 1814.82   79.69   0
   0  -3  -5 1821.80   81.14   0
   0  -3  -5 1802.10   79.67   0
   0   3   5 1868.78   81.39   0
  -1  -3  -5  827.84   39.47   0
  -1  -3  -5  899.23   41.12   0
  -1  -3  -5  872.25   39.52   0
   1   3   5  898.62   41.08   0
  -2  -3  -5  336.66   19.69   0
  -2  -3  -5  345.37   18.80   0
  -2  -3  -5  367.05   17.94   0
  -2  -3  -5  354.70   18.24   0
   2   3   5  351.38   19.12   0
   2   3   5  340.78   16.51   0
   2   3   5  337.13   16.43   0
  -3  -3  -5  836.21   38.03   0
  -3  -3  -5  803.59   40.67   0
  -3  -3  -5  778.54   38.12   0
  -3  -3  -5  832.93   39.03   0
   3   3   5  783.14   36.46   0
   3   3   5  838.64   39.33   0
   3   3   5  790.57   36.52   0
  -4  -3  -5 1358.02   63.41   0
  -4  -3  -5 1437.63   64.40   0
  -4  -3  -5 1347.90   66.30   0
  -4  -3  -5 1371.49   63.42   0
   4   3   5 1468.63   61.84   0
   4   3   5 1311.64   61.55   0
   4   3   5 1420.74   64.60   0
  -5  -3  -5  751.05   38.67   0
  -5  -3  -5  775.96   38.57   0
  -5  -3  -5  791.43   39.42   0
  -5  -3  -5  910.14   43.41   0
   5   3   5  673.98   35.84   0
   5   3   5  791.51   39.59   0
   5   3   5  771.62   36.48   0
  -6  -3  -5    5.72    9.08   0
  -6  -3  -5   -1.19    7.66   0
  -6  -3  -5   15.22   11.51   0
  -6  -3  -5   -9.62    6.96   0
   6   3   5    5.17    7.13   0
   6   3   5    8.18    5.46   0
   6   3   5    2.98    4.58   0
   8  -4  -5   26.53    7.08   0
   8  -4  -5   13.70    6.56   0
  -8   4   5    5.31    6.72   0
  -8   4   5   15.77    5.71   0
   7  -4  -5   11.56    6.14   0
   7  -4  -5   10.12    5.25   0
  -7   4   5    4.88    5.22   0
  -7   4   5   18.06    4.38   0
   6  -4  -5   42.91    6.52   0
   6  -4  -5   44.53    7.72   0
  -6   4   5   31.60    5.86   0
  -6   4   5   42.58    7.41   0
   5  -4  -5   81.62    8.31   0
   5  -4  -5  104.30    9.11   0
  -5   4   5  110.56    8.55   0
  -5   4   5  103.05    7.53   0
   4  -4  -5  366.21   19.09   0
   4  -4  -5  357.29   18.21   0
   4  -4  -5  352.15   18.26   0
  -4   4   5  339.62   17.46   0
  -4   4   5  366.17   18.13   0
   3  -4  -5  222.22   11.59   0
   3  -4  -5  205.55   12.91   0
   3  -4  -5  211.52   11.79   0
  -3   4   5  215.94   11.41   0
  -3   4   5  198.91   11.13   0
   2  -4  -5  126.06    9.23   0
   2  -4  -5  129.31    8.23   0
   2  -4  -5  131.68    7.86   0
  -2   4   5  130.72    7.57   0
  -2   4   5  130.60    7.67   0
   1  -4  -5  110.00    7.63   0
   1  -4  -5  133.21    7.49   0
   1  -4  -5  110.44    8.82   0
  -1   4   5  113.27    6.67   0
  -1   4   5  107.36    6.73   0
   0  -4  -5  505.12   23.72   0
   0  -4  -5  518.71   25.37   0
   0  -4  -5  480.94   23.80   0
   0   4   5  481.15   22.81   0
   0   4   5  510.89   25.47   0
  -1  -4  -5  888.32   41.26   0
  -1  -4  -5  844.05   39.58   0
  -1  -4  -5  852.08   39.46   0
   1   4   5  879.43   41.12   0
   1   4   5  841.70   38.21   0
   1   4   5  846.36   38.31   0
  -2  -4  -5  229.61   14.92   0
  -2  -4  -5  245.32   16.63   0
  -2  -4  -5  235.70   14.93   0
  -2  -4  -5  277.33   14.40   0
   2   4   5  237.71   15.31   0
   2   4   5  231.28   12.59   0
   2   4   5  228.62   12.52   0
  -3  -4  -5  786.54   38.06   0
  -3  -4  -5  725.53   36.82   0
  -3  -4  -5  781.01   37.54   0
  -3  -4  -5  775.36   40.20   0
   3   4   5  796.59   35.44   0
   3   4   5  779.61   38.39   0
   3   4   5  752.42   35.33   0
  -4  -4  -5  696.00   32.66   0
  -4  -4  -5  590.58   31.13   0
  -4  -4  -5  577.80   31.47   0
  -4  -4  -5  614.78   35.24   0
   4   4   5  621.78   32.52   0
   4   4   5  572.73   29.02   0
   4   4   5  616.58   29.36   0
  -5  -4  -5  143.60   14.98   0
  -5  -4  -5  113.89   19.48   0
  -5  -4  -5  128.09   14.28   0
  -5  -4  -5  117.29   14.36   0
   5   4   5  146.59   15.30   0
   5   4   5  146.66   11.69   0
   5   4   5  141.63   10.77   0
   8  -5  -5   50.72    8.90   0
   8  -5  -5   73.97   10.70   0
  -8   5   5   78.00   13.22   0
  -8   5   5   56.82   10.16   0
   7  -5  -5   28.19    7.05   0
   7  -5  -5   43.61    8.23   0
  -7   5   5   40.04    7.29   0
  -7   5   5   40.28    6.21   0
   6  -5  -5   68.94    9.73   0
   6  -5  -5   72.39    9.22   0
   6  -5  -5   59.12    9.09   0
  -6   5   5   55.14    8.70   0
  -6   5   5   45.44    7.48   0
   5  -5  -5  894.24   40.99   0
   5  -5  -5  874.97   40.87   0
   5  -5  -5  864.15   41.61   0
  -5   5   5  842.83   39.95   0
  -5   5   5  866.99   40.76   0
   4  -5  -5  819.17   39.63   0
   4  -5  -5  874.47   38.46   0
   4  -5  -5  815.68   38.40   0
  -4   5   5  765.10   37.58   0
  -4   5   5  835.47   38.18   0
   3  -5  -5  114.67    8.36   0
   3  -5  -5  122.83    9.86   0
   3  -5  -5  112.45    8.70   0
  -3   5   5  115.00    8.11   0
   2  -5  -5  150.52   10.92   0
   2  -5  -5  144.75    9.67   0
   2  -5  -5  137.98    9.09   0
  -2   5   5  146.16    8.89   0
  -2   5   5  143.31    8.95   0
   1  -5  -5  367.75   18.28   0
   1  -5  -5  360.23   18.63   0
   1  -5  -5  362.50   20.09   0
  -1   5   5  382.11   17.75   0
  -1   5   5  341.82   17.70   0
   0  -5  -5 1113.75   48.56   0
   0  -5  -5 1111.65   48.87   0
   0  -5  -5 1150.63   50.53   0
   0   5   5 1057.82   47.61   0
   0   5   5  907.64   49.72   0
  -1  -5  -5 1132.97   53.20   0
  -1  -5  -5 1196.54   55.09   0
  -1  -5  -5 1153.00   52.85   0
   1   5   5 1113.72   51.72   0
   1   5   5 1234.69   54.98   0
   1   5   5 1142.80   51.65   0
  -2  -5  -5   53.96    8.51   0
  -2  -5  -5   41.10    7.17   0
  -2  -5  -5   37.24    7.26   0
  -2  -5  -5   61.51   11.13   0
   2   5   5   34.63    6.29   0
   2   5   5   30.04    5.89   0
  -3  -5  -5  576.20   28.28   0
  -3  -5  -5  558.35   30.80   0
  -3  -5  -5  479.03   26.46   0
  -3  -5  -5  484.06   26.93   0
   3   5   5  484.05   27.51   0
   3   5   5  462.17   24.41   0
   3   5   5  455.48   24.30   0
  -4  -5  -5   36.62    8.35   0
  -4  -5  -5   33.36   10.44   0
  -4  -5  -5   39.15    8.17   0
   4   5   5   24.94    8.08   0
   4   5   5   19.66    5.16   0
   4   5   5   25.91    5.49   0
  -5  -5  -5    1.94    8.46   0
  -5  -5  -5   -1.42    8.33   0
  -5  -5  -5    7.82    9.33   0
  -5  -5  -5   -4.71   12.11   0
   5   5   5   12.06    5.82   0
   5   5   5   16.00    8.60   0
   5   5   5   10.76    5.39   0
   7  -6  -5  446.91   26.00   0
   7  -6  -5  436.08   26.54   0
   7  -6  -5  436.77   25.82   0
  -7   6   5  444.58   25.63   0
   6  -6  -5  760.53   36.15   0
   6  -6  -5  688.28   35.62   0
   6  -6  -5  686.68   36.35   0
  -6   6   5  751.62   35.80   0
  -6   6   5  696.71   34.38   0
   5  -6  -5  698.19   34.75   0
   5  -6  -5  668.59   33.42   0
   5  -6  -5  695.50   33.79   0
   5  -6  -5  665.00   34.49   0
  -5   6   5  648.54   32.54   0
  -5   6   5  720.25   33.54   0
   4  -6  -5   88.77    9.91   0
   4  -6  -5  103.50    9.32   0
   4  -6  -5  109.80   10.49   0
  -4   6   5  109.66    9.22   0
  -4   6   5  104.48    8.96   0
   3  -6  -5   47.39    6.92   0
   3  -6  -5   44.06    8.34   0
   3  -6  -5   41.23    5.77   0
  -3   6   5   35.72    6.38   0
  -3   6   5   38.15    6.48   0
   2  -6  -5  234.28   15.36   0
   2  -6  -5  215.25   13.10   0
   2  -6  -5  244.36   14.32   0
  -2   6   5  216.14   12.97   0
  -2   6   5  230.50   12.90   0
   1  -6  -5  181.60   11.55   0
   1  -6  -5  168.77   12.41   0
   1  -6  -5  183.70   13.73   0
  -1   6   5  177.87   11.32   0
  -1   6   5  202.32   11.13   0
   0  -6  -5   67.77    8.94   0
   0  -6  -5   71.56   10.22   0
   0  -6  -5   73.57    8.03   0
   0   6   5   72.94    9.43   0
   0   6   5   64.42    7.07   0
  -1  -6  -5    6.48    6.07   0
  -1  -6  -5    8.34    4.99   0
  -1  -6  -5    3.58    5.76   0
   1   6   5    4.09    3.82   0
   1   6   5   11.87    5.66   0
   1   6   5    4.49    3.83   0
  -2  -6  -5  598.31   30.37   0
  -2  -6  -5  584.79   31.78   0
   2   6   5  595.03   28.97   0
   2   6   5  602.88   32.11   0
   2   6   5  602.22   28.88   0
  -3  -6  -5  756.18   42.75   0
  -3  -6  -5  763.20   39.87   0
  -3  -6  -5  756.71   38.59   0
  -3  -6  -5  875.48   40.22   0
   3   6   5  735.87   39.81   0
   3   6   5  770.61   36.51   0
   3   6   5  744.27   36.53   0
  -4  -6  -5  400.58   26.74   0
  -4  -6  -5  420.12   26.57   0
  -4  -6  -5  459.06   26.83   0
  -4  -6  -5  401.34   31.88   0
   4   6   5  400.25   22.82   0
   4   6   5  410.64   22.61   0
   4   6   5  410.23   26.63   0
   7  -7  -5  342.83   24.89   0
   7  -7  -5  388.99   25.53   0
   7  -7  -5  389.26   24.71   0
   7  -7  -5  393.16   25.16   0
  -7   7   5  354.50   21.80   0
  -7   7   5  372.78   23.92   0
   6  -7  -5  494.94   27.95   0
   6  -7  -5  504.68   26.90   0
   6  -7  -5  476.06   27.47   0
   6  -7  -5  470.82   27.84   0
  -6   7   5  496.25   27.31   0
  -6   7   5  466.30   25.43   0
   5  -7  -5  166.45   15.57   0
   5  -7  -5  185.19   14.11   0
  -5   7   5  195.46   13.58   0
  -5   7   5  199.71   14.44   0
   4  -7  -5  123.31   12.73   0
   4  -7  -5  113.59   11.49   0
   4  -7  -5  139.55   13.05   0
  -4   7   5  136.61   11.21   0
  -4   7   5  116.77   10.90   0
   3  -7  -5  538.91   27.66   0
   3  -7  -5  538.93   28.49   0
   3  -7  -5  582.66   29.85   0
  -3   7   5  541.76   27.53   0
  -3   7   5  564.22   27.65   0
   2  -7  -5  763.22   35.44   0
   2  -7  -5  738.63   36.20   0
   2  -7  -5  740.81   37.56   0
  -2   7   5  707.21   35.08   0
  -2   7   5  753.40   35.14   0
   1  -7  -5  339.54   21.28   0
   1  -7  -5  333.10   20.00   0
   1  -7  -5  333.91   18.75   0
  -1   7   5  330.83   17.93   0
  -1   7   5  325.42   18.24   0
  -1  -7  -5   66.79   14.06   0
  -1  -7  -5   77.50   11.67   0
   1   7   5   86.79   10.09   0
   1   7   5   94.05   12.19   0
   1   7   5   74.98    9.43   0
  -2  -7  -5   64.35   10.98   0
  -2  -7  -5   80.07   15.89   0
  -2  -7  -5   72.07   12.87   0
  -2  -7  -5   53.92    9.72   0
   2   7   5   58.73    7.53   0
   2   7   5   65.57   12.16   0
   2   7   5   53.15    7.07   0
  -3  -7  -5  643.31   34.41   0
  -3  -7  -5  650.16   35.87   0
  -3  -7  -5  599.52   35.87   0
  -3  -7  -5  605.12   39.63   0
   3   7   5  636.67   31.53   0
   3   7   5  644.11   31.85   0
   3   7   5  624.71   35.40   0
   6  -8  -5   27.57    9.73   0
   6  -8  -5   30.66    9.81   0
   6  -8  -5   21.47    7.59   0
   6  -8  -5   27.58    9.16   0
  -6   8   5   33.60    9.07   0
   5  -8  -5   48.83    9.31   0
   5  -8  -5   37.41    9.00   0
   5  -8  -5   29.61    9.61   0
   5  -8  -5   33.42    8.56   0
  -5   8   5   39.27    7.80   0
  -5   8   5   40.17    8.51   0
   4  -8  -5   40.52    8.86   0
   4  -8  -5   34.07    7.25   0
   4  -8  -5   66.18   12.78   0
  -4   8   5   65.48   11.03   0
  -4   8   5   48.44    7.80   0
   3  -8  -5  345.40   21.62   0
   3  -8  -5  343.09   22.45   0
   3  -8  -5  367.52   20.72   0
  -3   8   5  345.45   20.34   0
  -3   8   5  330.57   19.95   0
   2  -8  -5  994.91   50.86   0
   2  -8  -5 1172.70   50.48   0
   2  -8  -5 1009.31   48.46   0
  -2   8   5 1024.90   48.30   0
  -2   8   5  981.60   48.25   0
   1  -8  -5  230.20   16.02   0
   1  -8  -5  205.34   19.12   0
  -1   8   5  223.57   15.21   0
  -1   8   5  220.63   15.07   0
   0  -8  -5   27.35    8.48   0
   0  -8  -5   33.93    7.63   0
   0  -8  -5   29.28    8.16   0
  -1  -8  -5   -4.26    6.50   0
  -1  -8  -5   -0.05    9.67   0
  -1  -8  -5    2.53    8.79   0
   1   8   5    1.99    6.22   0
   1   8   5   -0.31    7.14   0
  -2  -8  -5   34.23   11.40   0
  -2  -8  -5   -1.94   12.48   0
  -2  -8  -5    3.04    8.86   0
  -2  -8  -5   -7.99   10.29   0
   2   8   5    2.88    6.89   0
   2   8   5   -4.31    7.50   0
   4  -9  -5   87.88   16.34   0
   4  -9  -5   69.20   11.43   0
  -4   9   5   86.96   15.14   0
  -4   9   5   85.00   13.93   0
   3  -9  -5    2.03    7.59   0
   3  -9  -5   -6.37    7.81   0
   3  -9  -5   -5.51    8.46   0
  -3   9   5    1.98    7.46   0
  -3   9   5   -0.61    7.30   0
   2  -9  -5   -7.93    7.57   0
   2  -9  -5   17.44    6.98   0
   2  -9  -5   -5.32    8.80   0
  -2   9   5   -2.13    7.22   0
  -2   9   5   -9.41    6.88   0
   1  -9  -5   21.15    9.57   0
   1  -9  -5   19.99    8.44   0
   1  -9  -5   16.50   10.75   0
  -1   9   5   10.02    7.77   0
  -1   9   5    8.47    7.13   0
   0  -9  -5  130.63   20.71   0
   0   9   5  151.37   17.25   0
   1  11  -6  115.14   16.59   0
   1  11  -6  127.38   13.58   0
   1  11  -6  116.67   20.85   0
  -1 -11   6  153.23   17.61   0
  -1 -11   6  102.13   13.70   0
  -1 -11   6  117.40   20.61   0
  -1 -11   6  113.74   13.10   0
   0  11  -6   35.32   10.38   0
   0  11  -6   38.23    7.10   0
   0  11  -6   14.12    9.91   0
   0 -11   6   40.05    7.34   0
   0 -11   6   27.80    8.96   0
   0 -11   6   37.40    7.58   0
   0 -11   6   56.02   10.86   0
  -1  11  -6  123.58   17.69   0
  -1  11  -6  133.23   20.79   0
   1 -11   6  137.64   17.59   0
   1 -11   6  128.81   13.17   0
   1 -11   6  115.17   13.21   0
   1 -11   6   97.79   13.01   0
  -2  11  -6  494.20   30.39   0
  -2  11  -6  457.11   29.31   0
   2 -11   6  504.84   27.73   0
   2 -11   6  522.11   27.28   0
   2 -11   6  489.03   25.90   0
   2 -11   6  515.17   30.15   0
  -3  11  -6  268.80   22.54   0
  -3  11  -6  298.30   23.73   0
   3 -11   6  307.57   20.30   0
   3 -11   6  315.03   22.51   0
   3 -11   6  279.89   16.41   0
   3 -11   6  276.68   20.08   0
   4 -11   6   90.59   14.11   0
   4 -11   6   94.36   15.24   0
   4 -11   6   75.16    8.18   0
   3  10  -6   94.99   14.26   0
   3  10  -6   83.00   12.97   0
   3  10  -6  116.05   15.43   0
  -3 -10   6  107.98   13.36   0
  -3 -10   6  144.09   18.11   0
  -3 -10   6  116.54   11.53   0
   2  10  -6  469.61   28.99   0
   2  10  -6  471.90   26.15   0
   2  10  -6  459.61   26.70   0
  -2 -10   6  472.02   25.54   0
  -2 -10   6  480.06   29.02   0
   1  10  -6   51.81    7.43   0
   1  10  -6   34.69    7.08   0
   1  10  -6   38.22    8.46   0
  -1 -10   6   44.47    9.27   0
  -1 -10   6   36.91    6.16   0
  -1 -10   6   57.59    8.85   0
   0  10  -6    3.02    4.16   0
   0  10  -6   -1.95    6.03   0
   0  10  -6   13.44    9.00   0
   0 -10   6   -3.12    4.93   0
   0 -10   6   17.68    7.44   0
   0 -10   6   -1.68    5.90   0
   0 -10   6    4.46    5.14   0
  -1  10  -6   94.35   12.24   0
  -1  10  -6   74.28   13.08   0
   1 -10   6   73.98    9.56   0
   1 -10   6   73.54    9.55   0
   1 -10   6   80.28    9.96   0
  -2  10  -6  510.53   29.80   0
  -2  10  -6  525.15   29.84   0
   2 -10   6  537.17   26.89   0
   2 -10   6  588.91   28.87   0
   2 -10   6  584.64   28.42   0
   2 -10   6  540.22   29.58   0
  -3  10  -6 1527.36   74.60   0
  -3  10  -6 1623.22   74.34   0
   3 -10   6 1540.60   71.27   0
   3 -10   6 1742.13   73.91   0
   3 -10   6 1655.56   74.25   0
   3 -10   6 1618.49   74.16   0
  -4  10  -6  529.53   28.82   0
   4 -10   6  478.34   27.64   0
   4 -10   6  460.62   23.05   0
   4 -10   6  558.28   28.21   0
  -5  10  -6   -2.75    8.89   0
  -5  10  -6   23.31    9.08   0
   5 -10   6   11.27    7.76   0
   5 -10   6   20.06    7.70   0
   5 -10   6   16.77    7.44   0
   4   9  -6  114.43   14.94   0
   4   9  -6  106.77   13.96   0
   4   9  -6  128.55   17.63   0
  -4  -9   6  105.45   13.35   0
  -4  -9   6  118.02   10.51   0
  -4  -9   6   89.47   12.44   0
   3   9  -6  447.64   26.66   0
   3   9  -6  416.60   24.57   0
   3   9  -6  414.89   24.77   0
  -3  -9   6  492.51   26.66   0
  -3  -9   6  446.48   22.47   0
  -3  -9   6  413.09   23.64   0
   2   9  -6  277.49   17.23   0
   2   9  -6  236.31   17.46   0
   2   9  -6  316.04   20.16   0
  -2  -9   6  281.66   19.46   0
  -2  -9   6  277.90   16.61   0
   1   9  -6   13.52    4.63   0
   1   9  -6   10.83    5.66   0
   1   9  -6   12.73    6.80   0
  -1  -9   6   15.51    4.35   0
  -1  -9   6   21.55    6.42   0
  -1  -9   6   18.36    6.77   0
   0   9  -6    2.89    4.90   0
   0   9  -6    2.47    3.42   0
   0   9  -6    6.80    5.50   0
   0  -9   6    7.88    3.95   0
   0  -9   6   -0.84    4.41   0
   0  -9   6    0.56    5.69   0
  -1   9  -6  120.08   12.72   0
  -1   9  -6  169.84   13.72   0
   1  -9   6  146.46   11.00   0
   1  -9   6  139.75   12.82   0
   1  -9   6  160.20   11.12   0
   1  -9   6  145.43   10.54   0
  -2   9  -6  222.97   16.04   0
  -2   9  -6  236.08   16.30   0
   2  -9   6  230.95   15.88   0
   2  -9   6  233.89   13.12   0
   2  -9   6  258.06   14.97   0
   2  -9   6  248.41   15.08   0
  -3   9  -6  487.65   25.90   0
  -3   9  -6  486.52   26.52   0
   3  -9   6  485.83   25.73   0
   3  -9   6  516.54   25.49   0
   3  -9   6  481.13   25.89   0
   3  -9   6  487.75   22.74   0
  -4   9  -6 1083.21   48.41   0
   4  -9   6 1018.71   48.01   0
   4  -9   6  957.86   47.89   0
   4  -9   6 1012.93   48.77   0
  -5   9  -6  273.18   19.57   0
  -5   9  -6  287.58   18.70   0
   5  -9   6  260.56   17.75   0
   5  -9   6  292.09   18.57   0
   5  -9   6  281.32   18.95   0
  -6   9  -6  364.73   22.42   0
  -6   9  -6  299.14   23.36   0
   6  -9   6  355.53   22.02   0
   6  -9   6  333.48   22.24   0
   6  -9   6  334.48   20.96   0
   5   8  -6  366.53   24.23   0
   5   8  -6  384.28   26.56   0
   5   8  -6  384.30   24.54   0
  -5  -8   6  376.83   25.00   0
  -5  -8   6  384.13   20.35   0
  -5  -8   6  380.49   23.69   0
   4   8  -6  241.22   17.48   0
   4   8  -6  240.52   17.06   0
   4   8  -6  226.60   18.42   0
  -4  -8   6  219.11   16.16   0
  -4  -8   6  244.31   13.68   0
   3   8  -6   12.28    4.58   0
   3   8  -6   10.70    4.81   0
  -3  -8   6    8.92    4.29   0
  -3  -8   6   16.68    3.95   0
  -3  -8   6    8.10    5.78   0
   2   8  -6    3.40    4.96   0
   2   8  -6    9.13    4.29   0
  -2  -8   6   10.90    3.76   0
  -2  -8   6    0.52    5.14   0
   1   8  -6   62.85    8.58   0
   1   8  -6   83.52   10.71   0
   1   8  -6   67.38    7.61   0
  -1  -8   6   88.37   10.43   0
  -1  -8   6   82.66    7.64   0
   0   8  -6 1001.86   48.14   0
   0   8  -6  946.51   46.42   0
   0   8  -6  912.85   47.61   0
   0  -8   6 1025.87   46.85   0
   0  -8   6  996.88   48.32   0
   0  -8   6 1144.57   47.04   0
   0  -8   6 1195.48   48.14   0
  -1   8  -6   12.30    4.96   0
  -1   8  -6   -3.91    3.55   0
   1  -8   6    8.98    4.26   0
   1  -8   6   -0.22    2.94   0
  -2   8  -6  386.85   21.08   0
  -2   8  -6  389.34   21.48   0
   2  -8   6  410.03   20.95   0
   2  -8   6  408.56   18.95   0
   2  -8   6  408.57   20.57   0
   2  -8   6  400.22   21.51   0
  -3   8  -6  127.39    9.75   0
  -3   8  -6   88.52   10.18   0
   3  -8   6  111.93    9.43   0
   3  -8   6  103.74    9.44   0
   3  -8   6   98.89    9.85   0
   4  -8   6   78.18    9.06   0
   4  -8   6   70.39    8.94   0
   4  -8   6   79.81    9.34   0
  -5   8  -6 1780.46   86.01   0
  -5   8  -6 1948.06   84.83   0
   5  -8   6 1808.04   84.60   0
   5  -8   6 1918.06   86.47   0
   5  -8   6 2031.80   85.42   0
  -6   8  -6  333.64   19.89   0
  -6   8  -6  286.32   21.12   0
   6  -8   6  331.26   20.53   0
   6  -8   6  283.47   14.31   0
   6  -8   6  290.55   18.56   0
   6  -8   6  304.89   19.24   0
   6   7  -6   20.94    7.26   0
   6   7  -6   11.23    7.35   0
   6   7  -6   -1.92    8.07   0
  -6  -7   6   13.51    8.67   0
  -6  -7   6    4.78    7.19   0
   5   7  -6   71.85   12.39   0
   5   7  -6   73.34   13.27   0
   5   7  -6   71.61   11.82   0
  -5  -7   6   91.85    7.89   0
  -5  -7   6   83.87   10.63   0
   4   7  -6  345.72   20.34   0
   4   7  -6  347.67   21.00   0
   4   7  -6  347.09   20.13   0
  -4  -7   6  319.86   16.87   0
  -4  -7   6  328.86   20.27   0
  -4  -7   6  342.70   19.33   0
   3   7  -6  644.80   30.31   0
   3   7  -6  590.59   29.47   0
  -3  -7   6  555.97   28.33   0
  -3  -7   6  550.63   26.87   0
   2   7  -6  375.54   20.96   0
   2   7  -6  440.75   22.47   0
  -2  -7   6  347.08   21.33   0
  -2  -7   6  472.81   20.90   0
   1   7  -6  274.70   15.94   0
   1   7  -6  255.50   15.08   0
  -1  -7   6  306.17   15.13   0
  -1  -7   6  319.16   16.79   0
   0   7  -6  236.54   14.14   0
   0   7  -6  226.49   12.71   0
   0   7  -6  269.97   14.69   0
   0  -7   6  273.05   13.45   0
   0  -7   6  254.61   14.92   0
  -1   7  -6   59.80    7.18   0
  -1   7  -6   90.28    7.43   0
   1  -7   6   74.17    6.31   0
   1  -7   6   73.72    7.82   0
  -2   7  -6 1053.66   47.11   0
  -2   7  -6  991.11   46.39   0
   2  -7   6 1019.61   46.80   0
   2  -7   6 1042.85   46.28   0
   2  -7   6 1005.82   46.67   0
  -3   7  -6 1756.04   76.42   0
  -3   7  -6 1648.59   75.51   0
   3  -7   6 1642.69   75.68   0
   3  -7   6 1747.84   75.74   0
   3  -7   6 1738.41   76.61   0
   4  -7   6   41.84    6.85   0
   4  -7   6   32.83    5.72   0
   4  -7   6   50.46    7.40   0
  -5   7  -6   12.11    5.26   0
  -5   7  -6   16.73    5.71   0
   5  -7   6   17.31    4.42   0
   5  -7   6   10.24    4.96   0
   5  -7   6    6.72    4.49   0
  -6   7  -6   28.58    6.99   0
  -6   7  -6   18.78    7.26   0
   6  -7   6   22.85    4.44   0
   6  -7   6   26.91    6.02   0
   6  -7   6   19.24    5.38   0
   6  -7   6   26.74    4.39   0
   6  -7   6   26.82    6.58   0
  -7   7  -6   -1.63    8.71   0
  -7   7  -6    3.26    7.44   0
  -7   7  -6    5.17    7.31   0
   7  -7   6    2.18    3.27   0
   7  -7   6    4.82    6.20   0
   7  -7   6   -2.72    6.06   0
   7  -7   6    0.05    5.18   0
   7   6  -6  410.59   35.47   0
  -7  -6   6  418.68   27.08   0
  -7  -6   6  435.74   26.78   0
   6   6  -6  141.12   15.16   0
   6   6  -6  136.75   14.66   0
   6   6  -6  149.71   15.94   0
  -6  -6   6  142.06   13.69   0
  -6  -6   6  145.50   10.31   0
  -6  -6   6  136.19   14.02   0
   5   6  -6  506.67   27.77   0
   5   6  -6  497.28   26.66   0
  -5  -6   6  499.28   25.67   0
  -5  -6   6  457.71   23.19   0
  -5  -6   6  501.48   26.47   0
   4   6  -6  660.81   31.60   0
   4   6  -6  684.21   32.17   0
   4   6  -6  685.53   32.59   0
  -4  -6   6  540.70   30.88   0
  -4  -6   6  566.56   30.21   0
  -4  -6   6  649.31   28.70   0
   3   6  -6 1384.82   60.20   0
   3   6  -6 1346.34   59.83   0
   3   6  -6 1309.04   59.42   0
  -3  -6   6 1204.94   59.18   0
  -3  -6   6 1246.47   57.04   0
  -3  -6   6 1352.88   58.74   0
   2   6  -6 1128.91   51.34   0
   2   6  -6 1122.32   51.08   0
   2   6  -6 1137.99   51.02   0
  -2  -6   6 1048.91   50.80   0
  -2  -6   6 1163.62   50.26   0
   1   6  -6  119.46    7.96   0
   1   6  -6  118.34    8.93   0
   1   6  -6  129.08    8.75   0
  -1  -6   6  138.64    7.80   0
  -1  -6   6  119.08    6.96   0
   0   6  -6   34.28    4.85   0
   0   6  -6   38.36    5.07   0
   0   6  -6   34.16    3.59   0
   0  -6   6   30.89    4.39   0
   0  -6   6   41.31    4.07   0
   0  -6   6   36.89    3.97   0
  -1   6  -6   86.28    6.91   0
  -1   6  -6   86.50    6.49   0
   1  -6   6   89.76    6.04   0
   1  -6   6   82.60    7.06   0
   1  -6   6   87.99    6.23   0
  -2   6  -6  452.56   21.53   0
  -2   6  -6  419.41   20.75   0
   2  -6   6  439.13   21.42   0
   2  -6   6  439.78   20.77   0
   2  -6   6  416.21   20.98   0
  -3   6  -6  964.09   43.83   0
  -3   6  -6  970.29   44.70   0
   3  -6   6  953.37   43.86   0
   3  -6   6  967.15   43.86   0
   3  -6   6  998.27   44.98   0
  -4   6  -6  606.90   29.10   0
  -4   6  -6  593.87   30.15   0
  -4   6  -6  626.60   30.06   0
   4  -6   6  632.15   29.25   0
   4  -6   6  625.11   30.38   0
   4  -6   6  594.43   29.01   0
  -5   6  -6 1106.00   49.53   0
  -5   6  -6 1075.40   50.84   0
  -5   6  -6 1093.67   50.70   0
   5  -6   6 1001.97   47.48   0
   5  -6   6 1085.78   49.27   0
   5  -6   6 1135.15   49.70   0
   5  -6   6 1080.91   50.99   0
  -6   6  -6  957.90   46.48   0
  -6   6  -6 1029.19   46.81   0
   6  -6   6 1000.54   44.94   0
   6  -6   6  897.17   43.12   0
   6  -6   6  948.88   46.57   0
   6  -6   6  927.12   44.24   0
  -7   6  -6   12.30    6.48   0
  -7   6  -6   -6.00    6.40   0
  -7   6  -6   17.91    8.80   0
   7  -6   6    5.88    4.82   0
   7  -6   6    9.22    3.68   0
   7  -6   6   11.84    5.66   0
   7  -6   6    4.58    5.65   0
   7   5  -6   18.34    8.03   0
   7   5  -6   26.59    8.95   0
   7   5  -6   22.38    7.58   0
  -7  -5   6   18.01    7.19   0
  -7  -5   6   27.37    5.43   0
  -7  -5   6   20.49    7.47   0
   6   5  -6  504.82   27.87   0
   6   5  -6  458.04   25.81   0
   6   5  -6  442.79   25.12   0
  -6  -5   6  414.86   24.41   0
  -6  -5   6  451.28   24.73   0
  -6  -5   6  447.67   22.17   0
   5   5  -6  620.60   31.24   0
   5   5  -6  615.76   32.39   0
   5   5  -6  613.04   30.71   0
  -5  -5   6  596.61   27.94   0
  -5  -5   6  607.89   30.44   0
  -5  -5   6  602.37   30.10   0
   4   5  -6  617.65   30.56   0
   4   5  -6  629.85   30.95   0
   4   5  -6  655.58   32.04   0
  -4  -5   6  600.33   30.20   0
  -4  -5   6  636.41   29.94   0
  -4  -5   6  616.41   28.01   0
   3   5  -6  592.79   28.01   0
   3   5  -6  581.25   27.76   0
   3   5  -6  572.32   28.53   0
  -3  -5   6  524.14   27.21   0
  -3  -5   6  588.84   27.01   0
   2   5  -6  433.96   21.77   0
   2   5  -6  462.24   21.65   0
   2   5  -6  438.36   21.91   0
  -2  -5   6  408.20   21.24   0
  -2  -5   6  457.24   20.86   0
   1   5  -6 2293.56  102.57   0
   1   5  -6 2434.17  102.54   0
  -1  -5   6 2283.75  102.34   0
  -1  -5   6 2390.13  101.28   0
  -1  -5   6 2358.54  101.84   0
   0   5  -6 1819.49   74.61   0
   0   5  -6 1742.65   75.55   0
   0   5  -6 1629.22   75.23   0
   0  -5   6 1666.11   75.23   0
   0  -5   6 1735.09   74.83   0
   0  -5   6 1729.97   74.74   0
  -1   5  -6  254.12   12.51   0
  -1   5  -6  229.76   12.00   0
   1  -5   6  234.97   11.73   0
   1  -5   6  230.66   12.23   0
   1  -5   6  244.39   12.27   0
  -3   5  -6   89.14    7.52   0
  -3   5  -6   82.77    6.27   0
   3  -5   6   92.29    6.31   0
   3  -5   6   78.60    7.03   0
   3  -5   6   88.87    6.37   0
  -4   5  -6  533.67   25.17   0
  -4   5  -6  516.42   26.29   0
  -4   5  -6  561.23   26.11   0
   4  -5   6  549.61   26.53   0
   4  -5   6  538.13   24.94   0
   4  -5   6  474.32   24.87   0
   4  -5   6  520.44   23.37   0
  -5   5  -6 2211.60   97.57   0
  -5   5  -6 2229.94   98.82   0
  -5   5  -6 2252.39   98.68   0
   5  -5   6 2183.23   96.94   0
   5  -5   6 2089.50   96.22   0
   5  -5   6 2271.41   99.20   0
   5  -5   6 2272.74   97.42   0
  -6   5  -6 1557.73   67.37   0
  -6   5  -6 1473.03   66.97   0
  -6   5  -6 1467.87   65.57   0
   6  -5   6 1388.94   64.63   0
   6  -5   6 1460.74   65.27   0
   6  -5   6 1410.26   67.12   0
   6  -5   6 1381.78   64.38   0
  -7   5  -6  109.08   14.71   0
  -7   5  -6  120.43   14.57   0
  -7   5  -6  125.77   11.79   0
   7  -5   6  112.70    9.50   0
   7  -5   6  121.73   12.35   0
   7  -5   6  106.67   10.34   0
   7  -5   6  132.17   11.44   0
   6   4  -6  301.87   19.12   0
   6   4  -6  332.49   18.84   0
  -6  -4   6  307.41   18.20   0
  -6  -4   6  311.16   18.22   0
   5   4  -6  182.07   12.12   0
   5   4  -6  193.21   12.92   0
  -5  -4   6  157.55   11.54   0
  -5  -4   6  175.23   11.69   0
  -5  -4   6  192.28    9.93   0
   4   4  -6   13.57    3.38   0
   4   4  -6    8.69    4.13   0
   4   4  -6   10.89    4.47   0
  -4  -4   6    5.99    3.00   0
  -4  -4   6    9.42    2.97   0
   3   4  -6   30.74    5.65   0
   3   4  -6   31.76    4.78   0
   3   4  -6   24.95    4.03   0
  -3  -4   6   28.91    4.38   0
   2   4  -6 1100.90   48.14   0
   2   4  -6 1080.97   48.18   0
   2   4  -6 1034.61   48.64   0
  -2  -4   6 1055.85   47.59   0
  -2  -4   6 1100.09   47.41   0
   1   4  -6 1356.44   57.50   0
   1   4  -6 1292.26   57.41   0
   1   4  -6 1258.32   57.55   0
  -1  -4   6 1298.23   56.62   0
  -1  -4   6 1313.11   56.94   0
   0   4  -6 3024.73  133.27   0
   0   4  -6 3154.66  133.02   0
   0   4  -6 3147.25  133.58   0
   0  -4   6 3077.67  132.78   0
   0  -4   6 3065.41  133.05   0
  -1   4  -6  499.09   22.50   0
  -1   4  -6  493.05   22.04   0
  -1   4  -6  473.22   22.32   0
   1  -4   6  476.81   22.44   0
  -2   4  -6    6.24    2.35   0
  -2   4  -6    9.26    2.31   0
  -2   4  -6    5.22    1.84   0
   2  -4   6    6.95    2.13   0
   2  -4   6    9.51    1.72   0
   2  -4   6    6.99    1.94   0
  -3   4  -6   81.69    5.99   0
  -3   4  -6   82.01    7.03   0
  -3   4  -6  102.33    6.70   0
   3  -4   6   86.64    6.84   0
   3  -4   6   96.22    5.92   0
   3  -4   6   85.07    5.71   0
  -4   4  -6   88.67    7.37   0
  -4   4  -6   93.49    6.80   0
  -4   4  -6   84.92    7.76   0
   4  -4   6   83.65    6.23   0
   4  -4   6   80.92    5.30   0
   4  -4   6   74.53    7.19   0
   4  -4   6   81.54    6.31   0
  -5   4  -6  738.81   34.94   0
  -5   4  -6  736.13   35.76   0
  -5   4  -6  736.58   36.21   0
   5  -4   6  799.04   34.76   0
   5  -4   6  739.68   34.14   0
   5  -4   6  718.75   34.06   0
   5  -4   6  748.24   36.31   0
  -6   4  -6  606.03   30.76   0
  -6   4  -6  561.60   30.39   0
  -6   4  -6  598.36   29.20   0
   6  -4   6  599.13   30.57   0
   6  -4   6  592.33   28.66   0
   6  -4   6  581.60   28.09   0
   6  -4   6  584.76   28.41   0
  -7   4  -6   27.39    7.93   0
  -7   4  -6   52.87    9.50   0
  -7   4  -6   52.57    8.80   0
   7  -4   6   42.35    5.90   0
   7  -4   6   41.09    7.59   0
   7  -4   6   34.86    6.47   0
   7  -4   6   45.62    7.69   0
   8   3  -6    4.37    8.16   0
   8   3  -6    6.98    6.73   0
   8   3  -6   -1.05    7.86   0
  -8  -3   6   12.01    6.49   0
  -8  -3   6    9.91    7.23   0
  -8  -3   6    8.96    5.62   0
   7   3  -6   24.91    8.72   0
   7   3  -6   11.03    5.43   0
   7   3  -6   16.61    6.25   0
  -7  -3   6    6.73    5.11   0
  -7  -3   6    8.03    4.99   0
   6   3  -6    4.42    5.06   0
   6   3  -6   14.51    4.36   0
   6   3  -6   16.45    5.45   0
  -6  -3   6   12.25    4.48   0
  -6  -3   6   10.31    4.14   0
   5   3  -6  127.33    9.79   0
   5   3  -6  115.21    8.99   0
   5   3  -6   93.33   10.59   0
  -5  -3   6  100.78    8.40   0
  -5  -3   6  114.02    8.52   0
  -5  -3   6  127.79    7.20   0
   4   3  -6  142.51    9.31   0
   4   3  -6  141.80   11.09   0
   4   3  -6  144.61    9.74   0
  -4  -3   6  152.94    9.12   0
   3   3  -6   55.65    5.33   0
   3   3  -6   68.33    6.47   0
  -3  -3   6   52.29    4.55   0
  -3  -3   6   61.03    4.89   0
   2   3  -6  472.02   22.11   0
   2   3  -6  468.87   22.21   0
  -2  -3   6  479.90   21.47   0
  -2  -3   6  487.14   21.63   0
   1   3  -6  101.06    5.82   0
   1   3  -6  101.69    5.87   0
   0   3  -6  631.01   28.70   0
   0   3  -6  668.81   29.01   0
   0   3  -6  690.67   28.98   0
   0  -3   6  624.87   28.91   0
  -1   3  -6 1881.10   80.01   0
  -1   3  -6 1867.31   79.32   0
  -1   3  -6 1855.80   79.50   0
   1  -3   6 1749.23   79.96   0
  -2   3  -6  278.50   14.09   0
  -2   3  -6  285.29   13.23   0
   2  -3   6  265.37   14.00   0
  -3   3  -6    8.15    2.27   0
  -3   3  -6   12.59    2.74   0
  -3   3  -6   11.06    2.96   0
   3  -3   6    5.61    2.35   0
   3  -3   6    9.95    1.76   0
  -4   3  -6   90.13    6.67   0
  -4   3  -6   84.18    7.06   0
  -4   3  -6   79.49    7.53   0
   4  -3   6   81.96    5.72   0
   4  -3   6   71.35    5.82   0
   4  -3   6   77.49    7.08   0
   4  -3   6   80.06    5.81   0
  -5   3  -6   41.71    6.36   0
  -5   3  -6   42.50    7.12   0
   5  -3   6   32.98    6.20   0
   5  -3   6   44.84    5.38   0
   5  -3   6   40.27    5.23   0
  -6   3  -6    7.77    4.50   0
  -6   3  -6    3.60    4.29   0
   6  -3   6    4.45    3.50   0
   6  -3   6   -0.94    3.34   0
   6  -3   6    5.40    4.52   0
  -7   3  -6    4.05    5.93   0
  -7   3  -6   17.58    6.35   0
  -7   3  -6    4.01    6.13   0
   7  -3   6    5.34    4.40   0
   7  -3   6    4.01    5.47   0
   7  -3   6   13.35    4.86   0
   7  -3   6   11.05    4.63   0
   8   2  -6   19.19    4.95   0
   8   2  -6   35.20    8.24   0
   8   2  -6   32.71    7.38   0
   8   2  -6   37.63   10.70   0
  -8  -2   6   24.40    7.01   0
  -8  -2   6   19.01    7.13   0
  -8  -2   6   33.21    6.20   0
   7   2  -6   62.05   12.26   0
   7   2  -6   61.22    6.51   0
   7   2  -6   67.73    9.34   0
  -7  -2   6   55.50    9.51   0
  -7  -2   6   58.09    8.18   0
  -7  -2   6   50.98    7.52   0
   6   2  -6  173.16   12.00   0
   6   2  -6  130.34   13.40   0
   6   2  -6  162.60   11.16   0
  -6  -2   6  157.90   10.45   0
  -6  -2   6  136.04   10.64   0
  -6  -2   6  140.33    9.55   0
   5   2  -6  316.55   15.50   0
   5   2  -6  324.12   17.81   0
   5   2  -6  334.06   17.43   0
  -5  -2   6  320.37   16.86   0
  -5  -2   6  343.67   17.19   0
   4   2  -6 1150.19   52.31   0
   4   2  -6 1141.35   50.44   0
   4   2  -6 1135.21   51.96   0
  -4  -2   6 1117.36   51.51   0
  -4  -2   6 1258.78   51.82   0
   3   2  -6  320.09   15.98   0
   3   2  -6  317.48   15.77   0
  -3  -2   6  332.72   15.40   0
  -3  -2   6  329.31   15.41   0
   2   2  -6  641.29   28.74   0
   2   2  -6  638.28   28.58   0
   1   2  -6 1889.51   81.32   0
   1   2  -6 1920.39   81.51   0
   1   2  -6 1870.41   81.52   0
   0   2  -6 1251.89   54.48   0
  -1   2  -6 2271.54   96.26   0
  -1   2  -6 2256.24   96.82   0
   1  -2   6 2167.20   96.93   0
  -2   2  -6 2868.78  122.34   0
  -2   2  -6 2819.86  122.74   0
  -2   2  -6 2861.18  123.34   0
  -2   2  -6 2849.74  122.45   0
   2  -2   6 2892.10  122.44   0
   2  -2   6 2751.48  123.42   0
  -3   2  -6  714.04   32.29   0
  -3   2  -6  678.98   32.70   0
  -3   2  -6  715.81   32.55   0
  -3   2  -6  714.34   33.32   0
   3  -2   6  727.17   32.31   0
   3  -2   6  735.19   33.52   0
  -4   2  -6  506.34   24.81   0
  -4   2  -6  525.43   25.54   0
  -4   2  -6  470.62   24.19   0
   4  -2   6  522.32   25.58   0
   4  -2   6  524.85   24.42   0
   4  -2   6  525.25   23.29   0
   4  -2   6  504.48   23.50   0
  -5   2  -6  563.39   28.09   0
  -5   2  -6  597.00   29.02   0
  -5   2  -6  594.56   29.45   0
   5  -2   6  579.67   27.35   0
   5  -2   6  584.93   27.01   0
   5  -2   6  597.34   29.50   0
   5  -2   6  575.26   28.33   0
  -6   2  -6  650.97   33.91   0
  -6   2  -6  755.34   35.03   0
  -6   2  -6  634.55   32.88   0
   6  -2   6  693.20   34.71   0
   6  -2   6  708.68   31.78   0
   6  -2   6  669.60   33.37   0
   6  -2   6  657.66   32.15   0
  -7   2  -6   95.06   11.49   0
  -7   2  -6  129.83   13.36   0
  -7   2  -6  106.79   12.91   0
   7  -2   6   99.09   10.63   0
   7  -2   6  114.41   12.13   0
   7  -2   6  122.86   12.63   0
   7  -2   6  102.23   10.35   0
   8   1  -6   14.40    4.51   0
   8   1  -6   12.59    7.84   0
   8   1  -6   16.35    7.21   0
   8   1  -6    8.56    5.86   0
  -8  -1   6   11.46    5.99   0
  -8  -1   6   10.43    5.50   0
   7   1  -6  134.97   11.98   0
   7   1  -6  157.46   12.49   0
   7   1  -6  139.29   14.92   0
   7   1  -6  142.46    9.49   0
  -7  -1   6  166.25   12.07   0
  -7  -1   6  141.80   10.93   0
   6   1  -6  540.30   27.92   0
   6   1  -6  562.78   25.96   0
   6   1  -6  555.60   27.57   0
  -6  -1   6  562.56   27.24   0
  -6  -1   6  543.95   26.78   0
   5   1  -6 2325.65  100.52   0
   5   1  -6 2269.25  101.70   0
   5   1  -6 2375.50  102.22   0
  -5  -1   6 2431.93  101.59   0
  -5  -1   6 2179.39  101.08   0
   4   1  -6  294.61   15.96   0
   4   1  -6  326.98   16.51   0
   4   1  -6  319.68   15.10   0
  -4  -1   6  357.17   15.90   0
  -4  -1   6  309.18   15.54   0
   3   1  -6   86.46    5.90   0
   3   1  -6   86.92    4.96   0
   3   1  -6   89.01    5.66   0
  -3  -1   6   88.14    5.17   0
  -3  -1   6   88.33    4.96   0
   2   1  -6 1270.33   55.21   0
   2   1  -6 1265.24   55.08   0
  -1   1  -6  527.10   23.31   0
  -1   1  -6  483.85   23.36   0
  -2   1  -6  184.68   10.24   0
  -2   1  -6  176.44   10.24   0
  -2   1  -6  177.99    9.17   0
  -2   1  -6  178.94    9.26   0
   2  -1   6  183.97   10.34   0
   2  -1   6  189.09    9.77   0
  -3   1  -6  154.78   10.36   0
  -3   1  -6  167.13    9.25   0
  -3   1  -6  163.98   10.24   0
  -3   1  -6  157.32    9.42   0
   3  -1   6  171.02    9.59   0
   3  -1   6  176.40   10.32   0
  -4   1  -6  908.28   41.74   0
  -4   1  -6  876.73   40.51   0
  -4   1  -6  902.06   40.97   0
  -4   1  -6  822.17   41.68   0
   4  -1   6  929.61   41.93   0
   4  -1   6  895.84   41.03   0
  -5   1  -6  474.58   24.48   0
  -5   1  -6  456.16   23.18   0
  -5   1  -6  447.40   23.56   0
   5  -1   6  469.64   22.24   0
   5  -1   6  462.35   24.34   0
   5  -1   6  452.81   21.69   0
   5  -1   6  458.49   23.60   0
  -6   1  -6   46.64    8.10   0
  -6   1  -6   42.83    6.92   0
   6  -1   6   49.17    8.42   0
   6  -1   6   39.44    8.23   0
   6  -1   6   54.81    7.93   0
  -7   1  -6  177.12   15.57   0
  -7   1  -6  180.40   16.70   0
  -7   1  -6  175.11   14.42   0
   7  -1   6  186.36   12.81   0
   7  -1   6  194.13   14.08   0
   7  -1   6  185.97   15.48   0
   7  -1   6  212.61   16.10   0
   8   0  -6  219.90   13.97   0
   8   0  -6  242.38   17.30   0
   8   0  -6  190.96   19.46   0
   8   0  -6  269.37   17.37   0
  -8   0   6  208.63   16.40   0
   7   0  -6  368.99   20.29   0
   7   0  -6  344.89   18.29   0
   7   0  -6  352.41   19.86   0
  -7   0   6  336.66   19.32   0
  -7   0   6  336.40   18.64   0
   6   0  -6  934.27   42.05   0
   6   0  -6  862.30   40.32   0
   6   0  -6  879.52   41.43   0
  -6   0   6  907.02   41.13   0
  -6   0   6  842.91   40.54   0
   5   0  -6  634.30   30.32   0
   5   0  -6  613.77   29.10   0
   5   0  -6  642.17   30.00   0
  -5   0   6  593.52   29.09   0
  -5   0   6  675.80   29.67   0
   4   0  -6   40.23    4.43   0
   4   0  -6   45.72    4.87   0
   4   0  -6   34.56    4.09   0
  -4   0   6   37.67    3.54   0
  -4   0   6   32.69    3.94   0
   3   0  -6    9.55    2.01   0
   3   0  -6   10.70    2.30   0
   3   0  -6    7.80    2.01   0
   2   0  -6  818.48   36.85   0
   2   0  -6  867.84   37.14   0
   0   0  -6 2385.63  102.62   0
   0   0  -6 2338.73  102.71   0
  -1   0  -6 2505.06  109.70   0
  -1   0  -6 2484.23  109.73   0
   1   0   6 2575.50  109.75   0
  -2   0  -6 1976.78   83.33   0
  -2   0  -6 1864.30   84.37   0
  -2   0  -6 1884.78   84.59   0
  -2   0  -6 1889.76   83.21   0
   2   0   6 1968.55   84.36   0
  -3   0  -6 2356.39  103.55   0
  -3   0  -6 2419.17  103.82   0
  -3   0  -6 2413.56  104.80   0
  -3   0  -6 2296.21  105.19   0
   3   0   6 2409.64  104.51   0
  -4   0  -6  113.63    9.77   0
  -4   0  -6  142.73    9.44   0
  -4   0  -6  130.92   11.38   0
  -4   0  -6  128.37    9.11   0
   4   0   6  149.05    9.90   0
  -5   0  -6   -1.69    3.84   0
  -5   0  -6   -5.59    5.62   0
  -5   0  -6    2.26    3.74   0
  -5   0  -6   -4.28    3.66   0
   5   0   6   -0.89    3.22   0
   5   0   6   -3.06    3.17   0
  -6   0  -6  195.66   14.04   0
  -6   0  -6  231.96   15.16   0
  -6   0  -6  193.50   15.46   0
   6   0   6  210.08   15.21   0
   6   0   6  192.20   13.09   0
  -7   0  -6  399.91   25.25   0
  -7   0  -6  401.01   24.14   0
  -7   0  -6  356.41   23.43   0
   7   0   6  368.36   21.78   0
   7   0   6  449.48   24.94   0
   8  -1  -6  223.93   16.32   0
   8  -1  -6  185.02   15.48   0
   8  -1  -6  201.44   13.88   0
  -8   1   6  210.37   15.71   0
   7  -1  -6   41.08    7.31   0
   7  -1  -6   42.52    7.00   0
   7  -1  -6   32.65    5.28   0
  -7   1   6   33.63    5.11   0
  -7   1   6   32.77    5.61   0
   6  -1  -6   29.67    4.97   0
   6  -1  -6   20.92    4.47   0
   6  -1  -6   24.20    4.42   0
  -6   1   6   33.97    5.88   0
  -6   1   6   33.51    4.73   0
   5  -1  -6    2.20    2.94   0
   5  -1  -6    4.39    2.72   0
   5  -1  -6    3.29    2.93   0
  -5   1   6    3.26    2.41   0
  -5   1   6    4.43    2.19   0
   4  -1  -6  177.64   10.26   0
   4  -1  -6  184.45   10.34   0
   4  -1  -6  189.07   10.61   0
  -4   1   6  183.84    9.44   0
  -4   1   6  188.72    9.81   0
   3  -1  -6  208.76   10.81   0
   3  -1  -6  202.27   10.45   0
   2  -1  -6   75.18    4.61   0
   2  -1  -6   87.52    5.11   0
   1  -1  -6  747.36   34.36   0
   0  -1  -6  270.95   14.14   0
  -1  -1  -6  583.78   27.71   0
  -1  -1  -6  565.46   26.08   0
  -1  -1  -6  577.34   27.60   0
  -1  -1  -6  606.18   26.22   0
   1   1   6  581.17   27.67   0
  -2  -1  -6 2055.70   91.36   0
  -2  -1  -6 2065.33   89.68   0
  -2  -1  -6 2068.79   91.00   0
  -2  -1  -6 2026.98   89.74   0
   2   1   6 2081.12   91.05   0
  -3  -1  -6 1269.38   56.78   0
  -3  -1  -6 1249.25   58.81   0
  -3  -1  -6 1287.70   57.95   0
  -3  -1  -6 1234.61   56.74   0
   3   1   6 1317.65   58.02   0
  -4  -1  -6  157.68   10.75   0
  -4  -1  -6  157.28   13.66   0
  -4  -1  -6  165.13   10.99   0
  -4  -1  -6  163.28   11.70   0
   4   1   6  174.32   11.79   0
  -5  -1  -6  150.95   15.42   0
  -5  -1  -6  122.84   11.88   0
  -5  -1  -6  130.33   11.32   0
  -5  -1  -6  147.92   11.56   0
   5   1   6  152.87   12.25   0
  -6  -1  -6   72.19   11.44   0
   6   1   6   83.75    9.65   0
   6   1   6   67.70   11.79   0
   8  -2  -6    2.67    6.08   0
   8  -2  -6    3.48    6.01   0
   8  -2  -6   -0.97    5.20   0
  -8   2   6    1.88    5.95   0
   7  -2  -6  116.56   10.01   0
   7  -2  -6  119.91   11.60   0
   7  -2  -6  116.40   10.92   0
  -7   2   6  103.28    8.97   0
  -7   2   6  119.67   10.27   0
   6  -2  -6  772.65   35.07   0
   6  -2  -6  685.82   34.12   0
   6  -2  -6  710.09   34.58   0
  -6   2   6  753.85   34.12   0
  -6   2   6  671.08   33.21   0
   5  -2  -6    4.40    3.02   0
   5  -2  -6    3.91    3.18   0
   5  -2  -6    0.19    3.11   0
  -5   2   6    1.26    2.14   0
  -5   2   6    5.29    2.60   0
   4  -2  -6  237.56   12.63   0
   4  -2  -6  236.52   12.38   0
   4  -2  -6  213.44   12.58   0
  -4   2   6  228.37   11.39   0
  -4   2   6  221.88   11.67   0
   3  -2  -6  578.41   26.56   0
   3  -2  -6  589.51   26.87   0
  -3   2   6  574.49   25.95   0
   2  -2  -6  107.51    7.72   0
   2  -2  -6   99.50    5.91   0
   1  -2  -6 3909.39  169.46   0
   1  -2  -6 3954.20  169.45   0
   1  -2  -6 3976.14  171.26   0
   0  -2  -6  797.87   35.79   0
   0  -2  -6  812.59   35.71   0
   0  -2  -6  805.46   37.42   0
  -1  -2  -6  197.94   10.50   0
  -1  -2  -6  208.24   12.28   0
  -1  -2  -6  195.08   11.92   0
  -1  -2  -6  192.42   10.55   0
   1   2   6  192.39   11.93   0
  -2  -2  -6   33.80    6.01   0
  -2  -2  -6   40.05    7.05   0
  -2  -2  -6   45.10    5.93   0
   2   2   6   28.97    5.68   0
  -3  -2  -6  164.53   10.38   0
  -3  -2  -6  121.90   10.47   0
   3   2   6  136.13   10.47   0
  -5  -2  -6  207.66   19.61   0
  -5  -2  -6  249.21   16.62   0
  -6  -2  -6    5.81    7.24   0
  -6  -2  -6   20.53   11.20   0
  -6  -2  -6   -3.63    7.97   0
  -6  -2  -6   24.53    8.25   0
   6   2   6    9.58    5.40   0
   6   2   6   15.53    7.17   0
   6   2   6   11.11    3.89   0
   8  -3  -6  154.53   14.67   0
   8  -3  -6  160.11   15.14   0
   8  -3  -6  157.28   13.82   0
  -8   3   6  195.74   14.82   0
   7  -3  -6 1716.72   73.02   0
   7  -3  -6 1488.31   71.98   0
   7  -3  -6 1520.13   72.45   0
  -7   3   6 1542.89   70.94   0
  -7   3   6 1673.70   72.21   0
   6  -3  -6  853.71   38.40   0
   6  -3  -6  798.87   38.14   0
   6  -3  -6  720.10   37.81   0
  -6   3   6  797.95   36.71   0
  -6   3   6  806.31   37.51   0
   5  -3  -6  137.81    9.79   0
   5  -3  -6  131.66    9.63   0
   5  -3  -6  127.95    9.84   0
  -5   3   6  128.29    9.02   0
  -5   3   6  145.41    8.62   0
   4  -3  -6   19.39    3.40   0
   4  -3  -6   26.56    4.39   0
   4  -3  -6   20.58    3.79   0
  -4   3   6   22.97    3.73   0
  -4   3   6   20.80    3.21   0
   3  -3  -6   61.28    5.20   0
  -3   3   6   60.72    4.49   0
  -3   3   6   54.24    4.47   0
   2  -3  -6  412.14   20.76   0
   2  -3  -6  397.05   18.81   0
   2  -3  -6  397.63   19.09   0
   1  -3  -6  115.72    7.17   0
   1  -3  -6  122.50    8.75   0
   1  -3  -6  117.74    7.06   0
   0  -3  -6   40.29    4.50   0
   0  -3  -6   34.50    5.62   0
   0  -3  -6   30.69    4.32   0
   0   3   6   32.26    5.51   0
  -1  -3  -6 1185.17   53.12   0
  -1  -3  -6 1146.25   51.28   0
  -1  -3  -6 1026.48   51.00   0
   1   3   6 1227.19   53.23   0
  -2  -3  -6 2652.93  118.57   0
  -2  -3  -6 2603.97  116.58   0
  -2  -3  -6 2723.90  117.98   0
  -2  -3  -6 2593.96  116.33   0
   2   3   6 2742.25  118.22   0
  -3  -3  -6  267.64   18.10   0
  -3  -3  -6  214.37   15.12   0
  -3  -3  -6  229.88   14.68   0
  -5  -3  -6   14.45    7.51   0
   5   3   6   16.45    6.94   0
  -6  -3  -6   98.45   15.61   0
  -6  -3  -6  135.34   15.47   0
  -6  -3  -6  115.95   18.29   0
   6   3   6  114.95   16.85   0
   6   3   6   88.90   12.27   0
   6   3   6   89.14    9.34   0
   8  -4  -6  439.41   25.75   0
   8  -4  -6  421.56   26.32   0
  -8   4   6  416.28   25.28   0
  -8   4   6  489.17   24.17   0
   7  -4  -6  876.13   42.56   0
   7  -4  -6  853.52   42.47   0
  -7   4   6  874.32   40.70   0
  -7   4   6  878.29   41.81   0
   6  -4  -6  310.79   17.79   0
   6  -4  -6  276.41   17.63   0
  -6   4   6  283.16   16.64   0
  -6   4   6  307.82   16.07   0
   5  -4  -6  359.80   18.96   0
   5  -4  -6  342.97   19.37   0
  -5   4   6  348.13   17.78   0
  -5   4   6  358.17   18.37   0
   4  -4  -6 2500.16  106.31   0
   4  -4  -6 2503.73  106.20   0
  -4   4   6 2316.98  105.29   0
  -4   4   6 2365.12  105.58   0
   3  -4  -6  549.11   27.24   0
   3  -4  -6  580.23   27.09   0
   3  -4  -6  597.22   29.00   0
  -3   4   6  579.51   26.61   0
  -3   4   6  583.29   26.61   0
   2  -4  -6  251.03   14.94   0
   2  -4  -6  252.99   12.97   0
   2  -4  -6  245.66   13.29   0
   1  -4  -6  207.64   13.11   0
   1  -4  -6  205.61   11.21   0
   1  -4  -6  199.80   11.51   0
   0  -4  -6   22.08    3.82   0
   0  -4  -6   35.19    5.90   0
   0  -4  -6   24.41    4.25   0
   0   4   6   14.17    4.45   0
  -1  -4  -6 2202.28   97.88   0
  -1  -4  -6 2263.59   97.81   0
  -1  -4  -6 2264.07   99.83   0
   1   4   6 2166.62   99.56   0
  -2  -4  -6  839.76   42.05   0
  -2  -4  -6  887.34   41.76   0
  -2  -4  -6  908.38   43.25   0
  -2  -4  -6  891.59   44.31   0
   2   4   6  946.13   43.75   0
  -3  -4  -6 1026.04   47.83   0
  -3  -4  -6 1043.39   51.23   0
  -3  -4  -6 1025.90   49.03   0
  -3  -4  -6  988.43   48.07   0
   3   4   6 1008.41   49.31   0
  -4  -4  -6   95.87   12.23   0
  -4  -4  -6   86.65   12.54   0
  -4  -4  -6   91.74   14.03   0
  -4  -4  -6  108.77   12.87   0
   4   4   6   94.33   12.43   0
  -5  -4  -6   41.22    9.62   0
  -5  -4  -6   64.71   10.88   0
  -5  -4  -6   49.97    9.59   0
   5   4   6   69.47   13.66   0
   5   4   6   54.16    6.77   0
   5   4   6   49.83    7.55   0
  -8   5   6   74.61   13.61   0
  -8   5   6   64.58   11.47   0
   7  -5  -6   83.94   12.33   0
   7  -5  -6   90.84   12.27   0
   7  -5  -6   71.34   12.33   0
  -7   5   6   88.26   11.15   0
  -7   5   6   75.58    9.67   0
   6  -5  -6    9.26    5.04   0
   6  -5  -6    6.61    5.68   0
   6  -5  -6    8.43    4.92   0
  -6   5   6   10.21    4.17   0
  -6   5   6    4.80    4.54   0
   5  -5  -6  803.09   39.06   0
   5  -5  -6  792.98   38.18   0
   5  -5  -6  816.21   38.14   0
  -5   5   6  776.90   37.03   0
  -5   5   6  808.51   37.61   0
   4  -5  -6  999.08   47.37   0
   4  -5  -6  995.74   45.91   0
   4  -5  -6 1002.65   45.70   0
  -4   5   6  958.66   44.95   0
  -4   5   6 1010.86   45.28   0
   3  -5  -6 1921.67   86.74   0
   3  -5  -6 1980.58   86.48   0
   3  -5  -6 1983.93   88.50   0
  -3   5   6 1997.17   86.03   0
  -3   5   6 1932.60   85.99   0
   2  -5  -6  484.76   24.11   0
   2  -5  -6  495.71   25.84   0
   2  -5  -6  484.35   23.58   0
  -2   5   6  504.55   22.91   0
  -2   5   6  475.11   22.91   0
   1  -5  -6    1.15    3.22   0
   1  -5  -6    4.60    3.41   0
   1  -5  -6    5.53    4.17   0
  -1   5   6    4.73    2.30   0
   0  -5  -6   19.67    5.58   0
   0  -5  -6   16.24    3.98   0
   0  -5  -6   14.21    4.42   0
   0   5   6   12.02    5.45   0
  -1  -5  -6   21.69    6.11   0
  -1  -5  -6   26.12    5.86   0
  -1  -5  -6   21.86    5.14   0
   1   5   6   20.55    5.25   0
  -2  -5  -6 1123.62   54.91   0
  -2  -5  -6 1176.72   54.46   0
  -2  -5  -6 1189.98   57.29   0
  -2  -5  -6 1177.45   55.94   0
   2   5   6 1206.59   56.33   0
  -3  -5  -6  369.93   21.86   0
  -3  -5  -6  335.57   25.15   0
  -3  -5  -6  342.65   21.54   0
  -3  -5  -6  344.87   21.13   0
   3   5   6  305.98   17.08   0
   3   5   6  340.08   21.77   0
  -4  -5  -6   97.36   15.51   0
  -4  -5  -6   97.13   15.43   0
  -4  -5  -6  110.15   15.19   0
  -4  -5  -6   76.71   14.85   0
   4   5   6  118.45    9.41   0
   4   5   6  118.53   14.54   0
   7  -6  -6  167.49   16.58   0
   7  -6  -6  156.78   16.71   0
   7  -6  -6  178.03   16.83   0
  -7   6   6  157.12   15.16   0
  -7   6   6  189.32   13.65   0
   6  -6  -6  240.53   17.18   0
   6  -6  -6  213.31   17.66   0
   6  -6  -6  197.64   15.90   0
   6  -6  -6  208.73   16.72   0
  -6   6   6  215.28   15.45   0
  -6   6   6  266.08   14.89   0
   4  -6  -6  152.72   12.53   0
   4  -6  -6  151.11   11.41   0
   4  -6  -6  156.13   13.57   0
  -4   6   6  151.25   10.85   0
  -4   6   6  151.06   10.76   0
   3  -6  -6  195.36   14.70   0
   3  -6  -6  181.93   13.38   0
   3  -6  -6  192.13   12.49   0
  -3   6   6  189.72   11.77   0
  -3   6   6  198.43   11.75   0
   2  -6  -6  318.21   17.30   0
   2  -6  -6  294.65   17.97   0
   2  -6  -6  323.25   19.70   0
  -2   6   6  304.73   16.58   0
  -2   6   6  366.64   16.82   0
   1  -6  -6   12.97    4.01   0
   1  -6  -6   19.28    5.27   0
   1  -6  -6   11.13    5.22   0
  -1   6   6   16.21    3.58   0
  -1   6   6   16.13    3.58   0
   0  -6  -6   18.74    5.62   0
   0  -6  -6   15.47    6.50   0
   0  -6  -6   19.97    5.13   0
   0   6   6   14.74    3.60   0
   0   6   6   16.97    3.76   0
  -1  -6  -6   28.03    6.20   0
  -1  -6  -6   36.19    7.91   0
   1   6   6   27.90    4.60   0
   1   6   6   43.62    8.08   0
  -2  -6  -6   49.74    8.74   0
  -2  -6  -6   49.59    9.34   0
  -2  -6  -6   30.35    6.76   0
  -2  -6  -6   55.81   11.00   0
   2   6   6   33.73    7.33   0
   2   6   6   43.93    7.61   0
  -3  -6  -6   26.33   11.48   0
  -3  -6  -6   20.93    8.76   0
  -3  -6  -6   24.65    8.75   0
  -3  -6  -6   37.12    9.81   0
   3   6   6   16.42    7.35   0
   3   6   6   15.55    4.91   0
   6  -7  -6  106.45   15.06   0
   6  -7  -6   79.81   14.30   0
   6  -7  -6   79.70   13.15   0
   6  -7  -6  121.41   15.22   0
  -6   7   6  117.91   12.24   0
  -6   7   6   89.96   12.87   0
   5  -7  -6  322.46   20.59   0
   5  -7  -6  283.70   18.82   0
   5  -7  -6  295.25   20.23   0
   5  -7  -6  287.99   20.62   0
  -5   7   6  299.36   18.13   0
  -5   7   6  307.34   18.74   0
   4  -7  -6  804.31   36.44   0
   4  -7  -6  674.59   35.00   0
   4  -7  -6  706.35   37.08   0
  -4   7   6  691.05   34.42   0
  -4   7   6  678.93   34.25   0
   3  -7  -6  662.72   33.02   0
   3  -7  -6  608.90   31.22   0
   3  -7  -6  595.79   30.13   0
  -3   7   6  549.02   29.17   0
  -3   7   6  605.12   29.38   0
   2  -7  -6   -0.61    5.03   0
   2  -7  -6    7.45    4.62   0
  -2   7   6    3.38    4.45   0
  -2   7   6    3.09    4.29   0
   1  -7  -6  273.21   16.78   0
   1  -7  -6  270.95   18.17   0
   1  -7  -6  278.50   19.52   0
  -1   7   6  253.50   14.90   0
  -1   7   6  249.62   14.93   0
   0  -7  -6   10.42    5.66   0
   0  -7  -6    6.98    7.25   0
   0  -7  -6    6.59    7.32   0
   0   7   6    5.25    4.10   0
   0   7   6    0.59    4.38   0
  -1  -7  -6  106.05   16.14   0
  -1  -7  -6  101.55   13.28   0
   1   7   6   98.90   11.04   0
   1   7   6  108.29   14.16   0
  -2  -7  -6  363.60   25.94   0
  -2  -7  -6  335.17   23.19   0
  -2  -7  -6  369.37   27.72   0
  -2  -7  -6  344.31   24.93   0
   2   7   6  361.84   24.69   0
   2   7   6  357.71   19.65   0
   5  -8  -6  212.29   18.04   0
   5  -8  -6  204.50   20.55   0
   5  -8  -6  216.12   19.83   0
   5  -8  -6  209.44   19.54   0
  -5   8   6  238.99   16.93   0
  -5   8   6  238.98   17.23   0
   4  -8  -6 1703.85   78.53   0
   4  -8  -6 1555.87   77.04   0
   4  -8  -6 1666.15   76.35   0
  -4   8   6 1731.35   75.80   0
  -4   8   6 1689.98   75.52   0
   3  -8  -6  672.54   35.87   0
   3  -8  -6  621.15   34.18   0
   3  -8  -6  643.04   33.20   0
  -3   8   6  640.53   32.24   0
  -3   8   6  679.45   32.58   0
   2  -8  -6   65.08    9.72   0
   2  -8  -6   64.45   11.31   0
   2  -8  -6   70.33   11.37   0
  -2   8   6   71.23   10.35   0
  -2   8   6   55.15    7.56   0
   1  -8  -6   48.91    8.90   0
   1  -8  -6   69.16   12.44   0
   1  -8  -6   58.22   11.70   0
  -1   8   6   49.69    6.88   0
  -1   8   6   64.58    9.78   0
   0  -8  -6   10.72    6.71   0
   0  -8  -6    9.69    8.96   0
   0  -8  -6    1.55    9.22   0
   0   8   6    2.71    6.03   0
   0   8   6   12.40    5.74   0
  -1  -8  -6   71.40   14.90   0
  -1  -8  -6   75.86   12.59   0
  -1  -8  -6   88.65   14.99   0
   1   8   6   63.96    8.76   0
   1  11  -7   37.66   12.35   0
   1  11  -7   27.96    8.60   0
   1  11  -7   34.09    7.27   0
  -1 -11   7   15.93   10.62   0
   0  11  -7    9.56    9.60   0
   0  11  -7   10.42    5.66   0
   0  11  -7   17.26    9.44   0
   0 -11   7    6.74    6.24   0
   0 -11   7    0.41   10.11   0
   0 -11   7   18.43    6.39   0
  -1  11  -7  -11.01    9.75   0
  -1  11  -7    9.22    9.18   0
   1 -11   7    5.33    6.06   0
   1 -11   7    2.59    6.37   0
   1 -11   7   -0.09    8.64   0
  -2  11  -7    6.93    8.61   0
  -2  11  -7   25.66    9.77   0
   2 -11   7    2.15    6.49   0
   2 -11   7   15.70    7.97   0
   2 -11   7    9.82    6.97   0
  -3  11  -7  586.92   33.95   0
  -3  11  -7  578.26   33.70   0
   3 -11   7  573.95   33.03   0
   3 -11   7  586.42   31.55   0
   3 -11   7  629.79   31.64   0
   3  10  -7  114.59   13.98   0
   3  10  -7  104.92   16.47   0
   3  10  -7  121.66   19.29   0
  -3 -10   7  126.40   10.87   0
  -3 -10   7  119.85   18.77   0
  -3 -10   7  120.11   10.44   0
  -3 -10   7  103.17   13.56   0
   2  10  -7  298.42   22.73   0
   2  10  -7  317.73   21.36   0
   2  10  -7  310.98   19.31   0
  -2 -10   7  311.72   19.28   0
  -2 -10   7  321.93   17.48   0
  -2 -10   7  321.91   22.46   0
   1  10  -7   67.06   11.90   0
   1  10  -7   92.67   10.04   0
   1  10  -7   75.27   10.68   0
  -1 -10   7   96.56    9.07   0
  -1 -10   7   84.10   10.38   0
   0  10  -7  482.57   28.43   0
   0  10  -7  468.10   23.77   0
   0  10  -7  429.92   26.07   0
   0 -10   7  459.14   24.16   0
   0 -10   7  518.22   28.13   0
   0 -10   7  475.78   24.52   0
  -1  10  -7  675.51   35.92   0
  -1  10  -7  707.07   36.76   0
   1 -10   7  697.36   34.53   0
   1 -10   7  743.13   34.50   0
   1 -10   7  713.15   36.55   0
  -2  10  -7   20.88    7.17   0
   2 -10   7   38.84    7.95   0
   2 -10   7   34.96    6.61   0
   2 -10   7   36.18    6.34   0
  -3  10  -7  168.57   16.08   0
  -3  10  -7  192.27   16.64   0
   3 -10   7  206.83   14.61   0
   3 -10   7  192.00   16.13   0
   3 -10   7  168.29   13.99   0
  -4  10  -7   95.56   14.72   0
   4 -10   7   62.05    8.85   0
   4 -10   7   72.31   11.77   0
   4 -10   7   70.41   12.63   0
  -5  10  -7   23.45   10.03   0
  -5  10  -7   12.27    9.79   0
   5 -10   7   13.95    7.93   0
   5 -10   7    7.98    7.85   0
   4   9  -7  483.63   28.33   0
   4   9  -7  472.51   30.17   0
   4   9  -7  484.08   27.66   0
  -4  -9   7  499.79   29.91   0
  -4  -9   7  507.93   24.02   0
  -4  -9   7  465.57   26.34   0
   3   9  -7    5.88    5.65   0
   3   9  -7    2.67    7.64   0
   3   9  -7   13.37    5.67   0
  -3  -9   7    8.20    4.06   0
  -3  -9   7   -3.68    5.13   0
   2   9  -7   53.59    8.52   0
   2   9  -7   64.09    9.08   0
  -2  -9   7   64.55    8.83   0
  -2  -9   7   63.82    9.01   0
   1   9  -7  130.41   14.00   0
   1   9  -7  115.49    9.56   0
   1   9  -7  101.06   11.23   0
  -1  -9   7  102.45    9.56   0
  -1  -9   7  114.90    8.79   0
  -1  -9   7  128.24   13.59   0
   0   9  -7   -4.88    6.95   0
   0   9  -7    2.62    4.93   0
   0  -9   7    3.53    3.85   0
   0  -9   7   -5.52    3.48   0
   0  -9   7   -5.42    5.53   0
  -1   9  -7  799.49   39.25   0
  -1   9  -7  808.53   39.41   0
   1  -9   7  771.89   39.19   0
   1  -9   7  810.98   38.00   0
   1  -9   7  836.18   37.91   0
  -2   9  -7  398.48   22.52   0
  -2   9  -7  378.35   22.68   0
   2  -9   7  400.15   22.58   0
   2  -9   7  407.51   21.33   0
   2  -9   7  418.57   21.55   0
  -3   9  -7   96.15   12.89   0
   3  -9   7  105.47   11.06   0
   3  -9   7  119.68   10.61   0
   3  -9   7  127.65   12.14   0
  -4   9  -7  435.40   22.09   0
   4  -9   7  354.17   21.67   0
   4  -9   7  376.75   21.35   0
   4  -9   7  346.48   21.12   0
  -5   9  -7   40.00    8.69   0
   5  -9   7   35.87    7.78   0
   5  -9   7   47.29    7.61   0
   5  -9   7   47.86    7.71   0
  -6   9  -7  234.78   20.84   0
  -6   9  -7  234.24   18.64   0
   6  -9   7  217.64   18.31   0
   6  -9   7  209.50   17.72   0
   5   8  -7  361.89   23.20   0
   5   8  -7  331.29   22.85   0
   5   8  -7  361.34   25.40   0
  -5  -8   7  328.98   17.64   0
  -5  -8   7  345.39   21.32   0
  -5  -8   7  362.63   23.94   0
   4   8  -7  609.10   34.14   0
   4   8  -7  679.28   34.52   0
   4   8  -7  668.66   35.20   0
  -4  -8   7  702.89   35.18   0
  -4  -8   7  684.67   30.57   0
  -4  -8   7  643.62   32.84   0
   3   8  -7  535.82   27.99   0
   3   8  -7  509.74   28.06   0
   3   8  -7  615.41   29.97   0
  -3  -8   7  548.99   29.09   0
  -3  -8   7  530.94   25.13   0
  -3  -8   7  516.43   26.88   0
   2   8  -7  835.15   37.36   0
   2   8  -7  804.33   38.86   0
   2   8  -7  804.33   38.03   0
  -2  -8   7  701.69   36.28   0
  -2  -8   7  726.49   37.92   0
  -2  -8   7  816.98   35.37   0
   1   8  -7   60.64    6.89   0
   1   8  -7   44.79    7.31   0
   1   8  -7   46.83    7.86   0
  -1  -8   7   54.00    5.79   0
  -1  -8   7   56.47    7.50   0
  -1  -8   7   49.39    6.61   0
   0   8  -7  106.27    7.71   0
   0   8  -7  104.61    9.64   0
   0   8  -7  133.06   11.23   0
   0  -8   7  119.77    8.56   0
   0  -8   7  128.23   11.70   0
  -1   8  -7   97.06    9.77   0
  -1   8  -7  114.64   10.04   0
   1  -8   7  100.58    8.15   0
   1  -8   7  114.25    8.36   0
   1  -8   7  100.60   10.56   0
  -2   8  -7  126.24   11.75   0
  -2   8  -7  156.60   11.12   0
   2  -8   7  144.39   10.05   0
   2  -8   7  142.08   10.19   0
   2  -8   7  137.83   11.51   0
  -3   8  -7  422.35   21.82   0
  -3   8  -7  420.32   22.64   0
   3  -8   7  426.34   22.00   0
   3  -8   7  461.52   21.90   0
   3  -8   7  357.60   21.70   0
  -4   8  -7  584.41   28.59   0
   4  -8   7  586.77   29.67   0
   4  -8   7  537.68   28.48   0
   4  -8   7  588.50   28.62   0
  -5   8  -7  832.09   42.51   0
  -5   8  -7  940.57   41.33   0
   5  -8   7  849.30   40.79   0
   5  -8   7  871.35   42.71   0
   5  -8   7  826.46   40.98   0
  -6   8  -7   79.27   12.71   0
  -6   8  -7   44.82   10.29   0
   6  -8   7   68.49   11.77   0
   6  -8   7   76.96   10.47   0
   6  -8   7   49.83    8.85   0
   6   7  -7    0.13    8.96   0
   6   7  -7   -8.21    7.85   0
   6   7  -7   -5.34    7.19   0
  -6  -7   7   -6.67    6.49   0
  -6  -7   7    6.98    7.98   0
  -6  -7   7   -1.02    4.42   0
   5   7  -7    7.91    7.25   0
   5   7  -7    5.61    5.84   0
   5   7  -7   12.84    7.08   0
  -5  -7   7   -4.07    4.83   0
  -5  -7   7   -6.29    6.19   0
   4   7  -7  202.24   14.69   0
   4   7  -7  160.22   14.07   0
   4   7  -7  235.43   15.72   0
  -4  -7   7  205.82   13.16   0
  -4  -7   7  157.04   14.37   0
   3   7  -7  992.96   46.40   0
   3   7  -7 1015.37   47.07   0
   3   7  -7  941.16   46.46   0
  -3  -7   7 1019.74   45.40   0
  -3  -7   7  973.65   46.46   0
   2   7  -7 1959.51   85.91   0
   2   7  -7 1755.31   85.95   0
   2   7  -7 2019.01   85.76   0
  -2  -7   7 2040.65   83.55   0
  -2  -7   7 1933.58   84.73   0
  -2  -7   7 1845.60   85.63   0
   1   7  -7 1138.22   51.58   0
   1   7  -7 1188.58   52.63   0
   1   7  -7 1131.38   52.84   0
  -1  -7   7 1068.69   52.28   0
  -1  -7   7 1208.57   50.85   0
  -1  -7   7 1166.44   51.36   0
   0   7  -7   16.35    3.87   0
   0   7  -7   23.61    3.61   0
   0   7  -7   19.27    4.44   0
   0  -7   7   22.88    4.00   0
   0  -7   7   16.92    3.20   0
   0  -7   7   18.79    4.53   0
  -1   7  -7   47.08    6.41   0
  -1   7  -7   44.03    5.86   0
   1  -7   7   42.14    7.26   0
  -2   7  -7    5.77    3.79   0
  -2   7  -7   11.60    3.38   0
   2  -7   7   20.53    4.05   0
   2  -7   7    8.61    3.81   0
  -3   7  -7  859.91   39.56   0
  -3   7  -7  817.61   40.22   0
   3  -7   7  887.07   39.52   0
   3  -7   7  874.63   40.59   0
   3  -7   7  854.02   39.61   0
  -4   7  -7  882.84   42.87   0
  -4   7  -7  865.45   42.71   0
  -4   7  -7  905.16   41.85   0
   4  -7   7  906.18   41.72   0
   4  -7   7  915.23   43.12   0
   4  -7   7  940.62   41.81   0
  -5   7  -7   71.83   10.50   0
  -5   7  -7   72.03   10.81   0
  -5   7  -7   86.54    9.84   0
   5  -7   7   83.75    9.38   0
   5  -7   7   71.46    9.58   0
   5  -7   7   76.88    8.83   0
  -6   7  -7    0.54    6.64   0
  -6   7  -7    2.93    6.22   0
  -6   7  -7    1.12    6.35   0
   6  -7   7   -4.89    4.72   0
   6  -7   7   -0.76    5.34   0
   6  -7   7   -1.65    4.82   0
  -7   7  -7   94.67   15.84   0
  -7   7  -7   87.39   10.42   0
  -7   7  -7   74.57   11.44   0
   7  -7   7   81.24   11.58   0
   7  -7   7   94.78   11.63   0
   6   6  -7   40.79    9.35   0
   6   6  -7   31.52    7.74   0
   6   6  -7   38.88    9.45   0
  -6  -6   7   48.68    6.37   0
  -6  -6   7   38.19    6.71   0
   5   6  -7  308.89   20.41   0
   5   6  -7  302.54   19.64   0
  -5  -6   7  335.86   19.33   0
  -5  -6   7  317.46   18.22   0
   4   6  -7  232.62   15.49   0
   4   6  -7  218.49   14.67   0
   4   6  -7  225.67   14.98   0
  -4  -6   7  190.23   13.75   0
   3   6  -7  481.70   25.78   0
   3   6  -7  552.36   26.04   0
   3   6  -7  458.35   25.08   0
  -3  -6   7  519.39   25.21   0
   2   6  -7 1216.08   55.49   0
   2   6  -7 1232.30   55.34   0
   2   6  -7 1212.86   55.17   0
  -2  -6   7 1248.75   54.19   0
  -2  -6   7 1187.02   54.86   0
   1   6  -7  808.26   35.70   0
   1   6  -7  760.59   36.32   0
   1   6  -7  803.63   36.26   0
  -1  -6   7  747.45   35.81   0
  -1  -6   7  797.58   34.51   0
  -1  -6   7  765.90   35.06   0
   0   6  -7  196.50   11.48   0
   0   6  -7  210.41   10.11   0
   0   6  -7  198.65   11.55   0
   0  -6   7  206.47   10.49   0
   0  -6   7  204.40   10.49   0
   0  -6   7  192.13   11.40   0
  -1   6  -7    8.33    2.71   0
  -1   6  -7   16.14    3.73   0
   1  -6   7    5.99    2.49   0
   1  -6   7    8.04    2.22   0
   1  -6   7   11.18    3.16   0
  -2   6  -7  377.62   19.51   0
  -2   6  -7  387.71   18.92   0
  -2   6  -7  410.92   19.74   0
   2  -6   7  382.47   18.63   0
   2  -6   7  390.98   19.55   0
   2  -6   7  379.24   19.06   0
  -3   6  -7   44.17    5.51   0
  -3   6  -7   37.69    5.47   0
   3  -6   7   30.39    4.89   0
   3  -6   7   30.01    5.29   0
   3  -6   7   35.51    5.89   0
  -4   6  -7   26.97    4.83   0
  -4   6  -7   46.68    6.77   0
  -4   6  -7   24.91    5.45   0
   4  -6   7   43.11    6.40   0
   4  -6   7   34.68    6.48   0
  -5   6  -7   53.06    9.04   0
  -5   6  -7   50.53    7.68   0
  -5   6  -7   61.64    9.83   0
   5  -6   7   60.52    7.57   0
   5  -6   7   63.68    8.20   0
   5  -6   7   57.54    8.26   0
  -6   6  -7    0.45    5.87   0
  -6   6  -7    8.58    5.89   0
   6  -6   7    1.47    4.38   0
   6  -6   7   10.92    5.43   0
   6  -6   7    4.53    2.22   0
   6  -6   7    6.83    4.36   0
  -7   6  -7  172.01   14.33   0
  -7   6  -7  161.58   16.95   0
  -7   6  -7  139.52   16.56   0
   7  -6   7  140.17   14.65   0
   7  -6   7  151.16   13.34   0
   7  -6   7  135.29   12.17   0
   7   5  -7   11.55    7.96   0
   7   5  -7   -8.19    7.66   0
   7   5  -7   -6.56    7.29   0
  -7  -5   7   -1.48    6.57   0
  -7  -5   7   -0.70    4.18   0
  -7  -5   7    0.97    7.13   0
   6   5  -7  211.41   15.78   0
   6   5  -7  206.93   16.45   0
   6   5  -7  211.40   17.67   0
  -6  -5   7  244.26   11.79   0
  -6  -5   7  193.77   14.80   0
  -6  -5   7  177.80   14.78   0
   5   5  -7  181.46   13.66   0
   5   5  -7  185.63   13.00   0
  -5  -5   7  175.50   12.17   0
  -5  -5   7  155.55   11.49   0
   4   5  -7  377.18   20.35   0
   4   5  -7  391.60   20.12   0
   4   5  -7  360.86   21.19   0
  -4  -5   7  373.15   18.96   0
  -4  -5   7  361.17   19.48   0
   3   5  -7  785.91   37.67   0
   3   5  -7  803.05   36.73   0
   3   5  -7  789.10   36.86   0
  -3  -5   7  750.03   36.06   0
  -3  -5   7  790.75   35.74   0
   2   5  -7  147.78    9.56   0
   2   5  -7  135.15    9.26   0
   2   5  -7  138.62    9.04   0
  -2  -5   7  141.30    7.87   0
  -2  -5   7  122.30    8.42   0
   1   5  -7   72.58    6.37   0
   1   5  -7   80.44    5.93   0
  -1  -5   7   75.67    4.95   0
  -1  -5   7   71.76    5.79   0
   0   5  -7  240.49   10.66   0
   0   5  -7  207.67   11.41   0
   0   5  -7  219.83   11.73   0
   0  -5   7  220.05   10.82   0
   0  -5   7  209.99   10.58   0
   0  -5   7  216.12   11.08   0
  -1   5  -7  852.51   37.56   0
  -1   5  -7  801.26   37.20   0
  -1   5  -7  824.06   37.62   0
   1  -5   7  857.69   37.63   0
  -2   5  -7    3.10    2.09   0
  -2   5  -7   -2.73    2.31   0
   2  -5   7    0.38    2.22   0
   2  -5   7    0.13    2.13   0
  -3   5  -7  225.09   13.56   0
  -3   5  -7  254.51   12.49   0
   3  -5   7  227.22   11.84   0
   3  -5   7  229.32   13.35   0
   3  -5   7  229.39   12.10   0
  -4   5  -7  103.75    7.68   0
  -4   5  -7  109.99    8.42   0
  -4   5  -7   95.01    9.16   0
   4  -5   7   67.42    7.69   0
   4  -5   7   85.05    6.76   0
   4  -5   7   84.91    7.05   0
  -5   5  -7   25.28    5.77   0
  -5   5  -7   23.74    4.83   0
   5  -5   7   24.90    3.44   0
   5  -5   7   40.58    6.35   0
   5  -5   7   18.91    5.00   0
  -6   5  -7   74.36    8.83   0
  -6   5  -7   79.12   11.08   0
  -6   5  -7   61.32   11.05   0
   6  -5   7   58.53    9.36   0
   6  -5   7   67.28    6.18   0
   6  -5   7   69.18    8.12   0
   6  -5   7   66.01    8.42   0
  -7   5  -7    9.06    5.57   0
  -7   5  -7   27.65    7.66   0
  -7   5  -7   24.10    8.50   0
   7  -5   7   14.36    5.60   0
   7  -5   7   14.90    6.45   0
   7  -5   7   14.32    5.00   0
   7   4  -7  474.91   27.11   0
   7   4  -7  474.69   30.62   0
   7   4  -7  518.39   28.36   0
  -7  -4   7  490.53   24.05   0
  -7  -4   7  496.40   27.03   0
   6   4  -7   73.72   12.49   0
   6   4  -7   67.46    9.31   0
  -6  -4   7   60.06    8.78   0
  -6  -4   7   79.48    6.38   0
  -6  -4   7   64.23    8.73   0
   5   4  -7    4.80    3.76   0
   5   4  -7    4.04    4.39   0
   5   4  -7    5.66    4.40   0
  -5  -4   7    0.47    3.41   0
  -5  -4   7    6.22    3.44   0
   4   4  -7  155.31   10.85   0
   4   4  -7  162.63   10.49   0
   4   4  -7  162.14   12.12   0
  -4  -4   7  157.85    9.65   0
  -4  -4   7  153.07    9.92   0
   3   4  -7 2023.88   88.79   0
   3   4  -7 2006.94   89.81   0
   3   4  -7 2047.11   88.65   0
  -3  -4   7 1970.81   87.92   0
  -3  -4   7 2028.30   87.77   0
   2   4  -7 5383.53  237.60   0
   2   4  -7 5748.39  237.64   0
   2   4  -7 5341.12  238.23   0
  -2  -4   7 5635.05  236.85   0
  -2  -4   7 5490.25  236.55   0
   1   4  -7 3021.24  127.30   0
   1   4  -7 2926.60  127.20   0
   1   4  -7 2877.88  127.47   0
   0   4  -7   59.32    4.88   0
   0   4  -7   61.35    4.24   0
   0   4  -7   58.56    4.53   0
   0   4  -7   72.65    4.43   0
   0  -4   7   63.59    4.06   0
  -1   4  -7  471.13   21.34   0
  -1   4  -7  437.54   20.95   0
  -1   4  -7  471.48   20.72   0
   1  -4   7  437.18   21.20   0
  -2   4  -7  524.01   24.34   0
  -2   4  -7  533.80   25.33   0
  -2   4  -7  547.45   24.71   0
  -3   4  -7 2030.81   89.45   0
  -3   4  -7 1996.93   88.36   0
  -3   4  -7 2113.60   88.92   0
   3  -4   7 1966.44   89.56   0
  -4   4  -7  483.11   24.17   0
  -4   4  -7  473.48   23.47   0
  -4   4  -7  460.81   22.70   0
   4  -4   7  468.59   21.41   0
   4  -4   7  473.41   24.06   0
  -5   4  -7  152.96   11.88   0
  -5   4  -7  157.81   10.50   0
  -5   4  -7  154.48   11.15   0
   5  -4   7  152.39   11.35   0
   5  -4   7  159.92    9.76   0
   5  -4   7  142.43    9.28   0
   5  -4   7  136.94    8.65   0
  -6   4  -7   11.70    5.51   0
   6  -4   7    6.37    4.77   0
  -7   4  -7  270.36   17.64   0
  -7   4  -7  248.11   19.77   0
  -7   4  -7  260.62   20.01   0
   7  -4   7  277.18   16.18   0
   7  -4   7  280.27   16.27   0
   7  -4   7  292.40   16.82   0
   7  -4   7  290.19   19.33   0
   8   3  -7  579.67   36.83   0
   8   3  -7  581.29   32.94   0
   8   3  -7  624.99   33.84   0
  -8  -3   7  632.65   32.66   0
  -8  -3   7  600.28   31.79   0
   7   3  -7  681.37   38.80   0
   7   3  -7  670.78   35.84   0
   7   3  -7  750.66   36.89   0
  -7  -3   7  718.14   35.46   0
  -7  -3   7  745.76   35.25   0
   6   3  -7  167.59   12.99   0
   6   3  -7  147.27   14.83   0
   6   3  -7  184.77   12.49   0
  -6  -3   7  169.67   11.38   0
  -6  -3   7  153.05   11.38   0
   5   3  -7  427.00   24.45   0
   5   3  -7  410.42   22.10   0
   5   3  -7  465.67   22.99   0
  -5  -3   7  433.37   21.60   0
  -5  -3   7  442.55   21.80   0
   4   3  -7   75.70    7.10   0
   4   3  -7   72.84    6.55   0
  -4  -3   7   65.34    5.92   0
  -4  -3   7   87.95    6.22   0
   3   3  -7  956.16   48.59   0
   3   3  -7 1119.94   49.10   0
  -3  -3   7 1142.21   48.14   0
  -3  -3   7 1155.12   48.25   0
   2   3  -7 4959.94  212.49   0
   2   3  -7 4922.27  212.37   0
   1   3  -7 3091.04  130.10   0
   1   3  -7 2949.83  129.99   0
   0   3  -7   77.30    4.86   0
   0   3  -7   79.52    4.74   0
   0   3  -7   77.38    4.35   0
   0  -3   7   77.38    4.78   0
  -1   3  -7 2236.62   93.85   0
  -1   3  -7 2188.89   94.69   0
  -1   3  -7 2224.57   93.70   0
  -1   3  -7 2135.40   93.96   0
   1  -3   7 2108.14   94.77   0
  -2   3  -7 1690.30   71.38   0
  -2   3  -7 1737.61   70.34   0
  -2   3  -7 1536.49   69.90   0
   2  -3   7 1500.93   71.28   0
  -3   3  -7 1522.86   68.36   0
  -3   3  -7 1601.54   69.33   0
  -3   3  -7 1531.52   68.03   0
   3  -3   7 1529.55   69.36   0
   3  -3   7 1577.10   67.53   0
  -4   3  -7   28.40    4.52   0
  -4   3  -7   23.74    3.91   0
  -4   3  -7   20.49    4.73   0
   4  -3   7   28.48    3.80   0
   4  -3   7   25.22    4.62   0
  -5   3  -7   86.44    8.30   0
  -5   3  -7   81.85    9.85   0
   5  -3   7   89.20    9.23   0
   5  -3   7  110.79    7.52   0
  -6   3  -7  776.01   37.16   0
  -6   3  -7  785.62   38.39   0
  -6   3  -7  765.77   38.62   0
   6  -3   7  731.50   38.52   0
   6  -3   7  846.65   36.08   0
   6  -3   7  744.49   35.34   0
   6  -3   7  761.43   36.56   0
  -7   3  -7  106.81   12.21   0
  -7   3  -7   88.20   14.37   0
  -7   3  -7  101.46   13.91   0
   7  -3   7   80.59   10.24   0
   7  -3   7  106.93   10.94   0
   7  -3   7   96.78   13.04   0
   7  -3   7  106.54    9.97   0
   8   2  -7  111.41   13.76   0
   8   2  -7  110.03    9.21   0
   8   2  -7  102.57   13.94   0
   8   2  -7  137.81   18.33   0
  -8  -2   7   97.71   12.05   0
  -8  -2   7  106.02   13.31   0
   7   2  -7  369.70   18.40   0
   7   2  -7  341.45   23.97   0
   7   2  -7  375.92   21.32   0
  -7  -2   7  383.98   20.83   0
  -7  -2   7  350.98   20.05   0
   6   2  -7   18.72    4.49   0
   6   2  -7   11.64    4.80   0
   6   2  -7   15.15    2.92   0
   6   2  -7   10.71    5.86   0
  -6  -2   7   11.00    3.96   0
  -6  -2   7   15.50    4.37   0
   5   2  -7  453.15   21.39   0
   5   2  -7  462.54   23.88   0
   5   2  -7  476.00   23.52   0
  -5  -2   7  460.29   22.74   0
  -5  -2   7  508.14   23.10   0
   4   2  -7   47.38    5.68   0
   4   2  -7   47.67    3.12   0
   4   2  -7   46.85    5.10   0
  -4  -2   7   45.34    4.55   0
  -4  -2   7   49.22    4.66   0
   3   2  -7   51.51    4.93   0
   3   2  -7   50.23    4.46   0
   2   2  -7   52.43    4.19   0
   2   2  -7   52.74    3.85   0
   1   2  -7  113.09    5.81   0
   0   2  -7 5207.03  223.53   0
   0   2  -7 5208.33  223.43   0
  -1   2  -7  902.64   38.45   0
  -1   2  -7  852.64   38.84   0
   1  -2   7  845.24   39.08   0
  -2   2  -7  571.74   26.93   0
  -2   2  -7  579.52   26.45   0
  -2   2  -7  557.47   25.68   0
  -2   2  -7  561.24   25.81   0
   2  -2   7  600.22   26.06   0
   2  -2   7  566.80   27.12   0
  -3   2  -7   57.77    6.25   0
  -3   2  -7   52.23    5.15   0
  -3   2  -7   58.30    5.41   0
  -3   2  -7   63.67    6.11   0
   3  -2   7   64.87    6.14   0
   3  -2   7   66.62    4.93   0
  -4   2  -7  177.20   10.66   0
  -4   2  -7  195.82   11.49   0
  -4   2  -7  190.44   12.27   0
   4  -2   7  157.51   11.52   0
   4  -2   7  182.87   10.56   0
  -5   2  -7 1063.98   48.29   0
  -5   2  -7 1036.33   48.89   0
  -5   2  -7 1005.91   47.42   0
   5  -2   7 1080.68   49.30   0
   5  -2   7  993.30   47.41   0
  -6   2  -7  375.40   21.42   0
  -6   2  -7  366.95   22.10   0
  -6   2  -7  382.13   20.40   0
   6  -2   7  357.77   21.72   0
   6  -2   7  358.34   20.18   0
  -7   2  -7   -9.12    7.08   0
  -7   2  -7    1.91    7.19   0
   7  -2   7    7.90    5.45   0
   7  -2   7   -0.79    5.67   0
   7  -2   7   -3.42    5.85   0
   7  -2   7    9.46    4.87   0
   8   1  -7  118.14   10.16   0
   8   1  -7  150.67   14.38   0
   8   1  -7  109.77   14.02   0
   8   1  -7  114.44   17.15   0
  -8  -1   7  149.08   13.72   0
   7   1  -7   15.60    5.60   0
   7   1  -7   19.42    3.81   0
   7   1  -7   23.93    6.07   0
  -7  -1   7   30.18    5.30   0
  -7  -1   7   34.77    6.06   0
   6   1  -7  692.34   34.19   0
   6   1  -7  632.11   31.83   0
   6   1  -7  714.01   33.81   0
  -6  -1   7  797.71   33.58   0
  -6  -1   7  661.48   32.70   0
   5   1  -7  898.19   42.39   0
   5   1  -7  883.38   42.80   0
   5   1  -7  911.35   41.07   0
  -5  -1   7 1038.60   42.21   0
  -5  -1   7  888.39   41.58   0
   4   1  -7   53.05    5.03   0
   4   1  -7   46.50    4.00   0
   4   1  -7   50.18    5.57   0
  -4  -1   7   54.27    4.40   0
  -4  -1   7   47.43    3.92   0
   3   1  -7 1624.79   69.86   0
   3   1  -7 1618.55   69.59   0
   3   1  -7 1535.49   68.96   0
   2   1  -7 1477.46   62.44   0
   2   1  -7 1396.24   62.24   0
   1   1  -7    8.41    1.88   0
   0   1  -7  441.75   21.00   0
   0   1  -7  462.77   21.25   0
  -1   1  -7   57.10    4.83   0
  -1   1  -7   56.69    4.83   0
  -2   1  -7    5.39    2.61   0
  -2   1  -7    0.74    2.15   0
  -2   1  -7    1.93    1.60   0
  -2   1  -7   -1.22    1.72   0
   2  -1   7    1.82    1.61   0
  -3   1  -7  104.54    8.11   0
  -3   1  -7   95.94    7.07   0
  -3   1  -7   95.64    8.12   0
  -3   1  -7   91.28    6.65   0
   3  -1   7   92.67    7.03   0
   3  -1   7  102.32    7.83   0
  -4   1  -7    9.18    3.33   0
  -4   1  -7    5.95    4.23   0
  -4   1  -7    1.09    2.74   0
  -4   1  -7    4.89    3.92   0
   4  -1   7    4.05    3.03   0
  -5   1  -7  371.75   20.92   0
  -5   1  -7  353.87   19.30   0
  -5   1  -7  349.99   19.84   0
   5  -1   7  370.62   19.93   0
   5  -1   7  368.53   20.67   0
  -6   1  -7  325.09   19.41   0
  -6   1  -7  350.24   21.31   0
  -6   1  -7  345.25   20.30   0
   6  -1   7  337.02   20.71   0
   6  -1   7  333.30   19.97   0
  -7   1  -7   78.05   13.89   0
  -7   1  -7   36.96    7.78   0
  -7   1  -7   49.09    9.86   0
   8   0  -7  909.23   43.48   0
   8   0  -7  920.11   46.18   0
   8   0  -7  942.78   45.93   0
  -8   0   7 1046.61   45.62   0
  -8   0   7  850.85   43.84   0
   7   0  -7  771.06   36.83   0
   7   0  -7  826.54   39.15   0
   7   0  -7  791.74   38.49   0
  -7   0   7  724.94   36.99   0
  -7   0   7  843.64   38.18   0
   6   0  -7   40.78    6.25   0
   6   0  -7   43.83    7.07   0
   6   0  -7   47.27    5.64   0
  -6   0   7   48.96    6.69   0
  -6   0   7   44.44    5.65   0
   5   0  -7  384.27   18.68   0
   5   0  -7  385.83   19.58   0
   5   0  -7  379.77   19.93   0
  -5   0   7  359.39   18.34   0
  -5   0   7  410.77   18.97   0
   4   0  -7    7.64    2.85   0
   4   0  -7   12.00    2.63   0
   4   0  -7   12.13    2.85   0
  -4   0   7   13.90    2.47   0
  -4   0   7   10.29    2.26   0
   3   0  -7  147.77    8.57   0
   3   0  -7  152.41    8.17   0
   2   0  -7 1632.37   68.22   0
   2   0  -7 1511.24   67.92   0
   1   0  -7  165.85    9.66   0
   0   0  -7  319.28   15.85   0
   0   0  -7  320.27   16.06   0
  -1   0  -7  739.77   34.30   0
  -1   0  -7  727.33   34.24   0
   1   0   7  764.34   34.34   0
  -2   0  -7    9.53    3.14   0
  -2   0  -7    7.56    2.08   0
  -2   0  -7    6.97    2.23   0
  -2   0  -7    5.80    2.86   0
  -3   0  -7  312.37   17.67   0
  -3   0  -7  317.53   16.95   0
  -3   0  -7  280.45   15.47   0
  -3   0  -7  302.39   15.50   0
   3   0   7  309.06   16.44   0
  -4   0  -7   46.08    9.13   0
  -4   0  -7   39.89    6.35   0
  -4   0  -7   43.32    7.29   0
  -4   0  -7   45.13    6.48   0
   4   0   7   34.15    6.51   0
  -5   0  -7   13.83    6.96   0
  -5   0  -7   12.32    4.84   0
  -5   0  -7   11.53    5.06   0
   5   0   7   19.30    4.86   0
  -6   0  -7   31.43    7.00   0
  -6   0  -7   25.72    7.55   0
   6   0   7   30.64    6.80   0
   8  -1  -7  979.42   47.34   0
   8  -1  -7 1066.46   49.88   0
   8  -1  -7  966.43   48.74   0
  -8   1   7 1119.42   48.67   0
  -8   1   7  934.78   46.91   0
   7  -1  -7  887.56   39.84   0
   7  -1  -7  799.33   37.64   0
   7  -1  -7  854.17   39.10   0
  -7   1   7  689.76   36.88   0
  -7   1   7  764.92   37.87   0
   6  -1  -7 1106.48   50.56   0
   6  -1  -7 1081.45   49.72   0
   6  -1  -7 1135.25   51.01   0
  -6   1   7 1124.23   49.74   0
  -6   1   7 1024.93   49.02   0
   5  -1  -7  606.17   28.38   0
   5  -1  -7  604.43   29.05   0
   5  -1  -7  601.70   28.76   0
  -5   1   7  585.72   27.43   0
  -5   1   7  597.99   27.84   0
   4  -1  -7  301.20   14.91   0
   4  -1  -7  289.53   15.12   0
   4  -1  -7  296.83   14.93   0
  -4   1   7  270.66   13.76   0
   3  -1  -7   71.44    5.58   0
   3  -1  -7   80.03    5.33   0
   2  -1  -7    3.70    1.77   0
   2  -1  -7    3.33    1.45   0
   1  -1  -7  494.03   23.96   0
   0  -1  -7 2328.89  102.18   0
  -1  -1  -7 2181.80   94.84   0
  -1  -1  -7 2057.69   92.93   0
  -1  -1  -7 2124.21   94.71   0
  -1  -1  -7 2136.76   93.01   0
   1   1   7 2247.68   94.98   0
  -2  -1  -7  313.86   16.03   0
  -2  -1  -7  323.53   17.93   0
  -2  -1  -7  332.39   17.53   0
  -2  -1  -7  306.16   15.77   0
   2   1   7  334.26   17.40   0
  -3  -1  -7    5.08    3.73   0
  -3  -1  -7    8.18    4.79   0
  -3  -1  -7   12.94    3.69   0
  -3  -1  -7   11.56    3.31   0
   3   1   7   14.01    3.79   0
  -4  -1  -7  647.52   31.86   0
  -4  -1  -7  629.60   30.60   0
  -4  -1  -7  612.41   33.23   0
  -4  -1  -7  610.94   30.51   0
   4   1   7  647.16   31.67   0
  -5  -1  -7  812.12   38.81   0
  -5  -1  -7  787.34   37.43   0
  -5  -1  -7  737.67   37.30   0
  -5  -1  -7  726.03   40.43   0
   5   1   7  769.16   38.28   0
  -6  -1  -7  224.03   16.07   0
  -6  -1  -7  254.27   19.43   0
  -6  -1  -7  208.74   17.34   0
   6   1   7  210.27   17.96   0
   8  -2  -7   24.33    6.91   0
   8  -2  -7   14.67    5.98   0
   8  -2  -7   35.51    7.94   0
  -8   2   7   22.19    5.57   0
  -8   2   7   26.86    6.74   0
   7  -2  -7  443.20   22.92   0
   7  -2  -7  464.11   23.88   0
  -7   2   7  405.88   21.47   0
  -7   2   7  397.60   22.28   0
   6  -2  -7 1366.10   65.19   0
   6  -2  -7 1480.62   65.77   0
   6  -2  -7 1503.38   66.04   0
  -6   2   7 1392.86   64.13   0
  -6   2   7 1497.18   64.82   0
   5  -2  -7 3332.31  145.07   0
   5  -2  -7 3355.06  145.04   0
   5  -2  -7 3461.06  145.40   0
  -5   2   7 3170.52  143.99   0
  -5   2   7 3322.73  143.79   0
   4  -2  -7 1344.71   59.29   0
   4  -2  -7 1408.49   59.63   0
   4  -2  -7 1330.87   59.71   0
  -4   2   7 1270.29   58.21   0
  -4   2   7 1307.82   58.11   0
   3  -2  -7   17.93    2.82   0
   3  -2  -7   14.30    2.79   0
   2  -2  -7   43.94    3.80   0
   2  -2  -7   42.10    5.56   0
   1  -2  -7  307.96   16.48   0
   1  -2  -7  305.38   14.36   0
   1  -2  -7  298.46   14.41   0
   0  -2  -7 2223.69   96.29   0
   0  -2  -7 2220.24   96.39   0
   0  -2  -7 2230.12   98.30   0
  -1  -2  -7 1783.96   80.53   0
  -1  -2  -7 1788.00   78.66   0
  -1  -2  -7 1771.69   80.37   0
  -1  -2  -7 1850.35   78.70   0
   1   2   7 1803.69   80.60   0
   2   2   7   41.24    6.42   0
  -3  -2  -7  108.98    9.24   0
  -3  -2  -7  122.95   12.40   0
  -3  -2  -7  111.88   10.14   0
  -3  -2  -7   97.20    9.24   0
   3   2   7   85.42    9.14   0
  -4  -2  -7  867.18   42.14   0
  -4  -2  -7  827.60   44.77   0
  -4  -2  -7  961.67   43.65   0
  -4  -2  -7  839.73   41.91   0
   4   2   7  936.02   43.49   0
  -5  -2  -7  836.26   42.07   0
  -5  -2  -7  867.44   43.17   0
  -5  -2  -7  776.00   42.12   0
  -5  -2  -7 1004.83   47.13   0
   5   2   7  837.37   43.19   0
  -6  -2  -7  981.99   50.50   0
  -6  -2  -7 1059.44   54.81   0
  -6  -2  -7  923.81   49.05   0
  -6  -2  -7 1056.95   51.61   0
   6   2   7 1043.57   51.18   0
   8  -3  -7  413.46   23.95   0
   8  -3  -7  361.99   22.94   0
   8  -3  -7  385.03   24.30   0
  -8   3   7  427.01   23.22   0
  -8   3   7  399.08   21.65   0
   7  -3  -7   88.86   10.70   0
   7  -3  -7   92.98   11.56   0
  -7   3   7   88.07    8.43   0
  -7   3   7   78.60    9.48   0
   6  -3  -7  267.31   16.57   0
   6  -3  -7  253.02   16.22   0
   6  -3  -7  281.40   16.67   0
  -6   3   7  275.31   15.16   0
  -6   3   7  274.41   14.68   0
   5  -3  -7 1128.14   50.31   0
   5  -3  -7 1160.84   50.10   0
   5  -3  -7 1143.12   50.24   0
  -5   3   7 1104.43   48.60   0
  -5   3   7  917.89   48.55   0
   4  -3  -7 1219.54   53.30   0
  -4   3   7 1185.55   52.26   0
  -4   3   7 1150.97   52.11   0
   3  -3  -7    0.02    2.38   0
   3  -3  -7    4.12    3.26   0
   2  -3  -7  200.42   11.19   0
   2  -3  -7  212.17   13.07   0
   2  -3  -7  219.12   10.95   0
   1  -3  -7    9.47    3.79   0
   1  -3  -7   12.90    2.74   0
   1  -3  -7    8.08    2.52   0
   0  -3  -7  370.73   20.41   0
   0  -3  -7  387.38   18.44   0
   0  -3  -7  378.31   18.46   0
  -1  -3  -7  450.40   23.79   0
  -1  -3  -7  514.26   22.12   0
  -1  -3  -7  420.34   23.17   0
   1   3   7  378.05   23.00   0
   2   3   7   73.98    8.71   0
   3   3   7  190.75   14.32   0
  -4  -3  -7  194.33   14.80   0
  -4  -3  -7  145.52   14.04   0
  -4  -3  -7  159.31   14.34   0
   4   3   7  138.78   13.72   0
  -5  -3  -7  344.76   28.12   0
  -5  -3  -7  381.88   23.14   0
  -5  -3  -7  361.85   24.03   0
  -5  -3  -7  363.55   23.80   0
   5   3   7  378.98   24.03   0
   8  -4  -7   58.51    9.60   0
   8  -4  -7   74.35   11.02   0
  -8   4   7   94.79   12.78   0
   7  -4  -7  216.74   16.76   0
   7  -4  -7  233.58   16.85   0
  -7   4   7  233.53   14.35   0
  -7   4   7  228.93   15.21   0
   6  -4  -7  448.34   23.68   0
   6  -4  -7  443.85   23.88   0
  -6   4   7  417.12   22.16   0
  -6   4   7  430.25   21.69   0
   5  -4  -7  107.81   10.16   0
   5  -4  -7  121.38    9.58   0
  -5   4   7  102.90    7.98   0
  -5   4   7  105.84    8.17   0
   4  -4  -7  310.13   18.26   0
   4  -4  -7  314.76   16.39   0
   4  -4  -7  291.93   16.45   0
  -4   4   7  289.82   15.14   0
  -4   4   7  300.62   15.05   0
   3  -4  -7  793.95   35.76   0
   3  -4  -7  773.32   37.86   0
   3  -4  -7  767.30   35.98   0
   2  -4  -7  216.82   11.46   0
   2  -4  -7  191.09   13.62   0
   2  -4  -7  207.08   11.90   0
   1  -4  -7  146.42   11.55   0
   1  -4  -7  151.82    9.74   0
   1  -4  -7  154.89    9.48   0
   0  -4  -7   64.76    9.18   0
   0  -4  -7   63.86    7.42   0
   0  -4  -7   69.39    6.94   0
  -1  -4  -7  103.12    9.03   0
  -1  -4  -7  111.17   11.67   0
  -1  -4  -7  130.08   10.40   0
   1   4   7   97.38   10.64   0
   2   4   7    1.55    4.78   0
  -3  -4  -7   75.68   11.68   0
  -3  -4  -7   83.40   11.36   0
  -4  -4  -7  113.91   18.94   0
   7  -5  -7  118.78   13.88   0
   7  -5  -7   83.08   13.37   0
   7  -5  -7   86.15   13.52   0
  -7   5   7   91.89   11.55   0
  -7   5   7   92.54   10.28   0
   6  -5  -7 1555.32   73.54   0
   6  -5  -7 1597.27   73.14   0
   6  -5  -7 1770.42   73.58   0
  -6   5   7 1517.45   71.85   0
  -6   5   7 1574.65   71.47   0
   5  -5  -7 2199.61  102.56   0
   5  -5  -7 2446.27  103.98   0
   5  -5  -7 2320.18  101.88   0
   5  -5  -7 2346.27  101.87   0
  -5   5   7 2223.90  100.67   0
  -5   5   7 2230.73  100.48   0
   4  -5  -7  240.01   15.26   0
   4  -5  -7  243.98   16.72   0
   4  -5  -7  263.38   14.82   0
  -4   5   7  231.65   13.44   0
  -4   5   7  274.40   13.75   0
   3  -5  -7   83.63    7.86   0
   3  -5  -7   75.01    8.56   0
   2  -5  -7   11.91    5.06   0
   2  -5  -7   18.82    4.33   0
   1  -5  -7  714.94   32.34   0
   1  -5  -7  667.03   32.72   0
   1  -5  -7  676.70   34.74   0
   0  -5  -7  358.38   18.44   0
   0  -5  -7  332.29   20.82   0
   0  -5  -7  340.90   18.97   0
  -1  -5  -7  108.60   12.23   0
  -1  -5  -7  104.35   13.15   0
  -1  -5  -7  109.97   10.38   0
  -2  -5  -7    0.15    7.88   0
  -2  -5  -7   -6.09    6.81   0
  -2  -5  -7    2.99    5.68   0
  -2  -5  -7   18.63    7.15   0
   2   5   7    3.17    5.60   0
  -3  -5  -7   -9.34    7.49   0
  -3  -5  -7    9.84    9.99   0
  -3  -5  -7    8.05    7.68   0
   3   5   7   -3.13    6.58   0
  -4  -5  -7  225.29   19.92   0
  -4  -5  -7  195.56   20.45   0
  -4  -5  -7  169.37   25.67   0
  -4  -5  -7  233.17   21.48   0
   4   5   7  248.25   19.82   0
   7  -6  -7   93.09   11.81   0
   7  -6  -7  103.71   16.98   0
   7  -6  -7  117.54   15.47   0
   7  -6  -7   74.38   11.32   0
  -7   6   7   80.14   11.57   0
  -7   6   7  116.59   13.26   0
   6  -6  -7  303.88   20.55   0
   6  -6  -7  338.39   20.20   0
   6  -6  -7  301.42   21.85   0
   6  -6  -7  323.59   21.06   0
  -6   6   7  310.48   18.36   0
  -6   6   7  275.60   17.88   0
   5  -6  -7  951.60   41.63   0
   5  -6  -7  818.08   40.53   0
   5  -6  -7  838.91   42.58   0
   5  -6  -7  794.50   41.66   0
  -5   6   7  822.42   39.24   0
  -5   6   7  815.04   39.35   0
   4  -6  -7  704.51   34.50   0
   4  -6  -7  623.55   32.18   0
   4  -6  -7  642.47   31.69   0
  -4   6   7  611.20   30.42   0
  -4   6   7  641.60   30.46   0
   3  -6  -7  142.93   12.84   0
   3  -6  -7  162.22   11.64   0
  -3   6   7  161.92    9.86   0
  -3   6   7  133.54    9.69   0
   2  -6  -7  678.00   33.45   0
   2  -6  -7  607.76   31.06   0
   2  -6  -7  600.60   30.28   0
   1  -6  -7  367.69   19.06   0
   1  -6  -7  318.78   19.79   0
   0  -6  -7  186.76   16.39   0
   0  -6  -7  170.00   13.03   0
   0  -6  -7  167.07   14.79   0
  -1  -6  -7   72.47   14.22   0
   1   6   7   66.48   12.05   0
  -2  -6  -7   63.47   12.58   0
  -2  -6  -7   57.06    9.27   0
  -2  -6  -7   58.98   10.37   0
   2   6   7   68.92   13.56   0
  -3  -6  -7   31.44   10.63   0
  -3  -6  -7   49.18   10.19   0
  -3  -6  -7   39.08    9.51   0
  -3  -6  -7   51.94   14.42   0
   3   6   7   42.77   10.52   0
   6  -7  -7   -1.54    6.85   0
   6  -7  -7    4.70    8.94   0
   6  -7  -7   -9.44    8.22   0
   6  -7  -7   -3.19    8.25   0
  -6   7   7  -11.86    6.83   0
  -6   7   7   -0.52    6.61   0
   5  -7  -7   -5.62    7.07   0
   5  -7  -7    4.44    7.62   0
   5  -7  -7    2.82    7.88   0
  -5   7   7   -2.79    5.96   0
  -5   7   7   -7.70    5.63   0
   4  -7  -7  256.37   19.77   0
   4  -7  -7  263.07   17.88   0
  -4   7   7  276.73   16.01   0
  -4   7   7  242.27   15.48   0
   3  -7  -7  683.35   34.27   0
   3  -7  -7  795.62   35.91   0
   3  -7  -7  680.20   36.84   0
  -3   7   7  680.45   32.48   0
  -3   7   7  634.11   32.49   0
   2  -7  -7  646.50   34.75   0
   2  -7  -7  606.32   31.44   0
   2  -7  -7  646.81   32.74   0
   1  -7  -7  367.91   21.85   0
   1  -7  -7  328.01   22.97   0
   1  -7  -7  301.93   19.84   0
  -1  -7  -7  124.60   19.07   0
  -1  -7  -7  169.81   16.08   0
  -1  -7  -7  142.95   18.72   0
   1   7   7  118.89   16.73   0
   4  -8  -7   13.14    9.10   0
   4  -8  -7   -4.42    7.82   0
   4  -8  -7   19.75    8.48   0
  -4   8   7   10.50    6.62   0
   3  -8  -7   85.70   15.05   0
   3  -8  -7   53.53   11.63   0
  -3   8   7   68.47   10.67   0
  -3   8   7   47.93    7.41   0
   2  -8  -7  204.23   19.15   0
   2  -8  -7  200.69   19.96   0
   2  -8  -7  199.96   16.50   0
   1  -8  -7   11.79   10.07   0
   1  -8  -7    4.04    9.36   0
   1  -8  -7   14.31    7.55   0
   1  11  -8   -2.41    7.05   0
   1  11  -8    3.15    6.12   0
   1  11  -8    9.86   11.82   0
  -1 -11   8    7.38    6.60   0
  -1 -11   8   -5.49    9.62   0
  -1 -11   8    2.87    5.62   0
   0  11  -8   42.67   11.62   0
   0  11  -8   56.48   11.37   0
   0  11  -8   43.15    6.76   0
   0 -11   8   44.32    6.99   0
   0 -11   8   41.47    7.16   0
  -1  11  -8   71.22   10.92   0
  -1  11  -8   81.43   11.02   0
   1 -11   8   78.64   10.78   0
  -2  11  -8   79.18   11.50   0
  -2  11  -8   66.81   10.74   0
   2 -11   8   82.75   13.01   0
   2 -11   8  105.22   11.61   0
  -3  11  -8  160.01   20.13   0
  -3  11  -8  178.12   19.96   0
   3 -11   8  180.61   16.45   0
   3 -11   8  169.94   15.61   0
   3  10  -8  368.95   23.26   0
   3  10  -8  346.35   26.50   0
   3  10  -8  385.67   27.81   0
  -3 -10   8  386.96   22.32   0
  -3 -10   8  400.81   19.58   0
  -3 -10   8  420.85   27.38   0
   2  10  -8  104.89   17.20   0
   2  10  -8  117.47   15.27   0
   2  10  -8  111.32   11.77   0
  -2 -10   8  118.25   11.94   0
   1  10  -8   42.44    7.57   0
   1  10  -8   45.49    9.60   0
   1  10  -8   62.04    8.85   0
  -1 -10   8   54.59    9.17   0
  -1 -10   8   51.18    6.73   0
  -1 -10   8   44.74    7.95   0
   0  10  -8   -1.26    3.83   0
   0  10  -8    5.44    6.59   0
   0  10  -8   -0.28    6.84   0
   0 -10   8    8.01    7.67   0
   0 -10   8   -1.73    4.39   0
   0 -10   8    3.19    4.92   0
  -1  10  -8  157.16   16.11   0
  -1  10  -8  180.52   16.99   0
   1 -10   8  173.23   16.89   0
   1 -10   8  199.59   13.54   0
   1 -10   8  191.53   12.87   0
  -2  10  -8  151.30   16.18   0
  -2  10  -8  121.60   15.55   0
   2 -10   8  156.44   12.36   0
   2 -10   8  188.90   15.94   0
   2 -10   8  163.59   12.82   0
  -3  10  -8  414.87   26.81   0
  -3  10  -8  483.53   27.21   0
   3 -10   8  480.66   26.84   0
   3 -10   8  465.34   25.62   0
   3 -10   8  493.53   25.42   0
  -4  10  -8   64.77   10.12   0
   4 -10   8   61.19    8.25   0
   4 -10   8   50.54    8.88   0
   4 -10   8   59.14    9.32   0
   4   9  -8  363.10   24.29   0
   4   9  -8  384.72   23.97   0
   4   9  -8  389.28   27.17   0
  -4  -9   8  449.83   26.62   0
  -4  -9   8  366.11   22.23   0
   3   9  -8  575.54   32.05   0
   3   9  -8  538.25   30.24   0
   3   9  -8  556.22   29.47   0
  -3  -9   8  567.97   28.45   0
  -3  -9   8  598.69   31.63   0
   2   9  -8  455.38   24.37   0
   2   9  -8  508.26   27.74   0
   2   9  -8  434.28   25.51   0
  -2  -9   8  464.02   22.09   0
  -2  -9   8  462.42   23.86   0
  -2  -9   8  483.95   26.44   0
   1   9  -8   28.85    6.68   0
   1   9  -8   26.72    4.92   0
  -1  -9   8   20.03    6.35   0
  -1  -9   8   15.37    4.46   0
  -1  -9   8   21.23    4.22   0
   0   9  -8  362.80   17.85   0
   0   9  -8  345.39   21.65   0
   0   9  -8  347.97   20.31   0
   0  -9   8  359.44   18.46   0
   0  -9   8  355.08   21.46   0
   0  -9   8  362.82   18.80   0
  -1   9  -8  418.77   23.70   0
  -1   9  -8  416.88   23.68   0
   1  -9   8  452.50   22.10   0
   1  -9   8  444.47   22.02   0
   1  -9   8  411.78   24.04   0
  -2   9  -8  285.08   19.16   0
  -2   9  -8  314.58   18.98   0
   2  -9   8  304.32   17.08   0
   2  -9   8  328.25   17.60   0
   2  -9   8  289.00   18.71   0
  -3   9  -8   76.73    9.64   0
   3  -9   8   89.56    9.73   0
   3  -9   8   88.82   11.93   0
   3  -9   8   75.58   10.02   0
  -4   9  -8    5.73    5.89   0
   4  -9   8   15.17    5.95   0
   4  -9   8   12.21    5.59   0
   4  -9   8   16.19    5.93   0
  -5   9  -8   25.19    7.57   0
  -5   9  -8   20.77    7.78   0
   5  -9   8   30.77    6.90   0
   5  -9   8   34.67    7.70   0
   5  -9   8   28.80    6.86   0
   5   8  -8   -2.23    6.95   0
   5   8  -8   -3.76    8.14   0
   5   8  -8    1.15    8.44   0
  -5  -8   8   -4.28    5.91   0
  -5  -8   8    8.60    7.98   0
   4   8  -8    1.31    5.98   0
   4   8  -8   -2.23    8.04   0
   4   8  -8    4.83    5.43   0
  -4  -8   8   -1.56    4.60   0
  -4  -8   8   -0.35    6.96   0
   3   8  -8    3.87    4.54   0
   3   8  -8   -6.51    4.70   0
  -3  -8   8   -5.35    5.75   0
  -3  -8   8    1.33    3.91   0
   2   8  -8   14.99    4.38   0
   2   8  -8   20.78    6.39   0
   2   8  -8   13.92    5.19   0
  -2  -8   8    6.59    5.40   0
  -2  -8   8   11.73    3.95   0
   1   8  -8  118.97   10.18   0
   1   8  -8  103.05   12.19   0
  -1  -8   8  101.25   10.95   0
  -1  -8   8  127.29    8.77   0
  -1  -8   8  116.29    7.42   0
   0   8  -8  644.85   32.08   0
   0   8  -8  639.58   29.49   0
   0   8  -8  634.17   31.65   0
   0  -8   8  652.60   30.23   0
   0  -8   8  652.88   31.73   0
   0  -8   8  657.58   30.12   0
  -1   8  -8  113.37   10.04   0
  -1   8  -8   93.85    9.98   0
   1  -8   8  113.02    8.56   0
   1  -8   8  119.22    8.54   0
   1  -8   8  113.77   11.03   0
  -2   8  -8  110.21   10.04   0
  -2   8  -8   98.36   10.73   0
   2  -8   8   92.06   10.38   0
   2  -8   8  108.30    8.91   0
   2  -8   8  106.98    9.00   0
  -3   8  -8   17.67    4.77   0
  -3   8  -8   26.02    5.78   0
   3  -8   8   25.48    5.04   0
   3  -8   8   21.77    5.31   0
   3  -8   8   21.54    4.70   0
  -4   8  -8  156.98   12.24   0
   4  -8   8  152.84   12.36   0
   4  -8   8  167.82   12.84   0
   4  -8   8  169.88   12.27   0
  -5   8  -8  166.63   15.23   0
   5  -8   8  180.18   14.60   0
   5  -8   8  182.56   14.07   0
   5  -8   8  191.57   14.11   0
  -6   8  -8   85.07   15.45   0
  -6   8  -8   87.60   11.64   0
  -6   8  -8   74.11   13.28   0
   6  -8   8   85.17   12.55   0
   6  -8   8   99.09   12.22   0
   6  -8   8   90.66   12.85   0
   6   7  -8   16.15    8.68   0
   6   7  -8   11.95    7.89   0
   6   7  -8    4.91    9.68   0
  -6  -7   8   12.57    6.86   0
  -6  -7   8   11.55    8.15   0
   5   7  -8  159.19   15.56   0
   5   7  -8  152.89   16.07   0
   5   7  -8  166.79   16.93   0
  -5  -7   8  159.19   12.96   0
  -5  -7   8  169.25   15.17   0
   4   7  -8 1463.21   67.81   0
   4   7  -8 1520.58   68.74   0
   4   7  -8 1524.62   68.55   0
  -4  -7   8 1434.97   67.46   0
  -4  -7   8 1454.01   66.42   0
   3   7  -8  731.85   36.05   0
   3   7  -8  723.74   35.78   0
   3   7  -8  753.50   36.61   0
  -3  -7   8  709.42   35.63   0
  -3  -7   8  774.20   34.54   0
   2   7  -8  379.91   19.65   0
   2   7  -8  377.07   20.18   0
   2   7  -8  349.78   20.74   0
  -2  -7   8  389.68   18.65   0
  -2  -7   8  365.79   19.94   0
   1   7  -8   14.73    4.49   0
   1   7  -8    6.89    2.89   0
   1   7  -8    7.15    3.49   0
  -1  -7   8    9.75    2.17   0
  -1  -7   8    9.38    2.73   0
  -1  -7   8   13.03    3.97   0
   0   7  -8   16.63    4.14   0
   0   7  -8   26.81    3.48   0
   0   7  -8   22.28    4.47   0
   0  -7   8   32.10    4.57   0
   0  -7   8   21.76    3.25   0
   0  -7   8   24.86    4.39   0
  -1   7  -8 1064.52   47.00   0
  -1   7  -8 1019.84   46.64   0
   1  -7   8 1086.19   45.83   0
   1  -7   8  881.12   46.00   0
   1  -7   8 1074.77   46.55   0
  -2   7  -8  268.24   14.81   0
  -2   7  -8  275.48   15.79   0
   2  -7   8  274.99   15.14   0
   2  -7   8  275.59   14.39   0
   2  -7   8  262.40   15.14   0
  -3   7  -8   10.13    4.41   0
  -3   7  -8   13.11    4.75   0
  -3   7  -8   15.68    4.00   0
   3  -7   8   17.04    4.44   0
   3  -7   8   11.99    4.02   0
  -4   7  -8  186.22   13.27   0
  -4   7  -8  187.55   13.93   0
  -4   7  -8  214.25   13.10   0
   4  -7   8  202.89   13.64   0
   4  -7   8  186.76   12.48   0
  -5   7  -8   31.18    7.24   0
  -5   7  -8   29.66    5.60   0
   5  -7   8   22.69    5.44   0
   5  -7   8   33.04    6.59   0
   5  -7   8   23.13    5.09   0
  -6   7  -8  401.33   22.31   0
  -6   7  -8  353.22   23.57   0
  -6   7  -8  357.38   23.83   0
   6  -7   8  391.14   21.05   0
   6  -7   8  389.13   23.37   0
   6  -7   8  398.16   21.19   0
   6   6  -8   14.04    7.79   0
   6   6  -8   23.70    7.85   0
   6   6  -8   32.13    8.79   0
  -6  -6   8   22.18    7.22   0
  -6  -6   8   26.40    6.47   0
   5   6  -8  396.67   24.05   0
   5   6  -8  424.99   23.37   0
  -5  -6   8  389.81   21.33   0
  -5  -6   8  384.62   21.89   0
   4   6  -8 1198.72   55.46   0
   4   6  -8 1209.49   56.35   0
   4   6  -8 1186.16   55.14   0
  -4  -6   8 1176.01   53.75   0
  -4  -6   8 1187.27   54.55   0
   3   6  -8 1217.30   56.56   0
   3   6  -8 1269.75   56.35   0
   3   6  -8 1065.14   55.46   0
  -3  -6   8 1307.59   54.69   0
  -3  -6   8 1259.62   55.35   0
   2   6  -8  568.84   27.58   0
   2   6  -8  545.96   27.28   0
   2   6  -8  559.60   27.21   0
  -2  -6   8  529.36   26.47   0
  -2  -6   8  593.79   25.91   0
   1   6  -8  259.43   14.04   0
   1   6  -8  261.41   13.29   0
   1   6  -8  245.47   14.21   0
  -1  -6   8  248.30   12.43   0
  -1  -6   8  244.44   13.31   0
   0   6  -8 1111.66   49.04   0
   0   6  -8 1111.28   47.42   0
   0   6  -8 1031.82   48.72   0
   0  -6   8 1079.66   47.92   0
   0  -6   8 1096.11   48.07   0
   0  -6   8 1082.18   47.68   0
  -1   6  -8 1393.44   62.33   0
  -1   6  -8 1429.20   62.72   0
   1  -6   8 1405.91   62.41   0
  -2   6  -8 1075.15   46.52   0
  -2   6  -8  985.14   45.75   0
  -2   6  -8  997.85   46.40   0
   2  -6   8 1029.57   46.65   0
  -3   6  -8   45.92    5.97   0
  -3   6  -8   36.98    5.85   0
   3  -6   8   32.73    5.90   0
  -4   6  -8   -0.97    3.45   0
  -4   6  -8    3.92    3.71   0
  -4   6  -8    1.46    4.48   0
   4  -6   8    5.68    3.42   0
   4  -6   8    1.65    3.60   0
  -5   6  -8  231.03   16.27   0
  -5   6  -8  213.91   15.34   0
  -5   6  -8  220.28   14.16   0
   5  -6   8  254.81   13.72   0
   5  -6   8  222.18   13.46   0
   5  -6   8  232.91   15.49   0
  -6   6  -8  137.08   15.06   0
  -6   6  -8  117.25   14.01   0
   6  -6   8  126.87   11.18   0
   6  -6   8  144.92   11.54   0
   6  -6   8  149.09   13.42   0
   7   5  -8   39.79    9.04   0
   7   5  -8   50.19   10.41   0
   7   5  -8   46.63   11.05   0
  -7  -5   8   37.22    7.92   0
  -7  -5   8   44.67    8.76   0
   6   5  -8    7.30    6.36   0
   6   5  -8   -3.11    5.77   0
   6   5  -8    6.30    6.65   0
  -6  -5   8    1.47    4.71   0
  -6  -5   8    0.83    5.35   0
   5   5  -8   90.83   10.74   0
   5   5  -8   71.65   11.37   0
   5   5  -8   79.89    9.43   0
  -5  -5   8   74.93    7.98   0
  -5  -5   8   79.21    9.00   0
   4   5  -8   99.37    9.01   0
   4   5  -8   94.63   10.45   0
   4   5  -8   93.60    9.79   0
  -4  -5   8  108.97    8.12   0
  -4  -5   8  100.57    8.56   0
   3   5  -8   59.41    7.92   0
   3   5  -8   55.48    7.10   0
   3   5  -8   53.01    7.20   0
  -3  -5   8   51.58    6.06   0
  -3  -5   8   67.64    5.51   0
   2   5  -8  512.19   25.08   0
   2   5  -8  541.20   25.05   0
   2   5  -8  503.39   25.36   0
  -2  -5   8  515.25   23.98   0
  -2  -5   8  521.88   23.49   0
   1   5  -8 1092.23   51.23   0
   1   5  -8 1185.11   51.38   0
   1   5  -8 1171.80   51.42   0
   0   5  -8  812.28   34.08   0
   0   5  -8  796.70   35.12   0
   0   5  -8  737.18   34.74   0
   0  -5   8  739.15   34.27   0
  -1   5  -8 1057.95   45.84   0
  -1   5  -8  989.36   45.34   0
  -1   5  -8 1052.66   45.80   0
   1  -5   8 1001.71   45.82   0
  -2   5  -8  571.22   25.28   0
  -2   5  -8  517.49   25.60   0
  -2   5  -8  510.26   24.65   0
   2  -5   8  540.75   25.72   0
  -3   5  -8  337.29   18.68   0
  -3   5  -8  380.95   17.64   0
   3  -5   8  342.50   18.62   0
  -4   5  -8  975.95   45.01   0
  -4   5  -8  938.49   43.49   0
  -4   5  -8  993.23   44.43   0
   4  -5   8  919.63   44.94   0
  -5   5  -8  195.32   14.63   0
  -5   5  -8  189.58   12.46   0
   5  -5   8  205.16    9.53   0
   5  -5   8  187.19   13.58   0
  -6   5  -8    9.36    6.05   0
  -6   5  -8    7.79    6.50   0
   6  -5   8    7.13    5.34   0
   6  -5   8    9.30    2.78   0
  -7   5  -8    7.72    8.17   0
  -7   5  -8   14.42    7.28   0
  -7   5  -8   10.60    9.10   0
   7  -5   8    8.60    5.72   0
   7  -5   8    4.42    3.66   0
   7  -5   8    4.54    6.59   0
   7   4  -8  506.98   32.30   0
   7   4  -8  506.31   28.88   0
   7   4  -8  533.70   29.93   0
  -7  -4   8  561.17   28.44   0
  -7  -4   8  529.41   27.78   0
   6   4  -8  232.33   16.02   0
   6   4  -8  226.82   18.59   0
   6   4  -8  259.26   17.30   0
  -6  -4   8  243.87   15.33   0
  -6  -4   8  250.02   15.03   0
   5   4  -8   74.42    8.33   0
   5   4  -8   71.21    9.41   0
   5   4  -8   67.22   10.35   0
  -5  -4   8   64.09    7.11   0
  -5  -4   8   66.58    7.53   0
   4   4  -8   75.60    7.43   0
   4   4  -8   68.56    8.09   0
   4   4  -8   73.29    9.08   0
  -4  -4   8   77.15    6.82   0
   3   4  -8  125.10   10.16   0
   3   4  -8  141.88    8.94   0
   3   4  -8  134.70    9.33   0
  -3  -4   8  135.24    8.01   0
  -3  -4   8  135.53    7.55   0
   2   4  -8  540.11   25.06   0
   2   4  -8  528.27   25.18   0
   1   4  -8  349.09   16.60   0
   1   4  -8  337.62   16.51   0
   0   4  -8   17.35    2.62   0
   0   4  -8   17.65    3.14   0
   0   4  -8   20.25    3.23   0
   0  -4   8   17.33    2.68   0
  -1   4  -8   42.66    4.65   0
  -1   4  -8   46.99    3.81   0
   1  -4   8   43.88    4.21   0
  -2   4  -8  141.49    9.31   0
  -2   4  -8  148.73    8.55   0
  -2   4  -8  152.83    8.22   0
   2  -4   8  144.48    9.13   0
  -3   4  -8 1098.26   50.29   0
  -3   4  -8 1147.00   51.62   0
  -3   4  -8 1168.25   50.84   0
   3  -4   8 1117.99   51.72   0
  -4   4  -8  739.27   35.38   0
  -4   4  -8  805.81   37.08   0
  -4   4  -8  755.72   36.16   0
   4  -4   8  775.92   34.03   0
   4  -4   8  770.41   37.08   0
  -5   4  -8  401.29   21.81   0
  -5   4  -8  464.59   23.21   0
  -5   4  -8  440.20   23.66   0
   5  -4   8  434.14   23.56   0
   5  -4   8  414.74   20.32   0
  -6   4  -8    7.27    4.69   0
  -6   4  -8    3.46    6.46   0
  -6   4  -8    6.73    5.81   0
   6  -4   8    0.80    5.16   0
  -7   4  -8   31.98    6.95   0
  -7   4  -8   18.30    9.54   0
  -7   4  -8   22.96    8.31   0
   7  -4   8   10.81    8.02   0
   7  -4   8   14.76    5.16   0
   8   3  -8    6.48    7.82   0
   8   3  -8    8.01   14.36   0
   8   3  -8    8.34    7.74   0
  -8  -3   8   19.23    7.73   0
  -8  -3   8   19.09    7.05   0
   7   3  -8  308.16   24.06   0
   7   3  -8  362.29   20.86   0
   7   3  -8  312.97   21.18   0
  -7  -3   8  339.00   19.61   0
  -7  -3   8  333.47   19.11   0
   6   3  -8    9.14    5.74   0
   6   3  -8   15.70    5.25   0
   6   3  -8   14.16    4.80   0
  -6  -3   8   18.14    4.85   0
  -6  -3   8   21.55    4.66   0
   5   3  -8   76.69    8.78   0
   5   3  -8   59.30    7.45   0
   5   3  -8   74.97    9.71   0
  -5  -3   8   67.15    6.75   0
  -5  -3   8   68.82    6.71   0
   4   3  -8  799.00   36.98   0
   4   3  -8  778.10   37.25   0
  -4  -3   8  812.69   35.98   0
  -4  -3   8  808.84   36.06   0
   3   3  -8   76.43    6.33   0
   2   3  -8  152.46    8.54   0
   2   3  -8  145.51    8.23   0
   1   3  -8   27.81    2.64   0
   1   3  -8   26.28    3.09   0
   1   3  -8   35.05    3.38   0
   0   3  -8  269.24   13.13   0
   0   3  -8  274.42   13.10   0
  -1   3  -8  335.95   15.04   0
  -1   3  -8  346.33   15.31   0
  -1   3  -8  316.12   16.12   0
   1  -3   8  316.47   16.22   0
  -2   3  -8    8.07    2.18   0
  -2   3  -8    7.31    2.06   0
  -2   3  -8   11.74    3.06   0
   2  -3   8    8.10    2.85   0
  -3   3  -8   94.25    6.86   0
  -3   3  -8  108.02    8.47   0
   3  -3   8  104.79    6.05   0
   3  -3   8   91.18    7.93   0
  -4   3  -8  211.76   12.16   0
  -4   3  -8  213.60   12.69   0
  -4   3  -8  212.86   13.73   0
   4  -3   8  210.82   13.43   0
   4  -3   8  202.04   11.13   0
  -5   3  -8  265.35   15.22   0
  -5   3  -8  255.42   16.73   0
  -5   3  -8  258.17   16.25   0
   5  -3   8  262.57   16.76   0
   5  -3   8  265.98   14.25   0
  -6   3  -8  134.84   13.19   0
  -6   3  -8  122.20   11.58   0
  -6   3  -8  131.28   13.53   0
   6  -3   8  117.67    9.98   0
   6  -3   8  151.69   13.23   0
  -7   3  -8   26.78    7.39   0
  -7   3  -8   22.56    8.49   0
  -7   3  -8   17.26    8.33   0
   7  -3   8   28.63    6.51   0
   7  -3   8   14.73    9.78   0
   8   2  -8  287.20   15.94   0
   8   2  -8  247.84   23.53   0
   8   2  -8  291.68   20.54   0
   8   2  -8  315.99   21.04   0
  -8  -2   8  307.98   19.97   0
   7   2  -8   72.88   13.70   0
   7   2  -8   78.28   10.68   0
  -7  -2   8   67.35    9.03   0
  -7  -2   8   79.62    9.76   0
   6   2  -8    7.89    5.72   0
   6   2  -8   13.03    4.85   0
   6   2  -8   12.07    2.64   0
  -6  -2   8    6.00    3.54   0
  -6  -2   8   11.82    4.12   0
   5   2  -8  473.02   23.26   0
   5   2  -8  475.53   20.84   0
   5   2  -8  469.98   23.75   0
  -5  -2   8  485.35   22.11   0
  -5  -2   8  400.92   21.96   0
   4   2  -8  329.95   16.61   0
   4   2  -8  335.28   17.12   0
  -4  -2   8  326.98   15.37   0
  -4  -2   8  312.81   15.43   0
   3   2  -8   28.30    4.47   0
   3   2  -8   37.04    3.99   0
   2   2  -8   12.55    1.93   0
   2   2  -8   11.35    2.27   0
   1   2  -8 1396.56   60.67   0
   0   2  -8 1532.02   67.92   0
   0   2  -8 1578.50   68.13   0
  -1   2  -8  508.64   24.44   0
  -1   2  -8  535.16   24.12   0
  -2   2  -8  117.22    6.63   0
  -2   2  -8  124.06    7.76   0
  -2   2  -8  121.17    8.11   0
   2  -2   8  104.73    8.04   0
  -3   2  -8  765.18   37.55   0
  -3   2  -8  818.05   37.02   0
  -3   2  -8  828.85   38.18   0
  -3   2  -8  788.99   36.63   0
   3  -2   8  835.88   38.49   0
   3  -2   8  841.81   36.96   0
  -4   2  -8  702.16   32.33   0
  -4   2  -8  632.95   30.33   0
  -4   2  -8  690.54   31.17   0
  -4   2  -8  640.43   31.59   0
   4  -2   8  675.93   32.28   0
   4  -2   8  552.51   30.09   0
  -5   2  -8   10.01    4.72   0
  -5   2  -8    3.25    3.84   0
  -5   2  -8    4.28    5.28   0
   5  -2   8    1.35    3.29   0
   5  -2   8    1.40    4.20   0
  -6   2  -8   -0.59    6.19   0
  -6   2  -8   -1.91    6.04   0
   6  -2   8    2.99    5.31   0
   6  -2   8   -1.16    4.41   0
   8   1  -8  277.36   16.20   0
   8   1  -8  260.63   23.52   0
   8   1  -8  291.86   20.52   0
   8   1  -8  293.88   20.56   0
  -8  -1   8  346.45   19.79   0
  -8  -1   8  281.98   17.56   0
   7   1  -8 1702.17   72.16   0
   7   1  -8 1625.88   71.44   0
   7   1  -8 1528.19   68.82   0
  -7  -1   8 1334.22   69.28   0
  -7  -1   8 1600.37   70.40   0
   6   1  -8 1517.86   67.89   0
   6   1  -8 1503.27   67.28   0
   6   1  -8 1478.12   65.42   0
  -6  -1   8 1449.57   65.97   0
   5   1  -8  391.84   20.51   0
   5   1  -8  412.02   19.13   0
   5   1  -8  383.65   21.10   0
  -5  -1   8  398.13   19.28   0
  -5  -1   8  445.42   19.80   0
   4   1  -8  100.18    7.84   0
   4   1  -8  108.94    7.41   0
   4   1  -8  108.70    6.36   0
   3   1  -8   22.36    3.09   0
   3   1  -8   19.02    2.69   0
   3   1  -8   21.95    3.23   0
   1   1  -8 1755.86   76.52   0
   0   1  -8  612.21   28.57   0
   0   1  -8  633.81   28.89   0
  -1   1  -8   19.87    4.07   0
  -1   1  -8   20.80    3.30   0
  -2   1  -8  404.42   20.34   0
  -2   1  -8  402.78   20.37   0
   2  -1   8  406.03   19.81   0
  -3   1  -8 3091.75  135.25   0
  -3   1  -8 3301.94  137.08   0
  -3   1  -8 3112.25  135.56   0
  -3   1  -8 3010.73  136.84   0
   3  -1   8 3105.68  136.10   0
  -4   1  -8 2099.21   94.09   0
  -4   1  -8 2193.73   94.64   0
  -4   1  -8 2018.94   95.71   0
  -4   1  -8 2237.74   95.96   0
   4  -1   8 2162.35   94.84   0
  -5   1  -8  579.08   28.50   0
  -5   1  -8  577.98   29.11   0
   5  -1   8  570.69   28.93   0
  -6   1  -8   -7.59    7.00   0
  -6   1  -8   15.04    6.41   0
   6  -1   8    1.75    5.28   0
   8   0  -8  274.58   16.34   0
   8   0  -8  320.27   19.98   0
   8   0  -8  280.01   20.20   0
  -8   0   8  248.85   16.34   0
   7   0  -8  994.29   46.89   0
   7   0  -8 1017.08   48.69   0
   7   0  -8 1053.85   49.41   0
  -7   0   8  947.51   46.83   0
  -7   0   8 1141.20   48.16   0
   6   0  -8  809.83   39.35   0
   6   0  -8  823.11   38.15   0
   6   0  -8  811.56   39.93   0
  -6   0   8  784.09   37.80   0
  -6   0   8  935.31   38.72   0
   5   0  -8  168.28    9.66   0
   5   0  -8  152.06   10.97   0
   5   0  -8  151.21   10.42   0
  -5   0   8  158.69    8.76   0
  -5   0   8  164.25    9.30   0
   4   0  -8   23.02    4.15   0
   4   0  -8   24.34    4.04   0
   4   0  -8   24.09    3.70   0
   3   0  -8 1037.40   46.06   0
   3   0  -8 1031.25   45.73   0
   2   0  -8 1035.50   45.39   0
   1   0  -8  615.04   29.05   0
   0   0  -8  140.97    8.99   0
   0   0  -8  137.44    8.59   0
  -1   0  -8  104.39    7.76   0
  -1   0  -8  107.64    8.05   0
  -2   0  -8  251.02   14.41   0
  -2   0  -8  245.59   12.44   0
  -2   0  -8  240.97   14.00   0
  -2   0  -8  225.57   12.22   0
   2   0   8  246.65   13.67   0
  -3   0  -8 1084.40   48.72   0
  -3   0  -8 1060.44   50.66   0
  -3   0  -8 1141.69   50.34   0
  -3   0  -8 1019.67   48.37   0
   3   0   8 1093.04   49.68   0
  -4   0  -8  818.46   38.87   0
  -4   0  -8  802.16   37.47   0
  -4   0  -8  784.91   37.12   0
  -4   0  -8  772.25   39.70   0
   4   0   8  785.51   38.03   0
  -5   0  -8  556.17   30.69   0
  -5   0  -8  541.20   28.59   0
  -5   0  -8  596.02   32.63   0
  -5   0  -8  589.41   29.38   0
   5   0   8  588.02   29.82   0
  -6   0  -8  396.80   24.79   0
  -6   0  -8  374.76   23.61   0
  -6   0  -8  393.39   22.76   0
   6   0   8  409.90   24.02   0
   8  -1  -8   56.79    9.83   0
   8  -1  -8   67.23   12.06   0
   8  -1  -8   47.30    8.71   0
  -8   1   8   57.42    8.78   0
  -8   1   8   35.85    7.54   0
   7  -1  -8    3.52    4.28   0
   7  -1  -8   -2.90    5.03   0
  -7   1   8   -3.41    4.23   0
  -7   1   8    3.42    3.63   0
   6  -1  -8   17.08    5.17   0
   6  -1  -8   12.97    4.08   0
   6  -1  -8   14.67    4.98   0
  -6   1   8    9.89    3.23   0
  -6   1   8   12.54    3.89   0
   5  -1  -8    1.39    3.54   0
   5  -1  -8    1.27    3.07   0
   5  -1  -8   -0.06    3.45   0
  -5   1   8    2.24    2.25   0
  -5   1   8   -0.29    2.25   0
   4  -1  -8  288.39   15.16   0
   4  -1  -8  307.14   15.51   0
   4  -1  -8  291.23   15.52   0
   3  -1  -8  241.33   12.19   0
   3  -1  -8  242.79   12.59   0
   2  -1  -8   66.28    6.86   0
   2  -1  -8   84.56    5.22   0
   2  -1  -8   70.14    4.65   0
   1  -1  -8   39.42    5.52   0
   0  -1  -8    6.62    3.00   0
   0  -1  -8    4.29    2.69   0
  -1  -1  -8   50.50    6.85   0
  -1  -1  -8   71.01    5.04   0
  -1  -1  -8   62.81    7.32   0
  -2  -1  -8   26.94    5.48   0
  -2  -1  -8   25.08    4.94   0
  -2  -1  -8   18.82    3.90   0
  -2  -1  -8   16.71    3.41   0
   2   1   8   31.78    5.71   0
  -3  -1  -8   34.96    6.05   0
  -3  -1  -8   28.64    5.01   0
  -3  -1  -8   41.37    7.39   0
  -3  -1  -8   33.05    6.71   0
   3   1   8   44.37    6.84   0
   4   1   8  130.77   11.46   0
  -5  -1  -8  208.63   19.42   0
   5   1   8  163.68   14.79   0
  -6  -1  -8  688.39   39.14   0
  -6  -1  -8  695.63   34.37   0
  -6  -1  -8  537.34   35.17   0
  -6  -1  -8  558.45   32.15   0
   6   1   8  609.44   33.99   0
   8  -2  -8  304.57   21.47   0
   8  -2  -8  310.94   19.97   0
   8  -2  -8  332.55   22.10   0
  -8   2   8  341.61   18.82   0
  -8   2   8  374.16   20.55   0
   7  -2  -8 1058.09   49.83   0
   7  -2  -8  994.64   48.72   0
  -7   2   8 1093.19   48.33   0
  -7   2   8 1038.69   47.57   0
   6  -2  -8 1026.30   49.09   0
   6  -2  -8 1139.84   49.91   0
   6  -2  -8 1072.99   49.48   0
  -6   2   8 1025.77   47.55   0
  -6   2   8 1050.51   47.92   0
   5  -2  -8    0.57    3.40   0
   5  -2  -8    6.88    3.56   0
   5  -2  -8    4.96    3.64   0
  -5   2   8   -0.01    2.17   0
   4  -2  -8  148.60   10.10   0
   4  -2  -8  163.11    9.83   0
   3  -2  -8  292.49   14.78   0
   3  -2  -8  286.48   14.43   0
   2  -2  -8  728.17   35.22   0
   2  -2  -8  742.07   32.83   0
   1  -2  -8   94.61    8.51   0
   1  -2  -8  103.15    6.35   0
   1  -2  -8  104.40    6.25   0
   0  -2  -8  995.45   43.84   0
   0  -2  -8 1003.15   46.20   0
   0  -2  -8  970.14   43.87   0
  -1  -2  -8   11.84    4.43   0
  -1  -2  -8   16.95    4.36   0
   1   2   8   16.91    4.35   0
  -2  -2  -8  118.62    9.08   0
  -2  -2  -8  118.36   10.47   0
  -2  -2  -8  111.97    9.40   0
  -2  -2  -8  121.43   11.83   0
   2   2   8  130.04   10.24   0
  -3  -2  -8  421.63   22.39   0
  -3  -2  -8  419.69   25.43   0
  -3  -2  -8  428.33   22.37   0
  -3  -2  -8  439.89   23.87   0
   3   2   8  428.86   23.57   0
  -4  -2  -8  730.53   37.31   0
  -4  -2  -8  766.91   39.55   0
  -4  -2  -8  715.40   35.77   0
  -4  -2  -8  704.91   35.97   0
   4   2   8  729.42   37.03   0
  -5  -2  -8   88.06   13.63   0
   5   2   8   80.35   13.51   0
   8  -3  -8  319.70   22.81   0
   8  -3  -8  354.38   22.96   0
   8  -3  -8  340.26   22.28   0
  -8   3   8  358.45   19.84   0
  -8   3   8  414.70   21.77   0
   7  -3  -8 1398.23   66.28   0
   7  -3  -8 1483.56   66.52   0
   7  -3  -8 1361.36   65.73   0
  -7   3   8 1453.42   64.66   0
  -7   3   8 1461.50   64.15   0
   6  -3  -8  334.94   19.36   0
   6  -3  -8  317.83   19.21   0
   6  -3  -8  358.09   19.63   0
  -6   3   8  349.63   17.60   0
  -6   3   8  316.86   17.02   0
   5  -3  -8    8.14    4.16   0
   5  -3  -8    1.91    4.21   0
   5  -3  -8    2.60    3.70   0
  -5   3   8    4.34    2.71   0
  -5   3   8    4.24    2.67   0
   4  -3  -8  674.23   31.69   0
   3  -3  -8 1230.16   56.74   0
   3  -3  -8 1216.69   54.35   0
   2  -3  -8 1083.26   51.32   0
   2  -3  -8 1228.85   54.26   0
   2  -3  -8 1181.25   51.74   0
   1  -3  -8   73.11    8.78   0
   1  -3  -8   90.19    6.79   0
   0  -3  -8    6.51    4.58   0
  -1  -3  -8   62.51    8.01   0
  -1  -3  -8   70.52    7.47   0
  -1  -3  -8   54.79    8.60   0
  -2  -3  -8   28.04    5.31   0
  -2  -3  -8   24.15    7.15   0
  -2  -3  -8   24.47    6.50   0
  -2  -3  -8   31.20    6.40   0
   2   3   8   26.10    5.78   0
  -3  -3  -8   28.52    7.29   0
  -3  -3  -8   18.52    6.31   0
  -3  -3  -8   31.94    8.31   0
  -3  -3  -8   22.71    6.27   0
   3   3   8   25.36    6.81   0
  -4  -3  -8  482.38   27.99   0
  -4  -3  -8  588.70   32.46   0
  -4  -3  -8  491.70   28.55   0
  -4  -3  -8  520.27   28.38   0
   4   3   8  455.57   28.35   0
   7  -4  -8   78.74   10.37   0
   7  -4  -8   73.72   12.54   0
  -7   4   8   61.78    9.46   0
  -7   4   8   51.51    8.73   0
   6  -4  -8  172.71   13.22   0
   6  -4  -8  140.12   12.83   0
  -6   4   8  160.84   10.67   0
  -6   4   8  143.94   10.33   0
   5  -4  -8  595.43   29.14   0
   5  -4  -8  567.26   29.77   0
  -5   4   8  597.02   27.29   0
  -5   4   8  579.08   27.30   0
   4  -4  -8  521.49   25.27   0
   4  -4  -8  509.83   25.46   0
   4  -4  -8  504.35   27.32   0
   3  -4  -8  496.68   23.64   0
   3  -4  -8  495.10   26.11   0
   3  -4  -8  464.92   23.81   0
   2  -4  -8 1325.61   60.17   0
   2  -4  -8 1284.04   57.70   0
   2  -4  -8 1261.99   57.28   0
   1  -4  -8  835.50   42.05   0
   1  -4  -8  813.36   39.62   0
   1  -4  -8  949.45   39.67   0
   0  -4  -8  400.94   24.86   0
   0  -4  -8  436.53   22.86   0
   0  -4  -8  522.82   22.87   0
  -1  -4  -8  632.61   31.35   0
  -1  -4  -8  631.74   30.54   0
  -1  -4  -8  628.73   33.39   0
  -1  -4  -8  644.76   33.01   0
   1   4   8  631.65   33.09   0
  -2  -4  -8   34.07    7.28   0
  -2  -4  -8   19.53    7.07   0
  -2  -4  -8   14.94    5.84   0
  -3  -4  -8   92.19   13.71   0
  -3  -4  -8   94.47   13.21   0
  -3  -4  -8   85.72   13.50   0
   3   4   8   76.21   12.48   0
  -4  -4  -8   10.01   10.71   0
  -4  -4  -8   23.56    9.65   0
  -4  -4  -8    2.07    8.37   0
  -4  -4  -8   -2.08    8.67   0
   4   4   8   -5.45    7.05   0
   7  -5  -8   -0.63    7.78   0
   7  -5  -8   -2.52    7.47   0
   7  -5  -8   -5.60    7.90   0
  -7   5   8   -0.18    5.91   0
  -7   5   8    0.85    5.18   0
   6  -5  -8    1.56    5.80   0
   6  -5  -8    8.59    6.54   0
   6  -5  -8    1.32    7.85   0
   6  -5  -8   -3.48    6.29   0
  -6   5   8   -5.37    4.23   0
  -6   5   8   -0.47    4.56   0
   5  -5  -8  149.83   13.37   0
   5  -5  -8  177.47   14.24   0
   5  -5  -8  159.47   12.71   0
   5  -5  -8  150.05   14.65   0
   4  -5  -8  122.08   11.80   0
   4  -5  -8  165.90   11.39   0
   3  -5  -8  164.74   10.81   0
   3  -5  -8  130.70   11.22   0
   3  -5  -8  114.05   12.83   0
   2  -5  -8  184.55   14.98   0
   2  -5  -8  200.33   13.49   0
   2  -5  -8  214.22   12.54   0
   1  -5  -8   74.72    8.24   0
   1  -5  -8   63.79    9.24   0
   1  -5  -8   64.24   11.00   0
   0  -5  -8  963.24   46.28   0
   0  -5  -8  960.98   45.69   0
   0  -5  -8 1046.58   49.04   0
  -1  -5  -8 1468.13   69.30   0
  -1  -5  -8 1488.61   66.83   0
  -1  -5  -8 1484.17   69.96   0
  -1  -5  -8 1447.37   67.56   0
   1   5   8 1471.01   69.58   0
  -2  -5  -8  359.57   21.44   0
  -2  -5  -8  369.21   23.74   0
  -2  -5  -8  358.27   23.70   0
  -2  -5  -8  389.12   26.23   0
   2   5   8  339.56   23.36   0
  -3  -5  -8   62.14   14.49   0
  -3  -5  -8   35.91   10.12   0
  -3  -5  -8   37.16   10.09   0
  -3  -5  -8   35.19    9.76   0
   3   5   8   36.04    8.33   0
   6  -6  -8   -4.20    7.81   0
   6  -6  -8   13.05    8.09   0
   6  -6  -8   19.11    8.40   0
   6  -6  -8    4.48    8.07   0
  -6   6   8   -2.82    5.68   0
  -6   6   8    7.70    5.38   0
   5  -6  -8   21.08    7.13   0
   5  -6  -8   28.84    6.98   0
   5  -6  -8   40.54    8.39   0
   5  -6  -8   19.26    7.69   0
  -5   6   8   20.28    5.34   0
   4  -6  -8   30.16    6.88   0
   4  -6  -8   31.89    7.71   0
   4  -6  -8   22.29    6.14   0
   3  -6  -8  146.23   13.78   0
   3  -6  -8  147.69   12.73   0
   3  -6  -8  174.83   15.66   0
   2  -6  -8  311.17   21.05   0
   2  -6  -8  306.17   18.91   0
   1  -6  -8   97.35   13.84   0
   1  -6  -8   83.99   12.25   0
   0  -6  -8  226.59   18.36   0
   0  -6  -8  237.50   19.61   0
   0  -6  -8  277.74   16.95   0
  -1  -6  -8  453.19   25.25   0
  -1  -6  -8  359.08   22.92   0
  -1  -6  -8  361.29   26.37   0
  -1  -6  -8  354.87   25.24   0
  -2  -6  -8    6.28    9.72   0
  -2  -6  -8   37.04   13.16   0
  -2  -6  -8   19.70    8.59   0
  -2  -6  -8   13.34   11.19   0
   2   6   8    2.08    9.36   0
   5  -7  -8  103.54   16.35   0
   5  -7  -8  119.16   14.05   0
   5  -7  -8   91.22   11.74   0
   5  -7  -8  135.73   17.36   0
  -5   7   8   91.82   10.91   0
  -5   7   8   88.85   10.28   0
   4  -7  -8  164.41   17.33   0
   4  -7  -8  178.93   18.29   0
   4  -7  -8  168.87   15.75   0
   3  -7  -8  239.45   17.99   0
   3  -7  -8  245.96   20.93   0
   3  -7  -8  269.93   19.10   0
   2  -7  -8  119.79   16.59   0
   2  -7  -8  136.82   13.33   0
   1  -7  -8  530.32   32.75   0
   1  -7  -8  501.41   29.08   0
   1  -7  -8  624.58   31.12   0
   0  -7  -8  303.12   19.74   0
   0  -7  -8  250.36   22.43   0
   0  -7  -8  275.58   23.64   0
   0  11  -9  155.81   22.52   0
   0  11  -9  141.84   17.82   0
   0 -11   9  168.16   12.38   0
   0 -11   9  173.32   14.26   0
  -1  11  -9   14.29    8.72   0
  -1  11  -9   20.76   10.58   0
   1 -11   9   45.58   10.32   0
   1 -11   9   36.47    6.77   0
   1 -11   9   26.46    7.44   0
  -2  11  -9   14.19    9.91   0
  -2  11  -9   28.65    8.94   0
   2 -11   9   34.81    7.49   0
   2 -11   9   45.90    7.83   0
   2 -11   9   39.36   10.42   0
   3  10  -9  -13.70    9.53   0
   3  10  -9    7.05    7.20   0
   3  10  -9   -5.27   10.95   0
  -3 -10   9   -1.27    6.45   0
  -3 -10   9   -3.64    9.37   0
   2  10  -9   10.19    9.95   0
   2  10  -9   11.68    5.80   0
   2  10  -9   -1.96    6.83   0
  -2 -10   9   -2.36    8.29   0
  -2 -10   9   -1.64    5.45   0
   1  10  -9   56.86    8.90   0
   1  10  -9   95.95   15.66   0
   1  10  -9   66.17    9.74   0
  -1 -10   9   60.80    9.55   0
  -1 -10   9   65.69    9.45   0
   0  10  -9  165.18   14.94   0
   0  10  -9  193.02   18.76   0
   0  10  -9  166.05   10.97   0
   0 -10   9  174.91   11.74   0
   0 -10   9  163.95   16.37   0
   0 -10   9  198.23   13.00   0
  -1  10  -9   -4.83    7.34   0
  -1  10  -9   20.47    7.27   0
   1 -10   9   11.43    5.45   0
   1 -10   9    6.87    4.95   0
   1 -10   9   23.90    7.75   0
  -2  10  -9  353.13   22.84   0
  -2  10  -9  303.01   22.70   0
   2 -10   9  374.99   22.94   0
   2 -10   9  385.47   20.53   0
   2 -10   9  368.81   20.42   0
  -3  10  -9  203.13   17.50   0
  -3  10  -9  195.68   18.00   0
   3 -10   9  198.70   17.28   0
   3 -10   9  215.63   15.23   0
   3 -10   9  199.91   15.22   0
  -4  10  -9  135.07   17.11   0
   4 -10   9  131.85   16.40   0
   4 -10   9  117.56   13.89   0
   4 -10   9  113.99   14.28   0
   4   9  -9  158.53   16.59   0
   4   9  -9  173.77   16.10   0
   4   9  -9  163.18   20.12   0
  -4  -9   9  179.41   14.31   0
   3   9  -9   51.18   10.00   0
   3   9  -9   57.03   10.29   0
   3   9  -9   68.45    9.16   0
  -3  -9   9   83.51   14.29   0
  -3  -9   9   58.41    9.56   0
   2   9  -9  162.15   12.24   0
   2   9  -9  139.06   13.70   0
   2   9  -9  168.85   17.11   0
  -2  -9   9  173.88   15.40   0
  -2  -9   9  156.34   11.49   0
   1   9  -9  561.55   30.51   0
   1   9  -9  580.12   28.59   0
   1   9  -9  654.50   32.73   0
  -1  -9   9  597.55   30.85   0
  -1  -9   9  613.95   27.67   0
  -1  -9   9  591.04   28.70   0
   0   9  -9  672.81   31.27   0
   0   9  -9  673.75   34.27   0
   0   9  -9  706.62   35.27   0
   0  -9   9  716.71   34.20   0
   0  -9   9  693.90   32.43   0
   0  -9   9  673.02   32.11   0
  -1   9  -9  497.88   27.65   0
  -1   9  -9  533.24   28.30   0
   1  -9   9  538.69   27.61   0
   1  -9   9  526.54   25.79   0
   1  -9   9  543.83   26.13   0
  -2   9  -9  110.36   12.33   0
  -2   9  -9   69.99   12.40   0
   2  -9   9  115.75    9.37   0
   2  -9   9   96.91    9.67   0
   2  -9   9   89.93    9.89   0
  -3   9  -9   71.15   12.63   0
   3  -9   9  117.65   10.71   0
   3  -9   9  112.07   11.00   0
   3  -9   9   83.76   12.23   0
  -4   9  -9  244.00   17.43   0
   4  -9   9  253.82   16.59   0
   4  -9   9  263.65   17.59   0
   4  -9   9  252.62   17.58   0
  -5   9  -9   86.12   13.76   0
   5  -9   9   70.61   10.14   0
   5  -9   9   76.42    9.60   0
   5  -9   9   79.75   13.03   0
   5   8  -9   70.28   12.73   0
   5   8  -9   98.86   15.75   0
   5   8  -9  102.52   14.73   0
  -5  -8   9   82.58   11.83   0
   4   8  -9  177.30   15.57   0
   4   8  -9  196.77   15.65   0
   4   8  -9  199.10   17.68   0
  -4  -8   9  190.48   13.37   0
  -4  -8   9  191.58   15.94   0
   3   8  -9   39.59    7.53   0
   3   8  -9   37.26    6.28   0
  -3  -8   9   20.47    6.57   0
  -3  -8   9   27.61    4.72   0
   2   8  -9  446.95   24.23   0
   2   8  -9  439.54   25.45   0
   2   8  -9  461.61   23.26   0
  -2  -8   9  453.60   22.19   0
  -2  -8   9  468.83   24.17   0
   1   8  -9  360.42   21.81   0
   1   8  -9  353.51   20.52   0
   1   8  -9  405.60   19.16   0
  -1  -8   9  378.30   20.45   0
  -1  -8   9  383.78   17.67   0
  -1  -8   9  377.48   18.75   0
   0   8  -9 1077.44   51.54   0
   0   8  -9 1116.70   51.50   0
   0   8  -9 1097.46   48.94   0
   0  -8   9 1126.69   49.85   0
   0  -8   9 1149.84   49.83   0
   0  -8   9 1120.72   50.69   0
  -1   8  -9  805.81   40.02   0
  -1   8  -9  851.18   40.09   0
   1  -8   9  834.67   38.61   0
   1  -8   9  864.60   39.23   0
   1  -8   9  886.21   39.50   0
  -2   8  -9  122.67   11.66   0
  -2   8  -9  141.35   11.53   0
   2  -8   9  166.49   10.32   0
   2  -8   9  132.13   10.22   0
   2  -8   9  144.78   11.54   0
  -3   8  -9  218.15   14.29   0
  -3   8  -9  224.28   15.46   0
   3  -8   9  226.03   14.60   0
   3  -8   9  229.50   14.44   0
   4  -8   9    6.96    5.02   0
  -5   8  -9    3.44    6.07   0
  -5   8  -9    3.62    7.20   0
  -5   8  -9   14.07    7.95   0
   5  -8   9    3.18    5.98   0
   5  -8   9    3.26    5.82   0
   6   7  -9    6.67    9.22   0
   6   7  -9    2.82    8.50   0
  -6  -7   9    6.62    7.96   0
  -6  -7   9    9.84    6.58   0
   5   7  -9    1.89    6.80   0
   5   7  -9    3.95    6.24   0
   5   7  -9   17.18    8.17   0
  -5  -7   9    1.74    5.96   0
  -5  -7   9    9.12    4.92   0
   4   7  -9    0.27    5.01   0
   4   7  -9   11.21    5.70   0
  -4  -7   9    5.45    5.14   0
  -4  -7   9    0.71    3.77   0
   3   7  -9  443.22   23.86   0
   3   7  -9  427.01   23.20   0
   3   7  -9  417.54   22.86   0
  -3  -7   9  431.07   22.47   0
  -3  -7   9  433.11   21.12   0
   2   7  -9  420.49   21.68   0
   2   7  -9  350.39   21.76   0
   2   7  -9  408.89   21.00   0
  -2  -7   9  409.04   20.88   0
  -2  -7   9  432.41   19.61   0
   1   7  -9   14.15    4.47   0
   1   7  -9    8.80    4.30   0
   1   7  -9   17.64    3.44   0
  -1  -7   9   11.94    3.85   0
  -1  -7   9   18.05    2.91   0
   0   7  -9   95.55    8.91   0
   0   7  -9  109.33    8.56   0
   0   7  -9   97.35    5.70   0
   0  -7   9   99.06    6.47   0
   0  -7   9   87.83    6.54   0
  -1   7  -9  766.01   33.91   0
  -1   7  -9  768.02   33.69   0
   1  -7   9  608.08   32.76   0
  -2   7  -9 1557.55   69.75   0
  -2   7  -9 1476.32   69.04   0
   2  -7   9 1637.20   69.90   0
  -3   7  -9 1159.80   55.01   0
  -3   7  -9 1169.63   54.19   0
  -3   7  -9 1205.88   55.09   0
   3  -7   9 1278.02   55.66   0
  -4   7  -9   25.25    5.99   0
  -4   7  -9   29.83    5.44   0
  -4   7  -9   48.30    8.73   0
   4  -7   9   28.87    6.01   0
  -5   7  -9  111.75   12.69   0
  -5   7  -9   73.77   12.15   0
   5  -7   9   84.33   10.92   0
  -6   7  -9   11.68    6.94   0
  -6   7  -9   -3.36    8.24   0
  -6   7  -9   -4.21    7.28   0
   6  -7   9   -0.72    6.48   0
   6   6  -9   24.04    9.32   0
   6   6  -9   17.54    8.56   0
   6   6  -9   15.69    8.75   0
  -6  -6   9   14.73    5.70   0
  -6  -6   9   12.30    6.74   0
  -5  -6   9  127.21   10.30   0
   4   6  -9   72.36   10.49   0
   4   6  -9   60.14    9.75   0
   4   6  -9   81.84    9.94   0
  -4  -6   9   58.27    6.89   0
  -4  -6   9   71.38    8.58   0
   3   6  -9  414.00   22.30   0
   3   6  -9  375.91   21.61   0
   3   6  -9  413.61   22.58   0
  -3  -6   9  427.95   20.76   0
  -3  -6   9  433.98   19.88   0
   2   6  -9    1.38    3.43   0
   2   6  -9    1.04    3.05   0
   2   6  -9   -1.31    3.94   0
  -2  -6   9    2.27    2.12   0
   1   6  -9  327.72   17.76   0
   1   6  -9  346.80   17.61   0
   1   6  -9  336.71   16.84   0
   0   6  -9  198.92    9.31   0
   0   6  -9  188.07   11.29   0
   0   6  -9  187.93   11.25   0
   0  -6   9  193.08   10.03   0
  -1   6  -9  199.94   11.42   0
  -1   6  -9  204.29   11.78   0
  -1   6  -9  200.72   11.48   0
   1  -6   9  193.40   11.03   0
  -2   6  -9  832.50   38.50   0
  -2   6  -9  805.61   37.71   0
  -2   6  -9  831.69   38.37   0
   2  -6   9  853.95   38.70   0
  -3   6  -9  728.49   34.36   0
  -3   6  -9  727.86   35.48   0
   3  -6   9  773.88   35.80   0
  -4   6  -9  416.33   21.31   0
  -4   6  -9  346.27   20.18   0
  -4   6  -9  396.16   21.94   0
   4  -6   9  425.90   21.98   0
  -6   6  -9    4.29    7.52   0
  -6   6  -9    6.74    6.05   0
  -6   6  -9    5.57    7.07   0
   6  -6   9    0.25    5.88   0
   7   5  -9   40.56   10.26   0
   7   5  -9   41.28    8.81   0
   7   5  -9   26.30    9.73   0
  -7  -5   9   39.03    7.47   0
   6   5  -9  177.35   17.14   0
   6   5  -9  198.40   16.62   0
   6   5  -9  166.66   15.20   0
  -6  -5   9  197.70   13.33   0
  -6  -5   9  184.71   13.53   0
   5   5  -9   65.23    9.48   0
   5   5  -9   63.76   11.50   0
   5   5  -9   66.65   10.92   0
   4   5  -9    2.48    4.86   0
   4   5  -9   -3.45    3.56   0
   4   5  -9   -4.27    3.97   0
  -4  -5   9    6.64    2.76   0
  -4  -5   9    0.32    3.38   0
   3   5  -9    4.08    4.03   0
   3   5  -9    2.14    3.76   0
   3   5  -9    8.92    3.86   0
  -3  -5   9    8.60    2.25   0
  -3  -5   9   10.04    3.00   0
   2   5  -9   58.88    6.41   0
   2   5  -9   53.75    6.62   0
   1   5  -9 1408.84   62.63   0
   1   5  -9 1464.42   62.71   0
   1   5  -9 1369.15   62.50   0
   0   5  -9  174.47    8.96   0
   0   5  -9  159.32    9.32   0
   0   5  -9  165.08    9.60   0
   0   5  -9  159.94    8.48   0
   0  -5   9  158.27    8.74   0
  -1   5  -9  274.70   13.87   0
  -1   5  -9  274.56   14.07   0
  -1   5  -9  270.15   13.44   0
   1  -5   9  258.67   13.86   0
  -2   5  -9  448.26   20.25   0
  -2   5  -9  434.31   20.68   0
  -2   5  -9  427.26   21.31   0
   2  -5   9  390.69   21.08   0
   3  -5   9    7.57    3.45   0
  -4   5  -9   46.66    7.89   0
  -4   5  -9   58.03    8.97   0
  -4   5  -9   53.28    7.21   0
   4  -5   9   58.19    7.64   0
  -5   5  -9  384.38   22.23   0
  -5   5  -9  414.03   21.24   0
   5  -5   9  401.70   22.74   0
  -6   5  -9   16.76    7.75   0
  -6   5  -9   33.47    8.10   0
   6  -5   9   19.08    2.86   0
   6  -5   9   20.11    7.02   0
   7   4  -9  723.59   41.89   0
   7   4  -9  749.91   38.93   0
   7   4  -9  781.61   40.01   0
  -7  -4   9  774.53   37.64   0
  -7  -4   9  775.99   37.25   0
   6   4  -9  354.89   21.24   0
   6   4  -9  355.72   23.98   0
  -6  -4   9  388.77   20.02   0
  -6  -4   9  370.70   19.76   0
   5   4  -9    6.46    5.44   0
   5   4  -9   11.30    4.61   0
   5   4  -9    2.30    4.96   0
  -5  -4   9   10.86    3.46   0
  -5  -4   9   11.56    3.89   0
   4   4  -9  213.12   15.07   0
   4   4  -9  234.05   13.64   0
   4   4  -9  218.05   14.23   0
  -4  -4   9  239.55   11.88   0
  -4  -4   9  235.22   12.33   0
   3   4  -9  668.73   31.62   0
   3   4  -9  672.14   31.33   0
   2   4  -9 1278.09   56.89   0
   2   4  -9 1289.62   57.06   0
   1   4  -9   47.19    4.62   0
   1   4  -9   33.00    4.36   0
   0   4  -9    8.24    2.11   0
   0   4  -9    8.03    1.98   0
   0   4  -9    4.59    2.15   0
   0   4  -9    3.35    2.17   0
  -1   4  -9 1171.46   52.33   0
  -1   4  -9 1209.99   51.43   0
  -1   4  -9 1169.31   51.69   0
   1  -4   9 1155.10   52.57   0
  -2   4  -9 5464.78  231.65   0
  -2   4  -9 5284.96  230.36   0
  -2   4  -9 5455.99  230.74   0
   2  -4   9 5262.62  231.90   0
  -3   4  -9 1807.42   78.96   0
  -3   4  -9 1874.04   78.11   0
  -3   4  -9 1710.32   77.41   0
   3  -4   9 1683.23   79.02   0
   4  -4   9   13.35    4.21   0
  -5   4  -9   65.57    9.79   0
  -5   4  -9   71.75    8.27   0
   5  -4   9   63.51    9.44   0
   5  -4   9   59.50    5.26   0
   7   3  -9  426.36   28.74   0
   7   3  -9  463.30   27.01   0
   7   3  -9  440.40   25.96   0
  -7  -3   9  494.92   24.96   0
  -7  -3   9  487.71   24.38   0
   6   3  -9    1.97    4.44   0
   6   3  -9    0.46    6.45   0
   6   3  -9    5.05    6.04   0
  -6  -3   9    0.20    3.56   0
  -6  -3   9    7.13    3.93   0
   5   3  -9  209.16   14.41   0
   5   3  -9  202.06   13.25   0
  -5  -3   9  197.91   11.78   0
  -5  -3   9  247.02   12.05   0
   4   3  -9 2254.92   97.81   0
   4   3  -9 2200.62   98.13   0
   3   3  -9 1134.16   51.38   0
   3   3  -9 1175.13   51.70   0
   2   3  -9  182.95   10.08   0
   2   3  -9  189.69    9.85   0
   1   3  -9   40.22    3.47   0
   0   3  -9  141.08    7.76   0
   0   3  -9  126.29    7.63   0
  -1   3  -9 2190.90   98.41   0
  -1   3  -9 2322.59   97.75   0
  -2   3  -9 1221.13   53.81   0
  -2   3  -9 1180.88   52.57   0
  -2   3  -9 1181.25   52.24   0
   2  -3   9 1185.09   54.05   0
  -3   3  -9 1390.48   70.43   0
  -3   3  -9 1622.71   70.52   0
  -3   3  -9 1726.74   72.12   0
  -3   3  -9 1580.29   70.26   0
   3  -3   9 1693.56   72.44   0
  -4   3  -9  923.41   43.55   0
  -4   3  -9  906.38   41.72   0
  -4   3  -9  926.65   42.40   0
   4  -3   9  883.35   41.02   0
   4  -3   9  929.60   43.79   0
  -5   3  -9  218.57   14.68   0
  -5   3  -9  169.50   12.65   0
   5  -3   9  206.08   11.53   0
   5  -3   9  180.32   13.96   0
  -6   3  -9  353.67   22.87   0
  -6   3  -9  390.57   23.89   0
   6  -3   9  366.19   19.99   0
   6  -3   9  400.99   23.62   0
   8   2  -9   -3.78    9.73   0
   8   2  -9   -2.36    8.78   0
   8   2  -9    9.82    8.11   0
   8   2  -9    2.12    4.20   0
  -8  -2   9    2.78    6.85   0
  -8  -2   9   -9.75    5.45   0
   7   2  -9   -0.69    6.89   0
   7   2  -9   -5.08    7.71   0
   7   2  -9   -1.93    3.08   0
   7   2  -9    4.24    5.58   0
  -7  -2   9   -2.94    3.97   0
  -7  -2   9   -1.08    4.58   0
   6   2  -9    1.84    4.99   0
   6   2  -9    5.97    2.30   0
   6   2  -9    7.31    4.76   0
  -6  -2   9    2.55    3.01   0
  -6  -2   9    4.06    3.59   0
   5   2  -9  932.13   43.38   0
   5   2  -9  955.09   42.95   0
  -5  -2   9  926.45   41.39   0
  -5  -2   9  891.60   41.09   0
   4   2  -9  539.78   26.11   0
   4   2  -9  536.09   25.60   0
   3   2  -9   31.32    4.70   0
   3   2  -9   34.99    4.28   0
   2   2  -9  559.94   25.45   0
   2   2  -9  563.83   24.98   0
   1   2  -9  226.49   11.21   0
   0   2  -9   45.37    4.42   0
   0   2  -9   46.27    4.71   0
  -1   2  -9  561.38   26.89   0
  -1   2  -9  583.89   26.65   0
  -2   2  -9   28.17    5.27   0
  -3   2  -9  339.44   16.78   0
  -3   2  -9  342.38   18.35   0
  -3   2  -9  284.95   16.02   0
  -3   2  -9  352.22   17.76   0
   3  -2   9  313.83   16.43   0
  -4   2  -9  627.30   29.50   0
  -4   2  -9  556.03   27.75   0
  -4   2  -9  613.37   29.94   0
  -4   2  -9  571.51   28.52   0
   4  -2   9  557.57   27.79   0
  -5   2  -9  738.88   34.92   0
  -5   2  -9  733.34   35.87   0
  -5   2  -9  774.76   37.28   0
   5  -2   9  711.32   34.69   0
   5  -2   9  694.93   36.90   0
  -6   2  -9  131.84   15.12   0
  -6   2  -9   81.70   12.97   0
   6  -2   9   95.09   10.53   0
   8   1  -9  168.04   12.03   0
   8   1  -9  188.18   17.29   0
   8   1  -9  207.20   17.87   0
  -8  -1   9  188.80   15.16   0
  -8  -1   9  183.01   12.98   0
   7   1  -9  122.66   12.93   0
   7   1  -9  124.45    8.62   0
  -7  -1   9  137.08   10.90   0
  -7  -1   9  119.11    9.38   0
   6   1  -9    9.36    4.40   0
   6   1  -9    2.05    4.44   0
   6   1  -9    8.13    2.97   0
  -6  -1   9    6.27    2.78   0
  -6  -1   9    3.71    3.33   0
   5   1  -9   37.31    4.67   0
   5   1  -9   39.14    5.92   0
   4   1  -9  216.81   10.96   0
   4   1  -9  206.06   12.45   0
   4   1  -9  217.49   11.95   0
   3   1  -9   22.98    3.86   0
   3   1  -9   27.74    4.48   0
   1   1  -9  884.75   39.47   0
   1   1  -9  872.23   40.24   0
   0   1  -9   81.87    6.34   0
   0   1  -9   86.34    6.73   0
  -1   1  -9  182.63   10.86   0
  -1   1  -9  178.17   10.73   0
  -2   1  -9  725.72   34.73   0
  -2   1  -9  745.69   34.87   0
  -3   1  -9  233.50   13.08   0
  -3   1  -9  247.20   15.15   0
  -3   1  -9  285.45   13.77   0
  -3   1  -9  248.78   15.53   0
   3  -1   9  218.57   13.75   0
  -4   1  -9   12.56    4.47   0
  -4   1  -9   15.98    5.32   0
  -4   1  -9    4.52    3.72   0
  -5   1  -9  466.02   25.97   0
  -5   1  -9  416.86   22.90   0
  -5   1  -9  406.41   24.17   0
  -5   1  -9  408.47   22.04   0
   5  -1   9  374.35   22.03   0
  -6   1  -9   83.91   14.23   0
  -6   1  -9  107.99   12.20   0
  -6   1  -9   98.35   15.43   0
   6  -1   9   96.38   12.19   0
   8   0  -9  458.04   26.23   0
   8   0  -9  437.41   26.64   0
   8   0  -9  418.32   22.84   0
  -8   0   9  445.76   22.79   0
   7   0  -9  138.38   12.92   0
   7   0  -9  140.28   10.34   0
  -7   0   9  158.98   11.26   0
  -7   0   9  129.85    9.72   0
   6   0  -9   10.32    5.29   0
   6   0  -9   17.76    4.11   0
   6   0  -9   10.46    4.78   0
  -6   0   9   16.81    3.27   0
   5   0  -9  411.12   21.43   0
   5   0  -9  454.67   20.95   0
   5   0  -9  409.66   21.91   0
   4   0  -9 1423.80   63.72   0
   4   0  -9 1451.62   64.37   0
   4   0  -9 1459.62   64.03   0
   3   0  -9 1368.29   59.38   0
   3   0  -9 1321.70   58.98   0
   1   0  -9  604.75   29.04   0
   0   0  -9   31.68    4.59   0
   0   0  -9   30.87    5.49   0
  -1   0  -9   65.03    7.02   0
  -1   0  -9   81.17    7.63   0
  -2   0  -9  451.66   21.22   0
  -2   0  -9  424.17   21.14   0
  -2   0  -9  444.84   23.10   0
  -2   0  -9  451.04   23.43   0
   2   0   9  470.53   22.89   0
  -3   0  -9  502.21   25.58   0
  -3   0  -9  477.13   26.41   0
  -3   0  -9  482.31   23.61   0
  -3   0  -9  470.97   23.39   0
   3   0   9  482.29   24.64   0
  -4   0  -9   59.49    8.26   0
  -4   0  -9   58.06    9.53   0
  -4   0  -9   57.49    8.37   0
   4   0   9   50.30    8.00   0
  -5   0  -9   66.79   10.98   0
  -5   0  -9   54.77    7.44   0
  -5   0  -9   67.02   10.11   0
  -5   0  -9   53.45    7.96   0
   5   0   9   51.43   10.29   0
   8  -1  -9   97.78   15.15   0
   8  -1  -9  121.29   14.21   0
   8  -1  -9  111.71   11.82   0
  -8   1   9   93.61   10.31   0
  -8   1   9  109.46   12.24   0
   7  -1  -9   32.28    7.05   0
   7  -1  -9   25.27    5.56   0
  -7   1   9   35.11    4.70   0
  -7   1   9   28.20    5.57   0
   6  -1  -9  429.35   24.11   0
   6  -1  -9  467.53   23.84   0
   6  -1  -9  453.71   22.92   0
   5  -1  -9  647.73   31.47   0
   5  -1  -9  692.00   32.38   0
   5  -1  -9  663.79   31.82   0
   4  -1  -9 1964.50   89.39   0
   4  -1  -9 2086.73   89.61   0
   4  -1  -9 2053.00   89.20   0
   3  -1  -9 1325.63   59.32   0
   3  -1  -9 1374.94   59.75   0
   2  -1  -9  690.31   33.32   0
   1  -1  -9 1137.41   52.22   0
   0  -1  -9  152.36   10.86   0
   0  -1  -9  151.01   10.37   0
  -1  -1  -9   44.62    6.24   0
  -1  -1  -9   45.86    7.58   0
  -2  -1  -9    3.33    3.65   0
  -2  -1  -9   11.73    4.87   0
  -2  -1  -9   10.13    4.74   0
   2   1   9   11.34    3.90   0
  -3  -1  -9  215.61   16.38   0
  -3  -1  -9  186.55   12.58   0
  -3  -1  -9  185.48   13.68   0
   3   1   9  158.62   12.63   0
  -4  -1  -9  746.37   39.91   0
  -4  -1  -9  742.75   38.28   0
  -4  -1  -9  830.86   36.85   0
  -4  -1  -9  710.28   36.39   0
   4   1   9  747.61   37.66   0
  -5  -1  -9  458.28   24.66   0
  -5  -1  -9  401.98   24.95   0
  -5  -1  -9  448.31   26.65   0
   5   1   9  427.87   25.36   0
   8  -2  -9    2.64    8.44   0
   8  -2  -9   -6.61    6.54   0
   8  -2  -9    2.38    7.63   0
  -8   2   9   -6.64    6.00   0
  -8   2   9   -6.69    4.38   0
   7  -2  -9  244.47   17.03   0
   7  -2  -9  208.87   15.69   0
   7  -2  -9  275.60   17.62   0
  -7   2   9  223.77   13.57   0
  -7   2   9  238.88   14.27   0
   6  -2  -9  168.15   12.63   0
   6  -2  -9  124.88   11.42   0
   6  -2  -9  148.31   12.48   0
   5  -2  -9  114.02    9.57   0
   5  -2  -9  128.14    9.80   0
   5  -2  -9  116.45   10.11   0
   4  -2  -9  152.21    9.82   0
   4  -2  -9  148.59   10.41   0
   3  -2  -9  586.71   31.93   0
   3  -2  -9  706.09   29.88   0
   2  -2  -9 1336.91   60.21   0
   2  -2  -9 1280.75   57.29   0
   1  -2  -9 1774.23   77.17   0
   1  -2  -9 1776.55   80.02   0
   0  -2  -9 1957.13   86.09   0
   0  -2  -9 1910.13   86.22   0
   0  -2  -9 1920.96   83.66   0
   0  -2  -9 1892.46   83.60   0
  -1  -2  -9  193.47   12.28   0
  -1  -2  -9  205.47   14.47   0
  -1  -2  -9  214.67   14.26   0
  -2  -2  -9   22.63    6.41   0
  -2  -2  -9   13.58    4.76   0
  -2  -2  -9   18.23    5.85   0
  -2  -2  -9   18.56    4.73   0
  -3  -2  -9   22.16    5.67   0
  -3  -2  -9   20.10    5.94   0
  -3  -2  -9   19.00    7.88   0
   3   2   9   13.38    5.36   0
  -4  -2  -9  625.02   32.26   0
  -4  -2  -9  683.47   33.27   0
  -4  -2  -9  626.25   34.18   0
   4   2   9  605.09   33.49   0
   7  -3  -9   70.29   12.26   0
   7  -3  -9   92.34   11.94   0
   7  -3  -9   89.00   13.11   0
  -7   3   9   77.74    8.50   0
  -7   3   9  103.40    9.76   0
   6  -3  -9   -0.89    5.46   0
   6  -3  -9    9.94    5.72   0
   6  -3  -9   12.68    5.52   0
   5  -3  -9   61.08    8.78   0
   5  -3  -9   60.17    8.34   0
   4  -3  -9   58.22    9.51   0
   4  -3  -9   58.04    7.14   0
   3  -3  -9  346.71   20.45   0
   3  -3  -9  372.07   17.88   0
   3  -3  -9  337.43   17.96   0
   2  -3  -9  163.02   10.34   0
   2  -3  -9  182.72   10.07   0
   2  -3  -9  170.58   13.09   0
   1  -3  -9  966.83   43.34   0
   1  -3  -9  982.06   46.10   0
   1  -3  -9  934.70   43.01   0
   0  -3  -9 1403.36   62.80   0
   0  -3  -9 1418.39   65.44   0
   0  -3  -9 1419.33   62.68   0
  -1  -3  -9  354.08   19.17   0
  -1  -3  -9  386.44   20.05   0
  -1  -3  -9  324.13   21.02   0
  -1  -3  -9  393.30   22.27   0
  -2  -3  -9  323.60   19.40   0
  -2  -3  -9  358.74   22.41   0
  -2  -3  -9  324.57   18.77   0
   2   3   9  317.07   20.52   0
  -3  -3  -9  258.91   19.84   0
  -3  -3  -9  266.74   17.89   0
  -3  -3  -9  271.29   18.32   0
   3   3   9  267.16   18.71   0
  -4  -3  -9   69.19   12.89   0
  -4  -3  -9  114.58   15.47   0
  -4  -3  -9   79.05   11.50   0
   4   3   9   69.52   13.95   0
   7  -4  -9   43.92    9.13   0
   7  -4  -9   64.64    9.73   0
  -7   4   9   55.95    9.10   0
  -7   4   9   44.96    6.10   0
   6  -4  -9   40.63    7.22   0
   6  -4  -9   41.27    7.68   0
   5  -4  -9  167.24   14.98   0
   5  -4  -9  152.81   12.97   0
   5  -4  -9  170.49   12.61   0
   5  -4  -9  153.43   13.68   0
   4  -4  -9  846.41   39.83   0
   4  -4  -9  908.46   42.66   0
   4  -4  -9  806.75   39.90   0
   3  -4  -9  131.44   12.61   0
   3  -4  -9  125.83   10.19   0
   2  -4  -9  296.63   19.38   0
   2  -4  -9  325.80   17.07   0
   1  -4  -9  235.44   12.90   0
   1  -4  -9  197.21   15.68   0
   1  -4  -9  214.03   13.20   0
  -2  -4  -9  540.50   28.36   0
  -2  -4  -9  538.70   28.98   0
  -2  -4  -9  472.93   29.90   0
  -2  -4  -9  601.86   32.41   0
   2   4   9  493.66   29.63   0
  -3  -4  -9   15.92    8.60   0
  -3  -4  -9   36.61   11.28   0
  -3  -4  -9   28.55    8.64   0
  -3  -4  -9    4.36    8.67   0
   3   4   9   -0.55    7.03   0
   6  -5  -9  215.51   16.36   0
   6  -5  -9  223.75   17.48   0
   6  -5  -9  212.94   19.19   0
   6  -5  -9  167.09   16.36   0
   5  -5  -9   84.74   12.99   0
   5  -5  -9   82.55   12.70   0
   5  -5  -9  102.84   11.38   0
   4  -5  -9   15.86    5.66   0
   4  -5  -9   27.83    7.15   0
   4  -5  -9   15.29    5.82   0
   3  -5  -9   31.61    6.17   0
   3  -5  -9   25.13    6.90   0
   2  -5  -9 1101.29   50.04   0
   2  -5  -9 1099.91   50.75   0
   2  -5  -9 1091.28   53.26   0
   1  -5  -9 1875.71   84.94   0
   1  -5  -9 1912.39   84.35   0
   1  -5  -9 1919.07   87.65   0
   0  -5  -9  347.28   19.64   0
   0  -5  -9  344.53   23.11   0
   0  -5  -9  339.12   20.64   0
  -1  -5  -9   10.04    8.43   0
  -1  -5  -9   14.75    7.88   0
  -2  -5  -9   -3.81   10.00   0
  -2  -5  -9    3.44    9.49   0
  -2  -5  -9    5.50    7.29   0
   2   5   9   -3.08    7.57   0
   5  -6  -9   31.69    8.35   0
   5  -6  -9   18.73    7.18   0
   5  -6  -9   12.95    8.65   0
   4  -6  -9   81.15   12.38   0
   4  -6  -9   98.30   15.58   0
   3  -6  -9    5.51    6.52   0
   3  -6  -9   22.06    6.80   0
   3  -6  -9    1.65    7.30   0
   2  -6  -9  483.57   25.77   0
   2  -6  -9  493.60   26.83   0
   2  -6  -9  509.91   29.41   0
   1  -6  -9  605.61   34.02   0
   1  -6  -9  620.37   32.17   0
   1  -6  -9  579.88   30.60   0
   0  -6  -9  438.13   24.45   0
   0  -6  -9  398.05   27.87   0
   0  -6  -9  432.29   25.93   0
  -1  -6  -9  173.47   16.45   0
  -1  -6  -9  158.77   19.83   0
  -1  -6  -9  131.86   21.73   0
   3  -7  -9   18.43    8.74   0
   3  -7  -9   11.90    7.83   0
   3  -7  -9   -4.68    9.98   0
   2  -7  -9   90.73   11.10   0
   2  -7  -9   77.88   11.57   0
   2  -7  -9   95.17   17.11   0
   2  10 -10   88.31   11.91   0
   2  10 -10   60.52   11.78   0
   2  10 -10   91.69   11.49   0
  -2 -10  10   82.02   10.53   0
  -2 -10  10  104.39   16.37   0
   1  10 -10  549.90   33.31   0
   1  10 -10  593.43   28.50   0
   1  10 -10  562.31   31.20   0
  -1 -10  10  608.65   28.77   0
  -1 -10  10  614.97   31.59   0
   0  10 -10  379.34   24.10   0
   0  10 -10  291.70   20.87   0
   0 -10  10  374.97   21.82   0
   0 -10  10  331.11   18.75   0
   0 -10  10  341.68   17.86   0
  -1  10 -10  824.40   43.11   0
  -1  10 -10  760.15   42.15   0
   1 -10  10  908.24   41.69   0
   1 -10  10  877.02   40.22   0
   1 -10  10  893.79   40.14   0
  -2  10 -10  127.10   15.37   0
  -2  10 -10  138.20   16.43   0
   2 -10  10  155.09   15.68   0
   2 -10  10  140.74   12.60   0
   2 -10  10  139.85   12.05   0
  -3  10 -10   -1.82    8.06   0
  -3  10 -10   26.24    8.36   0
   3 -10  10    6.43    6.38   0
   3 -10  10    5.17    6.53   0
   3 -10  10    5.63    8.17   0
   4   9 -10  205.15   17.73   0
   4   9 -10  178.06   21.98   0
  -4  -9  10  257.62   19.72   0
  -4  -9  10  219.69   15.55   0
   3   9 -10   55.86   10.64   0
   3   9 -10   58.83   11.45   0
   3   9 -10   64.37    9.36   0
  -3  -9  10   74.72    9.63   0
  -3  -9  10   84.39   13.39   0
   2   9 -10  204.57   18.89   0
   2   9 -10  204.74   13.79   0
   2   9 -10  198.90   15.77   0
  -2  -9  10  188.63   12.61   0
  -2  -9  10  212.71   16.05   0
   0   9 -10 2130.46   99.67   0
   0   9 -10 2086.63   99.06   0
   0  -9  10 2389.20   98.25   0
   0  -9  10 2255.24   97.17   0
   0  -9  10 2248.85   97.24   0
  -1   9 -10  982.96   49.87   0
  -1   9 -10  973.66   49.89   0
   1  -9  10 1113.59   48.61   0
   1  -9  10 1105.51   47.97   0
   1  -9  10 1121.01   48.68   0
  -2   9 -10  119.30   13.18   0
   2  -9  10  123.66   10.59   0
  -4   9 -10   -0.82    6.79   0
   4  -9  10    3.48    6.37   0
   5   8 -10  314.15   25.50   0
   5   8 -10  320.50   23.08   0
   5   8 -10  302.33   23.32   0
  -5  -8  10  347.96   19.54   0
   4   8 -10   16.05    6.87   0
   4   8 -10   20.52    8.21   0
   4   8 -10   10.09    6.27   0
  -4  -8  10   -0.99    6.51   0
  -4  -8  10   16.97    4.76   0
   3   8 -10  278.86   17.62   0
   3   8 -10  285.89   18.47   0
  -3  -8  10  291.09   15.70   0
  -3  -8  10  297.11   18.15   0
   2   8 -10  684.50   35.43   0
   2   8 -10  690.00   33.33   0
   2   8 -10  673.09   34.24   0
  -2  -8  10  691.31   32.01   0
  -2  -8  10  738.92   33.46   0
   1   8 -10   18.83    4.00   0
   1   8 -10   19.14    5.72   0
   1   8 -10   34.30    7.39   0
  -1  -8  10   22.54    5.08   0
   0   8 -10   18.78    5.74   0
   0   8 -10   24.60    5.68   0
   0  -8  10   22.15    3.51   0
  -1   8 -10    2.01    4.63   0
  -1   8 -10    4.15    4.31   0
   1  -8  10    6.29    3.50   0
  -2   8 -10    6.64    4.85   0
  -2   8 -10    2.46    4.93   0
   2  -8  10    9.43    4.04   0
  -3   8 -10  285.13   18.31   0
  -3   8 -10  303.09   17.34   0
   3  -8  10  305.97   17.80   0
  -4   8 -10   47.64    7.99   0
   4  -8  10   54.99    8.12   0
  -5   8 -10    9.80    7.98   0
  -5   8 -10   10.97    7.18   0
  -5   8 -10    6.84    6.86   0
   5  -8  10   15.81    7.16   0
   5   7 -10   67.17   10.98   0
   5   7 -10   72.51   14.14   0
   5   7 -10   98.65   14.54   0
  -5  -7  10   80.06    9.62   0
  -5  -7  10   71.31   12.76   0
   4   7 -10   73.49   11.53   0
   4   7 -10   78.60    9.30   0
  -4  -7  10   86.77   10.75   0
  -4  -7  10   61.17    8.01   0
   3   7 -10   -3.61    4.43   0
   3   7 -10   13.91    5.61   0
   3   7 -10   -2.06    4.91   0
  -3  -7  10   -0.63    4.16   0
  -3  -7  10    8.34    3.09   0
   2   7 -10  150.03   12.76   0
   2   7 -10  156.34   11.15   0
   2   7 -10  171.14   12.13   0
   1   7 -10  308.29   17.00   0
   1   7 -10  293.22   17.48   0
   1   7 -10  316.00   15.65   0
   0   7 -10 1314.80   56.31   0
   0   7 -10 1200.72   56.10   0
   0  -7  10 1205.62   54.63   0
  -1   7 -10 1771.90   79.18   0
  -1   7 -10 1837.46   79.51   0
   1  -7  10 1758.35   78.89   0
  -2   7 -10   25.64    4.71   0
  -2   7 -10   26.87    5.47   0
  -2   7 -10   23.16    4.96   0
   2  -7  10   28.06    4.70   0
  -3   7 -10    5.06    4.93   0
  -3   7 -10    6.44    4.17   0
   3  -7  10   11.25    4.40   0
  -4   7 -10    7.09    4.80   0
  -4   7 -10    4.27    5.61   0
  -4   7 -10    4.85    5.33   0
   4  -7  10    6.95    5.06   0
  -5   7 -10   90.12   13.59   0
  -5   7 -10  131.09   14.04   0
   5  -7  10   91.04   12.30   0
   6   6 -10  585.17   35.21   0
   6   6 -10  619.34   34.35   0
   6   6 -10  592.16   33.06   0
  -6  -6  10  604.91   30.16   0
  -6  -6  10  637.33   31.33   0
   5   6 -10  996.78   49.95   0
   5   6 -10  994.83   51.55   0
   5   6 -10 1178.90   51.18   0
  -5  -6  10 1084.46   48.52   0
  -5  -6  10  989.90   47.43   0
   4   6 -10  350.13   20.80   0
   4   6 -10  358.23   20.61   0
   4   6 -10  339.30   21.52   0
  -4  -6  10  357.68   18.75   0
  -4  -6  10  359.13   17.62   0
   3   6 -10   27.40    5.70   0
   3   6 -10   18.34    5.30   0
   3   6 -10   24.10    5.28   0
   2   6 -10  168.24   11.96   0
   2   6 -10  166.50   11.59   0
   2   6 -10  175.98   11.48   0
   1   6 -10  223.79   12.34   0
   1   6 -10  223.02   13.26   0
   1   6 -10  232.08   13.68   0
   0   6 -10 1863.76   78.79   0
   0   6 -10 1724.62   78.46   0
   0  -6  10 1762.10   77.80   0
  -1   6 -10 2307.83  100.02   0
  -1   6 -10 2333.83  100.11   0
  -1   6 -10 2415.05  100.44   0
   1  -6  10 2114.16  100.13   0
  -2   6 -10  473.06   23.10   0
  -2   6 -10  480.76   23.97   0
  -2   6 -10  493.81   23.80   0
   2  -6  10  479.42   23.97   0
  -3   6 -10   13.93    5.06   0
  -3   6 -10   13.14    3.90   0
   3  -6  10    9.29    4.00   0
  -4   6 -10  343.95   19.34   0
  -4   6 -10  368.27   18.71   0
  -4   6 -10  328.56   20.03   0
   4  -6  10  324.73   19.72   0
  -5   6 -10  547.12   29.76   0
  -5   6 -10  566.90   28.35   0
  -5   6 -10  583.41   30.51   0
   5  -6  10  557.02   30.31   0
   6   5 -10  555.72   30.68   0
   6   5 -10  520.67   32.10   0
   6   5 -10  502.01   29.18   0
  -6  -5  10  575.57   27.74   0
  -6  -5  10  565.52   27.38   0
   5   5 -10 1304.77   64.39   0
   5   5 -10 1403.80   63.20   0
   5   5 -10 1352.42   62.47   0
  -5  -5  10 1399.17   60.89   0
  -5  -5  10 1332.88   60.26   0
   4   5 -10  282.14   15.82   0
   4   5 -10  237.13   15.96   0
   4   5 -10  248.10   17.31   0
   3   5 -10   -0.40    3.59   0
   3   5 -10   -0.45    3.93   0
   2   5 -10   50.44    7.00   0
   2   5 -10   58.86    6.87   0
   0   5 -10  114.18    7.64   0
   0   5 -10  121.48    7.83   0
   0   5 -10  115.39    6.47   0
   0   5 -10  121.16    7.24   0
   0   5 -10  105.21    6.74   0
  -1   5 -10  256.47   13.64   0
  -1   5 -10  297.38   14.25   0
  -1   5 -10  267.57   14.47   0
   1  -5  10  277.39   14.49   0
  -2   5 -10  473.49   23.82   0
  -2   5 -10  501.62   23.12   0
  -2   5 -10  467.07   22.49   0
   2  -5  10  475.55   23.85   0
  -3   5 -10  549.43   25.55   0
  -3   5 -10  560.44   26.23   0
  -3   5 -10  540.23   27.17   0
   3  -5  10  503.96   26.96   0
  -4   5 -10  362.69   20.91   0
  -4   5 -10  359.47   19.03   0
  -4   5 -10  359.97   19.85   0
   4  -5  10  368.05   20.71   0
  -5   5 -10  106.25   10.31   0
  -5   5 -10   77.94   11.56   0
  -5   5 -10  128.86   13.07   0
   5  -5  10   93.02   11.40   0
  -6   5 -10  382.90   24.20   0
  -6   5 -10  292.47   22.86   0
  -6   5 -10  363.48   20.89   0
   6  -5  10  315.21   22.51   0
   7   4 -10   21.34    9.04   0
   7   4 -10    8.09    8.19   0
   7   4 -10    6.17    7.72   0
  -7  -4  10    7.51    5.49   0
  -7  -4  10   18.57    6.16   0
   5   4 -10   11.30    5.56   0
   5   4 -10    3.93    5.76   0
   5   4 -10    9.82    5.08   0
  -5  -4  10   15.54    3.23   0
   4   4 -10  378.14   20.09   0
   4   4 -10  388.68   20.74   0
   3   4 -10  941.41   44.06   0
   3   4 -10  984.36   43.88   0
   2   4 -10 1053.69   47.52   0
   2   4 -10 1064.17   47.35   0
   1   4 -10  174.58    9.54   0
   1   4 -10  163.51    9.50   0
   0   4 -10  895.57   39.82   0
   0   4 -10  898.73   39.63   0
   0   4 -10  861.06   39.31   0
   0   4 -10  914.04   39.67   0
  -1   4 -10  177.95    9.48   0
  -1   4 -10  185.25    9.18   0
  -1   4 -10  172.26    8.79   0
  -1   4 -10  170.34   10.45   0
  -2   4 -10   45.49    4.89   0
   2  -4  10   32.96    5.51   0
  -3   4 -10  444.18   21.84   0
  -3   4 -10  420.11   20.33   0
  -3   4 -10  415.80   19.72   0
   3  -4  10  340.49   21.00   0
  -4   4 -10   57.86    8.31   0
  -4   4 -10   56.84    7.10   0
   4  -4  10   56.44    8.14   0
  -5   4 -10   -0.46    5.78   0
  -5   4 -10    1.64    4.64   0
  -5   4 -10    1.88    5.93   0
   5  -4  10    4.68    5.18   0
  -6   4 -10  113.84   15.89   0
   6  -4  10  115.85   13.37   0
   6  -4  10   89.72    8.05   0
   7   3 -10   10.28    9.09   0
   7   3 -10   23.53    7.57   0
   7   3 -10   27.86    8.39   0
  -7  -3  10   21.07    5.05   0
  -7  -3  10   11.74    5.39   0
   6   3 -10  992.45   46.85   0
   6   3 -10 1028.46   47.77   0
  -6  -3  10  970.58   44.68   0
  -6  -3  10  968.88   44.55   0
   5   3 -10  385.62   21.99   0
   5   3 -10  408.63   21.20   0
   4   3 -10  318.40   16.96   0
   4   3 -10  321.71   17.69   0
   3   3 -10  983.28   45.88   0
   3   3 -10 1053.54   45.73   0
   2   3 -10  980.09   43.62   0
   2   3 -10  978.54   43.42   0
   1   3 -10  121.52    6.94   0
   0   3 -10   31.32    4.59   0
   0   3 -10   34.16    4.50   0
  -1   3 -10  888.56   41.14   0
  -1   3 -10  922.26   40.52   0
  -2   3 -10   12.68    3.87   0
  -2   3 -10   10.22    3.12   0
  -3   3 -10  119.35    8.06   0
  -3   3 -10  132.35    8.83   0
   3  -3  10  101.88    9.46   0
  -4   3 -10   11.45    5.32   0
  -4   3 -10    8.65    3.82   0
   4  -3  10   13.75    4.65   0
  -5   3 -10  114.07   13.95   0
  -5   3 -10  118.42   12.89   0
  -5   3 -10  128.81   11.20   0
   5  -3  10  131.01    9.04   0
   5  -3  10  114.82   12.32   0
  -6   3 -10  187.65   18.27   0
  -6   3 -10  182.77   17.05   0
   6  -3  10  132.20   15.44   0
   6  -3  10  143.82   11.29   0
   7   2 -10  182.22   16.32   0
   7   2 -10  186.73   15.49   0
  -7  -2  10  192.77   13.23   0
  -7  -2  10  177.84   11.53   0
   6   2 -10  800.74   39.56   0
   6   2 -10  842.80   39.05   0
  -6  -2  10  778.38   36.28   0
  -6  -2  10  809.00   36.65   0
   5   2 -10 2406.36  106.85   0
   5   2 -10 2425.52  106.30   0
   4   2 -10 1576.40   70.94   0
   4   2 -10 1607.71   70.48   0
   3   2 -10  118.03    7.37   0
   3   2 -10   93.51    7.72   0
   2   2 -10    8.73    2.04   0
   1   2 -10  191.88   10.33   0
   1   2 -10  198.43   11.41   0
   0   2 -10  423.95   20.62   0
   0   2 -10  433.16   20.97   0
  -1   2 -10  218.79   12.21   0
  -1   2 -10  212.63   12.31   0
  -2   2 -10  137.60   10.08   0
  -2   2 -10  134.34    9.73   0
  -3   2 -10   75.01    8.65   0
  -3   2 -10   69.54    9.73   0
  -3   2 -10   80.46    6.56   0
  -4   2 -10  557.78   26.89   0
  -4   2 -10  584.57   29.50   0
  -4   2 -10  564.23   27.77   0
  -4   2 -10  521.85   28.66   0
   4  -2  10  562.13   27.07   0
  -5   2 -10  241.12   17.26   0
  -5   2 -10  190.32   13.61   0
  -5   2 -10  203.04   15.32   0
   5  -2  10  199.88   13.14   0
   7   1 -10  227.95   17.25   0
   7   1 -10  227.44   12.44   0
   7   1 -10  236.74   16.68   0
  -7  -1  10  222.28   13.70   0
  -7  -1  10  201.86   12.56   0
   6   1 -10   65.11   10.17   0
   6   1 -10   68.69    6.15   0
   5   1 -10  485.81   23.25   0
   5   1 -10  471.70   25.43   0
   5   1 -10  553.31   25.14   0
   4   1 -10 1620.14   73.51   0
   4   1 -10 1662.06   72.31   0
   4   1 -10 1691.11   73.16   0
   3   1 -10 1777.90   76.34   0
   3   1 -10 1705.54   75.94   0
   2   1 -10 2676.59  116.05   0
   1   1 -10  609.88   29.00   0
   1   1 -10  595.74   28.02   0
   0   1 -10    1.97    2.84   0
   0   1 -10    7.30    2.94   0
  -1   1 -10   36.70    6.07   0
  -1   1 -10   46.97    6.51   0
  -2   1 -10  540.58   26.64   0
  -2   1 -10  515.77   26.50   0
  -3   1 -10 1548.37   69.80   0
  -3   1 -10 1621.42   70.31   0
  -3   1 -10 1489.23   72.01   0
  -3   1 -10 1651.97   72.24   0
   3  -1  10 1613.04   71.11   0
  -4   1 -10  205.52   13.03   0
  -4   1 -10  219.54   13.97   0
  -4   1 -10  214.72   16.57   0
   4  -1  10  204.50   13.45   0
  -5   1 -10    5.65    7.65   0
  -5   1 -10    3.80    8.52   0
  -5   1 -10   -1.58    6.23   0
  -5   1 -10    6.80    5.45   0
   5  -1  10   -4.40    4.62   0
   7   0 -10    3.10    6.10   0
   7   0 -10    5.65    4.36   0
   7   0 -10   -0.93    6.14   0
  -7   0  10    6.38    3.31   0
  -7   0  10   10.45    4.38   0
   6   0 -10  231.43   16.08   0
   6   0 -10  256.92   15.43   0
   6   0 -10  233.23   13.75   0
   5   0 -10  341.15   17.18   0
   5   0 -10  333.82   17.91   0
   5   0 -10  316.13   18.23   0
   4   0 -10  353.57   16.01   0
   4   0 -10  272.17   16.15   0
   4   0 -10  286.31   15.82   0
   3   0 -10 1650.32   71.69   0
   3   0 -10 1614.96   71.32   0
   2   0 -10 1713.15   76.85   0
   1   0 -10  760.00   35.39   0
   1   0 -10  763.31   36.20   0
   0   0 -10   11.24    4.05   0
   0   0 -10   12.76    3.93   0
  -1   0 -10   44.20    7.19   0
  -1   0 -10   47.82    7.64   0
  -2   0 -10  681.05   34.59   0
  -2   0 -10  726.27   34.35   0
  -2   0 -10  695.54   31.84   0
  -2   0 -10  685.19   31.82   0
  -3   0 -10  450.44   22.58   0
  -3   0 -10  459.38   24.74   0
  -3   0 -10  432.78   25.92   0
  -3   0 -10  463.47   22.55   0
   3   0  10  453.37   23.82   0
  -4   0 -10  167.79   12.24   0
  -4   0 -10  170.45   12.58   0
  -4   0 -10  148.17   16.07   0
  -4   0 -10  157.07   14.83   0
   4   0  10  163.21   12.69   0
  -5   0 -10   15.48   10.12   0
  -5   0 -10    5.47    5.85   0
  -5   0 -10   11.04    9.18   0
  -5   0 -10    1.98    6.95   0
   5   0  10    2.43    5.82   0
   7  -1 -10    4.77    5.53   0
   7  -1 -10    6.40    6.58   0
   7  -1 -10   14.22    6.58   0
   6  -1 -10  695.06   33.91   0
   6  -1 -10  683.38   33.37   0
   6  -1 -10  650.37   32.44   0
   5  -1 -10  309.13   17.42   0
   5  -1 -10  282.97   16.49   0
   5  -1 -10  309.94   16.83   0
   4  -1 -10  172.22   10.60   0
   4  -1 -10  166.25   11.19   0
   3  -1 -10   33.82    5.68   0
   3  -1 -10   53.45    5.27   0
   2  -1 -10   49.82    7.83   0
   1  -1 -10  120.26   10.27   0
   0  -1 -10   58.96    8.24   0
   0  -1 -10   41.98    7.19   0
  -1  -1 -10   64.08    9.32   0
  -1  -1 -10   50.49    7.29   0
  -2  -1 -10   34.33    5.20   0
  -2  -1 -10   40.10    8.08   0
  -2  -1 -10   49.67    7.47   0
  -2  -1 -10   60.57    9.64   0
  -3  -1 -10   29.04    5.57   0
  -3  -1 -10   24.38    8.23   0
  -3  -1 -10   25.09    5.56   0
   3   1  10   14.46    5.50   0
  -4  -1 -10   11.54    8.30   0
  -4  -1 -10   13.71    7.52   0
  -4  -1 -10    7.64    6.33   0
   4   1  10   10.99    5.82   0
   7  -2 -10   14.51    7.04   0
   7  -2 -10    7.24    6.18   0
   7  -2 -10    3.20    7.16   0
   6  -2 -10   -0.97    5.37   0
   6  -2 -10   -2.60    5.17   0
   6  -2 -10   -1.11    5.54   0
   5  -2 -10    1.64    4.36   0
   5  -2 -10    1.29    4.57   0
   5  -2 -10   -7.81    4.24   0
   4  -2 -10  231.74   13.31   0
   4  -2 -10  231.68   13.73   0
   3  -2 -10 2605.02  111.75   0
   3  -2 -10 2536.07  114.50   0
   2  -2 -10  526.89   27.17   0
   2  -2 -10  500.83   24.02   0
   2  -2 -10  520.35   23.84   0
   1  -2 -10   94.63    6.93   0
   1  -2 -10   77.69    9.78   0
   0  -2 -10  223.98   15.02   0
  -2  -2 -10  540.55   27.35   0
  -2  -2 -10  564.55   30.75   0
  -2  -2 -10  538.73   27.00   0
  -3  -2 -10  150.37   13.44   0
  -3  -2 -10  167.27   15.88   0
  -3  -2 -10  162.95   13.96   0
   3   2  10  138.39   14.18   0
  -4  -2 -10   -6.20    9.04   0
  -4  -2 -10    1.55    8.37   0
  -4  -2 -10   -0.24    9.92   0
  -4  -2 -10   15.82    7.29   0
   4   2  10    2.78    7.26   0
   7  -3 -10  112.34   14.46   0
   7  -3 -10  101.38   13.34   0
   7  -3 -10   96.37   14.89   0
   6  -3 -10   39.18    7.03   0
   6  -3 -10   34.04    7.14   0
   6  -3 -10   25.30    7.06   0
   5  -3 -10  282.43   16.70   0
   5  -3 -10  269.19   17.45   0
   4  -3 -10  631.05   31.18   0
   4  -3 -10  678.76   34.19   0
   3  -3 -10  965.12   47.36   0
   3  -3 -10  978.15   44.63   0
   3  -3 -10  997.74   44.47   0
   2  -3 -10 1565.36   68.88   0
   2  -3 -10 1559.12   71.91   0
   2  -3 -10 1548.61   68.55   0
   1  -3 -10  175.29   11.70   0
   1  -3 -10  200.59   11.41   0
   1  -3 -10  204.32   14.91   0
   0  -3 -10    5.34    3.86   0
   0  -3 -10   -4.76    5.76   0
   0  -3 -10    3.65    6.04   0
   0  -3 -10    8.44    4.25   0
  -1  -3 -10  487.58   24.40   0
  -1  -3 -10  470.28   25.06   0
  -1  -3 -10  485.27   27.84   0
  -2  -3 -10  557.82   27.91   0
  -2  -3 -10  484.53   29.85   0
  -2  -3 -10  547.16   28.11   0
  -3  -3 -10  320.37   25.80   0
  -3  -3 -10  303.35   20.07   0
  -3  -3 -10  249.56   22.05   0
  -3  -3 -10  307.70   20.33   0
   3   3  10  247.51   20.53   0
   6  -4 -10   98.50   12.82   0
   6  -4 -10   92.11   13.07   0
   5  -4 -10    7.53    5.67   0
   5  -4 -10    1.08    6.42   0
   5  -4 -10  -10.70    6.36   0
   5  -4 -10   10.27    6.08   0
   4  -4 -10   -6.23    4.86   0
   4  -4 -10   -1.18    5.70   0
   4  -4 -10   -7.74    5.14   0
   3  -4 -10  377.58   21.14   0
   3  -4 -10  412.78   20.86   0
   3  -4 -10  406.71   24.18   0
   2  -4 -10  343.53   20.13   0
   2  -4 -10  473.32   24.83   0
   1  -4 -10  465.72   23.33   0
   0  -4 -10  498.07   28.35   0
   0  -4 -10  461.85   24.67   0
   0  -4 -10  504.79   25.59   0
  -1  -4 -10  418.07   27.92   0
  -1  -4 -10  438.97   25.37   0
  -1  -4 -10  463.47   27.23   0
  -1  -4 -10  456.98   24.25   0
  -2  -4 -10  273.16   19.69   0
  -2  -4 -10  299.05   24.76   0
  -2  -4 -10  297.85   22.61   0
  -2  -4 -10  294.03   21.74   0
   5  -5 -10  187.14   15.34   0
   5  -5 -10  173.08   18.02   0
   5  -5 -10  198.68   17.13   0
   4  -5 -10    4.55    6.47   0
   4  -5 -10    6.90    7.47   0
   4  -5 -10    0.76    5.86   0
   3  -5 -10   60.72    8.12   0
   3  -5 -10   69.49   10.62   0
   3  -5 -10   61.10    9.79   0
   2  -5 -10    0.88    5.24   0
   1  -5 -10  139.40   16.28   0
   1  -5 -10  112.55   12.27   0
   0  -5 -10  597.87   29.40   0
   0  -5 -10  539.98   30.15   0
   0  -5 -10  562.94   33.02   0
  -1  -5 -10  201.40   22.22   0
  -1  -5 -10  250.20   20.33   0
  -1  -5 -10  213.69   21.04   0
  -1  -5 -10  218.81   17.85   0
   4  -6 -10   11.42    9.30   0
   4  -6 -10   -5.67    7.38   0
   4  -6 -10   -6.46    7.62   0
   3  -6 -10  184.43   16.28   0
   3  -6 -10  186.80   20.01   0
   2  -6 -10  266.73   22.63   0
   2  -6 -10  235.97   17.52   0
   1  -6 -10    4.92    7.22   0
   1  -6 -10   -3.81   10.14   0
   1  10 -11  601.06   34.27   0
   1  10 -11  663.17   36.73   0
   1  10 -11  668.74   31.06   0
  -1 -10  11  706.06   31.64   0
   0  10 -11  110.13   14.71   0
   0  10 -11  126.73   18.21   0
   0 -10  11  152.70   10.52   0
   0 -10  11  115.47    9.69   0
  -1  10 -11   19.42    9.17   0
  -1  10 -11   14.77    7.69   0
   1 -10  11   25.36    5.67   0
  -2  10 -11   41.64    9.52   0
  -2  10 -11   30.32    8.62   0
   2 -10  11   35.33    6.92   0
   3   9 -11   14.63    7.79   0
   3   9 -11   14.58    9.87   0
   3   9 -11   16.20    6.47   0
  -3  -9  11    9.41    4.72   0
  -3  -9  11   15.36    7.32   0
   2   9 -11  441.63   23.83   0
   2   9 -11  455.21   28.57   0
   2   9 -11  432.89   26.00   0
  -2  -9  11  474.47   22.78   0
  -2  -9  11  532.40   25.13   0
   1   9 -11  493.15   23.32   0
   1   9 -11  477.37   26.26   0
   0   9 -11  378.87   23.58   0
   0   9 -11  364.04   21.64   0
   0  -9  11  398.30   18.79   0
  -1   9 -11   77.99   12.46   0
  -1   9 -11   71.46    9.87   0
   1  -9  11   78.22    8.30   0
  -2   9 -11  120.86   13.97   0
   2  -9  11  134.76   11.28   0
  -3   9 -11  393.32   21.69   0
  -3   9 -11  292.95   21.48   0
   3  -9  11  310.71   19.96   0
   4   8 -11    3.95    6.47   0
   4   8 -11   11.95    8.57   0
   4   8 -11    9.37    6.73   0
  -4  -8  11    4.07    6.69   0
  -4  -8  11    3.44    4.57   0
   2   8 -11  232.53   15.75   0
   2   8 -11  233.45   18.09   0
   2   8 -11  235.35   14.19   0
   1   8 -11  160.37    9.98   0
   1   8 -11  161.58   12.36   0
   1   8 -11  158.88   14.30   0
   0   8 -11  151.46   12.26   0
   0   8 -11  165.37   13.36   0
   0  -8  11  162.66    9.45   0
  -1   8 -11  232.39   15.37   0
  -1   8 -11  238.16   15.42   0
   1  -8  11  243.43   13.65   0
  -2   8 -11   22.71    5.96   0
  -2   8 -11   40.42    7.34   0
   2  -8  11   25.03    5.31   0
  -3   8 -11  590.31   29.62   0
   3  -8  11  605.43   30.56   0
  -4   8 -11  458.42   28.99   0
  -4   8 -11  625.90   30.15   0
  -4   8 -11  636.22   28.92   0
   4  -8  11  464.60   28.99   0
   5   7 -11  163.47   17.41   0
   5   7 -11  174.38   17.14   0
   5   7 -11  170.87   19.17   0
  -5  -7  11  172.50   14.57   0
  -5  -7  11  165.09   11.86   0
   4   7 -11  190.97   16.46   0
   4   7 -11  189.91   16.27   0
  -4  -7  11  230.53   14.19   0
  -4  -7  11  235.27   12.27   0
   3   7 -11  338.54   19.69   0
   3   7 -11  351.19   20.71   0
   3   7 -11  316.06   19.40   0
   2   7 -11    1.04    4.48   0
   2   7 -11   -3.72    3.84   0
   2   7 -11    5.52    5.65   0
   1   7 -11    9.19    4.26   0
   1   7 -11   11.03    5.05   0
   1   7 -11    5.40    2.96   0
   0   7 -11  156.72   11.08   0
   0   7 -11  167.13   11.73   0
   0  -7  11  150.74    9.08   0
  -1   7 -11   70.94    8.51   0
  -1   7 -11   63.96    8.19   0
   1  -7  11   70.35    6.92   0
  -2   7 -11  208.73   12.80   0
  -2   7 -11  200.19   13.41   0
  -2   7 -11  197.61   12.97   0
   2  -7  11  196.63   12.65   0
  -3   7 -11  112.53   10.04   0
  -3   7 -11  106.91   11.40   0
   3  -7  11  112.15   10.47   0
  -4   7 -11   25.00    6.78   0
  -4   7 -11   29.05    6.33   0
   4  -7  11   37.05    7.32   0
  -5   7 -11  213.60   18.38   0
  -5   7 -11  231.37   18.76   0
   5  -7  11  230.25   17.96   0
   6   6 -11   74.19   11.14   0
   6   6 -11   61.27   12.21   0
   6   6 -11  102.84   17.62   0
  -6  -6  11   90.65   12.46   0
  -6  -6  11   80.18    9.68   0
   5   6 -11  148.11   16.12   0
   5   6 -11  148.32   15.25   0
  -5  -6  11  143.75    9.94   0
   4   6 -11  619.39   31.35   0
   4   6 -11  616.81   30.97   0
   4   6 -11  579.15   31.88   0
   3   6 -11  175.22   12.65   0
   3   6 -11  176.20   13.32   0
   3   6 -11  145.34   12.60   0
   2   6 -11   61.35    7.99   0
   2   6 -11   69.38    9.15   0
   2   6 -11   70.58    8.36   0
   1   6 -11   66.49    7.88   0
   1   6 -11   71.83    8.46   0
   1   6 -11   69.46    6.85   0
   0   6 -11   83.02    7.77   0
   0   6 -11   73.54    7.70   0
  -1   6 -11  227.27   12.77   0
  -1   6 -11  225.82   12.96   0
  -1   6 -11  215.47   12.76   0
   1  -6  11  214.02   12.59   0
  -2   6 -11    5.16    3.52   0
  -2   6 -11    3.44    4.01   0
  -2   6 -11    6.77    4.35   0
   2  -6  11    4.34    3.50   0
  -3   6 -11   57.17    7.68   0
  -3   6 -11   71.27    8.00   0
   3  -6  11   44.62    7.97   0
  -4   6 -11   47.92    8.12   0
   4  -6  11   54.19    9.64   0
  -5   6 -11    9.14    7.56   0
  -5   6 -11   10.32    7.25   0
   5  -6  11   11.66    7.10   0
   6   5 -11  623.93   37.85   0
   6   5 -11  673.01   35.35   0
   6   5 -11  691.19   36.79   0
  -6  -5  11  684.13   31.92   0
  -6  -5  11  723.90   32.52   0
   5   5 -11  124.24   15.20   0
   5   5 -11  139.28   13.02   0
   5   5 -11  166.22   14.58   0
   4   5 -11   93.42   11.22   0
   4   5 -11   92.72   11.72   0
   4   5 -11  113.90   10.46   0
   3   5 -11   54.34    8.20   0
   3   5 -11   59.79    8.79   0
   3   5 -11   62.07    8.43   0
   2   5 -11  358.58   20.78   0
   2   5 -11  431.97   20.53   0
   2   5 -11  420.59   20.76   0
   1   5 -11  218.66   12.72   0
   1   5 -11  232.88   12.89   0
   0   5 -11   31.62    5.11   0
   0   5 -11   26.71    3.63   0
   0   5 -11   23.45    3.64   0
   0   5 -11   18.13    3.29   0
  -1   5 -11   40.09    6.51   0
  -2   5 -11  147.50    8.90   0
  -2   5 -11  142.25   10.67   0
   2  -5  11  126.82    9.87   0
  -3   5 -11  200.25   11.98   0
  -3   5 -11  209.73   12.67   0
  -3   5 -11  198.62   13.95   0
   3  -5  11  210.63   13.61   0
  -4   5 -11  542.70   28.11   0
  -4   5 -11  542.56   27.25   0
  -4   5 -11  559.80   29.42   0
   4  -5  11  580.99   29.49   0
  -5   5 -11   10.47    7.39   0
  -5   5 -11   18.60    5.86   0
  -5   5 -11   15.82    7.38   0
   5  -5  11   18.47    6.70   0
   6   4 -11  722.98   41.65   0
   6   4 -11  849.29   39.40   0
   5   4 -11  258.39   18.73   0
   5   4 -11  243.41   17.15   0
   5   4 -11  258.92   16.34   0
   4   4 -11 1404.95   64.54   0
   4   4 -11 1447.10   64.26   0
   3   4 -11  556.36   26.35   0
   3   4 -11  537.48   26.63   0
   2   4 -11  758.26   34.04   0
   2   4 -11  729.91   34.17   0
   1   4 -11  275.15   12.69   0
   1   4 -11  246.51   13.35   0
   0   4 -11   36.21    4.72   0
   0   4 -11   29.67    5.14   0
  -1   4 -11  818.02   36.48   0
  -1   4 -11  827.75   37.86   0
  -2   4 -11  392.00   20.69   0
  -2   4 -11  393.16   18.70   0
  -3   4 -11  160.24    9.70   0
  -3   4 -11  152.64   12.34   0
  -3   4 -11  131.61   10.13   0
   3  -4  11  150.15   11.40   0
  -4   4 -11  132.36    9.83   0
  -4   4 -11   97.01   10.56   0
   4  -4  11  103.93   10.99   0
  -5   4 -11  113.04   13.96   0
  -5   4 -11  111.96   14.81   0
  -5   4 -11  146.43   12.04   0
   5  -4  11  130.84   13.50   0
   7   3 -11   51.75   11.17   0
   7   3 -11   55.74    9.95   0
   7   3 -11   71.51    9.89   0
  -7  -3  11   84.76    7.97   0
  -7  -3  11   83.99    9.03   0
   6   3 -11    1.65    5.36   0
   6   3 -11   -0.08    6.61   0
   5   3 -11 1557.73   71.54   0
   5   3 -11 1599.44   71.02   0
   4   3 -11 1115.79   51.49   0
   4   3 -11 1137.03   51.00   0
   3   3 -11  377.17   19.46   0
   3   3 -11  400.58   19.16   0
   2   3 -11  249.73   12.68   0
   1   3 -11  224.86   11.07   0
   1   3 -11  199.50   12.16   0
   0   3 -11  773.21   34.82   0
   0   3 -11  742.67   34.58   0
  -1   3 -11 1528.75   67.94   0
  -1   3 -11 1556.04   68.62   0
  -2   3 -11  185.65   13.53   0
  -2   3 -11  246.26   12.77   0
  -3   3 -11   32.84    5.91   0
  -5   3 -11   99.02   11.96   0
  -5   3 -11  151.97   16.05   0
  -5   3 -11  114.88   13.52   0
   7   2 -11  234.35   17.83   0
   7   2 -11  213.36   17.99   0
   6   2 -11   23.04    6.73   0
   6   2 -11   33.18    6.30   0
   4   2 -11   79.98    8.40   0
   3   2 -11   14.03    3.68   0
   3   2 -11   20.63    3.23   0
   2   2 -11  241.98   12.13   0
   1   2 -11   39.24    6.16   0
   1   2 -11   45.05    5.08   0
   0   2 -11  638.98   28.78   0
   0   2 -11  579.27   28.92   0
  -1   2 -11  754.36   36.28   0
  -1   2 -11  808.56   36.67   0
  -2   2 -11   43.88    8.02   0
  -2   2 -11   52.04    7.77   0
  -3   2 -11   38.98    7.22   0
  -3   2 -11   28.81    5.04   0
  -3   2 -11   28.99    4.27   0
  -3   2 -11   25.01    5.93   0
  -4   2 -11    1.05    6.39   0
  -4   2 -11    7.16    5.20   0
  -4   2 -11   12.15    4.55   0
  -4   2 -11    2.79    6.28   0
  -5   2 -11    6.35    8.59   0
  -5   2 -11    1.84    5.54   0
  -5   2 -11   -7.58    6.69   0
   5  -2  11    7.88    4.92   0
   7   1 -11  101.24   13.37   0
   7   1 -11   57.54    9.70   0
   6   1 -11   22.13    3.79   0
   6   1 -11   23.74    6.68   0
   6   1 -11   24.80    6.13   0
   5   1 -11  116.47   10.58   0
   5   1 -11  116.89    7.76   0
   5   1 -11  110.81    9.72   0
   4   1 -11  637.30   28.81   0
   4   1 -11  590.68   27.86   0
   4   1 -11  599.88   29.18   0
   3   1 -11   60.58    6.35   0
   3   1 -11   55.93    5.62   0
   2   1 -11    7.56    3.91   0
   2   1 -11    4.95    2.95   0
   1   1 -11    8.87    3.39   0
   1   1 -11   12.24    4.01   0
   0   1 -11    9.78    3.82   0
   0   1 -11    4.58    3.40   0
  -1   1 -11   39.18    7.75   0
  -2   1 -11   52.99    9.61   0
  -2   1 -11   72.97    9.26   0
  -3   1 -11  207.48   12.15   0
  -3   1 -11  187.63   15.55   0
  -3   1 -11  209.62   15.46   0
  -3   1 -11  214.05   12.83   0
  -4   1 -11   76.97    9.76   0
  -4   1 -11   56.88    8.81   0
  -4   1 -11   75.17   13.47   0
  -4   1 -11   65.56   10.34   0
   4  -1  11   65.35    8.93   0
  -5   1 -11   53.76   12.24   0
   5  -1  11   48.46   10.09   0
   7   0 -11   78.99   14.05   0
   7   0 -11   80.65    9.59   0
   7   0 -11   93.00   13.31   0
   6   0 -11   36.26    7.11   0
   6   0 -11   49.14    7.72   0
   6   0 -11   48.92    7.00   0
   5   0 -11  621.11   30.40   0
   5   0 -11  648.37   31.77   0
   5   0 -11  670.03   31.27   0
   4   0 -11 1147.14   50.74   0
   4   0 -11 1089.84   50.99   0
   4   0 -11 1144.67   50.74   0
   3   0 -11  281.99   14.14   0
   3   0 -11  276.86   14.49   0
   2   0 -11   -0.35    4.05   0
   1   0 -11  331.92   17.67   0
   1   0 -11  317.98   18.33   0
   0   0 -11 1132.33   51.71   0
   0   0 -11 1116.47   52.10   0
  -1   0 -11  465.79   24.99   0
  -1   0 -11  476.39   24.84   0
  -2   0 -11   83.99   10.88   0
  -2   0 -11   76.44   11.82   0
  -3   0 -11  329.61   17.29   0
  -3   0 -11  319.14   20.08   0
  -3   0 -11  294.10   21.49   0
  -3   0 -11  285.71   16.97   0
  -4   0 -11   91.52   10.85   0
  -4   0 -11  100.27   14.41   0
  -4   0 -11   77.49   15.94   0
  -4   0 -11   95.15   12.06   0
   4   0  11  105.03   11.74   0
   7  -1 -11   20.35    7.78   0
   7  -1 -11    6.52    6.01   0
   7  -1 -11   24.83    7.94   0
   6  -1 -11   70.87    9.79   0
   6  -1 -11   81.32   11.32   0
   6  -1 -11   89.14   11.68   0
   5  -1 -11  240.43   15.40   0
   5  -1 -11  261.08   14.69   0
   5  -1 -11  213.61   14.54   0
   4  -1 -11  679.63   32.12   0
   4  -1 -11  672.25   31.69   0
   3  -1 -11  299.18   19.22   0
   3  -1 -11  320.50   16.53   0
   3  -1 -11  350.66   16.37   0
   2  -1 -11   24.65    6.13   0
   1  -1 -11  710.46   34.41   0
   1  -1 -11  707.72   35.22   0
   0  -1 -11  983.48   47.62   0
   0  -1 -11 1022.44   47.47   0
  -1  -1 -11 1714.24   80.43   0
  -1  -1 -11 1823.15   80.39   0
  -2  -1 -11  413.92   22.22   0
  -2  -1 -11  471.32   26.26   0
  -2  -1 -11  442.75   22.31   0
  -3  -1 -11   15.99    7.77   0
  -3  -1 -11   12.12    5.94   0
  -3  -1 -11   16.76    9.36   0
  -3  -1 -11   10.76    6.30   0
  -4  -1 -11  127.27   13.83   0
  -4  -1 -11   84.20   11.16   0
  -4  -1 -11   97.38   16.38   0
  -4  -1 -11   99.72   18.70   0
   4   1  11   96.58   13.68   0
   7  -2 -11  281.75   19.39   0
   7  -2 -11  311.68   21.41   0
   7  -2 -11  296.29   21.29   0
   6  -2 -11   10.18    6.58   0
   6  -2 -11    9.09    6.31   0
   6  -2 -11    6.84    6.25   0
   5  -2 -11   25.80    5.92   0
   5  -2 -11   19.28    5.90   0
   5  -2 -11   31.18    5.96   0
   4  -2 -11  524.30   26.93   0
   4  -2 -11  592.02   30.37   0
   3  -2 -11    1.27    5.00   0
   3  -2 -11   -0.89    3.50   0
   2  -2 -11   87.53   11.03   0
   2  -2 -11  108.59    7.95   0
   1  -2 -11  359.55   21.48   0
   0  -2 -11  372.60   21.46   0
   0  -2 -11  356.38   21.86   0
  -1  -2 -11  384.59   20.56   0
  -1  -2 -11  388.11   24.12   0
  -1  -2 -11  356.91   20.73   0
  -1  -2 -11  463.93   24.51   0
  -2  -2 -11  483.51   24.75   0
  -2  -2 -11  466.10   25.08   0
  -2  -2 -11  473.26   27.94   0
  -3  -2 -11  659.90   35.58   0
  -3  -2 -11  594.59   38.01   0
  -3  -2 -11  625.66   33.24   0
  -3  -2 -11  676.63   33.12   0
   6  -3 -11   15.10    7.23   0
   6  -3 -11   20.17    7.52   0
   5  -3 -11   16.00    6.08   0
   5  -3 -11   20.03    8.05   0
   5  -3 -11    9.76    6.75   0
   4  -3 -11   83.71    9.38   0
   4  -3 -11   78.03   10.04   0
   4  -3 -11   67.89   11.72   0
   3  -3 -11    4.03    4.45   0
   3  -3 -11   10.44    4.34   0
   2  -3 -11  327.40   16.75   0
   2  -3 -11  277.12   15.88   0
   0  -3 -11  590.12   30.28   0
   0  -3 -11  732.99   34.66   0
   0  -3 -11  656.53   33.45   0
   0  -3 -11  531.49   29.50   0
  -1  -3 -11  234.47   20.34   0
  -1  -3 -11  273.49   17.39   0
  -1  -3 -11  215.48   15.20   0
  -2  -3 -11  251.93   19.01   0
  -2  -3 -11  259.12   19.50   0
  -2  -3 -11  257.15   23.76   0
   5  -4 -11  259.40   19.20   0
   5  -4 -11  272.83   18.00   0
   5  -4 -11  239.28   19.90   0
   5  -4 -11  240.13   17.40   0
   4  -4 -11    1.49    6.02   0
   4  -4 -11    2.33    7.21   0
   3  -4 -11   29.81    6.55   0
   3  -4 -11   39.97    6.47   0
   3  -4 -11   39.47    8.56   0
   2  -4 -11    9.65    5.23   0
   2  -4 -11   14.14    5.65   0
   2  -4 -11   15.34    7.46   0
   1  -4 -11  290.32   18.58   0
   1  -4 -11  289.19   17.13   0
   1  -4 -11  305.80   21.58   0
   0  -4 -11  398.25   22.90   0
   0  -4 -11  481.00   24.55   0
   0  -4 -11  444.69   27.75   0
   0  -4 -11  393.19   26.28   0
  -1  -4 -11  277.42   18.76   0
  -1  -4 -11  260.84   23.46   0
  -1  -4 -11  309.44   21.23   0
  -1  -4 -11  218.86   22.82   0
   4  -5 -11   84.14   13.51   0
   3  -5 -11  102.21   14.39   0
   3  -5 -11   88.75   16.49   0
   3  -5 -11   97.32   12.68   0
   2  -5 -11  235.89   17.33   0
   2  -5 -11  239.96   21.42   0
   2  -5 -11  210.60   16.02   0
   1  -5 -11   13.31    7.27   0
   1  -5 -11   17.09   10.30   0
   1  -5 -11   10.68    8.14   0
   0  10 -12   26.55    9.75   0
   0  10 -12   31.38    8.56   0
   2   9 -12   39.89    7.78   0
   2   9 -12   36.64    9.87   0
   2   9 -12   41.13    6.60   0
   1   9 -12  243.00   17.65   0
   1   9 -12  260.07   13.30   0
   0   9 -12  264.92   17.54   0
  -1   9 -12   -7.30    6.23   0
   1  -9  12   -0.51    4.36   0
  -2   9 -12  146.01   14.99   0
   2  -9  12  143.22   12.13   0
  -3   9 -12   14.74    7.48   0
   4   8 -12  164.19   16.36   0
   4   8 -12  146.40   18.65   0
   4   8 -12  164.35   15.84   0
   3   8 -12  103.98   12.26   0
   3   8 -12  108.45   13.13   0
   2   8 -12    4.36    4.30   0
   2   8 -12    4.28    7.29   0
   2   8 -12   -1.97    5.32   0
   1   8 -12  135.01   11.99   0
   1   8 -12  131.29    8.78   0
   1   8 -12  146.17   14.35   0
   0   8 -12   92.99   10.33   0
   0   8 -12   76.13   11.70   0
  -1   8 -12  102.70   11.90   0
  -1   8 -12  108.53   11.60   0
   1  -8  12  135.62    9.60   0
  -2   8 -12  240.48   16.36   0
  -2   8 -12  238.97   16.69   0
   2  -8  12  247.03   15.21   0
  -3   8 -12  126.04   12.39   0
  -3   8 -12  119.86   13.08   0
   3  -8  12  153.04   12.90   0
   5   7 -12  347.85   25.80   0
   5   7 -12  334.24   24.46   0
   4   7 -12  388.01   23.53   0
   4   7 -12  369.45   23.03   0
   3   7 -12  299.22   19.16   0
   3   7 -12  334.16   19.21   0
   3   7 -12  318.11   20.10   0
   2   7 -12  100.53   10.99   0
   2   7 -12  127.45   12.88   0
   2   7 -12  103.31    9.78   0
   1   7 -12   10.83    4.80   0
   1   7 -12    9.69    3.18   0
   1   7 -12    3.00    5.90   0
   0   7 -12  166.28   12.84   0
   0   7 -12  195.02   12.53   0
  -1   7 -12   68.67    8.98   0
  -1   7 -12   50.50    8.56   0
   1  -7  12   57.86    7.10   0
  -2   7 -12   35.74    6.41   0
  -2   7 -12   28.24    5.93   0
  -2   7 -12   27.89    5.52   0
   2  -7  12   28.28    5.51   0
  -3   7 -12  205.80   15.38   0
  -3   7 -12  203.93   13.98   0
   3  -7  12  211.83   15.07   0
  -4   7 -12  382.09   23.42   0
  -4   7 -12  394.12   21.55   0
  -4   7 -12  364.25   22.33   0
   4  -7  12  342.75   22.71   0
   5   6 -12  549.77   29.96   0
   5   6 -12  491.62   30.42   0
   5   6 -12  507.20   28.92   0
   4   6 -12  188.77   15.75   0
   4   6 -12  168.38   15.57   0
   4   6 -12  193.84   15.12   0
   3   6 -12  161.02   13.50   0
   3   6 -12  188.19   13.29   0
   3   6 -12  164.60   13.43   0
   2   6 -12  362.67   19.72   0
   2   6 -12  321.15   19.08   0
   2   6 -12  359.31   18.95   0
   1   6 -12 1295.78   58.42   0
   1   6 -12 1318.44   58.21   0
   1   6 -12 1266.39   57.65   0
   0   6 -12  439.03   21.67   0
   0   6 -12  421.31   21.54   0
  -1   6 -12   11.40    4.32   0
  -1   6 -12   12.16    4.27   0
  -1   6 -12    5.79    4.32   0
  -2   6 -12   65.42    7.79   0
  -2   6 -12   66.73    8.88   0
  -2   6 -12   73.40    9.35   0
   2  -6  12   74.43    8.21   0
  -3   6 -12   12.57    6.12   0
  -3   6 -12   16.26    4.86   0
  -3   6 -12    6.84    5.01   0
   3  -6  12    5.01    5.05   0
  -4   6 -12  842.86   38.67   0
  -4   6 -12  676.54   36.88   0
  -4   6 -12  773.68   36.39   0
   4  -6  12  735.39   38.36   0
   6   5 -12  244.89   23.12   0
   6   5 -12  305.58   22.67   0
   6   5 -12  285.99   20.53   0
   5   5 -12   14.10    6.50   0
   5   5 -12    0.83    7.14   0
   5   5 -12   -2.42    7.36   0
   4   5 -12   -3.20    5.60   0
   4   5 -12   -3.15    4.94   0
   4   5 -12    4.64    5.99   0
   3   5 -12  151.37   11.86   0
   3   5 -12  148.95   11.63   0
   3   5 -12  124.57   12.13   0
   2   5 -12  833.67   37.87   0
   2   5 -12  799.94   38.07   0
   1   5 -12  576.69   28.28   0
   1   5 -12  621.68   28.22   0
   0   5 -12  589.68   27.95   0
   0   5 -12  618.57   28.22   0
   0   5 -12  592.54   27.98   0
   0   5 -12  620.67   27.43   0
  -1   5 -12  171.35    9.42   0
  -1   5 -12  128.17   10.51   0
  -2   5 -12    4.91    3.36   0
  -2   5 -12    0.01    4.54   0
  -3   5 -12   15.54    4.35   0
  -3   5 -12   19.67    5.95   0
   3  -5  12   28.20    5.99   0
  -4   5 -12   16.52    6.37   0
   4  -5  12   28.35    6.82   0
   6   4 -12   78.33   13.63   0
   6   4 -12   80.38   14.03   0
   6   4 -12   51.85   11.24   0
   5   4 -12   71.50   11.81   0
   5   4 -12   79.90   11.25   0
   4   4 -12   -4.34    5.00   0
   4   4 -12    2.59    4.49   0
   3   4 -12    2.54    3.91   0
   3   4 -12    6.16    4.39   0
   1   4 -12   73.48    7.69   0
   1   4 -12  100.87    6.35   0
   0   4 -12  313.03   16.29   0
   0   4 -12  337.71   16.66   0
  -1   4 -12  752.92   35.24   0
  -1   4 -12  750.93   33.86   0
  -2   4 -12  124.47   10.91   0
  -2   4 -12  116.14    8.12   0
  -3   4 -12  112.93   11.89   0
  -3   4 -12  106.28    8.89   0
  -3   4 -12  104.92    9.48   0
  -4   4 -12  109.66   13.93   0
  -4   4 -12   81.04   11.48   0
  -4   4 -12   85.88    9.89   0
   6   3 -12  159.85   14.63   0
   5   3 -12  165.58   13.65   0
   5   3 -12  164.85   12.92   0
   4   3 -12  163.56   12.14   0
   4   3 -12  168.33   11.58   0
   3   3 -12   38.12    6.28   0
   3   3 -12   32.05    4.98   0
   2   3 -12  148.05    8.09   0
   1   3 -12 1082.31   48.90   0
   1   3 -12 1123.17   50.25   0
   0   3 -12  191.14   11.72   0
   0   3 -12  189.70   11.70   0
  -1   3 -12  117.89    9.65   0
  -1   3 -12   88.06    8.02   0
  -2   3 -12  992.56   47.39   0
  -2   3 -12 1097.65   48.79   0
  -3   3 -12  185.46   14.83   0
  -3   3 -12  202.38   12.86   0
  -3   3 -12  167.43   11.08   0
  -3   3 -12  163.65   11.86   0
  -4   3 -12  387.73   23.55   0
  -4   3 -12  369.95   20.03   0
  -4   3 -12  346.97   21.28   0
   6   2 -12  352.39   20.99   0
   6   2 -12  336.74   21.34   0
   5   2 -12  244.99   16.39   0
   5   2 -12  268.17   15.97   0
   4   2 -12   61.81    8.50   0
   4   2 -12   71.92    7.98   0
   3   2 -12    4.57    2.38   0
   3   2 -12   -4.85    3.39   0
   2   2 -12 1349.88   62.25   0
   2   2 -12 1385.65   60.16   0
   1   2 -12 2802.13  118.19   0
   1   2 -12 2629.18  119.21   0
   0   2 -12 1053.85   47.07   0
   0   2 -12 1010.53   47.45   0
  -1   2 -12  134.39   10.51   0
  -1   2 -12  124.71   10.58   0
  -2   2 -12  218.06   14.67   0
  -3   2 -12   70.53   10.84   0
  -4   2 -12  167.43   12.43   0
  -4   2 -12  153.00   13.52   0
  -4   2 -12  159.99   16.76   0
   7   1 -12  257.20   20.53   0
   7   1 -12  296.71   16.42   0
   6   1 -12  147.39    9.36   0
   6   1 -12  148.31   13.78   0
   6   1 -12  137.74   14.61   0
   5   1 -12  131.63   11.96   0
   5   1 -12  134.08   11.10   0
   4   1 -12   16.62    4.17   0
   4   1 -12   16.76    4.56   0
   3   1 -12  105.29    7.79   0
   3   1 -12  111.04    8.25   0
   2   1 -12  516.68   27.39   0
   2   1 -12  558.27   25.83   0
   1   1 -12  629.64   28.67   0
   1   1 -12  558.12   29.54   0
   0   1 -12  877.96   41.94   0
   0   1 -12  894.72   41.43   0
  -1   1 -12 1122.58   52.36   0
  -1   1 -12 1133.74   52.31   0
  -2   1 -12 1029.86   51.18   0
  -2   1 -12 1147.58   51.58   0
  -3   1 -12  400.03   25.15   0
  -3   1 -12  409.23   21.69   0
  -3   1 -12  463.72   25.09   0
  -3   1 -12  407.78   21.02   0
  -4   1 -12   13.12    6.94   0
  -4   1 -12   35.37   10.11   0
  -4   1 -12   11.25    5.94   0
  -4   1 -12   16.41    9.32   0
   6   0 -12   42.96    7.52   0
   6   0 -12   59.66    8.83   0
   6   0 -12   38.62    7.96   0
   5   0 -12   47.27    6.98   0
   5   0 -12   62.85    8.24   0
   5   0 -12   44.88    6.57   0
   4   0 -12  190.46   12.12   0
   4   0 -12  192.63   12.58   0
   3   0 -12    6.52    5.39   0
   2   0 -12    9.63    4.17   0
   2   0 -12    5.74    4.91   0
   1   0 -12   69.39    8.75   0
   1   0 -12   58.39    9.71   0
   0   0 -12   53.03    9.94   0
   0   0 -12   56.83    9.45   0
  -1   0 -12 1160.16   54.21   0
  -1   0 -12 1154.64   54.46   0
  -2   0 -12 1275.80   55.53   0
  -2   0 -12 1043.84   55.10   0
  -3   0 -12  336.13   19.21   0
  -3   0 -12  352.02   18.88   0
  -3   0 -12  338.05   24.92   0
  -3   0 -12  317.75   22.41   0
   6  -1 -12  135.69   13.90   0
   6  -1 -12  157.92   14.47   0
   6  -1 -12  107.47   12.54   0
   5  -1 -12  133.29   11.16   0
   5  -1 -12  141.56   12.16   0
   5  -1 -12  121.32   12.34   0
   4  -1 -12  342.50   18.55   0
   4  -1 -12  338.28   18.12   0
   3  -1 -12    1.41    5.37   0
   3  -1 -12    3.82    3.52   0
   2  -1 -12  299.93   18.98   0
   1  -1 -12  937.76   44.65   0
   1  -1 -12  946.03   45.68   0
   0  -1 -12   85.72   11.85   0
   0  -1 -12   71.73   11.32   0
  -1  -1 -12   79.64   12.98   0
  -2  -1 -12  -11.77    7.18   0
  -2  -1 -12    9.28    5.77   0
  -2  -1 -12    7.18    5.89   0
  -3  -1 -12   16.49    7.10   0
  -3  -1 -12  -13.34    9.15   0
  -3  -1 -12   21.80    7.96   0
   6  -2 -12  111.68   13.84   0
   6  -2 -12  148.74   15.05   0
   5  -2 -12   62.10   11.04   0
   5  -2 -12   82.55   11.04   0
   5  -2 -12   62.69   11.20   0
   5  -2 -12   81.87   14.01   0
   4  -2 -12    2.82    4.83   0
   4  -2 -12    4.73    6.30   0
   3  -2 -12  296.28   15.69   0
   3  -2 -12  272.86   15.72   0
   2  -2 -12    7.96    3.92   0
   1  -2 -12   -0.35    6.39   0
   0  -2 -12  332.51   21.54   0
   0  -2 -12  294.15   20.95   0
  -1  -2 -12  558.82   29.50   0
  -1  -2 -12  631.71   32.87   0
  -1  -2 -12  570.72   28.70   0
  -2  -2 -12 1140.12   55.95   0
  -2  -2 -12 1204.85   60.62   0
  -2  -2 -12 1274.71   59.65   0
  -2  -2 -12 1238.00   56.20   0
   5  -3 -12  195.01   18.65   0
   5  -3 -12  195.72   15.68   0
   5  -3 -12  202.77   17.00   0
   4  -3 -12 1099.21   47.45   0
   4  -3 -12  975.39   47.26   0
   4  -3 -12  977.83   50.57   0
   3  -3 -12   69.86    9.28   0
   3  -3 -12   42.81    8.96   0
   3  -3 -12   66.89    9.71   0
   2  -3 -12   53.19    9.27   0
   2  -3 -12   49.46    6.71   0
   2  -3 -12   51.71    8.22   0
   1  -3 -12  107.77   11.50   0
   1  -3 -12   75.92   13.29   0
   1  -3 -12  107.59   15.16   0
   0  -3 -12  156.69   17.73   0
   0  -3 -12  163.97   13.93   0
   0  -3 -12   94.92   15.12   0
   0  -3 -12  117.83   11.59   0
  -1  -3 -12  813.53   42.02   0
  -1  -3 -12  708.56   37.49   0
  -1  -3 -12  786.61   39.13   0
  -1  -3 -12  798.53   42.68   0
   4  -4 -12  879.84   43.07   0
   4  -4 -12  854.35   46.56   0
   4  -4 -12  943.40   43.02   0
   3  -4 -12  405.08   23.39   0
   3  -4 -12  367.78   26.50   0
   3  -4 -12  417.67   22.42   0
   2  -4 -12   42.00   10.37   0
   2  -4 -12   32.88    7.17   0
   2  -4 -12   35.80    6.76   0
   1  -4 -12    7.02    7.61   0
   1  -4 -12    1.11    9.47   0
   1  -4 -12   -1.48    6.37   0
   1   9 -13   -1.72    6.75   0
   1   9 -13    9.49    9.19   0
   3   8 -13  666.66   36.36   0
   3   8 -13  687.69   35.34   0
   3   8 -13  710.71   34.99   0
   2   8 -13 1034.72   48.02   0
   2   8 -13  949.70   44.60   0
   2   8 -13  921.82   46.03   0
   1   8 -13  120.07   12.21   0
   1   8 -13  128.84    7.96   0
   1   8 -13  116.86   14.93   0
   0   8 -13   23.94    6.59   0
   0   8 -13   35.09    7.47   0
  -1   8 -13   16.85    6.44   0
  -1   8 -13    9.72    6.75   0
  -2   8 -13   36.14    7.47   0
  -2   8 -13   30.16    7.49   0
   2  -8  13   27.19    6.47   0
   4   7 -13   59.19    9.45   0
   4   7 -13   86.80   15.52   0
   4   7 -13   77.58   14.45   0
   3   7 -13  211.99   15.99   0
   3   7 -13  214.60   15.72   0
   3   7 -13  222.67   17.24   0
   2   7 -13  286.21   16.99   0
   2   7 -13  298.25   19.67   0
   2   7 -13  285.93   18.24   0
   1   7 -13  662.84   32.54   0
   1   7 -13  619.21   31.34   0
   1   7 -13  650.37   29.59   0
   0   7 -13  176.30   14.17   0
   0   7 -13  210.09   13.52   0
  -1   7 -13   35.24    6.29   0
  -1   7 -13   50.81    6.92   0
  -2   7 -13    0.25    5.27   0
  -2   7 -13    1.43    5.76   0
  -2   7 -13   -1.11    5.74   0
   2  -7  13   -0.04    4.94   0
  -3   7 -13    1.81    6.66   0
  -3   7 -13   -2.06    5.83   0
  -3   7 -13   11.73    6.90   0
   3  -7  13    2.60    6.22   0
   5   6 -13    6.45    9.06   0
   5   6 -13   21.30    9.09   0
   5   6 -13    4.38    8.81   0
   4   6 -13  114.73   13.44   0
   4   6 -13   85.76   14.55   0
   3   6 -13  391.66   21.98   0
   3   6 -13  368.33   21.44   0
   3   6 -13  383.46   22.25   0
   2   6 -13   25.40    5.60   0
   2   6 -13   18.41    6.07   0
   2   6 -13   13.41    5.31   0
   1   6 -13   94.97    8.80   0
   1   6 -13  119.76   10.04   0
   1   6 -13  119.32    8.32   0
   1   6 -13  101.69   10.93   0
   0   6 -13  621.74   29.19   0
   0   6 -13  594.28   29.15   0
  -1   6 -13  282.60   15.45   0
  -1   6 -13  248.82   14.78   0
  -1   6 -13  236.88   14.90   0
  -2   6 -13    3.98    5.62   0
  -2   6 -13   -0.77    4.39   0
  -3   6 -13  170.05   15.14   0
  -3   6 -13  142.12   13.12   0
  -3   6 -13  176.99   12.87   0
   3  -6  13  175.33   14.43   0
   5   5 -13   -7.55    7.69   0
   5   5 -13   -5.05    6.80   0
   4   5 -13   44.74    7.57   0
   4   5 -13   40.67    8.47   0
   4   5 -13   58.47    8.61   0
   3   5 -13 1829.89   80.84   0
   3   5 -13 1784.05   80.43   0
   2   5 -13 1652.41   74.35   0
   2   5 -13 1691.99   74.16   0
   1   5 -13  340.05   17.61   0
   1   5 -13  334.11   17.62   0
   0   5 -13   64.11    6.15   0
  -1   5 -13  416.74   21.59   0
  -2   5 -13  432.96   23.55   0
  -2   5 -13  452.63   21.54   0
  -3   5 -13  375.85   19.52   0
  -3   5 -13  328.67   20.09   0
  -3   5 -13  415.42   22.32   0
  -4   5 -13   18.83    7.85   0
  -4   5 -13   31.36    8.60   0
  -4   5 -13    9.57    6.39   0
   5   4 -13  118.94   13.28   0
   5   4 -13   77.98   14.23   0
   4   4 -13  208.26   14.80   0
   4   4 -13  246.53   16.23   0
   3   4 -13  745.79   34.22   0
   3   4 -13  707.42   34.49   0
   2   4 -13 1339.04   57.76   0
   2   4 -13 1257.16   57.75   0
   1   4 -13 1042.87   45.38   0
   1   4 -13 1002.62   46.73   0
   0   4 -13  413.62   20.73   0
  -1   4 -13 1225.15   55.47   0
  -1   4 -13 1219.56   54.21   0
  -2   4 -13  208.41   14.93   0
  -3   4 -13  104.66    9.64   0
  -4   4 -13   66.68    9.27   0
  -4   4 -13   45.18    7.06   0
  -4   4 -13   60.43   10.25   0
   6   3 -13  213.71   17.60   0
   5   3 -13  214.90   14.80   0
   5   3 -13  170.67   15.39   0
   4   3 -13    8.08    5.55   0
   4   3 -13   15.02    4.74   0
   3   3 -13  189.54   12.77   0
   3   3 -13  219.51   12.34   0
   1   3 -13  821.65   35.26   0
   1   3 -13  717.57   36.34   0
   0   3 -13 2184.73   95.46   0
   0   3 -13 2160.99   95.74   0
  -1   3 -13  744.23   33.53   0
  -1   3 -13  633.54   32.43   0
  -2   3 -13   42.77    8.57   0
  -2   3 -13   29.77    6.78   0
  -3   3 -13   28.75    6.48   0
  -3   3 -13   25.68    5.16   0
   6   2 -13  512.35   29.23   0
   6   2 -13  583.97   30.39   0
   5   2 -13  455.79   23.92   0
   5   2 -13  429.52   24.16   0
   4   2 -13   35.09    6.03   0
   4   2 -13   39.48    5.41   0
   3   2 -13  680.53   30.25   0
   3   2 -13  659.17   29.56   0
   3   2 -13  621.29   30.45   0
   2   2 -13  175.40   10.53   0
   2   2 -13  179.09   13.44   0
   0   2 -13  592.20   26.73   0
   0   2 -13  477.18   26.76   0
  -1   2 -13  159.37   12.45   0
  -1   2 -13  141.58   12.16   0
  -2   2 -13    5.35    6.41   0
  -2   2 -13    8.19    5.85   0
  -3   2 -13   98.94   11.08   0
  -3   2 -13   99.06    9.30   0
  -3   2 -13   99.42   15.17   0
  -3   2 -13  107.55   13.59   0
   6   1 -13  193.32   17.81   0
   6   1 -13  216.88   17.13   0
   5   1 -13   77.31   10.76   0
   5   1 -13   68.29   11.56   0
   3   1 -13   31.16    6.66   0
   2   1 -13  159.61   13.00   0
   2   1 -13  149.82   10.91   0
   1   1 -13  126.54   12.54   0
   1   1 -13  148.67   10.79   0
   0   1 -13  317.19   18.36   0
   0   1 -13  269.04   17.36   0
  -1   1 -13   97.37   12.16   0
  -1   1 -13   87.69   11.27   0
  -2   1 -13    4.79    6.97   0
  -3   1 -13   16.77    5.52   0
  -3   1 -13   34.39    9.24   0
  -3   1 -13   16.27    6.26   0
  -3   1 -13   18.03    9.16   0
   6   0 -13  538.92   27.07   0
   6   0 -13  541.71   30.00   0
   6   0 -13  551.92   29.33   0
   5   0 -13  193.74   12.75   0
   5   0 -13  183.91   13.96   0
   5   0 -13  151.48   14.62   0
   4   0 -13   29.61    5.25   0
   4   0 -13   26.22    5.49   0
   3   0 -13  189.64   15.43   0
   3   0 -13  193.41   12.84   0
   2   0 -13   28.09    6.36   0
   2   0 -13   32.58    6.03   0
   1   0 -13  588.06   30.72   0
   1   0 -13  640.02   32.21   0
   0   0 -13 1111.04   51.38   0
   0   0 -13 1070.79   51.91   0
  -1   0 -13  385.65   23.60   0
  -2   0 -13   -7.23    8.26   0
  -2   0 -13   11.36    7.96   0
   5  -1 -13 1233.94   55.38   0
   5  -1 -13 1116.39   54.61   0
   5  -1 -13 1219.54   55.06   0
   4  -1 -13  169.19   13.02   0
   4  -1 -13  169.17   16.28   0
   4  -1 -13  182.54   12.72   0
   3  -1 -13    2.43    4.36   0
   2  -1 -13   29.53    6.56   0
   1  -1 -13  471.97   27.23   0
   1  -1 -13  483.10   26.47   0
   0  -1 -13  452.75   28.97   0
   0  -1 -13  606.27   29.49   0
  -1  -1 -13  320.43   21.81   0
  -2  -1 -13  157.62   14.66   0
  -2  -1 -13  162.37   14.90   0
  -2  -1 -13  186.28   19.46   0
   5  -2 -13  388.12   23.36   0
   5  -2 -13  350.71   26.19   0
   5  -2 -13  406.50   22.96   0
   4  -2 -13  767.63   36.23   0
   4  -2 -13  741.92   40.02   0
   3  -2 -13   24.79    5.50   0
   3  -2 -13   23.70    5.75   0
   3  -2 -13   15.16    8.01   0
   2  -2 -13  244.18   16.76   0
   2  -2 -13  211.45   18.58   0
   2  -2 -13  196.27   13.56   0
   1  -2 -13    8.23    8.08   0
   0  -2 -13    5.47    8.66   0
   0  -2 -13    8.25    9.07   0
  -1  -2 -13  335.57   19.56   0
  -1  -2 -13  322.60   24.86   0
  -1  -2 -13  313.99   20.53   0
   4  -3 -13  119.28   19.65   0
   4  -3 -13  168.13   15.64   0
   3  -3 -13  552.35   27.35   0
   3  -3 -13  511.22   31.52   0
   3  -3 -13  482.87   26.50   0
   2  -3 -13  128.04   12.05   0
   2  -3 -13  114.12   13.00   0
   2  -3 -13   94.06   17.46   0
   1  -3 -13   34.09   10.40   0
   1  -3 -13   55.96    8.41   0
   1  -3 -13   36.38    9.51   0
   2   8 -14   13.72    7.62   0
   2   8 -14   25.39    5.60   0
   1   8 -14   34.90    9.21   0
   1   8 -14   32.76    7.56   0
   0   8 -14   17.16    6.98   0
   0   8 -14   18.55    8.41   0
  -1   8 -14  234.56   18.40   0
  -1   8 -14  239.67   18.33   0
   3   7 -14  477.19   29.07   0
   3   7 -14  511.69   27.72   0
   3   7 -14  567.21   28.86   0
   2   7 -14  113.04   13.02   0
   2   7 -14  117.18   14.38   0
   1   7 -14  219.50   11.76   0
   1   7 -14  203.92   14.74   0
   1   7 -14  219.69   16.56   0
   1   7 -14  212.64   11.73   0
   0   7 -14  360.96   20.29   0
   0   7 -14  375.69   21.73   0
  -1   7 -14  329.84   19.98   0
  -1   7 -14  327.55   19.58   0
  -2   7 -14  174.56   14.65   0
  -2   7 -14  153.60   14.63   0
   4   6 -14    4.93    7.72   0
   4   6 -14   -0.38    8.63   0
   4   6 -14   15.01    8.21   0
   3   6 -14  288.03   19.21   0
   3   6 -14  263.45   18.53   0
   3   6 -14  268.44   17.79   0
   2   6 -14  382.10   20.47   0
   2   6 -14  359.32   21.01   0
   2   6 -14  377.56   21.39   0
   1   6 -14  713.08   33.51   0
   1   6 -14  721.68   32.59   0
   1   6 -14  710.47   34.20   0
   1   6 -14  670.72   32.92   0
   0   6 -14  222.12   14.04   0
   0   6 -14  219.97   12.99   0
   0   6 -14  225.97   14.64   0
  -1   6 -14   72.32    9.85   0
  -1   6 -14   74.78   10.23   0
  -1   6 -14   80.42   10.38   0
  -2   6 -14  338.85   18.26   0
  -2   6 -14  320.59   20.33   0
   4   5 -14   -4.53    7.22   0
   4   5 -14   -3.49    7.24   0
   4   5 -14    0.98    6.74   0
   3   5 -14   11.71    6.27   0
   3   5 -14    1.84    5.79   0
   2   5 -14  425.08   22.31   0
   2   5 -14  417.67   21.72   0
   1   5 -14  252.81   14.67   0
   1   5 -14  252.11   14.51   0
   0   5 -14   70.38    8.25   0
   0   5 -14   50.75    7.00   0
  -1   5 -14   51.94    9.61   0
  -2   5 -14  268.73   16.70   0
  -2   5 -14  335.84   19.18   0
  -2   5 -14  300.31   16.41   0
   5   4 -14   -3.02    7.95   0
   5   4 -14    4.74    7.54   0
   4   4 -14   83.41   12.72   0
   4   4 -14   94.64   11.89   0
   3   4 -14   -0.86    5.56   0
   3   4 -14   -2.18    4.85   0
   2   4 -14   23.83    6.11   0
   1   4 -14   63.93    8.82   0
   0   4 -14   80.85    9.24   0
   0   4 -14   75.70    8.66   0
  -1   4 -14    2.70    4.09   0
  -1   4 -14   11.70    5.72   0
  -2   4 -14  121.57    9.21   0
  -2   4 -14   79.27   12.88   0
  -3   4 -14   87.39   11.15   0
  -3   4 -14  125.89   15.95   0
   5   3 -14   10.58    7.51   0
   5   3 -14   -2.87    6.68   0
   4   3 -14    0.41    5.95   0
   4   3 -14    9.94    5.47   0
   3   3 -14   82.65    9.58   0
   2   3 -14  158.19    9.87   0
   2   3 -14  174.98   13.66   0
   1   3 -14  402.65   20.73   0
   1   3 -14  424.03   22.44   0
   0   3 -14   63.81    9.43   0
   0   3 -14   60.23    9.62   0
  -1   3 -14    4.04    5.70   0
  -1   3 -14   10.59    5.18   0
  -2   3 -14  114.27   12.00   0
  -2   3 -14  148.74   14.60   0
   5   2 -14   -3.35    6.48   0
   5   2 -14   -5.20    6.96   0
   4   2 -14    5.14    5.70   0
   4   2 -14   -5.84    5.05   0
   3   2 -14  202.39   15.65   0
   3   2 -14  195.72   11.21   0
   2   2 -14  894.93   43.90   0
   2   2 -14  926.15   41.46   0
   1   2 -14  281.80   18.76   0
   1   2 -14  317.27   16.99   0
   0   2 -14   13.68    6.40   0
   0   2 -14   10.46    5.66   0
  -1   2 -14   21.55    6.92   0
  -1   2 -14   12.51    6.50   0
  -2   2 -14  298.46   20.65   0
  -2   2 -14  289.39   20.19   0
   5   1 -14   73.23    7.96   0
   5   1 -14   64.78    8.61   0
   5   1 -14   64.53    9.27   0
   4   1 -14   85.40    9.86   0
   4   1 -14   72.30   10.80   0
   4   1 -14   63.71    8.29   0
   3   1 -14  390.56   23.33   0
   3   1 -14  379.42   20.10   0
   2   1 -14  355.61   22.23   0
   2   1 -14  394.97   20.35   0
   1   1 -14  141.99   14.07   0
   1   1 -14  156.05   12.84   0
   0   1 -14   38.52    7.39   0
   0   1 -14   21.84    7.29   0
  -1   1 -14   12.94    7.57   0
  -2   1 -14  247.90   20.45   0
  -2   1 -14  198.58   18.55   0
   5   0 -14  128.95   14.65   0
   5   0 -14  118.04   14.05   0
   5   0 -14  126.92   12.36   0
   4   0 -14  239.81   15.53   0
   4   0 -14  224.49   19.26   0
   4   0 -14  254.35   15.43   0
   4   0 -14  233.54   15.81   0
   3   0 -14  126.38   14.71   0
   3   0 -14  113.94   11.87   0
   2   0 -14   14.11    6.30   0
   1   0 -14   47.76    8.34   0
   1   0 -14   49.61    9.04   0
   0   0 -14  132.69   15.67   0
  -1   0 -14  106.51   15.82   0
  -1   0 -14  117.75   17.21   0
   4  -1 -14  151.54   17.36   0
   4  -1 -14  128.49   13.03   0
   3  -1 -14  392.12   25.92   0
   3  -1 -14  439.81   23.83   0
   2  -1 -14  115.61   13.37   0
   2  -1 -14   74.80   15.07   0
   0  -1 -14  304.46   23.71   0
   0  -1 -14  337.31   22.72   0
   2  -2 -14  105.80   14.59   0
   2  -2 -14   85.13   17.59   0
   1   7 -15   19.88    7.37   0
   1   7 -15    8.41    8.19   0
   0   7 -15   -6.24    6.19   0
   0   7 -15   -0.37    8.22   0
   2   6 -15   30.72    6.73   0
   2   6 -15   29.51    7.29   0
   2   6 -15   19.24    7.05   0
   2   6 -15   25.59    8.16   0
   1   6 -15  128.33   13.68   0
   1   6 -15  115.00   11.82   0
   1   6 -15  127.81    9.84   0
   1   6 -15  126.50   11.07   0
   0   6 -15    7.54    5.69   0
   0   6 -15    9.71    5.33   0
   0   6 -15    9.72    6.64   0
  -1   6 -15    7.73    6.29   0
  -1   6 -15    3.27    6.68   0
  -1   6 -15   17.28    6.62   0
   3   5 -15  356.90   20.83   0
   3   5 -15  330.42   21.49   0
   2   5 -15   24.34    6.30   0
   2   5 -15   22.27    6.78   0
   2   5 -15   23.39    6.67   0
   1   5 -15   -2.94    5.02   0
   0   5 -15   59.92    7.22   0
   0   5 -15   56.83    9.54   0
  -1   5 -15  561.72   28.92   0
   4   4 -15  777.43   40.82   0
   4   4 -15  882.85   40.46   0
   3   4 -15  188.06   15.19   0
   3   4 -15  219.63   14.85   0
   2   4 -15   54.64   11.33   0
   1   4 -15   35.37    6.95   0
   1   4 -15   33.35    5.58   0
   0   4 -15   61.44   10.44   0
   0   4 -15   60.70    9.90   0
  -1   4 -15  491.42   26.93   0
  -1   4 -15  635.92   29.79   0
   4   3 -15  258.88   19.42   0
   4   3 -15  336.74   19.03   0
   3   3 -15   11.87    7.49   0
   2   3 -15  231.73   16.74   0
   2   3 -15  194.41   12.40   0
   1   3 -15  184.64   13.26   0
   1   3 -15  213.85   15.89   0
   0   3 -15   -4.56    5.99   0
   0   3 -15   -4.72    6.61   0
  -1   3 -15   37.00    7.72   0
   4   2 -15  100.30   12.17   0
   4   2 -15   82.44   12.76   0
   3   2 -15   19.48    4.72   0
   2   2 -15  329.08   18.45   0
   2   2 -15  354.92   21.54   0
   1   2 -15  370.41   20.91   0
   1   2 -15  380.34   23.02   0
   0   2 -15   -7.54    6.60   0
   0   2 -15   -4.57    7.20   0
  -1   2 -15  326.62   21.80   0
   3   1 -15   22.83    8.44   0
   3   1 -15   31.78    6.53   0
   2   1 -15  219.13   15.79   0
   1   1 -15  179.53   17.47   0
   1   1 -15  185.36   15.28   0
   0   1 -15   70.73   11.21   0
   0   1 -15   85.20   13.54   0
   2   0 -15  244.89   18.40   0
   2   0 -15  239.02   20.99   0
   1   0 -15  197.06   19.34   0
;
_shelx_hkl_checksum              70480
loop_
_space_group_symop_operation_xyz
'x, y, z'
'-x, -y, -z'
loop_
_atom_site_label
_atom_site_type_symbol
_atom_site_fract_x
_atom_site_fract_y
_atom_site_fract_z
_atom_site_U_iso_or_equiv
_atom_site_adp_type
_atom_site_occupancy
_atom_site_site_symmetry_order
_atom_site_calc_flag
_atom_site_refinement_flags_posn
_atom_site_refinement_flags_adp
N1 N 0.2739(3) 0.1925(3) 0.1959(2) 0.0123(4) Uani 1 1 d . .
C2 C 0.2764(4) 0.0380(3) 0.1433(3) 0.0151(5) Uani 1 1 d . .
H2 H 0.394932 0.012683 0.123533 0.018 Uiso 1 1 calc R U
C3 C 0.1144(4) -0.0852(3) 0.1168(3) 0.0164(5) Uani 1 1 d . .
H3 H 0.121244 -0.193354 0.080057 0.020 Uiso 1 1 calc R U
C4 C -0.0593(4) -0.0477(3) 0.1449(3) 0.0177(6) Uani 1 1 d . .
H4 H -0.173723 -0.130037 0.127154 0.021 Uiso 1 1 calc R U
C5 C -0.0635(4) 0.1119(3) 0.1994(3) 0.0163(5) Uani 1 1 d . .
H5 H -0.180568 0.140291 0.219550 0.020 Uiso 1 1 calc R U
C6 C 0.1060(4) 0.2286(3) 0.2237(2) 0.0113(5) Uani 1 1 d . .
C7 C 0.1181(4) 0.4060(3) 0.2815(2) 0.0131(5) Uani 1 1 d . .
H7A H -0.013279 0.429451 0.264690 0.016 Uiso 1 1 calc R U
H7B H 0.162878 0.438062 0.368026 0.016 Uiso 1 1 calc R U
N8 N 0.2585(3) 0.4974(3) 0.2345(2) 0.0103(4) Uani 1 1 d . .
C9 C 0.1698(4) 0.4711(3) 0.1099(2) 0.0152(5) Uani 1 1 d . .
H9A H 0.143970 0.356755 0.063344 0.023 Uiso 1 1 calc R U
H9B H 0.260572 0.532012 0.078257 0.023 Uiso 1 1 calc R U
H9C H 0.046088 0.507140 0.106015 0.023 Uiso 1 1 calc R U
C10 C 0.3067(4) 0.6718(3) 0.3048(2) 0.0124(5) Uani 1 1 d . .
H10A H 0.334422 0.687126 0.389907 0.015 Uiso 1 1 calc R U
H10B H 0.192483 0.718092 0.287728 0.015 Uiso 1 1 calc R U
C11 C 0.4845(4) 0.7584(3) 0.2754(3) 0.0152(5) Uani 1 1 d . .
H11A H 0.511705 0.874125 0.322058 0.018 Uiso 1 1 calc R U
H11B H 0.453932 0.746139 0.190927 0.018 Uiso 1 1 calc R U
C12 C 0.7621(4) 0.7512(3) 0.4668(3) 0.0192(6) Uani 1 1 d . .
H12A H 0.666636 0.684525 0.493294 0.023 Uiso 1 1 calc R U
H12B H 0.894103 0.734620 0.493322 0.023 Uiso 1 1 calc R U
C13 C 0.7601(5) 0.9258(4) 0.5256(3) 0.0285(7) Uani 1 1 d . .
H13A H 0.819613 0.989482 0.482757 0.043 Uiso 1 1 calc R U
H13B H 0.835171 0.964103 0.607292 0.043 Uiso 1 1 calc R U
H13C H 0.624222 0.936699 0.524896 0.043 Uiso 1 1 calc R U
Cl1 Cl 0.59830(10) 0.31174(8) 0.06249(6) 0.01807(15) Uani 1 1 d . .
Cl2 Cl 0.66947(10) 0.34087(8) 0.39446(6) 0.01725(15) Uani 1 1 d . .
Co1 Co 0.50653(5) 0.39255(4) 0.23844(3) 0.01024(10) Uani 1 1 d . .
S1 S 0.70236(10) 0.68254(8) 0.30596(6) 0.01513(15) Uani 1 1 d . .
loop_
_atom_site_aniso_label
_atom_site_aniso_U_11
_atom_site_aniso_U_22
_atom_site_aniso_U_33
_atom_site_aniso_U_23
_atom_site_aniso_U_13
_atom_site_aniso_U_12
N1 0.0115(10) 0.0113(10) 0.0151(11) 0.0045(9) 0.0029(8) 0.0052(8)
C2 0.0148(12) 0.0131(12) 0.0178(14) 0.0044(10) 0.0037(10) 0.0059(10)
C3 0.0202(13) 0.0101(12) 0.0171(14) 0.0031(10) 0.0020(11) 0.0037(10)
C4 0.0163(13) 0.0150(13) 0.0205(15) 0.0064(11) 0.0033(11) 0.0001(10)
C5 0.0137(12) 0.0156(13) 0.0210(14) 0.0068(11) 0.0062(11) 0.0033(10)
C6 0.0124(11) 0.0124(12) 0.0105(12) 0.0052(10) 0.0032(9) 0.0032(9)
C7 0.0138(12) 0.0124(12) 0.0149(13) 0.0047(10) 0.0072(10) 0.0036(9)
N8 0.0106(10) 0.0103(10) 0.0114(11) 0.0053(8) 0.0036(8) 0.0019(8)
C9 0.0144(12) 0.0170(13) 0.0116(13) 0.0049(10) -0.0023(10) 0.0015(10)
C10 0.0158(12) 0.0085(11) 0.0117(12) 0.0016(10) 0.0024(10) 0.0041(9)
C11 0.0191(13) 0.0118(12) 0.0141(13) 0.0052(10) 0.0010(10) 0.0027(10)
C12 0.0180(13) 0.0202(14) 0.0162(14) 0.0044(11) -0.0012(11) 0.0036(11)
C13 0.0336(17) 0.0239(16) 0.0191(16) -0.0009(13) -0.0045(13) 0.0086(13)
Cl1 0.0211(3) 0.0219(3) 0.0136(3) 0.0056(3) 0.0095(2) 0.0070(3)
Cl2 0.0196(3) 0.0221(3) 0.0115(3) 0.0071(3) 0.0029(2) 0.0065(3)
Co1 0.00920(17) 0.01239(18) 0.00995(18) 0.00369(13) 0.00325(13) 0.00391(12)
S1 0.0137(3) 0.0150(3) 0.0162(3) 0.0048(3) 0.0048(2) 0.0016(2)
loop_
_atom_type_symbol
_atom_type_description
_atom_type_scat_dispersion_real
_atom_type_scat_dispersion_imag
_atom_type_scat_source
C C 0.0033 0.0016 'International Tables Vol C Tables 4.2.6.8 and 6.1.1.4'
H H 0.0000 0.0000 'International Tables Vol C Tables 4.2.6.8 and 6.1.1.4'
Cl Cl 0.1484 0.1585 'International Tables Vol C Tables 4.2.6.8 and 6.1.1.4'
Co Co 0.3494 0.9721 'International Tables Vol C Tables 4.2.6.8 and 6.1.1.4'
N N 0.0061 0.0033 'International Tables Vol C Tables 4.2.6.8 and 6.1.1.4'
S S 0.1246 0.1234 'International Tables Vol C Tables 4.2.6.8 and 6.1.1.4'
loop_
_geom_angle_atom_site_label_1
_geom_angle_atom_site_label_2
_geom_angle_atom_site_label_3
_geom_angle
C2 N1 C6 118.7(2)
C2 N1 Co1 127.03(18)
C6 N1 Co1 114.28(17)
N1 C2 C3 122.8(3)
N1 C2 H2 118.6
C3 C2 H2 118.6
C2 C3 C4 118.5(3)
C2 C3 H3 120.8
C4 C3 H3 120.8
C3 C4 C5 119.2(3)
C3 C4 H4 120.4
C5 C4 H4 120.4
C6 C5 C4 118.8(3)
C6 C5 H5 120.6
C4 C5 H5 120.6
N1 C6 C5 122.1(2)
N1 C6 C7 114.5(2)
C5 C6 C7 123.4(2)
N8 C7 C6 109.0(2)
N8 C7 H7A 109.9
C6 C7 H7A 109.9
N8 C7 H7B 109.9
C6 C7 H7B 109.9
H7A C7 H7B 108.3
C7 N8 C9 108.7(2)
C7 N8 C10 111.2(2)
C9 N8 C10 109.8(2)
C7 N8 Co1 105.08(15)
C9 N8 Co1 108.64(16)
C10 N8 Co1 113.22(15)
N8 C9 H9A 109.5
N8 C9 H9B 109.5
H9A C9 H9B 109.5
N8 C9 H9C 109.5
H9A C9 H9C 109.5
H9B C9 H9C 109.5
N8 C10 C11 110.7(2)
N8 C10 H10A 109.5
C11 C10 H10A 109.5
N8 C10 H10B 109.5
C11 C10 H10B 109.5
H10A C10 H10B 108.1
C10 C11 S1 112.49(18)
C10 C11 H11A 109.1
S1 C11 H11A 109.1
C10 C11 H11B 109.1
S1 C11 H11B 109.1
H11A C11 H11B 107.8
C13 C12 S1 114.1(2)
C13 C12 H12A 108.7
S1 C12 H12A 108.7
C13 C12 H12B 108.7
S1 C12 H12B 108.7
H12A C12 H12B 107.6
C12 C13 H13A 109.5
C12 C13 H13B 109.5
H13A C13 H13B 109.5
C12 C13 H13C 109.5
H13A C13 H13C 109.5
H13B C13 H13C 109.5
N1 Co1 N8 78.14(8)
N1 Co1 Cl1 95.56(7)
N8 Co1 Cl1 114.18(6)
N1 Co1 Cl2 93.07(7)
N8 Co1 Cl2 126.70(6)
Cl1 Co1 Cl2 118.99(3)
N1 Co1 S1 161.69(6)
N8 Co1 S1 84.06(6)
Cl1 Co1 S1 95.62(3)
Cl2 Co1 S1 94.14(3)
C11 S1 C12 102.35(13)
C11 S1 Co1 93.07(9)
C12 S1 Co1 105.75(10)
loop_
_geom_bond_atom_site_label_1
_geom_bond_atom_site_label_2
_geom_bond_distance
N1 C2 1.343(3)
N1 C6 1.346(3)
N1 Co1 2.102(2)
C2 C3 1.379(4)
C2 H2 0.9500
C3 C4 1.390(4)
C3 H3 0.9500
C4 C5 1.391(4)
C4 H4 0.9500
C5 C6 1.385(4)
C5 H5 0.9500
C6 C7 1.515(4)
C7 N8 1.484(3)
C7 H7A 0.9900
C7 H7B 0.9900
N8 C9 1.484(3)
N8 C10 1.490(3)
N8 Co1 2.122(2)
C9 H9A 0.9800
C9 H9B 0.9800
C9 H9C 0.9800
C10 C11 1.522(4)
C10 H10A 0.9900
C10 H10B 0.9900
C11 S1 1.817(3)
C11 H11A 0.9900
C11 H11B 0.9900
C12 C13 1.515(4)
C12 S1 1.826(3)
C12 H12A 0.9900
C12 H12B 0.9900
C13 H13A 0.9800
C13 H13B 0.9800
C13 H13C 0.9800
Cl1 Co1 2.2785(8)
Cl2 Co1 2.2885(8)
Co1 S1 2.5612(8)
loop_
_geom_torsion_atom_site_label_1
_geom_torsion_atom_site_label_2
_geom_torsion_atom_site_label_3
_geom_torsion_atom_site_label_4
_geom_torsion
C6 N1 C2 C3 -0.1(4)
Co1 N1 C2 C3 -178.7(2)
N1 C2 C3 C4 0.5(4)
C2 C3 C4 C5 -0.5(4)
C3 C4 C5 C6 0.1(4)
C2 N1 C6 C5 -0.3(4)
Co1 N1 C6 C5 178.4(2)
C2 N1 C6 C7 -179.4(2)
Co1 N1 C6 C7 -0.7(3)
C4 C5 C6 N1 0.3(4)
C4 C5 C6 C7 179.3(3)
N1 C6 C7 N8 32.0(3)
C5 C6 C7 N8 -147.1(3)
C6 C7 N8 C9 70.4(3)
C6 C7 N8 C10 -168.7(2)
C6 C7 N8 Co1 -45.8(2)
C7 N8 C10 C11 166.5(2)
C9 N8 C10 C11 -73.1(3)
Co1 N8 C10 C11 48.5(2)
N8 C10 C11 S1 -59.9(3)
C10 C11 S1 C12 -69.7(2)
C10 C11 S1 Co1 37.16(19)
C13 C12 S1 C11 -47.4(3)
C13 C12 S1 Co1 -144.2(2)
