#------------------------------------------------------------------------------
#$Date: 2019-01-19 05:26:10 +0200 (Sat, 19 Jan 2019) $
#$Revision: 213227 $
#$URL: file:///home/coder/svn-repositories/cod/cif/1/55/04/1550494.cif $
#------------------------------------------------------------------------------
#
# This file is available in the Crystallography Open Database (COD),
# http://www.crystallography.net/. The original data for this entry
# were provided by IUCr Journals, http://journals.iucr.org/.
#
# The file may be used within the scientific community so long as
# proper attribution is given to the journal article from which the
# data were obtained.
#
data_1550494
loop_
_publ_author_name
'Weil, Matthias'
_publ_section_title
;
 The crystal structure of BaH6As4O14 redetermined, revealing the
 localization of the hydrogen atoms
;
_journal_coeditor_code           BT4081
_journal_issue                   1
_journal_name_full               IUCrData
_journal_paper_doi               10.1107/S2414314619000750
_journal_volume                  4
_journal_year                    2019
_chemical_formula_iupac          'Ba H6 As4 O14'
_chemical_formula_moiety         'As4 H6 Ba O14'
_chemical_formula_sum            'As4 Ba H6 O14'
_chemical_formula_weight         667.07
_chemical_name_systematic
;
Barium hexahydrogen <i>cyclo</i>-tetradecaoxidotetraarsenate(V)
;
_space_group_IT_number           53
_symmetry_cell_setting           orthorhombic
_symmetry_space_group_name_Hall  '-P 2ab 2'
_symmetry_space_group_name_H-M   'P m a n'
_atom_sites_solution_hydrogens   difmap
_audit_creation_method           SHELXL-2017/1
_cell_angle_alpha                90
_cell_angle_beta                 90
_cell_angle_gamma                90
_cell_formula_units_Z            2
_cell_length_a                   8.4638(5)
_cell_length_b                   11.1799(7)
_cell_length_c                   5.8353(4)
_cell_measurement_reflns_used    8994
_cell_measurement_temperature    100(2)
_cell_measurement_theta_max      44.987
_cell_measurement_theta_min      3.018
_cell_volume                     552.16(6)
_computing_cell_refinement
;
SAINT (Bruker, 2014)
;
_computing_data_collection
;
APEX2 (Bruker, 2014)
;
_computing_data_reduction
;
SAINT (Bruker, 2014)
;
_computing_molecular_graphics
;
ATOMS (Dowty, 2006)
;
_computing_publication_material
;
publCIF (Westrip, 2010)
;
_computing_structure_refinement
;
SHELXL2017 (Sheldrick, 2015)
;
_computing_structure_solution    'coordinates taken from previous refinement'
_diffrn_ambient_temperature      100(2)
_diffrn_measured_fraction_theta_full 1.000
_diffrn_measured_fraction_theta_max 0.997
_diffrn_measurement_device_type  'Bruker APEXII CCD'
_diffrn_measurement_method       '\w- and \f-scans'
_diffrn_radiation_monochromator  graphite
_diffrn_radiation_source         'fine-focus sealed tube'
_diffrn_radiation_type           MoK\a
_diffrn_radiation_wavelength     0.71073
_diffrn_reflns_av_R_equivalents  0.0295
_diffrn_reflns_av_unetI/netI     0.0184
_diffrn_reflns_limit_h_max       15
_diffrn_reflns_limit_h_min       -16
_diffrn_reflns_limit_k_max       21
_diffrn_reflns_limit_k_min       -22
_diffrn_reflns_limit_l_max       11
_diffrn_reflns_limit_l_min       -5
_diffrn_reflns_number            18011
_diffrn_reflns_theta_full        25.242
_diffrn_reflns_theta_max         45.014
_diffrn_reflns_theta_min         3.019
_exptl_absorpt_coefficient_mu    15.571
_exptl_absorpt_correction_T_max  0.7489
_exptl_absorpt_correction_T_min  0.5506
_exptl_absorpt_correction_type   multi-scan
_exptl_absorpt_process_details
;
(<i>SADABS</i>; Bruker, 2014)
;
_exptl_crystal_colour            colourless
_exptl_crystal_density_diffrn    4.012
_exptl_crystal_description       fragment
_exptl_crystal_F_000             612
_exptl_crystal_size_max          0.12
_exptl_crystal_size_mid          0.10
_exptl_crystal_size_min          0.09
_refine_diff_density_max         1.112
_refine_diff_density_min         -0.980
_refine_ls_extinction_coef       0.0072(3)
_refine_ls_extinction_expression Fc^*^=kFc[1+0.001xFc^2^\l^3^/sin(2\q)]^-1/4^
_refine_ls_extinction_method
;
SHELXL2017 (Sheldrick, 2015)
;
_refine_ls_goodness_of_fit_ref   1.051
_refine_ls_hydrogen_treatment    mixed
_refine_ls_matrix_type           full
_refine_ls_number_parameters     60
_refine_ls_number_reflns         2384
_refine_ls_number_restraints     2
_refine_ls_restrained_S_all      1.051
_refine_ls_R_factor_all          0.0190
_refine_ls_R_factor_gt           0.0149
_refine_ls_shift/su_max          0.001
_refine_ls_shift/su_mean         0.000
_refine_ls_structure_factor_coef Fsqd
_refine_ls_weighting_details
'w=1/[\s^2^(Fo^2^)+(0.0132P)^2^+0.1747P] where P=(Fo^2^+2Fc^2^)/3'
_refine_ls_weighting_scheme      calc
_refine_ls_wR_factor_gt          0.0314
_refine_ls_wR_factor_ref         0.0323
_reflns_number_gt                2146
_reflns_number_total             2384
_reflns_threshold_expression     'I > 2\s(I)'
_cod_data_source_file            bt4081sup1.cif
_cod_data_source_block           I
_cod_original_formula_sum        'As4 H6 Ba O14'
_cod_database_code               1550494
_shelx_space_group_comment
;
The symmetry employed for this shelxl refinement is uniquely defined
by the following loop, which should always be used as a source of
symmetry information in preference to the above space-group names.
They are only intended as comments.
;
_shelx_hkl_file
;
   1   0   0   -1.70    0.40   1
  -1   0   0   -1.40    0.40   1
   2   0   0 2841.12   81.79   1
  -2   0   0 2860.21   81.79   1
  -3   0   0   -7.30    1.10   1
  -3   0   0   -2.80    1.40   1
  -4   0   0 3455.65   98.79   1
  -4   0   0 3254.47   98.89   1
   4   0   0 3475.55   98.59   1
  -4   0   0 3564.54   98.29   1
  -4   0   0 3423.26   98.29   1
  -5   0   0   -1.60    0.80   1
  -5   0   0    1.70    1.60   1
   5   0   0    0.10    1.00   1
  -5   0   0   -1.40    0.80   1
   5   0   0   -0.70    1.00   1
  -5   0   0   -2.50    1.20   1
  -6   0   0 9513.55  280.27   1
   6   0   0 9999.00  279.67   1
   6   0   0 9988.20  279.37   1
  -6   0   0 9752.62  279.17   1
  -6   0   0 9504.45  279.87   1
  -6   0   0 9929.91  279.17   1
  -7   0   0    2.30    1.20   1
  -7   0   0    1.90    1.90   1
  -7   0   0    0.50    1.20   1
   7   0   0    1.30    1.60   1
   7   0   0    0.90    1.30   1
  -7   0   0    1.30    2.10   1
  -8   0   0  980.70   28.10   1
   8   0   0  929.91   28.90   1
   8   0   0  914.41   28.30   1
  -8   0   0  921.41   29.10   1
  -8   0   0  938.01   28.00   1
  -9   0   0   -0.30    1.90   1
   9   0   0    0.60    2.20   1
  -9   0   0   -0.20    1.40   1
  -9   0   0    2.70    1.60   1
 -10   0   0 1058.09   33.50   1
 -11   0   0    1.20    3.40   1
 -12   0   0 2584.24   77.89   1
 -13   0   0   -1.70    4.10   1
 -14   0   0  365.26   15.80   1
 -15   0   0    1.10    4.90   1
 -16   0   0  255.37   13.80   1
   0   1   0   -2.80    0.10   1
   0   1   0   -3.00    0.20   1
   0  -1   0   -3.30    0.20   1
   0  -1   0   -2.70    0.20   1
  -1  -1   0   75.19    2.90   1
  -1   1   0   77.69    3.00   1
  -1  -1   0   75.39    2.50   1
   1   1   0   75.79    2.50   1
   1   1   0   76.89    2.80   1
   1  -1   0   81.19    3.00   1
  -2  -1   0    3.90    0.80   1
   2   1   0   -0.40    0.80   1
  -2  -1   0    0.40    1.10   1
  -2   1   0    4.00    1.40   1
  -3  -1   0 2149.88   66.49   1
  -3  -1   0 2363.76   66.29   1
  -3   1   0 2299.77   66.89   1
   3  -1   0 2317.37   66.19   1
  -3  -1   0 2320.27   66.19   1
   3   1   0 2257.87   65.79   1
   3   1   0 2401.76   67.09   1
   3  -1   0 2287.77   66.19   1
  -4  -1   0    0.60    0.90   1
  -4  -1   0    2.90    1.00   1
   4  -1   0    1.40    1.00   1
   4   1   0    0.30    0.80   1
   4  -1   0   -1.20    0.90   1
  -4   1   0    2.50    0.90   1
  -4  -1   0   -0.10    1.40   1
  -4   1   0    2.00    1.60   1
  -4  -1   0    2.10    1.30   1
  -4  -1   0    2.10    1.10   1
  -4  -1   0    0.80    0.90   1
   5   1   0    3.20    1.00   1
  -5  -1   0    2.30    1.20   1
   5   1   0    3.40    1.10   1
   5  -1   0    7.20    1.40   1
  -5  -1   0    1.10    1.50   1
  -5   1   0    5.10    1.90   1
  -5  -1   0    2.00    1.60   1
  -5   1   0    2.70    1.10   1
  -5  -1   0    3.20    1.40   1
   5  -1   0    2.50    1.00   1
  -5  -1   0    2.50    0.90   1
  -5  -1   0    1.60    0.90   1
  -5   1   0    4.30    0.90   1
  -6  -1   0    0.50    1.60   1
  -6   1   0    0.50    0.90   1
  -6   1   0    1.50    1.20   1
  -6  -1   0   -1.60    1.00   1
  -6  -1   0   -0.30    1.70   1
   6  -1   0   -0.30    1.20   1
   6   1   0    0.20    1.10   1
   6   1   0    1.30    1.00   1
  -6   1   0   -0.20    0.80   1
  -6  -1   0   -0.30    1.60   1
   6  -1   0   -0.80    1.20   1
  -6   1   0    0.40    0.90   1
  -6  -1   0    1.80    1.10   1
   7  -1   0  136.69    5.70   1
   7  -1   0  126.69    6.00   1
  -7  -1   0  140.89    5.40   1
  -7  -1   0  147.29    6.40   1
  -7   1   0  141.49    5.10   1
  -7  -1   0  143.09    6.10   1
   7   1   0  153.18    5.40   1
   7   1   0  139.79    5.80   1
  -7   1   0  138.89    6.20   1
  -7  -1   0  145.09    5.40   1
  -7   1   0  132.69    5.10   1
  -8  -1   0   -1.10    2.00   1
  -8   1   0   -1.70    1.10   1
  -8  -1   0    1.40    1.50   1
   8   1   0    1.20    1.90   1
  -8   1   0   -0.30    1.50   1
   8  -1   0    1.50    2.00   1
   8  -1   0    0.70    1.70   1
  -8   1   0   -0.20    1.20   1
  -8  -1   0    6.90    1.70   1
  -9  -1   0 1140.49   34.00   1
  -9  -1   0 1159.48   34.10   1
   9  -1   0 1261.47   35.70   1
  -9   1   0 1066.19   35.10   1
  -9  -1   0 1121.89   35.20   1
   9   1   0 1109.69   34.80   1
  -9   1   0 1140.09   33.80   1
  -9   1   0 1106.09   34.30   1
 -10  -1   0    0.50    2.80   1
 -10   1   0   -0.20    2.80   1
 -10  -1   0   -0.30    1.80   1
 -11   1   0    0.20    3.40   1
 -11  -1   0    6.10    3.60   1
 -12  -1   0    2.30    3.70   1
 -12   1   0   -0.10    3.60   1
 -13  -1   0   53.39    6.30   1
 -13   1   0   59.59    6.40   1
 -14  -1   0   -2.40    4.30   1
 -14   1   0    3.20    4.50   1
 -15   1   0  411.96   17.50   1
 -15  -1   0  423.16   17.60   1
 -16   1   0    1.90    5.00   1
 -16  -1   0   -1.80    5.10   1
   0   2   0 1869.61   55.59   1
   0  -2   0 1924.61   55.39   1
   0  -2   0 1892.21   55.59   1
   0   2   0 2055.29   55.39   1
   1   2   0    0.10    0.60   1
  -1  -2   0    1.10    0.90   1
  -1   2   0   -0.50    1.20   1
   1  -2   0   -0.40    1.20   1
   1   2   0   -0.20    0.90   1
   2   2   0 1206.88   34.10   1
   2   2   0 1170.68   34.60   1
  -2  -2   0 1221.18   34.40   1
  -2   2   0 1089.39   34.80   1
  -2  -2   0 1235.08   34.00   1
  -2  -2   0 1164.08   34.60   1
  -3  -2   0   -0.40    0.80   1
  -3   2   0    1.40    1.70   1
  -3  -2   0   -0.20    0.90   1
  -3  -2   0    7.10    1.40   1
  -3  -2   0   -1.80    1.40   1
   3   2   0   -1.20    0.40   1
   3  -2   0   -0.50    1.00   1
  -3  -2   0   -0.80    0.90   1
   3  -2   0   -0.10    0.90   1
  -4   2   0  517.45   15.20   1
   4  -2   0  509.35   15.70   1
   4   2   0  506.35   15.10   1
  -4  -2   0  524.85   15.50   1
  -4  -2   0  510.75   15.80   1
  -4   2   0  507.75   16.60   1
  -4  -2   0  507.35   16.20   1
   4  -2   0  519.35   15.70   1
  -4  -2   0  500.25   15.50   1
  -4  -2   0  498.75   15.40   1
  -5   2   0    2.20    1.90   1
   5   2   0    0.10    0.80   1
  -5  -2   0    0.30    1.00   1
   5  -2   0    0.70    1.20   1
  -5  -2   0   -1.20    1.60   1
  -5   2   0    2.20    0.80   1
  -5  -2   0    3.00    1.20   1
  -5  -2   0    1.30    1.30   1
  -5  -2   0    0.80    1.10   1
   5  -2   0    1.20    1.20   1
   6   2   0  872.31   24.80   1
  -6  -2   0  875.61   25.20   1
  -6   2   0  863.51   24.90   1
  -6  -2   0  807.62   25.60   1
  -6   2   0  819.02   26.70   1
  -6  -2   0  894.21   25.90   1
  -6   2   0  822.02   25.60   1
   6  -2   0  815.52   25.60   1
   6   2   0  763.22   25.10   1
   6  -2   0  897.31   25.70   1
  -6  -2   0  800.12   26.30   1
  -6  -2   0  856.41   25.20   1
  -7   2   0   -1.60    0.90   1
   7   2   0    3.30    1.20   1
   7  -2   0    1.60    1.70   1
  -7   2   0    0.30    2.20   1
   7  -2   0    1.90    1.50   1
  -7   2   0    8.40    1.40   1
   7   2   0    1.40    1.50   1
  -7   2   0   -0.10    1.80   1
  -7  -2   0    0.30    1.60   1
  -7  -2   0   -0.10    1.40   1
  -7  -2   0    0.30    2.20   1
  -7  -2   0    0.90    1.90   1
  -7  -2   0    1.30    1.40   1
  -8  -2   0  289.47    9.70   1
  -8   2   0  271.47   10.50   1
   8   2   0  269.07   10.00   1
  -8   2   0  279.67    9.20   1
   8  -2   0  256.87   10.30   1
  -8  -2   0  295.87   10.80   1
  -8  -2   0  294.47    9.80   1
  -8   2   0  286.47    9.30   1
   8  -2   0  293.77   10.30   1
  -9  -2   0   -0.10    1.60   1
   9  -2   0   -0.80    2.10   1
  -9  -2   0    0.60    1.60   1
  -9  -2   0    1.50    2.00   1
  -9   2   0    1.40    2.60   1
 -10   2   0   95.89    6.40   1
 -10  -2   0  101.09    6.60   1
 -10  -2   0  102.09    5.10   1
 -11  -2   0   -2.30    3.30   1
 -11   2   0   -1.90    3.10   1
 -12  -2   0  204.98   10.50   1
 -12   2   0  212.28   10.60   1
 -13   2   0    3.60    4.10   1
 -13  -2   0   -5.40    3.80   1
 -14   2   0   49.99    6.70   1
 -14  -2   0   51.89    6.60   1
 -15   2   0    6.70    5.40   1
 -15  -2   0    3.70    5.00   1
 -16   2   0   41.40    6.80   1
 -16  -2   0   36.10    6.60   1
   0   3   0   -0.80    0.90   1
   0   3   0   -1.90    0.60   1
   0  -3   0   -1.00    0.70   1
   0  -3   0    0.20    1.00   1
   1   3   0 1736.03   49.90   1
  -1  -3   0 1838.22   49.90   1
   1  -3   0 1663.63   50.49   1
  -1  -3   0 1725.13   50.09   1
  -1   3   0 1649.93   50.49   1
   1   3   0 1818.22   50.19   1
  -1  -3   0 1775.82   50.09   1
   1  -3   0 1697.13   50.19   1
  -1  -3   0 1718.93   50.19   1
  -2  -3   0   -0.30    0.60   1
  -2  -3   0    0.60    1.30   1
  -2   3   0   -0.80    1.50   1
   2  -3   0    0.40    1.00   1
   2   3   0    0.00    1.10   1
  -2  -3   0   -1.60    0.90   1
   2   3   0    0.30    0.70   1
  -2  -3   0    0.80    1.00   1
  -3  -3   0 6231.38  171.58   1
  -3  -3   0 6633.14  171.78   1
  -3  -3   0 5755.52  171.98   1
   3  -3   0 5793.12  171.48   1
   3   3   0 6164.48  171.88   1
   3  -3   0 5954.70  171.68   1
  -3  -3   0 6099.19  171.68   1
  -3   3   0 6175.98  171.18   1
  -3   3   0 5160.98  172.18   1
   4  -3   0    0.90    1.10   1
  -4  -3   0   -0.10    1.00   1
   4  -3   0    1.00    1.20   1
  -4  -3   0   -1.50    1.60   1
  -4   3   0   -0.90    0.70   1
  -4  -3   0   -0.40    1.10   1
   4   3   0    1.00    0.50   1
  -4  -3   0    0.10    0.80   1
  -4   3   0    4.40    2.10   1
  -4  -3   0    2.90    1.10   1
  -5  -3   0 1107.29   34.60   1
   5  -3   0 1115.49   33.90   1
  -5  -3   0 1116.89   33.60   1
  -5  -3   0 1193.18   34.20   1
   5  -3   0 1126.69   34.00   1
  -5   3   0 1163.08   33.30   1
  -5  -3   0 1145.59   33.70   1
  -5  -3   0 1181.48   33.60   1
   5   3   0 1123.89   33.10   1
  -5   3   0 1114.29   35.00   1
   6  -3   0   -0.70    1.50   1
  -6  -3   0    0.90    2.10   1
  -6   3   0    0.80    1.10   1
  -6  -3   0   -2.60    1.20   1
  -6   3   0    0.60    2.30   1
  -6  -3   0    2.60    1.50   1
  -6  -3   0   -1.70    1.30   1
   6  -3   0    0.00    1.50   1
  -6  -3   0   -0.10    1.40   1
   6   3   0   -1.20    1.00   1
  -7  -3   0  822.62   25.00   1
   7  -3   0  816.62   25.50   1
  -7  -3   0  865.11   25.10   1
  -7   3   0  862.11   26.90   1
  -7  -3   0  840.12   25.00   1
  -7  -3   0  830.52   25.70   1
  -7  -3   0  800.72   26.30   1
   7  -3   0  808.12   25.40   1
  -7   3   0  779.82   24.40   1
   7   3   0  782.22   24.80   1
  -8  -3   0   -0.10    2.60   1
  -8   3   0    2.60    1.10   1
  -8  -3   0    0.80    1.80   1
   8   3   0    0.00    1.70   1
  -8   3   0    0.40    1.20   1
  -8   3   0    1.80    1.80   1
   8  -3   0    0.90    2.10   1
   8  -3   0   -1.90    2.00   1
  -8  -3   0   -0.90    1.70   1
  -9  -3   0 2681.63   76.39   1
   9  -3   0 2624.14   76.99   1
  -9   3   0 2678.33   77.29   1
  -9  -3   0 2469.25   77.19   1
 -10  -3   0    8.20    3.30   1
  10  -3   0   -2.40    2.50   1
 -10  -3   0    0.40    2.10   1
 -10   3   0    2.50    3.00   1
 -11  -3   0  375.36   14.60   1
 -11   3   0  353.66   14.30   1
 -12  -3   0   -0.90    3.70   1
 -12   3   0   -1.40    3.50   1
 -13   3   0  213.28   11.30   1
 -13  -3   0  238.78   11.60   1
 -14  -3   0   -1.60    4.30   1
 -14   3   0    1.90    4.70   1
 -15  -3   0  806.22   28.30   1
 -15   3   0  777.82   28.20   1
 -16  -3   0    0.70    5.10   1
 -16   3   0    0.30    5.20   1
   0  -4   0 1990.40   59.89   1
   0  -4   0 2096.99   59.69   1
   0   4   0 2051.39   59.99   1
   0  -4   0 1990.30   59.79   1
   0  -4   0 2044.60   60.09   1
   0  -4   0 2090.59   59.79   1
   0   4   0 2278.47   59.69   1
  -1  -4   0   -0.30    1.00   1
   1  -4   0    1.80    1.10   1
  -1  -4   0    1.50    0.80   1
   1  -4   0    4.90    1.50   1
   1  -4   0   -0.30    0.60   1
  -1  -4   0   -0.50    1.00   1
  -1   4   0    2.90    1.40   1
   1   4   0    1.40    0.90   1
   1   4   0    1.50    0.90   1
  -1  -4   0    1.30    0.90   1
   1  -4   0   -1.00    0.80   1
   2   4   0  867.21   25.40   1
  -2  -4   0  903.41   25.30   1
  -2  -4   0  909.61   25.90   1
  -2  -4   0  891.81   26.10   1
  -2  -4   0  879.01   25.90   1
   2  -4   0  854.21   25.40   1
   2  -4   0  847.02   26.00   1
  -2   4   0  821.02   26.50   1
   3  -4   0    0.00    1.20   1
  -3  -4   0    1.30    1.50   1
  -3   4   0   -0.90    1.90   1
  -3  -4   0    1.40    1.30   1
  -3  -4   0    2.90    0.70   1
   3   4   0   -0.50    0.90   1
  -3  -4   0    1.00    1.00   1
   4   4   0  307.87    9.90   1
  -4   4   0  307.77    9.90   1
   4  -4   0  307.17   10.10   1
  -4   4   0  285.87   11.20   1
  -4  -4   0  329.57    9.40   1
  -4  -4   0  306.97   10.40   1
   4   4   0  307.87    9.00   1
  -4  -4   0  308.87   10.90   1
   4  -4   0  311.37   10.40   1
   4   4   0  311.67    9.00   1
  -4  -4   0  323.27   10.20   1
  -4   4   0  291.67    9.70   1
  -5   4   0   -0.30    0.90   1
   5  -4   0   -0.40    1.30   1
  -5   4   0    2.00    2.30   1
  -5  -4   0   -0.20    1.20   1
   5  -4   0    0.00    1.30   1
   5   4   0    2.50    0.70   1
  -5  -4   0   -0.60    1.80   1
   5   4   0   -0.30    0.60   1
  -5  -4   0    0.20    1.00   1
  -5   4   0    3.90    1.40   1
  -5  -4   0    0.50    1.50   1
  -6  -4   0 1794.52   50.39   1
  -6   4   0 1738.83   52.69   1
  -6  -4   0 1746.13   52.09   1
   6  -4   0 1686.03   51.09   1
   6   4   0 1673.13   50.19   1
  -6  -4   0 1774.02   50.89   1
  -6  -4   0 1704.73   51.39   1
  -6   4   0 1772.72   50.39   1
   6  -4   0 1709.53   51.29   1
  -7  -4   0   -0.30    1.60   1
  -7   4   0   -0.20    1.10   1
  -7   4   0    1.60    2.70   1
  -7  -4   0    0.30    1.30   1
   7  -4   0    1.00    1.90   1
  -7  -4   0   -2.10    2.30   1
   7   4   0   -1.10    1.30   1
  -7  -4   0   -2.10    2.00   1
   7  -4   0   -0.10    1.80   1
  -8  -4   0  204.68    8.50   1
   8   4   0  179.88    7.30   1
   8  -4   0  189.98    8.10   1
  -8  -4   0  191.38    9.10   1
  -8  -4   0  195.68    7.70   1
  -8   4   0  193.48    6.80   1
  -9  -4   0   -0.40    2.10   1
  -9  -4   0   -1.70    2.90   1
  -9   4   0    0.40    2.60   1
   9  -4   0    1.30    2.40   1
  -9  -4   0   -1.40    2.50   1
 -10  -4   0   38.00    3.80   1
  10  -4   0   38.60    4.50   1
 -10   4   0   48.50    4.90   1
 -10  -4   0   35.00    4.50   1
 -11   4   0   -0.80    3.10   1
 -11  -4   0   -2.50    2.40   1
 -11  -4   0    0.40    2.50   1
 -12  -4   0  681.43   23.70   1
 -12   4   0  659.43   23.50   1
 -13  -4   0    3.70    4.30   1
 -13   4   0    4.20    4.20   1
 -14  -4   0   26.90    5.70   1
 -14   4   0   21.00    5.80   1
 -15   4   0    1.60    5.40   1
 -15  -4   0   -1.90    4.80   1
 -16   4   0   -2.90    5.40   1
 -16  -4   0    8.90    5.60   1
   0  -5   0   -4.80    1.10   1
   0   5   0   -0.10    1.00   1
   0  -5   0   -2.30    1.20   1
   0  -5   0   -0.60    1.20   1
   0  -5   0   -5.50    1.30   1
   0  -5   0   -3.20    1.00   1
   0   5   0   -4.10    1.20   1
  -1   5   0   76.09    3.90   1
   1  -5   0   68.49    3.50   1
   1   5   0   76.79    3.30   1
  -1  -5   0   83.59    3.40   1
  -1  -5   0   77.69    3.50   1
   1  -5   0   78.79    4.00   1
   1  -5   0   84.79    3.20   1
   1  -5   0   76.69    3.00   1
  -1  -5   0   81.89    3.40   1
  -1  -5   0   80.49    3.30   1
  -1  -5   0   82.39    3.40   1
  -2  -5   0   -0.70    1.20   1
  -2   5   0   -1.20    1.30   1
   2  -5   0   -0.30    1.00   1
   2   5   0   -0.20    0.90   1
  -2  -5   0    0.40    1.20   1
   2  -5   0    0.20    0.80   1
  -2  -5   0    1.00    0.80   1
  -2  -5   0   -0.70    1.20   1
  -3   5   0 1030.90   32.30   1
  -3  -5   0 1017.40   31.80   1
   3   5   0 1050.99   30.80   1
  -3  -5   0 1042.30   31.30   1
  -3  -5   0 1007.30   31.40   1
   3  -5   0 1070.79   31.60   1
  -3  -5   0 1089.39   30.40   1
   3  -5   0 1077.69   30.70   1
  -4   5   0   -1.00    0.90   1
  -4  -5   0    1.20    1.70   1
  -4   5   0    1.70    2.20   1
  -4  -5   0    4.70    1.60   1
  -4  -5   0    2.10    1.40   1
   4   5   0    2.10    1.10   1
   4  -5   0    1.70    1.50   1
   4  -5   0    1.20    1.20   1
   5  -5   0  250.17    8.70   1
  -5   5   0  239.88   10.10   1
   5  -5   0  213.58    8.80   1
  -5  -5   0  245.88    8.60   1
  -5   5   0  242.48    8.30   1
  -5  -5   0  236.68    8.90   1
  -5  -5   0  245.18    9.40   1
  -5  -5   0  252.57    7.60   1
  -5   5   0  242.78    8.10   1
   5   5   0  237.88    7.50   1
   5   5   0  248.48    7.40   1
   6   5   0   -0.30    1.00   1
  -6   5   0    2.10    2.70   1
  -6  -5   0    1.70    1.70   1
   6   5   0    2.20    1.00   1
   6  -5   0   -1.40    1.60   1
   6  -5   0   -0.60    1.90   1
  -6  -5   0   -2.10    1.40   1
  -6   5   0    1.20    1.40   1
  -6  -5   0   -3.20    2.10   1
  -7  -5   0   27.00    3.30   1
   7   5   0   20.40    2.10   1
  -7   5   0   20.40    2.00   1
   7  -5   0   26.80    3.30   1
  -7  -5   0   24.00    3.60   1
  -7   5   0   24.40    4.10   1
  -7  -5   0   23.40    2.70   1
  -8  -5   0    0.70    2.00   1
  -8  -5   0    0.60    2.50   1
  -8  -5   0    2.20    2.90   1
  -8   5   0    0.50    1.40   1
   8  -5   0    1.00    2.50   1
   9  -5   0  212.38    9.40   1
  -9  -5   0  204.88    9.40   1
  -9  -5   0  235.98    8.90   1
  -9   5   0  199.58    9.10   1
  -9  -5   0  206.98   10.20   1
 -10   5   0    0.20    3.00   1
 -10  -5   0    4.60    3.40   1
 -10  -5   0    0.50    2.30   1
  10  -5   0   -2.40    2.70   1
 -11  -5   0   59.69    6.00   1
 -11   5   0   65.49    5.90   1
 -11  -5   0   65.39    5.10   1
  11  -5   0   87.99   10.20   1
 -12   5   0    4.00    4.00   1
 -12  -5   0   -2.30    3.70   1
 -13   5   0   12.60    4.80   1
 -13  -5   0    4.10    4.80   1
 -14  -5   0    1.90    4.50   1
 -14   5   0    6.40    4.80   1
 -15   5   0   34.70    6.80   1
 -15  -5   0   32.10    6.70   1
 -16   5   0   -2.30    5.50   1
 -16  -5   0   -3.80    5.10   1
   0  -6   0 2455.45   70.59   1
   0   6   0 2330.67   70.49   1
   0  -6   0 2423.76   70.19   1
   0  -6   0 2422.36   70.29   1
   0  -6   0 2452.65   70.49   1
   0  -6   0 2487.35   70.09   1
   1  -6   0    1.00    0.90   1
  -1  -6   0   -0.40    1.10   1
  -1  -6   0    0.60    1.00   1
   1  -6   0    0.80    1.00   1
  -1  -6   0    2.10    1.30   1
  -1  -6   0    0.80    1.10   1
  -1  -6   0    0.80    1.10   1
   1  -6   0    1.10    1.50   1
   1  -6   0    1.70    1.30   1
   1   6   0    0.80    1.10   1
  -1   6   0    1.10    1.40   1
   2  -6   0 1221.78   35.90   1
  -2  -6   0 1218.98   36.40   1
   2  -6   0 1160.68   35.70   1
  -2   6   0 1192.68   37.10   1
  -2  -6   0 1278.17   35.70   1
   2  -6   0 1226.28   36.60   1
   2   6   0 1262.77   36.00   1
   2   6   0 1253.57   35.20   1
  -2  -6   0 1265.97   36.40   1
  -2  -6   0 1205.28   36.50   1
   3  -6   0   -0.40    1.50   1
  -3  -6   0   -0.50    1.60   1
  -3  -6   0   -2.40    1.30   1
   3   6   0   -0.80    1.00   1
  -3   6   0   -1.40    2.00   1
  -3  -6   0   -2.00    1.30   1
   4   6   0  506.35   15.30   1
  -4   6   0  514.85   17.30   1
   4   6   0  510.95   14.30   1
   4   6   0  470.25   14.30   1
  -4  -6   0  492.15   15.90   1
   4  -6   0  495.05   16.30   1
  -4  -6   0  499.65   16.60   1
  -4  -6   0  504.05   16.10   1
  -5   6   0    3.00    2.60   1
  -5  -6   0    1.40    1.70   1
   5   6   0    0.90    0.60   1
   5   6   0    0.90    1.30   1
   5  -6   0    2.40    2.00   1
  -5   6   0    2.10    1.30   1
   5   6   0    0.30    0.60   1
  -5  -6   0    0.80    1.70   1
  -5  -6   0    3.40    1.90   1
  -6   6   0 2263.67   65.99   1
  -6  -6   0 2243.78   66.89   1
  -6   6   0 2337.27   65.79   1
   6  -6   0 2247.88   66.99   1
  -6   6   0 2308.87   68.39   1
  -6  -6   0 2306.57   67.49   1
  -6  -6   0 2263.37   66.39   1
   6   6   0 2150.78   65.19   1
  -7  -6   0   -0.10    2.40   1
  -7  -6   0    0.60    2.30   1
  -7  -6   0    0.80    2.00   1
  -7   6   0    3.20    3.10   1
  -7   6   0    4.00    1.50   1
   7  -6   0    1.20    2.60   1
  -8  -6   0  522.65   17.90   1
  -8   6   0  507.85   16.20   1
  -8  -6   0  502.65   18.50   1
  -8  -6   0  528.95   17.30   1
   8  -6   0  520.35   18.00   1
  -9  -6   0    1.70    3.20   1
   9  -6   0   -0.50    2.80   1
  -9  -6   0   -2.30    2.80   1
  -9  -6   0    1.00    2.40   1
 -10  -6   0  122.29    6.50   1
 -10  -6   0  118.49    7.60   1
 -10  -6   0  123.99    8.40   1
 -10   6   0  122.09    7.30   1
  10  -6   0  118.49    7.70   1
 -11  -6   0    0.90    3.60   1
  11  -6   0    3.90    3.70   1
 -11  -6   0   -1.50    2.80   1
 -11   6   0   -0.70    3.40   1
 -12   6   0 1024.80   33.90   1
 -12  -6   0 1038.20   34.10   1
 -13   6   0   -0.40    4.00   1
 -13  -6   0    5.10    4.70   1
 -14   6   0   89.89    8.10   1
 -14  -6   0   90.29    8.30   1
 -15  -6   0   -0.40    5.00   1
 -15   6   0    1.90    5.10   1
 -16   6   0   44.60    7.40   1
 -16  -6   0   32.90    6.50   1
   0  -7   0    0.30    1.20   1
   0  -7   0    0.80    1.10   1
   0   7   0   -0.10    1.40   1
   0  -7   0    1.50    1.30   1
   0  -7   0    3.10    1.30   1
   1   7   0  826.72   24.80   1
   1  -7   0  799.12   24.40   1
  -1  -7   0  824.22   24.80   1
  -1  -7   0  808.12   24.70   1
  -1  -7   0  817.12   24.80   1
  -1  -7   0  846.82   24.80   1
   1  -7   0  808.82   24.50   1
  -1   7   0  820.02   25.40   1
   1  -7   0  833.82   25.10   1
  -2  -7   0    1.00    1.40   1
   2  -7   0    1.20    1.60   1
   2  -7   0    2.20    1.10   1
  -2  -7   0    2.50    1.50   1
   2   7   0    0.10    0.60   1
   2  -7   0    1.20    0.90   1
   2   7   0    1.40    1.10   1
  -2  -7   0    1.10    1.10   1
  -2   7   0   -1.90    1.70   1
   3  -7   0 4759.62  141.49   1
  -3  -7   0 4741.73  141.59   1
  -3   7   0 4749.72  142.19   1
  -3  -7   0 5086.29  141.29   1
   3   7   0 4995.80  140.59   1
   3   7   0 5068.49  139.89   1
   3  -7   0 4861.01  140.49   1
  -3  -7   0 4970.00  141.29   1
   4   7   0   -0.50    1.10   1
   4  -7   0    0.90    1.90   1
  -4  -7   0    0.60    1.60   1
   4   7   0    1.10    0.50   1
  -4  -7   0    0.00    1.70   1
  -4   7   0    0.50    1.90   1
  -4  -7   0   -1.20    1.80   1
  -5  -7   0  379.26   13.60   1
  -5  -7   0  376.76   12.80   1
   5   7   0  376.26   11.20   1
  -5   7   0  385.46   14.40   1
   5   7   0  371.66   12.00   1
  -5  -7   0  368.06   13.00   1
  -5   7   0  376.86   12.20   1
   5  -7   0  357.06   13.20   1
  -6  -7   0    3.70    2.10   1
  -6   7   0    0.90    1.50   1
  -6  -7   0   -0.80    2.10   1
   6  -7   0    1.20    2.30   1
  -6   7   0   -0.80    2.90   1
  -6  -7   0    5.90    2.70   1
  -6   7   0    0.80    1.50   1
  -7  -7   0  558.54   19.40   1
  -7   7   0  611.64   21.40   1
  -7  -7   0  592.74   19.10   1
  -7   7   0  592.54   18.20   1
  -7  -7   0  560.84   20.10   1
   7  -7   0  584.64   19.90   1
   8  -7   0    2.20    2.80   1
  -8  -7   0   -0.80    2.30   1
  -8  -7   0    0.40    2.80   1
  -8  -7   0   -1.20    2.90   1
  -8   7   0   -1.00    1.40   1
   9  -7   0 1850.51   58.59   1
  -9  -7   0 1890.71   58.39   1
  -9  -7   0 1964.90   57.69   1
  -9  -7   0 2015.70   59.59   1
 -10  -7   0   -0.30    3.80   1
  10  -7   0   -2.40    3.60   1
 -10  -7   0    2.30    3.10   1
 -10  -7   0    0.70    3.30   1
 -11  -7   0  162.28    7.90   1
 -11  -7   0  157.48    9.20   1
  11  -7   0  151.88    9.40   1
 -11   7   0  144.19    8.70   1
 -12  -7   0   -4.50    3.90   1
 -12  -7   0    2.00    3.30   1
 -12   7   0   -0.30    4.00   1
 -13   7   0  204.58   11.50   1
 -13  -7   0  211.68   11.50   1
 -14   7   0    2.40    4.70   1
 -14  -7   0    2.70    4.90   1
 -15  -7   0  564.24   21.80   1
 -15   7   0  560.64   22.00   1
   0  -8   0  492.35   15.40   1
   0  -8   0  496.35   15.60   1
   0  -8   0  490.25   15.40   1
   0  -8   0  464.65   15.70   1
   0   8   0  490.75   15.80   1
  -1  -8   0    9.50    1.80   1
   1  -8   0    0.40    1.20   1
  -1  -8   0   -2.30    1.40   1
  -1  -8   0   -1.00    1.40   1
  -1   8   0    8.80    2.30   1
  -1  -8   0    0.50    1.40   1
   1   8   0    0.80    1.50   1
   1  -8   0    1.40    1.30   1
   1  -8   0    1.40    1.60   1
  -2   8   0  411.46   13.90   1
   2  -8   0  389.36   12.30   1
   2  -8   0  399.16   13.40   1
   2  -8   0  377.06   12.40   1
   2   8   0  393.86   12.60   1
  -2  -8   0  385.56   13.10   1
  -2  -8   0  385.76   12.90   1
  -2  -8   0  381.76   12.90   1
   3  -8   0    0.50    2.00   1
   3   8   0   -1.70    0.70   1
   3  -8   0    0.90    1.20   1
  -3  -8   0   -2.80    1.80   1
  -3  -8   0   -1.30    1.80   1
   3  -8   0   -1.40    1.30   1
   3   8   0   -1.20    1.20   1
  -3   8   0    0.70    2.30   1
  -3  -8   0    1.80    1.90   1
   4   8   0  471.45   13.20   1
  -4  -8   0  426.66   14.80   1
   4  -8   0  432.76   15.20   1
   4  -8   0  443.66   13.80   1
  -4  -8   0  415.76   14.70   1
  -4   8   0  428.36   15.90   1
   4   8   0  444.06   13.90   1
  -4  -8   0  442.06   15.30   1
  -5   8   0    0.70    2.90   1
   5   8   0   -0.90    0.70   1
   5  -8   0   -1.10    2.40   1
  -5  -8   0    2.00    2.10   1
  -5  -8   0    3.70    2.20   1
  -5  -8   0    9.50    2.80   1
  -5   8   0    3.40    1.70   1
   5   8   0    1.90    1.40   1
  -6   8   0  353.16   14.20   1
  -6   8   0  350.16   11.50   1
  -6  -8   0  349.96   12.30   1
   6  -8   0  332.87   12.90   1
  -6  -8   0  351.36   13.20   1
  -6   8   0  322.67   11.60   1
  -6  -8   0  328.97   12.50   1
  -7   8   0    1.50    3.40   1
  -7  -8   0    4.20    2.70   1
  -7  -8   0   -2.50    2.70   1
  -7   8   0   -1.70    1.50   1
  -7  -8   0    1.20    2.30   1
   7  -8   0   -1.30    2.60   1
   8  -8   0  192.88    9.40   1
  -8  -8   0  191.68    8.40   1
  -8  -8   0  178.28    9.40   1
  -8  -8   0  185.18    9.00   1
  -8   8   0  185.48    7.20   1
  -9  -8   0    0.20    3.30   1
  -9  -8   0   -0.50    2.80   1
   9  -8   0    3.50    3.40   1
  -9  -8   0    3.90    3.50   1
 -10  -8   0  214.38   10.70   1
 -10  -8   0  233.18   10.10   1
 -10  -8   0  228.88   11.40   1
  10  -8   0  212.18   11.30   1
 -11  -8   0   -1.50    4.00   1
 -11   8   0    1.10    3.70   1
 -11  -8   0   -0.20    3.90   1
 -11  -8   0    1.20    3.40   1
  11  -8   0    1.70    3.90   1
  12  -8   0  188.38   13.00   1
 -12  -8   0  133.89    9.20   1
 -12   8   0  152.58    9.30   1
 -12  -8   0  144.49    8.20   1
 -13   8   0   -0.40    4.80   1
 -13  -8   0   -1.40    4.30   1
 -14  -8   0   73.59    7.80   1
 -14   8   0   78.49    7.80   1
 -15   8   0    5.10    5.20   1
 -15  -8   0    1.10    5.50   1
   0  -9   0    6.90    2.00   1
   0  -9   0    0.30    1.60   1
   0   9   0    5.90    2.10   1
   0  -9   0    1.90    1.30   1
   0  -9   0    0.30    1.40   1
  -1  -9   0   38.80    3.30   1
   1  -9   0   43.90    3.10   1
  -1  -9   0   38.50    3.20   1
   1   9   0   44.10    3.20   1
  -1   9   0   41.30    3.90   1
   1  -9   0   35.40    3.40   1
  -1  -9   0   36.40    2.80   1
   1  -9   0   40.00    2.80   1
  -1  -9   0   40.30    3.10   1
  -2  -9   0    0.10    1.40   1
  -2  -9   0   -0.10    1.90   1
   2  -9   0    0.80    1.90   1
   2  -9   0    2.00    1.50   1
   2   9   0    0.60    1.40   1
  -2  -9   0    0.00    1.70   1
   2  -9   0   -1.10    1.20   1
  -2   9   0    1.10    2.10   1
   3  -9   0 2442.66   70.69   1
  -3  -9   0 2467.55   71.69   1
  -3   9   0 2500.85   72.79   1
   3   9   0 2489.45   70.79   1
   3  -9   0 2294.17   71.99   1
   3  -9   0 2493.65   70.89   1
  -3  -9   0 2423.06   71.59   1
  -3  -9   0 2398.96   71.89   1
  -4   9   0    2.90    2.80   1
  -4  -9   0   -0.60    2.00   1
   4   9   0    1.30    1.40   1
  -4  -9   0   -2.40    2.00   1
   4  -9   0   -0.20    1.20   1
   4  -9   0    0.50    1.80   1
  -4  -9   0    2.70    2.30   1
   4  -9   0    1.60    1.30   1
   5  -9   0   42.80    4.50   1
   5   9   0   43.10    3.00   1
  -5   9   0   41.20    5.00   1
  -5   9   0   55.79    3.50   1
  -5  -9   0   54.99    3.90   1
  -5  -9   0   36.30    4.20   1
  -5  -9   0   35.50    3.80   1
  -6  -9   0    0.10    2.40   1
  -6   9   0    0.00    3.10   1
   6   9   0    1.40    1.60   1
   6  -9   0    0.10    2.60   1
  -6  -9   0    0.40    2.40   1
  -6  -9   0    2.90    2.70   1
  -6   9   0   -0.10    1.90   1
  -7  -9   0   15.90    3.60   1
  -7   9   0   15.80    2.50   1
   7  -9   0   15.90    3.80   1
  -7  -9   0   14.10    3.20   1
  -7   9   0   13.80    4.20   1
  -7  -9   0   31.00    4.50   1
  -8  -9   0   -0.40    3.10   1
   8  -9   0   -0.90    3.30   1
  -8  -9   0    2.60    2.80   1
  -8  -9   0    0.30    3.10   1
  -8   9   0    5.30    2.90   1
  -9  -9   0 1276.57   39.10   1
  -9  -9   0 1255.77   40.50   1
   9  -9   0 1266.77   40.50   1
  -9  -9   0 1224.88   39.70   1
 -10  -9   0    2.50    3.20   1
 -10  -9   0    1.40    4.10   1
 -10  -9   0    7.40    4.00   1
  10  -9   0    3.30    4.40   1
 -11  -9   0   14.60    3.80   1
 -11  -9   0   16.60    4.80   1
 -11   9   0   11.20    4.40   1
  11  -9   0   10.60    4.80   1
 -12  -9   0    0.70    4.40   1
 -12  -9   0    1.30    3.50   1
  12  -9   0    2.30    4.70   1
 -12   9   0   -2.30    4.00   1
 -13   9   0    3.30    4.60   1
 -13  -9   0    0.50    4.70   1
 -14  -9   0   -2.50    4.80   1
 -14   9   0   -1.70    5.30   1
 -15  -9   0  465.35   19.00   1
   0 -10   0 5243.88  149.79   1
   0 -10   0 4914.61  149.69   1
   0 -10   0 5244.78  149.59   1
   0 -10   0 5177.08  150.08   1
   0  10   0 5392.96  150.18   1
   1 -10   0    2.00    2.10   1
   1 -10   0    0.90    1.50   1
  -1 -10   0    0.20    1.70   1
  -1 -10   0    2.40    2.00   1
  -1 -10   0   -0.40    1.70   1
  -1  10   0   -0.30    2.20   1
   1  10   0    3.00    1.70   1
   1 -10   0    1.20    1.70   1
  -1 -10   0    4.50    2.00   1
   2 -10   0  507.25   15.70   1
  -2 -10   0  494.85   16.50   1
   2 -10   0  494.65   15.90   1
  -2 -10   0  513.05   16.50   1
   2  10   0  488.75   15.90   1
  -2  10   0  478.75   17.20   1
  -2 -10   0  490.15   16.60   1
   2 -10   0  483.75   16.90   1
  -3 -10   0    1.00    2.30   1
   3 -10   0    2.40    1.50   1
   3  10   0   -0.80    1.40   1
   3 -10   0    0.20    1.30   1
   3 -10   0    2.80    2.50   1
  -3  10   0   -0.20    2.50   1
  -3 -10   0    1.90    2.20   1
  -3 -10   0   -0.40    2.20   1
  -4 -10   0  570.04   19.20   1
  -4 -10   0  582.54   19.60   1
   4  10   0  585.24   18.10   1
   4 -10   0  558.94   19.70   1
  -4 -10   0  577.94   19.20   1
  -4  10   0  598.24   20.60   1
   4 -10   0  571.54   18.10   1
   4 -10   0  578.34   17.90   1
  -5  10   0    3.80    3.40   1
   5 -10   0    3.40    2.90   1
  -5 -10   0   -2.70    2.40   1
   5 -10   0    2.70    1.50   1
   5  10   0    3.50    1.60   1
  -5 -10   0    3.50    2.70   1
  -5 -10   0   -0.60    2.60   1
   6  10   0 3513.35   97.59   1
  -6  10   0 3371.06   97.99   1
   6 -10   0 3205.88   99.59   1
  -6 -10   0 3355.26   98.79   1
  -6 -10   0 3429.56   99.69   1
  -6 -10   0 3342.07   99.09   1
  -7 -10   0    7.10    3.50   1
  -7 -10   0   -2.50    2.80   1
  -7 -10   0    2.60    2.90   1
  -7  10   0   -0.10    2.10   1
   7 -10   0    0.50    3.10   1
  -8 -10   0  278.67   11.40   1
   8 -10   0  273.57   12.50   1
  -8 -10   0  273.47   11.50   1
  -8 -10   0  275.77   12.40   1
  -9 -10   0   -2.10    3.40   1
  -9 -10   0   -1.60    3.50   1
   9 -10   0    6.00    4.10   1
  -9 -10   0   -0.40    3.30   1
  10 -10   0  307.67   14.30   1
 -10 -10   0  304.37   13.20   1
 -10 -10   0  281.07   13.60   1
 -10 -10   0  280.37   12.10   1
 -11 -10   0    3.40    4.20   1
  11 -10   0    2.70    4.90   1
 -11 -10   0    0.50    3.80   1
 -12 -10   0 1174.28   40.30   1
  12 -10   0 1341.27   41.80   1
 -12 -10   0 1240.48   39.20   1
 -12  10   0 1213.88   40.30   1
 -13 -10   0    3.10    4.60   1
 -13  10   0   -1.80    4.50   1
 -14 -10   0  132.49    9.70   1
 -14  10   0  130.89    9.60   1
 -15 -10   0   -3.80    4.90   1
 -15  10   0    3.10    5.20   1
   0 -11   0   -1.20    1.50   1
   0 -11   0   -1.00    2.00   1
   0 -11   0   -2.40    1.70   1
   0 -11   0   -1.50    2.00   1
   0  11   0    2.30    2.20   1
  -1 -11   0   84.69    5.10   1
   1  11   0   77.19    4.70   1
   1 -11   0   76.39    4.40   1
  -1 -11   0   82.59    5.00   1
   1 -11   0   76.29    4.60   1
   1 -11   0   73.89    5.20   1
  -1  11   0   91.39    5.60   1
  -1 -11   0   76.09    5.00   1
  -2 -11   0    1.70    2.40   1
   2 -11   0   -0.60    1.50   1
   2 -11   0   -2.90    2.30   1
   2  11   0   -0.20    1.70   1
  -2 -11   0    0.80    2.30   1
  -2 -11   0    3.20    2.30   1
  -2  11   0   -0.10    2.70   1
   2 -11   0    4.30    2.00   1
  -3 -11   0  518.55   17.50   1
  -3 -11   0  490.75   17.20   1
  -3 -11   0  513.05   17.20   1
   3 -11   0  513.45   16.40   1
   3 -11   0  487.75   17.80   1
  -3  11   0  513.75   18.20   1
   3  11   0  507.65   16.30   1
   3 -11   0  504.85   16.10   1
  -4  11   0    0.80    3.10   1
   4 -11   0    2.30    2.90   1
  -4 -11   0   -0.60    2.50   1
   4 -11   0   -0.90    1.40   1
  -4 -11   0   -1.60    2.50   1
  -4 -11   0    1.80    2.50   1
   4 -11   0    1.40    1.70   1
   4  11   0    1.10    1.60   1
   5  11   0   26.00    2.60   1
  -5 -11   0   22.10    3.80   1
  -5  11   0   24.70    4.70   1
   5 -11   0   22.50    2.50   1
   5 -11   0   24.70    4.30   1
  -5 -11   0   25.50    3.80   1
  -5 -11   0   25.30    3.90   1
  -6 -11   0   -1.60    2.90   1
  -6 -11   0    2.40    3.00   1
   6 -11   0    9.20    3.80   1
  -6 -11   0    1.40    2.90   1
   6  11   0    2.80    1.70   1
  -6  11   0    3.00    3.80   1
  -6  11   0    3.30    2.40   1
   7 -11   0  149.19    9.00   1
  -7  11   0  147.49    6.80   1
  -7 -11   0  139.49    7.70   1
  -7 -11   0  136.49    7.90   1
  -7 -11   0  127.69    8.20   1
  -8 -11   0   -1.90    3.30   1
   8 -11   0   -4.00    3.70   1
  -8 -11   0    0.70    3.20   1
  -8 -11   0    7.40    3.80   1
  -9 -11   0  338.97   14.70   1
  -9 -11   0  370.66   14.50   1
   9 -11   0  377.86   16.00   1
  -9 -11   0  369.16   15.40   1
 -10 -11   0    5.00    4.10   1
 -10 -11   0    3.40    4.00   1
  10 -11   0    2.90    5.00   1
 -11 -11   0   12.80    4.80   1
  11 -11   0   23.00    6.30   1
 -11 -11   0   17.70    4.40   1
 -12 -11   0   -0.60    3.60   1
 -12  11   0   -1.60    4.40   1
 -12 -11   0    0.30    4.30   1
  12 -11   0    5.70    5.10   1
 -13 -11   0   86.09    8.10   1
 -13  11   0   78.99    7.80   1
 -14  11   0    4.00    5.10   1
 -14 -11   0    1.20    5.10   1
   0 -12   0 1876.11   55.59   1
   0 -12   0 1831.92   55.79   1
   0 -12   0 1851.01   56.19   1
   0  12   0 1918.81   56.29   1
  -1 -12   0    4.80    2.70   1
   1 -12   0    1.80    2.60   1
  -1 -12   0   -1.60    2.20   1
  -1  12   0   -0.10    2.60   1
   1  12   0   -0.20    2.10   1
   1 -12   0    3.00    2.20   1
   1 -12   0    7.00    2.20   1
  -1 -12   0    2.60    2.50   1
  -2 -12   0   26.70    3.60   1
  -2  12   0   19.10    3.80   1
   2 -12   0   22.80    2.70   1
   2 -12   0   26.00    3.10   1
   2 -12   0   32.10    4.20   1
   2  12   0   22.70    2.80   1
  -2 -12   0   20.40    3.40   1
  -2 -12   0   18.50    3.40   1
   3 -12   0    1.10    3.00   1
  -3 -12   0    1.40    2.70   1
  -3 -12   0    4.60    2.80   1
   3  12   0   -0.80    1.70   1
   3 -12   0    2.70    2.00   1
   3 -12   0    1.40    1.70   1
  -3  12   0    0.00    2.80   1
  -3 -12   0    0.20    2.50   1
  -4 -12   0   60.39    4.70   1
  -4  12   0   64.29    6.30   1
   4 -12   0   63.89    4.00   1
   4  12   0   65.99    4.10   1
   4 -12   0   72.19    4.20   1
  -4 -12   0   65.19    4.80   1
   4 -12   0   59.39    5.80   1
  -4 -12   0   62.29    5.50   1
   5  12   0    0.20    1.70   1
  -5 -12   0   -1.40    2.90   1
   5 -12   0    3.40    3.40   1
  -5 -12   0    3.30    3.10   1
  -5  12   0    2.80    3.70   1
  -5 -12   0   -1.60    2.80   1
  -6 -12   0 1058.49   35.80   1
  -6  12   0 1153.18   34.90   1
   6 -12   0 1064.49   36.60   1
  -6 -12   0 1155.78   35.80   1
   6  12   0 1184.98   34.10   1
  -6 -12   0 1128.29   36.30   1
  -6  12   0 1152.48   37.80   1
   7 -12   0   -2.80    3.70   1
  -7 -12   0    6.50    3.70   1
  -7 -12   0   -0.90    3.30   1
  -7  12   0   -1.50    2.50   1
  -7 -12   0    2.70    3.60   1
  -8 -12   0   15.50    3.60   1
  -8 -12   0    8.00    4.00   1
   8 -12   0    2.30    4.60   1
  -8 -12   0   12.70    4.20   1
   9 -12   0    7.40    4.80   1
  -9 -12   0    1.60    3.80   1
  -9 -12   0   -3.60    3.40   1
  -9 -12   0    0.80    3.90   1
  10 -12   0   54.99    7.60   1
 -10 -12   0   51.29    6.30   1
 -10 -12   0   59.29    6.00   1
 -11 -12   0    3.50    4.60   1
  11 -12   0    1.50    5.40   1
 -11 -12   0   -6.10    4.00   1
 -12 -12   0  375.46   16.30   1
 -12 -12   0  351.36   15.20   1
 -12  12   0  385.56   16.20   1
  12 -12   0  396.36   17.70   1
 -13 -12   0    1.70    5.00   1
 -13  12   0   -3.10    4.90   1
 -14  12   0   -0.40    5.10   1
 -14 -12   0   13.90    6.00   1
   0 -13   0   -2.10    2.60   1
   0 -13   0    1.50    2.40   1
   0 -13   0    1.20    2.70   1
   0  13   0    1.00    2.60   1
  -1  13   0  522.55   19.30   1
   1 -13   0  549.85   19.40   1
  -1 -13   0  565.44   19.00   1
  -1 -13   0  570.94   18.90   1
   1  13   0  553.94   18.70   1
   1 -13   0  566.44   18.70   1
  -1 -13   0  551.84   19.00   1
   1 -13   0  561.64   18.30   1
   2  13   0    0.50    2.00   1
  -2 -13   0    1.60    2.70   1
   2 -13   0    4.20    2.40   1
  -2 -13   0    1.20    2.80   1
  -2 -13   0    1.00    2.90   1
   2 -13   0    0.90    2.10   1
   2 -13   0    0.40    2.90   1
  -2  13   0   -0.90    3.00   1
  -3 -13   0 1827.92   52.39   1
  -3 -13   0 1682.83   51.89   1
   3  13   0 1722.93   50.79   1
  -3  13   0 1692.73   52.99   1
   3 -13   0 1732.93   51.09   1
  -3 -13   0 1706.63   52.09   1
   3 -13   0 1698.03   50.69   1
   3 -13   0 1598.24   52.39   1
  -4 -13   0    1.10    3.10   1
   4 -13   0   -1.50    2.20   1
   4 -13   0   -0.50    3.50   1
  -4  13   0    0.50    3.30   1
  -4 -13   0    1.20    2.90   1
  -4 -13   0    2.00    3.20   1
   4  13   0   -1.10    1.90   1
  -5 -13   0  512.35   18.20   1
   5  13   0  498.15   16.40   1
  -5 -13   0  494.75   18.30   1
  -5  13   0  523.85   20.00   1
   5 -13   0  495.65   19.20   1
  -5 -13   0  510.75   18.60   1
  -6  13   0    1.30    2.90   1
  -6  13   0    2.20    4.30   1
   6 -13   0   -0.70    3.90   1
  -6 -13   0    0.60    2.60   1
  -6 -13   0   -1.10    3.20   1
  -6 -13   0   -3.70    3.20   1
  -7 -13   0  222.78   11.20   1
  -7 -13   0  239.88   11.90   1
   7 -13   0  249.97   12.50   1
  -7 -13   0  238.58   11.00   1
  -7  13   0  233.38    9.80   1
  -8 -13   0   -0.10    3.70   1
  -8 -13   0    5.30    3.80   1
   8 -13   0   -0.40    4.50   1
  -8 -13   0   -6.70    3.60   1
  -9 -13   0 1047.80   35.00   1
  -9 -13   0 1056.59   34.40   1
   9 -13   0 1069.69   36.30   1
 -10 -13   0    0.20    4.40   1
  10 -13   0    5.00    5.30   1
 -10 -13   0   -1.20    3.70   1
  11 -13   0  206.68   13.40   1
 -11 -13   0  204.98   10.50   1
 -11 -13   0  213.78   11.60   1
 -12  13   0   -1.70    4.70   1
 -12 -13   0    4.80    4.00   1
 -12 -13   0   -1.20    5.00   1
  12 -13   0   10.30    6.50   1
 -13  13   0   74.19    8.20   1
 -13 -13   0   69.89    7.80   1
   0 -14   0  360.06   13.20   1
   0 -14   0  338.47   12.90   1
   0  14   0  330.17   13.30   1
   1  14   0   -3.90    2.30   1
   1 -14   0    2.80    2.80   1
  -1 -14   0    0.80    2.80   1
   1 -14   0    1.30    3.10   1
   1 -14   0   -0.40    2.30   1
  -1 -14   0    1.30    3.00   1
  -1  14   0    3.20    3.20   1
   2 -14   0   15.20    3.20   1
  -2 -14   0   11.00    3.50   1
  -2  14   0    6.90    3.90   1
   2  14   0   10.10    2.70   1
  -2 -14   0    9.80    3.40   1
  -2 -14   0   10.90    3.50   1
   2 -14   0   19.30    4.30   1
   3 -14   0   -0.60    2.40   1
  -3 -14   0    2.60    3.40   1
  -3 -14   0   -1.10    2.80   1
  -3  14   0   -1.70    3.50   1
  -3 -14   0    2.50    3.30   1
   3 -14   0    3.60    3.90   1
   3  14   0    2.70    2.20   1
  -4 -14   0    9.10    3.50   1
  -4 -14   0    7.50    3.70   1
   4 -14   0    9.60    3.00   1
  -4  14   0    9.80    4.40   1
   4 -14   0    8.30    4.00   1
  -4 -14   0    2.40    3.50   1
  -5 -14   0   -0.20    3.20   1
  -5 -14   0   -2.10    3.50   1
  -5  14   0   -5.00    3.60   1
   5 -14   0   -1.00    4.00   1
  -5 -14   0   -1.10    3.10   1
   6 -14   0  235.78   12.20   1
  -6 -14   0  227.38   10.80   1
  -6 -14   0  218.98   11.10   1
  -6 -14   0  246.38   11.80   1
  -6  14   0  232.08   10.20   1
  -7 -14   0    1.60    3.60   1
  -7 -14   0    5.20    4.10   1
  -7  14   0   -2.60    3.00   1
  -7 -14   0   -2.20    3.70   1
   7 -14   0    5.90    4.70   1
  -8 -14   0    2.90    4.40   1
   8 -14   0   15.30    5.50   1
  -8 -14   0    9.40    4.30   1
  -9 -14   0   -1.30    4.30   1
  -9 -14   0   -1.80    4.30   1
   9 -14   0   -0.40    4.90   1
 -10 -14   0   -1.90    4.50   1
  10 -14   0    5.20    5.60   1
 -10 -14   0    5.50    4.50   1
 -11 -14   0   -3.90    4.60   1
 -11 -14   0    0.80    4.50   1
  11 -14   0   -2.10    6.00   1
 -12  14   0   91.29    8.50   1
 -12 -14   0   94.69    9.10   1
  12 -14   0  100.29   10.40   1
 -13 -14   0    0.70    5.20   1
 -13 -14   0    0.90    5.20   1
 -13  14   0    1.60    5.10   1
   0 -15   0    1.90    2.80   1
   0 -15   0    2.00    3.10   1
  -1 -15   0    2.60    3.10   1
   1 -15   0    3.30    3.20   1
  -1 -15   0    7.30    3.50   1
  -2 -15   0   -2.20    3.20   1
  -2 -15   0    4.50    3.50   1
  -2 -15   0    0.10    3.20   1
   2 -15   0   -0.80    3.40   1
   2 -15   0    0.40    2.80   1
  -3 -15   0  312.97   13.00   1
   3 -15   0  315.07   13.90   1
   3 -15   0  314.77   12.30   1
  -3 -15   0  297.27   13.10   1
  -3 -15   0  316.87   13.10   1
  -4 -15   0    0.60    3.50   1
  -4 -15   0   -1.10    3.50   1
   4 -15   0   -0.40    4.10   1
   4 -15   0    2.20    3.10   1
  -4 -15   0    0.30    3.60   1
   5 -15   0    8.10    4.70   1
  -5 -15   0   10.60    4.20   1
  -5 -15   0   -0.40    3.90   1
  -5 -15   0    5.70    3.50   1
  -6 -15   0   -2.70    3.30   1
  -6 -15   0   -2.60    3.60   1
   6 -15   0    7.80    4.90   1
  -6 -15   0   -0.20    3.00   1
  -6  15   0   -3.00    3.10   1
  -7 -15   0    7.60    4.30   1
  -7 -15   0    6.10    4.20   1
  -7  15   0    3.80    3.40   1
   7 -15   0    5.30    5.00   1
   8 -15   0    3.10    5.20   1
  -8 -15   0   -0.40    4.00   1
  -8 -15   0    1.60    4.20   1
  -9 -15   0  163.18    9.50   1
  -9 -15   0  152.98    9.90   1
   9 -15   0  150.68   11.40   1
 -10 -15   0   -0.40    4.80   1
  10 -15   0   10.90    7.10   1
 -10 -15   0    6.20    4.50   1
 -11 -15   0   -2.30    5.10   1
  11 -15   0   -0.70    6.40   1
 -11 -15   0    0.70    4.60   1
 -12 -15   0   -2.60    5.10   1
 -12 -15   0    1.80    4.30   1
   0 -16   0 1640.54   50.49   1
  -1 -16   0    2.00    3.50   1
   1 -16   0    1.80    3.40   1
  -2 -16   0  611.64   21.90   1
   2 -16   0  613.14   21.30   1
  -2 -16   0  635.04   22.00   1
   3 -16   0    2.90    4.40   1
  -3 -16   0   -1.80    3.60   1
   3 -16   0    1.70    3.10   1
  -3 -16   0   -0.60    4.00   1
  -3 -16   0    7.40    3.40   1
  -4 -16   0  414.56   16.60   1
  -4 -16   0  408.66   16.40   1
  -4 -16   0  436.06   17.00   1
   4 -16   0  441.06   18.00   1
  -5  16   0   -2.50    3.40   1
  -5 -16   0    4.80    4.20   1
  -5 -16   0   -2.60    3.60   1
  -5 -16   0    2.70    3.60   1
   5 -16   0    5.20    4.90   1
  -6 -16   0 1197.28   39.20   1
  -6  16   0 1259.07   38.60   1
   6 -16   0 1197.98   40.80   1
  -6 -16   0 1197.78   39.50   1
   7 -16   0    2.10    5.40   1
  -7 -16   0   -0.60    4.30   1
  -7 -16   0    0.10    4.60   1
  -8 -16   0  381.56   15.80   1
  -8 -16   0  333.77   15.60   1
   8 -16   0  379.26   17.60   1
   9 -16   0    3.40    6.90   1
  -9 -16   0   -2.50    4.90   1
  -9 -16   0   -4.40    4.20   1
  10 -16   0  196.08   14.20   1
 -10 -16   0  188.78   11.00   1
 -10 -16   0  176.48   11.20   1
 -11 -16   0   -6.40    4.20   1
 -11 -16   0    3.80    5.70   1
   0 -17   0    9.20    4.00   1
  -1 -17   0   28.30    5.10   1
   1 -17   0   33.90    4.90   1
   2 -17   0   -2.30    3.70   1
  -2 -17   0    1.80    4.10   1
  -3 -17   0  814.22   28.50   1
   3 -17   0  865.41   27.80   1
  -4 -17   0    2.70    4.20   1
   4 -17   0    3.60    4.90   1
  -4 -17   0    2.60    4.20   1
  -4 -17   0    3.00    4.20   1
   5 -17   0    4.00    5.10   1
  -5  17   0    6.30    4.30   1
  -5 -17   0   15.30    5.10   1
  -5 -17   0   10.00    4.50   1
   6 -17   0   -0.70    5.10   1
  -6  17   0   -1.80    3.40   1
  -6 -17   0    1.30    4.40   1
  -6 -17   0   -0.20    4.40   1
   7 -17   0   59.89    8.20   1
  -7 -17   0   36.00    6.30   1
  -7 -17   0   52.79    6.70   1
   8 -17   0    1.10    6.30   1
  -8 -17   0    2.40    5.40   1
  -8 -17   0    1.40    4.70   1
  -9 -17   0  426.56   17.70   1
  -9 -17   0  402.46   17.80   1
   9 -17   0  463.65   20.50   1
 -10 -17   0    4.90    5.10   1
 -10 -17   0  -10.60    5.30   1
   0 -18   0   92.99    7.60   1
   1 -18   0    0.60    4.30   1
  -1 -18   0   -0.30    4.50   1
  -2 -18   0   58.79    6.70   1
   2 -18   0   65.79    6.50   1
   3 -18   0    5.20    4.20   1
  -3 -18   0   -2.40    4.50   1
  -4 -18   0  103.69    8.50   1
  -5  18   0   -0.50    4.40   1
  -5 -18   0   -2.80    4.50   1
  -5 -18   0   -1.00    4.90   1
  -6 -18   0   82.19    8.50   1
  -6  18   0   93.09    7.80   1
  -6 -18   0   89.09    8.30   1
  -7 -18   0    2.90    5.70   1
  -7 -18   0    4.80    4.90   1
  -8 -18   0   36.60    6.30   1
  -8 -18   0   33.50    6.60   1
  -9 -18   0   -3.90    5.10   1
  -9 -18   0    9.60    5.40   1
   0 -19   0    2.80    4.40   1
  -1 -19   0  190.08   10.50   1
   1 -19   0  161.78   10.00   1
  -2 -19   0    5.50    5.30   1
   2 -19   0    2.80    4.10   1
  -3 -19   0 1230.78   40.20   1
  -4 -19   0   -0.70    5.20   1
  -5 -19   0  123.39    9.50   1
  -5  19   0  111.79    8.70   1
  -6 -19   0   -4.20    5.20   1
  -6 -19   0    1.40    5.60   1
  -7 -19   0  139.99   10.50   1
  -7 -19   0  139.39   10.00   1
  -8 -19   0   -0.40    6.00   1
  -8 -19   0   -7.50    4.80   1
   0 -20   0  724.03   26.00   1
   1 -20   0   -1.20    4.70   1
  -1 -20   0   -6.30    5.30   1
  -2 -20   0   50.19    7.00   1
   2 -20   0   45.50    6.60   1
  -3 -20   0    0.70    5.60   1
  -4  20   0   41.00    6.40   1
  -4 -20   0   35.30    7.10   1
  -5  20   0   -3.00    4.00   1
  -5 -20   0    2.80    5.50   1
  -7 -20   0   -4.00    5.40   1
  -7 -20   0    1.00    5.10   1
   0 -21   0    2.40    5.80   1
  -1 -21   0   43.10    7.50   1
   1 -21   0   51.69    7.20   1
  -2 -21   0   -1.00    5.50   1
  -3 -21   0   71.89    8.30   1
  -4  21   0    1.70    5.10   1
  -4 -21   0    3.80    5.70   1
  -5 -21   0   22.20    6.40   1
   0 -22   0  680.63   24.70   1
  -1 -22   0   -0.50    5.70   1
   1 -22   0   -3.10    5.90   1
  -2 -22   0   71.29    8.40   1
   0   0  -1  219.28    6.90   1
   0   0   1  225.68    6.90   1
   1   0  -1    1.70    0.50   1
  -1   0   1    0.00    0.50   1
   1   0  -1    1.20    1.10   1
  -1   0  -1    1.30    0.50   1
  -1   0   1    0.10    1.00   1
   1   0   1    0.50    0.70   1
  -2   0   1 3387.56  102.99   1
  -2   0   1 3475.85  103.29   1
   2   0   1 3551.94  103.09   1
   2   0  -1 3657.53  102.89   1
  -2   0  -1 3694.03  103.09   1
   2   0   1 3834.12  102.79   1
  -3   0   1    0.30    0.70   1
  -3   0   1   -0.40    1.10   1
   3   0   1   -0.20    0.60   1
   3   0  -1    0.30    1.00   1
  -3   0   1    1.60    0.90   1
  -3   0  -1    2.30    0.80   1
   3   0   1    0.70    1.20   1
  -3   0   1    2.30    1.30   1
  -3   0  -1    1.80    1.10   1
   3   0   1    3.50    1.00   1
  -4   0   1 2174.38   60.79   1
  -4   0  -1 2141.79   60.79   1
   4   0   1 2102.29   61.29   1
  -4   0  -1 2073.39   61.09   1
  -4   0   1 2098.89   60.99   1
   4   0   1 2016.40   60.89   1
   4   0   1 2147.99   60.59   1
  -4   0   1 2111.79   61.39   1
  -4   0   1 2067.99   61.09   1
  -5   0  -1   -0.40    1.10   1
  -5   0   1   -0.20    1.30   1
   5   0   1    1.20    1.10   1
   5   0   1    0.30    0.90   1
  -5   0   1    4.90    1.50   1
  -5   0  -1    3.70    1.50   1
  -5   0   1    0.20    1.10   1
  -5   0   1    0.60    1.40   1
   6   0   1   14.00    1.90   1
  -6   0   1   13.20    2.20   1
   6   0  -1   18.20    1.70   1
  -6   0  -1   22.10    2.50   1
  -6   0   1   17.30    2.40   1
  -6   0   1   16.80    1.80   1
  -6   0  -1   18.80    1.50   1
   6   0   1   15.70    1.80   1
  -6   0  -1   17.00    2.10   1
  -7   0  -1   -1.20    1.80   1
   7   0   1    0.30    1.50   1
  -7   0   1    0.60    1.50   1
   7   0   1   -0.60    1.40   1
  -7   0  -1    1.30    1.00   1
  -7   0  -1    1.00    0.90   1
  -7   0   1    4.00    2.20   1
   7   0  -1   -0.70    1.10   1
  -7   0   1    1.40    1.50   1
  -7   0  -1    1.40    1.60   1
  -7   0   1    2.10    1.30   1
  -8   0   1 1252.97   37.70   1
   8   0   1 1217.78   37.90   1
   8   0   1 1327.47   38.10   1
  -8   0   1 1230.08   37.50   1
  -8   0   1 1273.27   38.70   1
  -8   0  -1 1134.39   38.10   1
  -8   0  -1 1418.56   37.60   1
   9   0   1    1.50    2.00   1
  -9   0   1    1.30    1.80   1
  -9   0   1    2.30    2.70   1
  -9   0  -1   -1.00    2.00   1
  -9   0   1    0.30    1.80   1
   9   0   1   -1.10    2.20   1
  10   0   1  635.34   20.50   1
 -10   0   1  611.54   19.60   1
 -10   0   1  627.44   19.80   1
 -10   0  -1  595.04   20.70   1
 -10   0   1  615.24   21.20   1
 -11   0   1   -0.70    2.20   1
  11   0   1    1.40    3.00   1
 -11   0   1   -1.80    2.50   1
 -11   0  -1    0.20    3.10   1
 -12   0  -1    1.30    3.80   1
 -12   0   1    1.20    3.80   1
 -13   0  -1   -2.10    3.80   1
 -13   0   1    4.80    4.50   1
 -14   0   1  307.67   14.40   1
 -14   0  -1  287.57   13.70   1
 -15   0   1    5.00    5.20   1
 -15   0  -1    1.50    4.90   1
 -16   0   1  177.48   11.80   1
 -16   0  -1  199.58   11.10   1
   0   1  -1 1356.46   39.90   1
   0  -1   1 1360.36   39.90   1
   0   1   1 1404.76   39.80   1
   1   1  -1 2151.18   64.79   1
  -1   1   1 2075.49   64.19   1
  -1  -1  -1 2194.38   64.29   1
   1   1  -1 2294.57   64.49   1
   1  -1   1 2421.26   64.79   1
  -1  -1   1 2208.18   64.79   1
  -1   1  -1 2249.97   64.79   1
   1   1   1 2355.06   64.69   1
  -1  -1   1 2311.47   64.49   1
  -2   1   1 1162.78   34.90   1
   2  -1   1 1229.38   35.40   1
   2  -1   1 1224.68   34.90   1
   2   1  -1 1263.97   35.10   1
  -2   1   1 1241.68   35.10   1
   2  -1   1 1140.29   35.20   1
   2   1  -1 1126.29   35.40   1
  -2  -1  -1 1223.58   34.80   1
  -2  -1   1 1164.88   35.30   1
   2  -1  -1 1220.38   34.90   1
  -2  -1   1 1262.07   35.10   1
  -2  -1   1 1183.28   35.20   1
  -2  -1   1 1251.87   35.50   1
  -2   1  -1 1158.58   35.30   1
   2   1   1 1224.18   34.90   1
   2   1   1 1268.37   35.30   1
   3  -1   1    0.30    1.40   1
  -3  -1  -1    0.60    1.10   1
  -3  -1  -1    1.90    1.00   1
  -3   1   1    2.20    1.10   1
   3   1  -1    0.30    1.30   1
  -3   1   1    6.20    1.20   1
   3  -1   1    5.40    1.30   1
   3  -1   1    0.40    1.00   1
   3   1   1    0.20    1.20   1
  -3  -1   1    1.00    1.10   1
  -3  -1   1    3.50    1.30   1
  -3  -1   1    1.40    1.40   1
  -3  -1   1    1.50    1.40   1
   3  -1  -1    1.50    1.10   1
  -4  -1  -1  588.34   17.50   1
  -4  -1  -1  612.04   17.70   1
  -4   1   1  620.24   17.60   1
   4  -1   1  551.94   17.40   1
   4  -1   1  589.24   18.30   1
   4  -1   1  524.05   17.60   1
  -4   1   1  565.34   17.60   1
   4   1   1  560.54   17.60   1
  -4   1  -1  594.14   17.50   1
  -4  -1   1  592.74   18.10   1
   4  -1  -1  591.74   18.30   1
   4   1   1  577.14   17.00   1
  -4  -1   1  568.34   17.50   1
   4  -1  -1  615.24   17.60   1
  -4  -1   1  555.84   18.00   1
  -4  -1   1  576.04   17.50   1
  -4  -1   1  596.04   17.80   1
  -5  -1  -1 1110.09   32.70   1
  -5   1   1 1180.78   33.10   1
  -5  -1  -1 1166.68   33.20   1
   5  -1   1 1116.79   33.10   1
   5  -1   1 1164.18   33.30   1
  -5   1   1 1131.09   33.30   1
  -5  -1  -1 1177.28   33.30   1
  -5   1   1 1109.59   33.40   1
   5   1   1 1100.49   33.10   1
  -5   1  -1 1086.19   33.10   1
  -5   1  -1 1096.29   33.80   1
   5   1   1 1130.39   32.70   1
  -5  -1   1 1163.58   33.50   1
  -5  -1   1 1065.29   33.70   1
  -5  -1   1 1110.29   33.10   1
  -5  -1   1 1095.69   33.00   1
  -5  -1   1 1077.99   33.60   1
   5  -1  -1 1092.99   32.90   1
  -6  -1  -1  837.02   25.00   1
   6  -1   1  818.32   24.80   1
  -6   1   1  862.91   25.30   1
  -6  -1  -1  851.31   24.90   1
  -6   1   1  825.82   24.60   1
   6  -1   1  869.61   25.10   1
  -6  -1  -1  824.52   24.30   1
   6  -1  -1  841.62   24.60   1
   6   1   1  797.82   24.40   1
  -6   1  -1  796.22   25.50   1
  -6  -1   1  843.02   24.80   1
  -6  -1   1  780.72   24.50   1
  -6  -1   1  804.72   25.50   1
  -6   1  -1  759.22   24.80   1
   6   1   1  786.22   24.70   1
  -6  -1   1  791.52   25.20   1
  -7  -1  -1 1189.28   34.60   1
  -7   1   1 1187.08   35.70   1
   7  -1   1 1211.78   35.50   1
  -7   1   1 1179.08   35.00   1
  -7  -1  -1 1200.38   35.60   1
   7  -1   1 1144.59   35.30   1
  -7  -1  -1 1194.08   35.40   1
   7  -1  -1 1162.88   35.00   1
  -7  -1   1 1210.48   35.80   1
  -7  -1   1 1191.88   35.20   1
  -7   1  -1 1230.38   34.60   1
   7   1   1 1101.19   35.10   1
  -7   1  -1 1170.28   36.00   1
  -7   1  -1 1169.48   34.30   1
  -7  -1   1 1190.28   35.00   1
   7   1   1 1134.99   35.00   1
  -7   1  -1 1179.48   35.40   1
  -7  -1   1 1173.48   36.10   1
   8  -1   1  435.36   15.20   1
   8  -1   1  466.75   15.30   1
  -8   1   1  455.15   14.50   1
  -8   1   1  465.15   14.70   1
  -8  -1  -1  451.15   15.40   1
  -8   1   1  441.66   15.60   1
  -8  -1  -1  467.45   14.30   1
  -8  -1   1  478.55   15.70   1
  -8  -1   1  456.75   14.80   1
  -8   1  -1  466.25   15.30   1
   8   1   1  423.76   14.80   1
  -8  -1   1  456.05   14.70   1
   8   1   1  440.96   14.80   1
  -8  -1   1  480.05   16.10   1
  -9   1   1   30.20    2.80   1
   9  -1   1   32.50    3.50   1
  -9   1   1   31.60    4.00   1
  -9   1   1   35.20    3.10   1
  -9  -1  -1   31.00    3.60   1
   9  -1   1   32.00    3.60   1
  -9  -1   1   32.60    3.00   1
  -9  -1   1   32.80    3.10   1
   9   1   1   35.60    3.30   1
  -9   1  -1   31.50    3.50   1
   9   1   1   36.10    3.40   1
  -9  -1   1   37.20    4.10   1
 -10   1   1  184.28    8.60   1
  10  -1   1  184.78    9.20   1
 -10   1   1  183.18    7.30   1
 -10  -1  -1  196.98    8.70   1
  10  -1   1  183.08    8.50   1
 -10   1   1  182.48    7.40   1
 -10  -1   1  178.18    7.60   1
 -10  -1   1  186.58    7.70   1
 -10  -1   1  175.88    9.00   1
  10   1   1  172.78    8.10   1
 -10   1  -1  195.28    8.60   1
  11  -1   1  411.06   15.10   1
 -11   1   1  389.66   15.60   1
 -11  -1  -1  399.46   15.10   1
 -11  -1   1  410.26   15.40   1
  11   1   1  410.56   14.70   1
 -11  -1   1  390.56   13.80   1
 -11   1  -1  383.06   14.90   1
 -12  -1  -1  293.47   12.60   1
 -12   1   1  281.87   13.00   1
 -12   1  -1  295.17   12.50   1
 -12  -1   1  293.97   13.20   1
 -13   1   1  361.66   15.60   1
 -13  -1  -1  361.06   14.90   1
 -13  -1   1  358.16   15.60   1
 -13   1  -1  362.26   15.00   1
 -14   1   1   92.79    8.90   1
 -14  -1  -1  109.39    8.70   1
 -14  -1   1  110.79    9.00   1
 -14   1  -1  115.29    8.40   1
 -15   1   1   14.10    6.00   1
 -15  -1  -1   23.00    5.90   1
 -15   1  -1   24.00    5.50   1
 -15  -1   1   27.80    6.80   1
 -16   1   1   58.49    7.70   1
 -16  -1  -1   63.39    7.50   1
 -16   1  -1   50.09    6.90   1
 -16  -1   1   56.39    7.70   1
   0  -2   1  648.94   19.60   1
   0  -2  -1  649.54   19.00   1
   0   2  -1  629.84   19.50   1
   0   2   1  674.33   19.10   1
   1   2  -1  827.52   21.70   1
  -1  -2  -1  747.93   21.70   1
   1   2  -1  726.33   21.80   1
   1  -2   1  710.73   21.90   1
  -1   2  -1  682.43   21.90   1
   1   2   1  734.63   21.60   1
  -1  -2   1  748.03   21.60   1
  -1  -2   1  728.13   21.80   1
   2  -2   1 1497.05   43.50   1
   2   2  -1 1467.25   43.80   1
   2   2  -1 1499.95   43.70   1
   2  -2   1 1607.04   44.10   1
   2  -2   1 1450.95   43.70   1
  -2   2   1 1506.65   43.50   1
  -2  -2  -1 1454.75   43.80   1
   2   2   1 1491.65   43.80   1
  -2  -2   1 1505.45   43.60   1
  -2  -2   1 1529.05   43.50   1
  -2   2  -1 1533.45   44.00   1
  -2  -2   1 1579.94   43.70   1
   2  -2  -1 1461.15   43.10   1
  -2  -2   1 1481.25   43.70   1
   2   2   1 1517.45   43.00   1
  -2  -2   1 1508.55   43.80   1
   2  -2  -1 1508.65   44.10   1
   3   2  -1  119.99    5.10   1
  -3  -2  -1  120.19    4.60   1
  -3  -2  -1  126.19    4.40   1
  -3  -2  -1  123.59    3.80   1
  -3   2   1  128.89    4.50   1
  -3  -2  -1  113.09    5.00   1
  -3  -2  -1  126.09    3.80   1
   3  -2   1  116.89    4.50   1
   3  -2   1  130.09    5.30   1
   3  -2   1  117.09    4.60   1
  -3  -2   1  121.09    4.80   1
   3  -2  -1  123.89    4.40   1
  -3  -2   1  126.99    4.80   1
  -3  -2   1  118.79    5.00   1
  -3  -2   1  124.99    4.70   1
  -3  -2   1  124.99    4.60   1
   3  -2  -1  118.79    4.60   1
   3   2   1  116.19    4.30   1
  -3   2  -1  119.19    5.30   1
   4  -2   1  979.40   29.00   1
  -4   2   1  979.70   28.70   1
  -4  -2  -1 1000.60   28.60   1
   4  -2   1  926.31   29.60   1
  -4  -2  -1  985.50   28.90   1
  -4  -2  -1 1020.10   28.30   1
  -4  -2  -1  957.90   29.40   1
  -4  -2  -1 1002.10   28.30   1
   4  -2   1  922.31   28.70   1
   4  -2  -1  958.60   28.80   1
  -4  -2   1  992.90   28.80   1
  -4  -2   1  950.20   29.40   1
   4  -2  -1  994.80   28.80   1
  -4   2  -1 1019.30   29.70   1
  -4  -2   1  969.60   29.10   1
  -4  -2   1  956.20   28.80   1
  -4  -2   1  941.91   29.00   1
  -5  -2  -1  635.64   19.40   1
   5  -2   1  572.74   19.10   1
  -5  -2  -1  658.83   18.80   1
  -5   2   1  635.14   19.00   1
   5  -2   1  625.14   19.40   1
  -5  -2  -1  633.44   18.90   1
  -5  -2   1  622.04   19.50   1
   5  -2  -1  620.04   19.20   1
  -5   2  -1  614.94   20.00   1
  -5  -2   1  629.34   19.90   1
   5   2   1  644.54   19.10   1
   5   2   1  615.14   18.40   1
  -5  -2   1  630.44   19.20   1
  -5  -2   1  645.94   19.10   1
   6  -2   1  210.78    7.80   1
   6  -2   1  202.88    7.80   1
  -6   2   1  210.18    7.40   1
  -6  -2  -1  210.38    7.90   1
  -6  -2  -1  207.18    7.20   1
  -6  -2  -1  225.78    7.30   1
  -6  -2   1  222.68    8.60   1
  -6  -2   1  210.98    7.60   1
   6   2   1  210.48    7.40   1
  -6  -2   1  199.98    8.00   1
   6  -2  -1  205.88    7.60   1
  -6  -2   1  212.58    7.50   1
   6   2   1  198.98    6.90   1
  -6   2  -1  211.88    7.60   1
  -7   2   1  163.58    7.90   1
  -7   2   1  153.88    6.80   1
  -7  -2  -1  162.38    6.00   1
  -7   2   1  156.48    6.00   1
   7  -2   1  152.58    6.50   1
  -7  -2  -1  146.99    6.50   1
   7  -2   1  162.18    6.70   1
  -7  -2  -1  159.48    5.80   1
  -7   2  -1  148.29    6.30   1
  -7  -2   1  150.88    6.10   1
  -7  -2   1  161.28    6.10   1
   7   2   1  148.59    6.00   1
  -7  -2   1  155.18    6.90   1
   7   2   1  153.88    5.80   1
   7  -2  -1  159.18    6.30   1
  -7   2  -1  120.19    6.50   1
  -7  -2   1  153.88    7.20   1
  -8  -2  -1  627.54   19.80   1
  -8  -2  -1  603.84   18.80   1
  -8   2   1  619.34   20.10   1
   8  -2   1  574.84   19.60   1
  -8   2   1  604.64   19.00   1
   8  -2   1  602.24   19.80   1
  -8   2   1  654.33   22.70   1
   8  -2  -1  603.64   19.40   1
   8   2   1  574.84   19.00   1
   8   2   1  629.24   19.10   1
  -8  -2   1  631.24   20.60   1
  -8  -2   1  612.34   19.30   1
  -8   2  -1  611.84   19.70   1
  -8  -2   1  608.44   20.10   1
  -8  -2   1  593.44   19.10   1
  -9  -2  -1   39.60    3.00   1
  -9   2   1   31.50    4.10   1
   9  -2   1   30.40    3.50   1
  -9   2   1   30.60    2.90   1
  -9   2   1   40.30    3.10   1
   9  -2   1   33.20    3.80   1
  -9  -2  -1   35.00    3.90   1
  -9  -2   1   33.80    3.30   1
  -9  -2   1   42.90    4.50   1
  -9   2  -1   30.90    3.60   1
   9   2   1   33.40    3.20   1
  -9  -2   1   38.10    3.50   1
  -9  -2   1   31.70    4.00   1
  10  -2   1  346.27   13.00   1
 -10   2   1  343.37   11.80   1
 -10   2   1  341.07   12.00   1
 -10  -2  -1  346.77   13.20   1
  10  -2   1  366.96   13.30   1
 -10   2   1  346.97   13.30   1
 -10  -2   1  340.87   12.30   1
  10   2   1  338.77   12.50   1
 -10  -2   1  322.27   13.20   1
 -10   2  -1  359.26   13.10   1
 -10  -2   1  357.36   12.40   1
  11  -2   1  147.39    8.20   1
 -11   2   1  127.39    8.20   1
 -11  -2  -1  134.09    7.80   1
 -11   2  -1  137.59    7.70   1
 -11  -2   1  135.59    6.70   1
 -11  -2   1  137.49    7.70   1
 -11  -2   1  135.29    6.70   1
  11   2   1  122.19    7.20   1
 -12   2   1   49.00    6.00   1
 -12  -2  -1   42.90    5.40   1
 -12   2  -1   49.99    5.50   1
 -12  -2   1   46.90    6.00   1
 -13   2   1   49.20    6.40   1
 -13  -2  -1   47.60    5.80   1
 -13   2  -1   35.10    5.50   1
 -13  -2   1   40.30    6.20   1
 -14   2   1  154.18   10.30   1
 -14  -2  -1  162.18    9.70   1
 -14   2  -1  154.68   10.00   1
 -14  -2   1  148.49   10.20   1
 -15  -2  -1   22.70    5.70   1
 -15   2   1   30.70    6.40   1
 -15   2  -1   20.40    5.40   1
 -15  -2   1   18.60    6.30   1
 -16   2   1  102.49    9.50   1
 -16  -2  -1  107.29    9.00   1
 -16  -2   1   94.59    9.50   1
 -16   2  -1  100.79    8.80   1
   0  -3  -1  357.06   10.90   1
   0   3  -1  355.56   11.40   1
   0  -3  -1  355.16   11.00   1
   0  -3  -1  374.16   10.90   1
   0  -3   1  369.16   11.10   1
   0   3   1  380.26   10.90   1
   0  -3   1  341.27   11.40   1
   1   3  -1 3541.85  103.29   1
  -1  -3  -1 3759.22  103.09   1
   1  -3   1 3736.93  103.29   1
  -1  -3  -1 3701.53  103.09   1
   1  -3   1 3611.34  103.59   1
  -1  -3  -1 3467.55  103.19   1
   1   3  -1 3805.12  103.19   1
  -1   3  -1 3133.79  103.49   1
  -1  -3   1 3548.94  103.29   1
   1  -3  -1 3860.91  103.09   1
  -1  -3   1 3406.16  103.09   1
   1  -3  -1 3460.55  103.39   1
   1  -3  -1 3537.95  103.09   1
  -1  -3   1 3701.93  103.29   1
  -1  -3   1 3801.52  103.19   1
   1   3   1 3622.34  103.19   1
  -1  -3   1 3520.15  103.19   1
  -2  -3  -1  279.77    8.50   1
   2  -3   1  264.17    8.60   1
   2  -3   1  282.67    9.20   1
  -2   3   1  269.47    8.40   1
   2   3  -1  254.17    8.70   1
  -2  -3  -1  269.27    8.40   1
  -2  -3  -1  269.87    8.90   1
   2  -3  -1  271.67    7.90   1
  -2  -3   1  261.77    8.60   1
  -2   3  -1  258.37    9.10   1
  -2  -3   1  266.27    8.60   1
   2  -3  -1  259.37    8.70   1
  -2  -3   1  271.17    8.70   1
  -2  -3   1  263.17    8.50   1
  -2  -3   1  264.37    8.60   1
   2   3   1  261.37    9.10   1
   3   3  -1   26.30    2.50   1
  -3   3   1   25.90    1.90   1
  -3  -3  -1   28.70    2.00   1
   3  -3   1   27.70    2.20   1
  -3  -3  -1   29.00    2.10   1
  -3   3   1   25.80    1.90   1
   3  -3   1   29.80    2.60   1
   3  -3   1   25.10    2.00   1
  -3  -3  -1   24.40    2.40   1
  -3  -3   1   27.50    2.20   1
   3  -3  -1   29.60    1.70   1
  -3  -3   1   26.90    1.90   1
  -3  -3   1   26.10    2.20   1
  -3  -3   1   32.40    2.60   1
  -3   3  -1   27.40    2.80   1
   3  -3  -1   26.80    2.20   1
  -3  -3   1   33.60    2.30   1
  -4  -3  -1  611.94   18.80   1
  -4  -3  -1  593.04   19.30   1
  -4   3   1  627.34   18.60   1
   4  -3   1  599.04   18.70   1
  -4   3   1  618.94   18.50   1
   4  -3   1  640.24   19.00   1
   4  -3   1  598.44   19.60   1
   4   3  -1  596.44   19.10   1
  -4  -3  -1  607.54   18.50   1
   4  -3  -1  588.74   18.80   1
  -4   3  -1  584.04   19.60   1
  -4  -3   1  635.54   18.70   1
   4  -3  -1  612.64   18.40   1
  -4  -3   1  653.33   18.80   1
  -4  -3   1  618.24   19.40   1
  -4  -3   1  622.94   19.00   1
  -4  -3   1  625.04   18.80   1
  -5  -3  -1 2210.28   65.29   1
   5  -3   1 2176.58   64.49   1
  -5  -3  -1 2200.68   64.19   1
   5  -3   1 2228.58   65.59   1
  -5  -3  -1 2197.68   64.59   1
  -5   3   1 2295.67   64.19   1
  -5   3   1 2184.38   64.09   1
   5  -3   1 2237.08   64.79   1
  -5  -3  -1 2389.66   63.39   1
   5   3   1 2057.59   63.09   1
  -5  -3   1 2199.08   64.49   1
  -5  -3   1 2168.48   64.29   1
   5  -3  -1 2134.69   64.49   1
  -5   3  -1 2215.18   65.49   1
   5   3   1 2413.76   63.09   1
  -5  -3   1 2157.18   65.09   1
  -5  -3   1 2181.08   64.79   1
  -6  -3  -1   88.09    4.00   1
  -6  -3  -1   88.79    3.30   1
  -6  -3  -1   87.49    5.00   1
  -6   3   1   93.59    4.10   1
  -6   3   1   89.99    5.80   1
   6  -3   1   87.29    4.60   1
   6  -3   1   85.59    4.40   1
  -6  -3  -1   81.59    4.40   1
  -6  -3   1   82.99    5.10   1
   6  -3  -1   86.39    4.30   1
   6   3   1   94.89    4.00   1
  -6  -3   1   87.99    4.20   1
  -6   3  -1   90.29    5.40   1
   6   3   1   77.69    3.20   1
  -6  -3   1   90.39    4.40   1
  -6  -3   1   79.19    4.60   1
   6   3   1   86.59    3.30   1
   7  -3   1 1512.45   46.80   1
  -7   3   1 1672.83   46.20   1
  -7  -3  -1 1601.04   46.90   1
  -7  -3  -1 1544.95   46.00   1
  -7   3   1 1635.94   48.60   1
   7  -3   1 1532.75   46.70   1
  -7  -3   1 1536.25   47.00   1
  -7   3  -1 1602.94   46.60   1
  -7  -3   1 1618.44   47.60   1
   7   3   1 1514.15   45.60   1
   7   3   1 1536.85   46.00   1
  -7   3  -1 1504.15   47.70   1
  -7  -3   1 1581.94   46.50   1
  -7  -3   1 1555.84   46.40   1
   7  -3  -1 1564.24   46.60   1
   8  -3   1   90.29    5.20   1
  -8   3   1   99.99    7.20   1
   8  -3   1   89.49    5.50   1
  -8  -3  -1   84.69    5.20   1
  -8   3   1  101.39    4.60   1
  -8  -3  -1   88.49    4.40   1
  -8   3   1   85.19    5.00   1
  -8  -3   1   90.39    4.90   1
  -8  -3   1   88.49    4.70   1
  -8  -3   1   92.89    5.20   1
  -8  -3   1   81.69    5.80   1
   8   3   1   80.19    4.30   1
   8  -3  -1   80.09    5.00   1
   8   3   1   88.19    4.40   1
  -8   3  -1   84.79    5.00   1
   9  -3   1    0.60    2.30   1
  -9  -3  -1    4.10    1.90   1
  -9   3   1    4.30    2.80   1
  -9  -3  -1    2.30    2.60   1
  -9   3   1    6.90    2.00   1
   9  -3   1    2.50    2.50   1
  -9  -3   1    1.20    2.90   1
   9  -3  -1    6.10    2.50   1
  -9  -3   1    2.10    2.10   1
  -9   3  -1    1.10    2.30   1
  -9  -3   1    2.60    2.30   1
   9   3   1    1.70    1.90   1
  -9  -3   1    2.00    2.10   1
 -10  -3  -1  239.18   10.20   1
  10  -3   1  225.28    9.80   1
 -10   3   1  225.08    8.70   1
 -10   3   1  226.68    8.60   1
 -10   3   1  232.48   10.40   1
  10  -3   1  240.28   10.40   1
 -10  -3   1  237.78    9.20   1
 -10  -3   1  234.38   10.60   1
 -10  -3   1  244.28   10.90   1
  10   3   1  232.08    9.30   1
 -10   3  -1  232.88    9.90   1
 -10  -3   1  234.98    9.40   1
 -11  -3  -1  643.34   22.70   1
  11  -3   1  702.53   23.00   1
 -11   3   1  638.74   23.10   1
  11   3   1  652.23   21.90   1
 -11  -3   1  663.83   21.70   1
 -11  -3   1  647.04   23.20   1
 -11  -3   1  682.23   21.70   1
 -11   3  -1  700.63   22.80   1
 -12   3   1    3.60    4.00   1
 -12  -3  -1    0.40    3.60   1
 -12  -3   1    7.90    3.10   1
 -12  -3   1    1.00    3.80   1
 -12   3  -1    1.70    3.70   1
 -13   3   1  436.96   18.10   1
 -13  -3  -1  436.06   17.40   1
 -13  -3   1  463.25   18.20   1
 -13   3  -1  469.35   17.60   1
 -14   3   1   47.00    6.90   1
 -14  -3  -1   52.39    6.30   1
 -14  -3   1   48.30    6.90   1
 -14   3  -1   59.19    6.90   1
 -15  -3  -1    2.00    4.50   1
 -15   3   1    7.00    5.40   1
 -15  -3   1    6.50    5.30   1
 -15   3  -1    7.50    5.30   1
 -16   3   1   76.99    8.80   1
 -16  -3  -1   66.69    7.90   1
 -16   3  -1   76.79    7.90   1
 -16  -3   1   59.49    8.30   1
   0  -4   1  145.69    5.40   1
   0  -4  -1  134.39    4.90   1
   0  -4   1  129.69    4.70   1
   0  -4   1  137.69    4.90   1
   0   4   1  135.99    4.60   1
   0   4  -1  134.29    5.40   1
   0  -4  -1  131.89    4.90   1
   0  -4   1  129.09    4.90   1
   0  -4   1  134.09    5.00   1
   0  -4  -1  137.59    4.80   1
   1  -4   1  584.14   17.40   1
   1  -4   1  602.74   17.80   1
   1   4  -1  538.65   17.40   1
  -1  -4  -1  564.74   17.20   1
  -1  -4  -1  546.25   17.30   1
  -1  -4  -1  572.34   17.10   1
  -1  -4   1  565.24   17.40   1
   1  -4  -1  569.54   16.70   1
   1  -4  -1  562.14   17.50   1
  -1  -4   1  574.04   17.30   1
  -1  -4   1  570.94   17.20   1
  -1   4  -1  602.44   17.90   1
  -1  -4   1  575.74   17.30   1
   1   4   1  566.84   17.20   1
   1  -4  -1  581.84   17.10   1
  -2  -4  -1 2422.06   71.99   1
  -2  -4  -1 2560.44   71.69   1
   2   4  -1 2531.05   71.89   1
   2  -4   1 2619.44   72.49   1
  -2  -4  -1 2520.05   71.69   1
   2  -4   1 2585.34   71.99   1
  -2   4  -1 2197.48   72.19   1
  -2  -4   1 2459.65   71.89   1
   2   4   1 2475.85   70.89   1
  -2  -4   1 2449.35   71.79   1
  -2  -4   1 2530.65   71.89   1
  -2  -4   1 2529.65   71.79   1
  -2  -4   1 2557.84   71.79   1
   2  -4  -1 2347.97   71.89   1
   3  -4   1 1702.63   52.39   1
  -3  -4  -1 1694.03   52.69   1
   3  -4   1 1744.43   53.09   1
  -3  -4  -1 1842.82   52.29   1
  -3  -4  -1 1816.62   52.19   1
   3  -4   1 1748.72   52.09   1
  -3   4   1 1836.92   52.09   1
   3   4  -1 1763.52   52.39   1
   3  -4  -1 1705.63   52.39   1
  -3   4  -1 1753.72   53.09   1
  -3  -4   1 1804.02   52.19   1
  -3  -4   1 1884.71   52.49   1
  -3  -4   1 1759.52   52.09   1
  -3  -4   1 1907.61   52.69   1
  -3  -4   1 1848.22   52.39   1
   3  -4  -1 1823.52   51.59   1
  -4  -4  -1 2124.79   65.69   1
  -4   4   1 2281.57   64.89   1
   4   4  -1 2201.88   65.19   1
   4  -4   1 2332.27   66.39   1
   4  -4   1 2173.48   64.99   1
  -4   4   1 2316.17   64.89   1
  -4  -4  -1 2283.07   65.19   1
   4  -4   1 2203.48   65.39   1
  -4   4   1 2122.69   66.39   1
  -4  -4  -1 2269.47   64.99   1
  -4  -4   1 2236.08   65.19   1
  -4  -4   1 2290.17   65.09   1
  -4  -4   1 2260.67   65.79   1
  -4   4  -1 2180.38   66.09   1
   4  -4  -1 2194.58   64.49   1
  -4   4  -1 2221.38   64.29   1
   4  -4  -1 2314.67   65.39   1
  -4  -4   1 2313.07   65.39   1
   5   4  -1  322.47   11.20   1
  -5   4   1  329.67   12.50   1
   5  -4   1  327.57   11.00   1
  -5  -4  -1  324.77   11.70   1
   5  -4   1  316.77   11.20   1
  -5   4   1  354.66   10.70   1
  -5   4   1  331.67   10.60   1
  -5  -4  -1  327.57   10.70   1
  -5  -4  -1  326.47   11.10   1
   5  -4   1  310.27   12.10   1
  -5  -4   1  305.67   11.60   1
  -5  -4   1  327.77   11.20   1
  -5   4  -1  320.37   12.10   1
  -5  -4   1  325.67   10.90   1
  -5   4  -1  335.87   10.00   1
  -5  -4   1  326.87   11.00   1
   5  -4  -1  319.47   11.10   1
   6  -4   1    1.20    1.70   1
   6  -4   1   -0.70    1.80   1
  -6  -4  -1   10.20    1.90   1
  -6  -4  -1    1.00    1.40   1
  -6   4   1    7.00    1.70   1
  -6  -4  -1    3.50    2.50   1
  -6   4   1    7.90    1.60   1
  -6   4   1    3.30    2.90   1
   6   4   1    3.10    0.70   1
  -6   4  -1    7.10    2.70   1
   6  -4  -1    3.30    1.90   1
  -6   4  -1    2.40    0.90   1
  -6  -4   1    1.00    2.20   1
  -6  -4   1    6.90    1.90   1
   6   4   1    2.40    0.70   1
   6   4   1    3.70    1.40   1
  -6  -4   1   -0.20    1.60   1
  -7   4   1  561.74   17.30   1
   7  -4   1  561.04   18.00   1
  -7  -4  -1  530.65   18.90   1
  -7   4   1  553.74   19.70   1
  -7  -4  -1  551.14   17.40   1
   7  -4   1  527.25   18.10   1
  -7  -4  -1  553.74   18.00   1
  -7  -4   1  551.54   17.70   1
   7   4   1  567.74   17.20   1
  -7  -4   1  552.04   17.60   1
  -7  -4   1  566.94   18.90   1
  -7  -4   1  536.55   18.20   1
   7   4   1  533.75   16.60   1
   7  -4  -1  570.94   18.10   1
  -7   4  -1  520.55   19.00   1
  -8   4   1  972.90   29.00   1
  -8  -4  -1  974.50   29.80   1
  -8  -4  -1  957.90   29.00   1
   8  -4   1  878.51   29.90   1
   8  -4   1  917.91   29.70   1
  -8   4   1 1013.10   33.30   1
  -8  -4   1  965.10   30.60   1
  -8  -4   1  968.90   29.50   1
   8   4   1  943.91   28.50   1
   8  -4  -1  951.00   29.80   1
  -8  -4   1  957.60   29.40   1
  -8  -4   1  933.91   30.10   1
  -8   4  -1  985.20   29.60   1
   9  -4   1  437.46   15.70   1
  -9  -4  -1  427.46   15.50   1
  -9  -4  -1  428.76   14.50   1
  -9   4   1  448.66   14.50   1
  -9   4   1  421.26   15.70   1
   9  -4   1  452.75   15.80   1
  -9  -4   1  421.06   15.70   1
  -9  -4   1  463.25   16.50   1
  -9  -4   1  458.45   15.20   1
  -9   4  -1  432.06   15.30   1
  -9  -4   1  431.06   14.90   1
   9   4   1  437.06   14.40   1
   9  -4  -1  458.35   15.60   1
  10  -4   1  822.92   26.50   1
 -10  -4  -1  788.22   26.30   1
 -10  -4  -1  827.02   25.10   1
 -10   4   1  788.82   26.50   1
  10  -4   1  845.22   26.60   1
  10   4   1  771.62   25.10   1
 -10  -4   1  803.32   25.50   1
 -10  -4   1  808.22   27.20   1
 -10  -4   1  760.02   26.50   1
 -10  -4   1  803.22   25.50   1
 -10   4  -1  813.22   26.20   1
 -11   4   1  165.58    9.00   1
  11  -4   1  162.38    8.80   1
 -11  -4  -1  147.89    8.40   1
 -11  -4   1  149.69    9.00   1
 -11   4  -1  161.58    8.50   1
 -11  -4   1  174.48    7.80   1
  11   4   1  169.58    7.80   1
 -12  -4  -1    6.50    3.80   1
 -12   4   1    3.00    3.90   1
 -12  -4   1    5.40    3.30   1
 -12   4  -1    7.80    4.00   1
 -12  -4   1    8.90    4.30   1
 -13   4   1  178.38   10.50   1
 -13  -4  -1  203.78   10.80   1
 -13  -4   1  172.38   10.60   1
 -13   4  -1  183.68   10.10   1
 -14  -4  -1  317.27   14.20   1
 -14   4   1  270.17   14.00   1
 -14   4  -1  310.47   13.80   1
 -14  -4   1  310.97   14.50   1
 -15   4   1   88.19    8.90   1
 -15  -4  -1  118.59    8.80   1
 -15  -4   1  130.39    9.90   1
 -15   4  -1  106.59    8.60   1
 -16  -4  -1  201.98   12.20   1
 -16  -4   1  234.88   13.50   1
 -16   4  -1  230.78   12.00   1
   0  -5  -1  518.35   15.90   1
   0  -5  -1  542.95   15.80   1
   0   5   1  495.95   16.10   1
   0  -5  -1  540.05   16.00   1
   0   5   1  541.65   15.60   1
   0  -5   1  515.65   16.00   1
   0  -5   1  531.25   15.80   1
   0  -5   1  535.35   16.00   1
   0   5  -1  496.75   16.40   1
   0  -5   1  517.65   16.40   1
   0  -5   1  537.35   16.00   1
  -1  -5  -1  883.81   25.80   1
   1  -5   1  873.71   26.00   1
  -1   5   1  851.11   26.30   1
   1   5  -1  880.71   26.00   1
  -1  -5  -1  887.61   25.70   1
   1  -5   1  871.31   25.50   1
   1  -5   1  899.81   26.40   1
  -1  -5  -1  892.21   25.90   1
  -1  -5   1  862.21   25.60   1
  -1  -5   1  877.91   25.90   1
  -1   5  -1  875.21   26.40   1
  -1  -5   1  857.11   25.80   1
   1  -5  -1  826.72   26.10   1
   1  -5  -1  886.81   25.60   1
  -1  -5   1  893.51   25.70   1
  -1  -5   1  832.02   25.90   1
   1  -5  -1  828.62   25.20   1
   1   5   1  845.42   25.50   1
   2  -5   1  134.89    5.80   1
   2  -5   1  140.79    4.50   1
  -2   5   1  133.89    5.90   1
   2  -5   1  119.29    5.20   1
  -2  -5  -1  131.59    5.40   1
  -2  -5  -1  126.49    5.00   1
  -2  -5  -1  128.39    5.00   1
   2   5  -1  135.59    5.10   1
   2  -5  -1  126.09    5.20   1
  -2  -5   1  127.69    5.20   1
  -2   5  -1  142.59    5.80   1
  -2  -5   1  130.39    5.10   1
  -2  -5   1  127.79    4.50   1
  -2  -5   1  126.89    5.00   1
  -2  -5   1  137.19    5.10   1
   2  -5  -1  124.59    4.10   1
   2  -5  -1  137.09    4.80   1
   2   5   1  133.19    4.20   1
  -3   5   1  649.04   21.00   1
  -3  -5  -1  626.34   20.30   1
   3  -5   1  642.84   19.00   1
  -3  -5  -1  672.33   19.90   1
   3   5  -1  658.43   19.90   1
   3  -5   1  676.73   20.90   1
  -3  -5  -1  649.74   19.80   1
   3  -5   1  635.04   20.20   1
   3  -5   1  620.04   19.70   1
  -3   5   1  657.43   19.80   1
  -3  -5   1  608.24   19.90   1
  -3  -5   1  670.43   20.10   1
   3  -5  -1  585.14   20.00   1
  -3   5  -1  657.63   20.90   1
   3   5   1  670.13   18.80   1
  -3  -5   1  687.13   20.30   1
  -3  -5   1  672.43   20.30   1
  -3  -5   1  661.93   19.90   1
  -4   5   1  177.58    6.40   1
  -4  -5  -1  170.18    6.70   1
   4  -5   1  183.68    6.60   1
   4   5  -1  185.38    6.70   1
  -4   5   1  174.58    6.30   1
  -4   5   1  192.18    8.20   1
   4  -5   1  182.18    7.80   1
  -4  -5  -1  178.28    7.40   1
   4  -5   1  171.48    6.90   1
  -4  -5  -1  171.98    6.50   1
   4  -5  -1  166.78    6.90   1
   4  -5  -1  176.28    5.80   1
  -4  -5   1  173.88    6.60   1
  -4  -5   1  171.18    7.20   1
  -4   5  -1  161.08    7.70   1
  -4  -5   1  180.08    6.50   1
  -4  -5   1  171.48    6.80   1
   5  -5   1  786.92   24.00   1
  -5  -5  -1  776.72   23.70   1
  -5   5   1  755.82   25.10   1
  -5   5   1  711.43   23.10   1
   5  -5   1  735.03   23.40   1
  -5   5   1  780.42   23.20   1
  -5  -5  -1  747.03   23.30   1
   5  -5   1  788.22   25.10   1
  -5  -5  -1  741.43   24.30   1
   5   5  -1  770.92   23.60   1
  -5   5  -1  764.12   24.90   1
   5  -5  -1  777.52   23.90   1
  -5  -5   1  730.23   24.20   1
  -5  -5   1  761.42   23.50   1
  -5  -5   1  758.02   23.80   1
  -5  -5   1  758.82   23.60   1
  -5   5  -1  842.02   22.60   1
   6  -5   1  156.88    6.70   1
  -6   5   1  165.88    8.40   1
   6  -5   1  154.78    7.00   1
  -6   5   1  167.78    6.30   1
  -6  -5  -1  147.29    6.70   1
  -6  -5  -1  148.99    7.50   1
  -6   5   1  159.08    6.20   1
  -6  -5  -1  156.88    6.30   1
  -6  -5   1  157.78    7.00   1
  -6  -5   1  150.38    6.40   1
  -6  -5   1  155.38    7.50   1
  -6   5  -1  159.98    7.80   1
  -6  -5   1  156.78    6.60   1
   6  -5  -1  156.08    6.90   1
  -6   5  -1  163.98    5.40   1
  -7  -5  -1  374.86   13.20   1
   7  -5   1  371.26   13.00   1
   7  -5   1  362.06   13.40   1
  -7   5   1  374.26   12.40   1
  -7  -5  -1  375.16   12.60   1
  -7  -5  -1  373.26   14.10   1
  -7   5   1  368.36   14.80   1
  -7  -5   1  371.06   12.90   1
  -7  -5   1  369.16   12.70   1
   7  -5  -1  391.46   13.40   1
  -7  -5   1  333.17   13.00   1
   7   5   1  369.96   11.40   1
  -7   5  -1  402.16   14.70   1
  -7  -5   1  365.36   13.90   1
   7   5   1  381.36   12.10   1
  -8  -5  -1   45.10    3.60   1
  -8  -5  -1   43.80    4.90   1
  -8  -5  -1   43.50    4.20   1
  -8   5   1   44.90    3.50   1
   8  -5   1   38.50    3.90   1
   8  -5   1   42.20    4.30   1
   8   5   1   42.30    2.80   1
  -8  -5   1   38.40    4.20   1
  -8  -5   1   42.60    3.80   1
   8  -5  -1   40.10    4.10   1
  -8  -5   1   47.40    3.90   1
  -8  -5   1   43.80    4.70   1
  -9   5   1  142.29    6.20   1
   9  -5   1  128.79    7.30   1
  -9  -5  -1  147.59    6.40   1
  -9  -5  -1  130.19    7.10   1
  -9   5   1  124.59    6.80   1
   9  -5   1  145.29    7.60   1
   9  -5  -1  152.28    7.40   1
  -9  -5   1  138.89    7.60   1
  -9  -5   1  140.39    8.10   1
  -9   5  -1  143.79    7.00   1
   9   5   1  137.49    5.90   1
  -9  -5   1  142.59    6.80   1
  10  -5   1   63.09    5.60   1
  10  -5   1   74.79    6.00   1
 -10  -5  -1   72.89    4.80   1
 -10   5   1   78.59    6.30   1
 -10  -5  -1   73.39    5.90   1
 -10   5  -1   73.69    5.70   1
  10  -5  -1   74.49    6.10   1
 -10  -5   1   74.09    5.20   1
  10   5   1   62.79    4.60   1
 -10  -5   1   73.39    6.30   1
 -10  -5   1   72.69    6.60   1
  11  -5   1  245.98   11.20   1
 -11  -5  -1  232.48   11.00   1
 -11   5   1  222.48   10.40   1
 -11  -5   1  230.28    9.80   1
 -11   5  -1  223.08   10.40   1
 -11  -5   1  238.48   11.30   1
 -11  -5   1  239.08   11.70   1
 -12   5   1   34.40    5.60   1
 -12  -5  -1   35.90    5.20   1
 -12  -5   1   26.00    5.30   1
 -12   5  -1   37.70    5.30   1
 -12  -5   1   29.60    4.40   1
 -13  -5  -1  114.79    8.20   1
 -13   5   1   99.19    8.60   1
 -13  -5   1  115.09    8.90   1
 -13   5  -1  113.49    8.00   1
 -14   5   1   22.20    5.90   1
 -14  -5  -1   21.40    5.30   1
 -14   5  -1   20.80    5.60   1
 -14  -5   1   20.40    5.80   1
 -15  -5  -1   29.80    5.90   1
 -15   5   1   36.40    6.70   1
 -15  -5   1   48.60    7.30   1
 -15   5  -1   45.40    6.70   1
 -16   5   1   20.30    6.20   1
 -16  -5  -1   18.30    6.20   1
 -16   5  -1   21.30    5.60   1
 -16  -5   1   26.80    7.10   1
   0   6  -1    5.60    1.90   1
   0   6   1    2.90    1.40   1
   0  -6   1    1.70    1.20   1
   0  -6  -1    0.50    1.20   1
   0  -6  -1    1.80    1.20   1
   0  -6  -1    4.00    1.20   1
   0  -6   1    2.10    1.30   1
   0  -6   1    3.00    1.20   1
   0   6   1    0.70    0.90   1
   0  -6   1   10.70    1.80   1
   0  -6   1    1.90    1.30   1
  -1  -6  -1  272.87    8.80   1
  -1  -6  -1  267.47    9.10   1
   1  -6   1  273.57    9.10   1
   1  -6   1  265.27    8.70   1
  -1   6   1  253.37    9.40   1
   1  -6   1  282.57    9.60   1
  -1  -6  -1  264.37    8.90   1
   1  -6   1  254.77    8.70   1
   1   6  -1  264.37    9.10   1
  -1  -6   1  270.07    9.10   1
  -1  -6   1  282.67    8.80   1
   1  -6  -1  263.77    9.30   1
   1  -6  -1  259.37    8.30   1
  -1  -6   1  266.47    9.00   1
  -1  -6   1  254.97    9.00   1
   1   6   1  265.87    8.60   1
   1  -6  -1  262.07    8.70   1
  -1   6  -1  296.17    9.80   1
  -1  -6   1  269.87    8.90   1
  -2  -6  -1 1275.87   38.00   1
  -2  -6  -1 1312.17   38.20   1
  -2   6   1 1259.97   38.90   1
   2  -6   1 1307.07   38.40   1
   2  -6   1 1360.16   39.10   1
   2  -6   1 1251.37   37.50   1
  -2  -6  -1 1263.37   38.40   1
   2   6  -1 1249.77   38.10   1
  -2   6  -1 1305.07   39.00   1
  -2  -6   1 1309.27   38.20   1
  -2  -6   1 1335.17   37.70   1
   2  -6  -1 1271.37   37.20   1
  -2  -6   1 1285.87   38.30   1
   2   6   1 1287.17   37.30   1
   2  -6  -1 1283.07   38.50   1
   2  -6  -1 1318.97   37.80   1
  -2  -6   1 1255.17   38.20   1
   3  -6   1  765.62   21.90   1
  -3  -6  -1  757.02   22.80   1
   3  -6   1  753.52   23.10   1
   3   6  -1  762.42   22.80   1
  -3  -6  -1  733.73   23.20   1
   3  -6   1  755.72   23.90   1
  -3   6   1  760.42   24.00   1
  -3  -6  -1  728.43   22.80   1
   3  -6  -1  724.63   21.70   1
   3  -6  -1  689.53   23.10   1
  -3   6  -1  790.62   24.00   1
  -3  -6   1  713.23   23.00   1
  -3  -6   1  746.03   22.80   1
   3   6   1  746.43   21.60   1
  -3  -6   1  723.13   22.90   1
  -4  -6  -1 1505.05   44.70   1
  -4  -6  -1 1469.05   44.00   1
   4   6  -1 1482.25   43.90   1
  -4   6   1 1499.05   43.80   1
  -4  -6  -1 1499.25   44.00   1
  -4   6   1 1481.15   45.40   1
   4  -6   1 1435.36   44.30   1
   4  -6   1 1564.54   43.90   1
   4  -6   1 1485.15   45.30   1
  -4  -6   1 1455.75   44.00   1
   4  -6  -1 1437.96   44.40   1
  -4  -6   1 1440.26   44.20   1
   4   6   1 1567.64   42.80   1
  -4   6  -1 1503.95   45.40   1
  -4  -6   1 1447.26   44.50   1
   5  -6   1  215.88    8.70   1
  -5  -6  -1  215.38    8.20   1
  -5  -6  -1  215.18    9.10   1
   5  -6   1  213.78    8.20   1
  -5   6   1  232.18    8.00   1
   5   6  -1  211.98    8.20   1
  -5  -6  -1  222.98    8.50   1
  -5   6   1  230.18    8.00   1
  -5   6   1  231.58   10.00   1
  -5   6  -1  220.48    9.80   1
  -5  -6   1  216.08    8.30   1
  -5  -6   1  224.18    8.50   1
  -5   6  -1  225.08    7.30   1
   5  -6  -1  208.38    8.70   1
  -5  -6   1  243.98    9.20   1
   6  -6   1    7.40    2.60   1
  -6  -6  -1    0.80    2.00   1
   6  -6   1    5.20    2.10   1
  -6  -6  -1    4.80    2.30   1
  -6   6   1    8.80    3.40   1
  -6   6   1    7.10    1.80   1
  -6  -6  -1   12.30    3.00   1
  -6   6   1    3.40    1.80   1
  -6   6  -1    6.40    1.30   1
  -6  -6   1    8.90    2.30   1
  -6  -6   1    2.00    2.20   1
  -6   6  -1   17.00    3.70   1
   6  -6  -1   13.50    2.80   1
  -6  -6   1    7.20    2.70   1
   7  -6   1  207.08    8.50   1
  -7   6   1  196.78   10.20   1
  -7  -6  -1  210.98    8.80   1
  -7  -6  -1  202.68    8.10   1
  -7  -6  -1  211.58    9.60   1
   7  -6   1  200.58    8.90   1
  -7   6   1  223.18    8.00   1
   7   6   1  205.68    6.60   1
  -7  -6   1  195.38    9.30   1
   7  -6  -1  205.48    8.90   1
   7   6   1  218.98    6.60   1
  -7  -6   1  195.08    8.30   1
  -7  -6   1  203.48    8.80   1
  -7   6  -1  215.08   10.20   1
  -8  -6  -1  618.94   21.50   1
  -8  -6  -1  661.23   20.90   1
  -8  -6  -1  636.84   22.50   1
  -8   6   1  695.83   20.60   1
   8  -6   1  652.53   21.40   1
   8  -6   1  669.33   22.00   1
   8   6   1  648.84   19.70   1
  -8  -6   1  649.83   22.40   1
  -8  -6   1  641.14   21.10   1
  -8  -6   1  620.44   21.70   1
   8  -6  -1  674.33   22.00   1
   9  -6   1  259.47   10.90   1
  -9  -6  -1  264.07   10.20   1
   9  -6   1  242.48   11.10   1
  -9  -6  -1  260.97   11.00   1
  -9   6   1  275.97    9.80   1
   9   6   1  263.27    9.30   1
  -9  -6   1  269.27   11.80   1
  -9  -6   1  276.67   11.40   1
  -9  -6   1  286.47   10.80   1
   9  -6  -1  248.28   11.00   1
 -10   6   1  682.73   23.40   1
 -10  -6  -1  723.73   22.20   1
 -10  -6  -1  693.73   23.40   1
  10  -6   1  697.73   23.80   1
 -10  -6   1  664.23   23.50   1
  10  -6  -1  668.13   23.40   1
  10   6   1  661.93   21.60   1
 -10   6  -1  666.53   22.90   1
 -10  -6   1  708.73   24.20   1
 -10  -6   1  697.33   22.70   1
 -11   6   1   82.99    7.20   1
 -11  -6  -1   90.29    7.00   1
  11  -6   1  102.99    7.40   1
 -11  -6   1  103.59    6.40   1
 -11  -6   1  102.99    7.90   1
 -11   6  -1   89.69    6.70   1
 -11  -6   1   86.69    7.40   1
 -12   6   1   17.50    5.00   1
  12  -6   1   10.80    4.70   1
 -12  -6  -1   10.60    4.60   1
 -12   6  -1   20.90    4.50   1
 -12  -6   1    9.50    3.70   1
 -12  -6   1   18.40    5.00   1
 -13  -6  -1   59.59    6.60   1
 -13   6   1   67.19    7.20   1
 -13  -6   1   62.09    7.30   1
 -13   6  -1   62.39    6.70   1
 -14  -6  -1  233.88   12.50   1
 -14   6   1  229.28   12.40   1
 -14   6  -1  226.38   11.80   1
 -14  -6   1  247.48   12.80   1
 -15   6   1   90.49    8.60   1
 -15  -6  -1   70.39    7.90   1
 -15  -6   1   84.09    8.60   1
 -15   6  -1   74.19    8.00   1
 -16  -6  -1  214.78   12.00   1
 -16   6   1  198.08   12.80   1
 -16  -6   1  202.38   13.10   1
 -16   6  -1  208.78   11.50   1
   0  -7   1  720.43   22.30   1
   0   7  -1  751.82   22.80   1
   0  -7  -1  727.13   22.00   1
   0  -7  -1  730.83   22.10   1
   0  -7   1  737.73   22.20   1
   0  -7  -1  739.73   22.20   1
   0  -7   1  732.53   22.00   1
   0  -7   1  702.23   22.20   1
   0   7   1  704.43   22.30   1
   1  -7   1 1761.42   51.09   1
   1  -7   1 1747.33   50.59   1
  -1   7   1 1661.53   51.29   1
   1   7  -1 1722.13   51.09   1
  -1  -7  -1 1712.63   50.89   1
   1  -7   1 1800.82   50.69   1
  -1  -7  -1 1777.02   50.79   1
  -1  -7  -1 1693.43   50.79   1
   1  -7  -1 1682.23   51.19   1
  -1  -7   1 1776.82   50.69   1
  -1  -7   1 1744.83   50.69   1
  -1  -7   1 1766.32   50.89   1
   1  -7  -1 1724.93   50.19   1
   1  -7  -1 1723.83   50.59   1
  -1   7  -1 1615.24   51.39   1
   1   7   1 1744.03   50.49   1
  -1  -7   1 1838.82   50.99   1
  -2  -7  -1  985.40   29.00   1
   2  -7   1  951.50   28.40   1
  -2  -7  -1  940.91   29.00   1
  -2  -7  -1  974.40   29.20   1
   2  -7   1  921.31   29.20   1
   2  -7   1  995.00   30.90   1
  -2   7   1  953.80   29.70   1
   2   7  -1  979.10   29.00   1
   2  -7  -1  882.01   29.20   1
  -2  -7   1  954.40   29.10   1
  -2   7  -1  944.81   29.80   1
   2   7   1  980.80   28.20   1
  -2  -7   1  998.50   28.60   1
  -2  -7   1  959.90   29.10   1
   2  -7  -1  947.91   28.00   1
  -2  -7   1  962.90   28.90   1
   2  -7  -1  990.50   28.60   1
   3  -7   1   26.40    1.90   1
  -3   7   1   28.70    3.50   1
  -3  -7  -1   22.70    2.60   1
  -3  -7  -1   24.60    2.90   1
  -3  -7  -1   28.80    2.80   1
   3  -7   1   24.10    2.70   1
   3   7  -1   27.20    2.70   1
   3  -7   1   28.90    3.60   1
  -3   7  -1   30.10    3.70   1
  -3  -7   1   26.00    2.70   1
  -3  -7   1   27.30    2.90   1
  -3  -7   1   25.80    2.70   1
   3  -7  -1   25.60    1.70   1
   3  -7  -1   30.30    3.10   1
   3  -7  -1   23.00    2.10   1
   3   7   1   27.10    1.70   1
   4  -7   1 1071.89   31.20   1
  -4  -7  -1 1061.49   31.50   1
  -4   7   1  988.10   31.20   1
   4  -7   1 1014.30   30.30   1
   4  -7   1 1157.68   34.50   1
   4   7  -1 1018.20   31.20   1
  -4   7   1 1052.19   32.90   1
  -4  -7  -1 1067.09   32.10   1
  -4  -7  -1 1026.30   31.50   1
   4  -7   1 1068.19   32.00   1
   4   7   1 1078.99   30.10   1
  -4  -7   1 1031.10   31.60   1
   4  -7  -1  992.30   31.90   1
  -4  -7   1  996.50   31.90   1
  -4  -7   1 1038.20   31.60   1
  -4   7  -1  952.20   32.60   1
   5  -7   1 1383.26   42.30   1
   5  -7   1 1431.56   41.60   1
  -5  -7  -1 1388.76   41.70   1
  -5   7   1 1375.06   41.40   1
   5   7  -1 1369.26   41.50   1
  -5   7   1 1475.35   41.50   1
  -5  -7  -1 1380.36   41.90   1
  -5   7   1 1439.96   43.70   1
  -5  -7  -1 1372.26   42.50   1
  -5  -7   1 1407.96   42.10   1
  -5   7  -1 1343.57   43.40   1
  -5  -7   1 1372.76   41.80   1
  -5  -7   1 1379.16   42.60   1
   5  -7  -1 1404.36   42.40   1
  -6  -7  -1  370.86   13.70   1
  -6  -7  -1  349.57   12.50   1
  -6   7   1  382.46   14.80   1
   6   7  -1  359.26   12.50   1
  -6   7   1  386.86   12.40   1
   6  -7   1  352.26   12.60   1
  -6  -7  -1  348.87   12.70   1
  -6   7   1  376.46   12.40   1
   6  -7   1  361.06   13.30   1
  -6   7  -1  369.06   14.60   1
   6  -7  -1  350.56   13.40   1
  -6   7  -1  343.77   11.50   1
  -6  -7   1  361.96   13.20   1
  -6  -7   1  378.56   13.70   1
  -6  -7   1  352.36   12.70   1
  -7  -7  -1  828.62   26.30   1
  -7   7   1  843.32   25.30   1
   7  -7   1  820.42   25.90   1
   7  -7   1  817.92   26.60   1
  -7  -7  -1  830.52   25.70   1
  -7   7   1  803.32   28.10   1
  -7  -7  -1  811.22   27.00   1
   7   7   1  837.42   23.80   1
  -7  -7   1  832.72   25.90   1
  -7  -7   1  782.72   26.30   1
   7   7   1  820.02   23.80   1
  -7  -7   1  791.62   26.80   1
   7  -7  -1  820.52   26.60   1
  -7   7  -1  812.72   28.00   1
  -8  -7  -1  421.86   15.00   1
   8  -7   1  429.36   15.70   1
  -8   7   1  422.76   14.10   1
  -8  -7  -1  414.36   16.00   1
  -8  -7  -1  415.56   14.50   1
   8  -7  -1  406.86   15.50   1
  -8  -7   1  413.56   16.00   1
  -8  -7   1  422.96   15.50   1
  -8  -7   1  425.56   14.80   1
   8   7   1  418.16   13.00   1
  -9  -7  -1    0.40    3.40   1
  -9   7   1    9.20    2.40   1
  -9  -7  -1    1.80    3.00   1
  -9  -7  -1   12.20    3.00   1
   9  -7   1    3.60    3.60   1
  -9  -7   1    2.60    2.60   1
  -9  -7   1    4.80    3.40   1
   9  -7  -1    2.00    3.10   1
   9   7   1    5.40    1.80   1
  -9  -7   1    6.60    3.00   1
  10  -7   1  454.35   17.30   1
 -10  -7  -1  448.46   15.50   1
 -10  -7  -1  421.36   16.60   1
 -10  -7   1  449.86   17.50   1
 -10   7  -1  462.75   16.40   1
 -10  -7   1  458.25   16.10   1
 -10  -7   1  447.86   17.00   1
  10  -7  -1  434.86   17.10   1
 -11  -7  -1  466.05   17.90   1
 -11  -7  -1  483.15   16.60   1
 -11   7   1  474.15   18.00   1
  11  -7   1  493.75   18.50   1
  11  -7  -1  504.35   18.30   1
 -11  -7   1  466.15   18.20   1
 -11  -7   1  467.25   17.00   1
 -11  -7   1  480.25   18.80   1
 -11   7  -1  448.76   17.40   1
 -12  -7  -1   97.19    7.60   1
 -12   7   1   80.79    7.50   1
  12  -7   1   95.29    8.30   1
 -12  -7   1   85.89    7.90   1
 -12   7  -1   97.09    7.30   1
 -12  -7   1   93.09    6.60   1
 -13  -7  -1  249.38   12.60   1
 -13   7   1  261.97   13.10   1
 -13  -7   1  232.58   12.60   1
 -13  -7   1  262.47   11.40   1
 -13   7  -1  246.68   12.50   1
 -14   7   1  155.28   10.60   1
 -14  -7  -1  164.08   10.10   1
 -14   7  -1  177.78   10.10   1
 -14  -7   1  163.98   10.90   1
 -15  -7  -1   -1.00    5.10   1
 -15   7   1    7.20    5.40   1
 -15   7  -1   10.50    5.30   1
 -15  -7   1   -2.50    5.80   1
   0  -8  -1    7.00    1.50   1
   0  -8   1    8.80    1.70   1
   0  -8   1    6.20    1.80   1
   0  -8  -1    7.10    1.70   1
   0   8  -1    5.90    2.00   1
   0  -8  -1    7.80    1.50   1
   0  -8   1    6.50    1.60   1
   0   8   1    8.80    1.90   1
   0  -8   1   11.90    2.00   1
   1  -8   1   56.29    3.70   1
   1   8  -1   58.09    3.90   1
  -1  -8  -1   58.79    3.50   1
   1  -8   1   63.59    3.40   1
  -1  -8  -1   60.29    3.60   1
  -1   8   1   61.39    4.10   1
  -1  -8  -1   57.09    3.70   1
   1  -8   1   58.99    3.30   1
  -1  -8   1   62.19    3.70   1
   1   8   1   63.19    3.30   1
   1  -8  -1   62.19    3.40   1
   1  -8  -1   59.69    3.00   1
   1  -8  -1   63.69    3.70   1
  -1  -8   1   63.39    3.40   1
  -1   8  -1   67.79    4.40   1
  -1  -8   1   55.89    3.40   1
  -1  -8   1   60.99    3.60   1
   2   8  -1 1183.88   36.40   1
  -2  -8  -1 1194.78   36.40   1
  -2  -8  -1 1206.98   36.50   1
   2  -8   1 1204.58   36.80   1
  -2  -8  -1 1166.68   36.60   1
  -2   8   1 1206.38   37.30   1
   2  -8   1 1184.98   35.90   1
   2  -8   1 1212.08   36.10   1
  -2  -8   1 1239.78   36.70   1
   2  -8  -1 1213.28   35.50   1
  -2  -8   1 1223.88   36.60   1
  -2  -8   1 1261.37   36.10   1
   2   8   1 1267.47   35.80   1
  -2  -8   1 1214.88   36.50   1
   2  -8  -1 1187.38   36.10   1
  -2   8  -1 1387.66   37.80   1
   2  -8  -1 1147.39   36.80   1
   3   8  -1   77.69    4.20   1
  -3   8   1   87.89    5.60   1
   3  -8   1   82.59    4.60   1
  -3  -8  -1   92.79    4.70   1
  -3  -8  -1   80.09    4.60   1
  -3  -8  -1   91.59    5.00   1
   3  -8   1   99.29    3.80   1
  -3  -8   1   85.09    4.70   1
   3  -8  -1   91.19    3.40   1
   3  -8  -1   81.69    5.00   1
   3  -8  -1   83.79    4.00   1
  -3  -8   1   80.59    4.80   1
   3   8   1   85.89    3.50   1
  -3  -8   1   85.69    4.70   1
  -3   8  -1   89.79    5.80   1
  -4  -8  -1 1094.09   33.80   1
  -4   8   1 1145.89   35.30   1
   4   8  -1 1104.39   33.40   1
  -4   8   1 1186.18   33.70   1
   4  -8   1 1008.00   32.50   1
  -4  -8  -1 1163.38   34.40   1
  -4  -8  -1 1088.39   33.70   1
   4  -8   1 1124.79   34.30   1
  -4  -8   1 1106.39   34.30   1
  -4  -8   1 1105.99   34.00   1
   4  -8  -1 1099.49   32.40   1
   4  -8  -1 1108.59   34.40   1
  -4  -8   1 1081.09   33.80   1
  -4   8  -1 1129.59   35.30   1
   4   8   1 1121.89   32.30   1
  -5   8   1   80.99    4.40   1
   5  -8   1   90.99    5.10   1
  -5  -8  -1   83.29    4.80   1
  -5   8   1   80.79    4.60   1
  -5  -8  -1   83.19    5.00   1
   5   8  -1   87.09    4.50   1
  -5  -8  -1   84.79    5.60   1
  -5   8   1   80.09    6.40   1
   5  -8  -1   80.89    5.50   1
  -5  -8   1   80.59    5.00   1
  -5   8  -1   87.49    6.00   1
  -5  -8   1   85.19    4.80   1
  -5  -8   1   75.29    5.50   1
   6  -8   1   13.20    3.20   1
  -6  -8  -1   18.20    3.40   1
  -6  -8  -1   12.10    2.90   1
   6   8  -1   20.80    2.70   1
  -6   8   1   17.40    2.50   1
  -6   8   1   14.90    2.40   1
  -6  -8  -1   16.90    2.80   1
  -6   8   1   13.20    4.00   1
  -6  -8   1   15.20    2.60   1
  -6   8  -1   18.00    2.00   1
  -6  -8   1   14.10    3.20   1
   6  -8  -1   16.80    3.40   1
  -6   8  -1   16.70    4.10   1
  -6  -8   1   20.60    3.30   1
   7  -8   1    3.80    3.00   1
  -7  -8  -1    1.10    2.80   1
  -7  -8  -1    1.90    2.60   1
  -7   8   1    2.30    3.40   1
  -7   8   1    1.10    1.90   1
  -7  -8  -1    2.20    2.30   1
  -7   8   1    3.20    1.90   1
  -7  -8   1    8.30    3.00   1
   7  -8  -1    5.30    3.00   1
  -7  -8   1    0.90    2.40   1
  -7  -8   1    3.50    3.00   1
   7   8   1    3.10    0.80   1
   7   8   1    3.90    0.80   1
  -8   8   1  562.04   17.90   1
  -8  -8  -1  547.25   19.10   1
  -8  -8  -1  567.84   18.40   1
  -8  -8  -1  568.74   20.00   1
   8  -8   1  563.44   19.80   1
  -8  -8   1  530.35   19.80   1
   8  -8  -1  533.05   19.50   1
  -8  -8   1  543.55   18.70   1
  -8  -8   1  522.95   19.20   1
   8   8   1  545.05   16.70   1
   9  -8   1    5.40    3.70   1
  -9  -8  -1    4.00    3.50   1
  -9  -8  -1    7.20    3.40   1
  -9  -8  -1    7.10    2.90   1
  -9   8   1    6.10    2.40   1
  -9  -8   1   10.20    3.80   1
  -9  -8   1   -0.80    3.20   1
  -9  -8   1    2.50    3.60   1
   9  -8  -1    3.80    3.90   1
  10  -8   1  465.65   18.50   1
 -10  -8  -1  509.55   17.80   1
 -10  -8  -1  469.25   16.60   1
 -10  -8   1  454.95   18.20   1
 -10  -8   1  456.65   17.80   1
  10  -8  -1  489.15   18.40   1
 -10  -8   1  455.95   16.90   1
 -11  -8  -1   14.30    3.50   1
 -11  -8  -1   11.60    4.20   1
  11  -8   1   15.70    5.20   1
 -11   8   1   10.30    4.40   1
 -11   8  -1   11.60    4.10   1
 -11  -8   1   13.50    4.70   1
 -11  -8   1   22.30    4.80   1
 -11  -8   1   19.50    4.10   1
  11  -8  -1   16.70    4.60   1
 -12  -8  -1   18.70    4.90   1
  12  -8   1   15.80    5.40   1
 -12   8   1   12.20    4.90   1
 -12   8  -1   17.50    4.50   1
 -12  -8   1   15.00    5.10   1
 -12  -8   1   14.40    4.30   1
 -13  -8  -1    0.80    4.30   1
 -13   8   1  -10.10    4.50   1
 -13   8  -1    3.20    4.70   1
 -13  -8   1    3.60    3.90   1
 -13  -8   1   -4.00    4.60   1
 -14  -8  -1  197.08   11.10   1
 -14   8   1  208.58   11.90   1
 -14   8  -1  202.68   11.10   1
 -14  -8   1  192.18   11.70   1
 -15   8   1    4.90    5.80   1
 -15  -8  -1    2.00    4.80   1
 -15   8  -1    3.50    4.80   1
 -15  -8   1    3.00    5.60   1
   0  -9  -1  496.85   15.90   1
   0  -9  -1  480.15   16.10   1
   0  -9   1  533.85   16.10   1
   0  -9   1  507.15   16.30   1
   0   9  -1  477.55   16.60   1
   0   9   1  486.65   16.20   1
   0  -9   1  517.25   16.20   1
   0  -9  -1  490.15   16.10   1
   0  -9   1  496.45   16.00   1
   1  -9   1 1186.68   35.10   1
  -1  -9  -1 1140.09   35.40   1
   1   9  -1 1169.48   35.50   1
  -1  -9  -1 1168.28   35.30   1
   1  -9   1 1216.58   35.10   1
  -1   9   1 1151.88   35.70   1
   1  -9   1 1111.39   35.50   1
  -1  -9  -1 1169.98   35.30   1
   1  -9  -1 1165.08   35.80   1
   1   9   1 1155.78   35.00   1
  -1  -9   1 1189.98   35.40   1
  -1  -9   1 1191.88   35.20   1
   1  -9  -1 1172.78   34.70   1
  -1   9  -1 1164.98   36.10   1
  -1  -9   1 1217.68   35.30   1
  -1  -9   1 1184.98   35.30   1
   1  -9  -1 1171.58   35.10   1
  -2  -9  -1  770.92   23.70   1
  -2  -9  -1  740.53   23.50   1
   2   9  -1  758.52   23.50   1
   2  -9   1  730.93   23.90   1
  -2  -9  -1  773.12   23.60   1
  -2   9   1  754.22   24.30   1
   2  -9   1  757.72   23.10   1
   2  -9   1  749.82   22.90   1
  -2  -9   1  755.92   23.50   1
   2  -9  -1  766.32   23.20   1
  -2  -9   1  757.22   23.70   1
  -2   9  -1  743.03   24.50   1
   2  -9  -1  775.82   22.60   1
   2  -9  -1  715.63   24.00   1
   2   9   1  737.83   22.70   1
  -2  -9   1  760.22   23.10   1
  -2  -9   1  745.23   23.60   1
  -3  -9  -1    4.20    2.20   1
   3   9  -1    4.90    2.00   1
   3  -9   1    1.60    2.20   1
  -3  -9  -1    5.90    2.30   1
   3  -9   1    6.00    1.60   1
  -3   9   1    7.70    2.70   1
   3  -9   1    6.40    1.80   1
  -3  -9  -1    6.00    2.30   1
   3  -9  -1    3.80    1.70   1
  -3   9  -1    9.00    3.10   1
   3   9   1    6.80    1.40   1
   3  -9  -1    5.30    1.30   1
  -3  -9   1    4.60    2.10   1
  -3  -9   1    4.00    2.20   1
   3  -9  -1    9.10    2.40   1
  -3  -9   1    1.20    2.10   1
   4  -9   1  404.26   14.60   1
  -4  -9  -1  398.36   14.00   1
  -4  -9  -1  400.66   14.00   1
   4   9  -1  421.86   13.70   1
  -4  -9  -1  409.46   14.50   1
  -4   9   1  406.96   15.30   1
  -4  -9   1  406.46   14.10   1
   4  -9  -1  402.36   12.50   1
   4   9   1  402.76   12.50   1
  -4  -9   1  400.56   14.10   1
  -4   9  -1  435.96   15.70   1
  -4  -9   1  399.86   14.50   1
   4  -9  -1  410.26   14.80   1
  -5  -9  -1  859.91   26.90   1
  -5  -9  -1  847.22   27.30   1
  -5   9   1  879.01   28.50   1
  -5   9   1  811.92   26.20   1
  -5  -9  -1  862.11   26.70   1
   5  -9   1  808.92   27.30   1
   5   9  -1  844.62   26.20   1
  -5  -9   1  815.52   27.30   1
   5  -9  -1  834.92   25.00   1
   5  -9  -1  842.42   27.50   1
  -5  -9   1  843.52   27.00   1
  -5  -9   1  861.01   26.90   1
   5   9   1  890.61   25.00   1
  -5   9  -1  857.01   28.50   1
  -6  -9  -1  421.36   14.60   1
  -6   9   1  412.26   16.50   1
   6  -9   1  427.46   15.60   1
  -6  -9  -1  414.36   15.40   1
  -6   9   1  404.46   14.10   1
  -6  -9  -1  411.46   14.90   1
   6   9  -1  404.16   14.00   1
  -6   9   1  431.36   14.30   1
  -6  -9   1  419.46   15.00   1
  -6  -9   1  382.46   15.30   1
  -6   9  -1  420.56   13.50   1
   6  -9  -1  426.76   15.60   1
  -6  -9   1  424.16   14.80   1
  -6   9  -1  409.86   16.60   1
  -7   9   1  705.13   26.00   1
   7  -9   1  708.13   24.80   1
  -7  -9  -1  762.12   25.00   1
  -7  -9  -1  735.13   23.80   1
  -7  -9  -1  741.83   24.20   1
  -7   9   1  719.63   23.20   1
  -7   9   1  754.72   23.50   1
   7  -9  -1  725.93   24.90   1
   7   9   1  726.33   21.50   1
  -7  -9   1  746.73   25.00   1
  -7  -9   1  709.93   24.30   1
  -7  -9   1  768.52   24.10   1
  -8   9   1  400.56   13.80   1
   8  -9   1  437.76   16.10   1
  -8  -9  -1  405.46   15.80   1
  -8  -9  -1  398.56   15.10   1
  -8  -9  -1  405.06   14.60   1
  -8  -9   1  375.16   14.60   1
   8  -9  -1  408.76   15.90   1
  -8  -9   1  386.16   15.20   1
  -8  -9   1  389.96   15.80   1
  -9   9   1    7.10    2.60   1
   9  -9   1    3.60    3.90   1
  -9  -9  -1    6.50    3.10   1
  -9  -9  -1    2.40    3.60   1
  -9  -9  -1    5.80    3.60   1
  -9  -9   1   15.50    4.00   1
  -9  -9   1    3.70    3.30   1
  -9  -9   1   12.50    4.20   1
   9  -9  -1   13.40    4.20   1
 -10  -9  -1   98.89    6.90   1
 -10  -9  -1  120.59    7.70   1
  10  -9   1  110.39    8.40   1
 -10  -9   1  110.89    8.00   1
  10  -9  -1  112.79    8.20   1
 -10  -9   1  108.49    7.10   1
 -10  -9   1  111.29    8.80   1
  11  -9   1  365.96   16.00   1
 -11  -9  -1  334.47   14.50   1
 -11  -9  -1  341.17   13.40   1
 -11   9  -1  344.57   14.20   1
 -11  -9   1  359.76   14.10   1
 -11  -9   1  348.67   15.00   1
  11  -9  -1  369.46   15.40   1
 -12  -9  -1  225.98   11.60   1
 -12   9   1  216.88   11.70   1
  12  -9   1  251.97   13.20   1
 -12   9  -1  240.78   11.50   1
 -12  -9   1  241.08   11.20   1
 -12  -9   1  215.98   11.80   1
 -13  -9  -1  287.87   13.40   1
 -13   9   1  254.87   13.10   1
 -13  -9   1  245.88   13.40   1
 -13   9  -1  264.87   12.90   1
 -14   9   1   88.09    8.90   1
 -14  -9  -1  101.69    8.50   1
 -14   9  -1   98.19    8.70   1
 -14  -9   1   99.29    9.10   1
 -15   9   1    9.30    5.50   1
 -15  -9  -1    5.40    5.20   1
 -15   9  -1    4.50    5.30   1
 -15  -9   1    2.60    5.50   1
   0  10   1   41.80    3.50   1
   0 -10   1   35.40    3.20   1
   0 -10   1   30.40    3.20   1
   0 -10  -1   35.90    3.40   1
   0 -10   1   41.00    3.50   1
   0 -10   1   37.30    3.30   1
   0 -10  -1   42.20    3.30   1
   0  10  -1   39.30    3.80   1
   1  10  -1   90.89    5.40   1
  -1  10   1  102.39    5.60   1
  -1 -10  -1  104.69    5.30   1
   1 -10   1   97.59    4.90   1
  -1 -10  -1  103.69    5.00   1
   1 -10   1   99.09    5.40   1
  -1 -10  -1   93.29    5.30   1
   1 -10   1  104.49    5.10   1
   1 -10  -1  104.79    4.60   1
  -1 -10   1   97.89    5.00   1
  -1 -10   1  100.59    5.10   1
   1 -10  -1  108.69    5.80   1
   1  10   1   93.69    4.70   1
   1 -10  -1   98.89    5.00   1
  -1 -10   1   98.49    5.40   1
  -1  10  -1  102.69    6.20   1
  -1 -10   1  101.59    5.30   1
  -2 -10  -1 1020.00   31.70   1
   2 -10   1 1078.79   31.10   1
   2  10  -1 1053.39   31.60   1
   2 -10   1 1021.50   32.10   1
  -2 -10  -1 1003.60   31.70   1
  -2  10   1 1027.80   32.40   1
   2 -10   1 1036.50   31.20   1
  -2 -10  -1 1034.30   31.80   1
  -2 -10   1 1024.10   31.80   1
  -2 -10   1 1035.30   31.70   1
   2 -10  -1 1033.80   31.30   1
   2 -10  -1 1039.10   30.70   1
  -2  10  -1 1002.10   32.70   1
  -2 -10   1 1020.40   31.80   1
   2  10   1 1021.10   30.90   1
   2 -10  -1 1006.60   32.30   1
  -2 -10   1 1063.69   31.40   1
   3 -10   1   48.70    3.60   1
  -3  10   1   52.99    5.20   1
   3 -10   1   58.19    3.30   1
   3 -10   1   51.19    4.70   1
  -3 -10  -1   57.99    4.30   1
  -3 -10  -1   55.99    4.70   1
  -3 -10  -1   54.49    4.40   1
   3  10  -1   56.79    3.90   1
   3 -10  -1   59.19    3.10   1
  -3 -10   1   53.59    4.40   1
   3 -10  -1   50.89    3.80   1
  -3  10  -1   47.20    5.00   1
  -3 -10   1   49.10    4.30   1
   3 -10  -1   48.40    4.70   1
  -3 -10   1   55.99    4.50   1
   3  10   1   55.79    2.40   1
   3  10   1   53.89    3.00   1
  -4 -10  -1  792.92   25.30   1
   4 -10   1  810.22   24.00   1
   4 -10   1  753.22   25.80   1
  -4 -10  -1  833.42   25.70   1
   4 -10   1  778.72   24.40   1
   4  10  -1  802.42   24.70   1
  -4  10   1  795.42   26.60   1
  -4 -10  -1  788.42   25.20   1
   4 -10  -1  787.02   23.60   1
  -4 -10   1  775.82   25.40   1
  -4 -10   1  787.02   25.70   1
   4  10   1  809.02   23.60   1
  -4 -10   1  787.52   25.40   1
   4 -10  -1  747.03   25.80   1
  -4  10  -1  834.02   26.90   1
  -5 -10  -1  118.19    7.10   1
  -5  10   1  120.59    8.20   1
  -5 -10  -1  113.99    6.40   1
   5 -10   1  115.49    7.00   1
  -5  10   1  124.89    6.10   1
  -5 -10  -1  110.69    6.20   1
   5  10  -1  116.29    5.60   1
  -5 -10   1  109.49    6.80   1
  -5 -10   1  107.19    6.50   1
  -5 -10   1  113.19    6.40   1
   5 -10  -1  120.39    7.10   1
   5  10   1  117.99    4.40   1
  -5  10  -1  120.49    7.90   1
  -6 -10  -1   15.70    3.20   1
  -6  10   1   14.20    2.80   1
  -6 -10  -1   16.30    3.60   1
   6 -10   1   13.90    3.80   1
   6  10  -1   12.60    2.50   1
  -6  10   1   17.20    3.00   1
  -6 -10  -1   15.50    3.40   1
  -6  10   1   14.50    4.40   1
  -6 -10   1   14.50    3.40   1
  -6 -10   1    5.10    3.20   1
   6 -10  -1   11.60    3.80   1
   6  10   1   16.30    1.20   1
  -6  10  -1   15.50    4.30   1
  -6  10  -1   14.20    2.40   1
  -6 -10   1   17.00    3.40   1
  -7  10   1   30.10    3.60   1
   7  10  -1   28.10    3.30   1
  -7 -10  -1   27.50    4.40   1
  -7 -10  -1   24.90    4.00   1
   7 -10   1   19.80    4.50   1
  -7 -10  -1   26.80    3.80   1
  -7  10   1   31.60    5.50   1
  -7  10   1   23.90    3.10   1
  -7 -10   1   26.30    4.00   1
   7 -10  -1   26.10    4.70   1
  -7 -10   1   28.20    4.50   1
  -7 -10   1   16.40    3.70   1
  -8 -10  -1  556.44   19.60   1
  -8 -10  -1  543.45   20.30   1
  -8 -10  -1  578.24   19.20   1
   8 -10   1  531.65   20.40   1
  -8  10   1  555.64   18.40   1
   8 -10  -1  557.24   20.70   1
  -8 -10   1  550.14   20.40   1
  -8 -10   1  544.45   19.80   1
  -8 -10   1  559.94   19.40   1
   9 -10   1   55.79    6.70   1
  -9 -10  -1   51.59    5.60   1
  -9 -10  -1   47.40    5.90   1
  -9 -10  -1   57.79    5.40   1
  -9  10   1   40.50    4.10   1
   9 -10  -1   45.40    6.00   1
  -9 -10   1   40.30    5.50   1
  -9 -10   1   51.19    5.40   1
  -9 -10   1   51.89    5.70   1
  10 -10   1  344.17   15.50   1
 -10 -10  -1  326.97   13.20   1
 -10 -10  -1  332.67   13.90   1
 -10 -10   1  332.47   14.80   1
  10 -10  -1  341.07   15.20   1
 -10 -10   1  319.57   13.40   1
 -10 -10   1  317.57   14.20   1
 -11 -10  -1   37.70    4.60   1
  11 -10   1   40.40    6.50   1
 -11 -10  -1   36.40    5.60   1
  11 -10  -1   31.00    6.30   1
 -11  10  -1   35.60    5.30   1
 -11 -10   1   30.40    4.90   1
 -11 -10   1   29.50    5.70   1
 -12 -10  -1    3.10    4.80   1
  12 -10   1    8.60    5.60   1
 -12  10   1   -1.30    4.40   1
 -12  10  -1    1.30    4.30   1
 -12 -10   1    5.60    4.20   1
 -12 -10   1    2.10    4.60   1
 -13 -10  -1    3.60    4.60   1
  13 -10   1    8.10    6.10   1
 -13  10   1    6.00    5.40   1
 -13  10  -1    0.60    4.50   1
 -13 -10   1    6.80    5.50   1
 -13 -10   1   10.10    4.40   1
 -14  10   1  179.08   11.10   1
 -14 -10  -1  184.58   10.70   1
 -14  10  -1  161.88   10.30   1
 -14 -10   1  174.48   11.30   1
   0  11   1  381.86   13.70   1
   0 -11  -1  403.26   13.50   1
   0 -11   1  384.06   13.80   1
   0 -11   1  401.66   13.70   1
   0 -11  -1  385.46   13.70   1
   0  11  -1  397.66   14.20   1
   0 -11   1  402.06   13.60   1
   0 -11   1  404.86   13.60   1
  -1  11   1  680.63   22.60   1
   1 -11   1  667.93   22.50   1
   1  11  -1  717.03   22.50   1
  -1 -11  -1  718.43   22.20   1
  -1 -11  -1  706.83   22.40   1
   1 -11   1  688.43   21.90   1
   1 -11   1  685.63   21.90   1
  -1 -11  -1  672.43   22.30   1
  -1 -11   1  678.53   22.20   1
   1  11   1  675.13   21.80   1
  -1 -11   1  721.73   22.20   1
   1 -11  -1  682.73   21.50   1
   1 -11  -1  697.03   22.10   1
  -1  11  -1  694.43   23.10   1
  -1 -11   1  694.93   22.20   1
  -1 -11   1  715.73   22.40   1
  -2 -11  -1  109.39    6.10   1
  -2 -11  -1  119.19    6.00   1
   2  11  -1  118.59    5.90   1
   2 -11   1  115.79    6.40   1
   2 -11   1  120.69    5.70   1
  -2  11   1  102.89    6.60   1
  -2 -11  -1  107.59    6.00   1
   2 -11   1  118.69    5.40   1
   2 -11  -1  105.69    6.50   1
  -2 -11   1  122.99    5.70   1
   2 -11  -1  112.29    5.60   1
   2  11   1  116.59    5.20   1
  -2 -11   1  115.59    5.80   1
  -2 -11   1  119.79    6.40   1
  -2  11  -1  118.39    7.00   1
  -2 -11   1  109.19    6.00   1
   2 -11  -1  117.59    5.10   1
  -3  11   1    8.60    3.30   1
   3 -11   1   10.70    3.10   1
   3  11  -1   10.40    2.30   1
  -3 -11  -1   11.80    3.00   1
   3 -11   1   13.00    2.20   1
   3 -11   1    9.70    2.20   1
  -3 -11  -1    9.90    2.70   1
  -3 -11  -1   12.30    2.50   1
  -3 -11   1   14.90    2.70   1
  -3  11  -1   12.50    3.60   1
   3 -11  -1   11.00    2.30   1
   3 -11  -1   10.10    1.70   1
   3 -11  -1   10.90    3.40   1
  -3 -11   1   15.90    3.10   1
   3  11   1   12.00    1.80   1
  -3 -11   1    8.80    2.90   1
  -4  11   1  128.29    7.60   1
  -4 -11  -1  112.39    6.40   1
  -4 -11  -1  116.09    6.50   1
   4 -11   1  116.39    5.60   1
   4 -11   1  130.39    7.30   1
   4 -11   1  122.29    5.30   1
   4  11  -1  109.19    5.80   1
  -4 -11  -1  127.29    6.80   1
  -4 -11   1  120.99    6.70   1
  -4 -11   1  115.09    6.90   1
   4 -11  -1  115.09    7.10   1
   4  11   1  120.39    4.80   1
  -4 -11   1  115.39    6.50   1
  -4  11  -1  111.89    7.70   1
  -5 -11  -1  428.96   15.70   1
  -5 -11  -1  432.76   15.90   1
  -5 -11  -1  456.45   16.40   1
   5  11  -1  447.16   15.00   1
  -5  11   1  453.55   17.30   1
   5 -11   1  432.26   16.50   1
  -5  11   1  436.26   15.40   1
   5 -11   1  440.36   14.70   1
  -5  11  -1  428.06   17.30   1
  -5 -11   1  414.66   15.90   1
  -5 -11   1  457.75   16.50   1
   5 -11  -1  426.46   16.60   1
   5  11   1  452.35   13.70   1
  -5 -11   1  463.25   16.00   1
  -6  11   1  239.28   12.00   1
  -6 -11  -1  235.78   10.20   1
   6  11  -1  231.98    9.30   1
  -6  11   1  236.48    9.90   1
   6 -11   1  237.28    9.20   1
  -6  11   1  266.17   10.10   1
  -6 -11  -1  243.68   10.60   1
   6 -11   1  243.68   11.30   1
  -6 -11  -1  243.58   10.80   1
  -6 -11   1  243.48   10.40   1
   6 -11  -1  224.18   11.10   1
  -6  11  -1  261.47   12.40   1
  -6  11  -1  243.68    9.20   1
  -6 -11   1  224.38   10.50   1
  -6 -11   1  245.38   11.10   1
   7  11  -1  518.45   17.30   1
  -7 -11  -1  523.65   19.00   1
  -7  11   1  532.65   17.90   1
  -7 -11  -1  515.35   18.60   1
  -7 -11  -1  535.45   18.20   1
   7 -11   1  509.65   19.40   1
  -7  11   1  492.55   17.50   1
  -7 -11   1  518.85   19.20   1
  -7 -11   1  512.15   18.60   1
   7 -11  -1  498.05   19.40   1
  -7 -11   1  524.85   18.40   1
  -8 -11  -1   53.89    5.90   1
  -8  11   1   58.69    4.80   1
  -8 -11  -1   54.69    5.70   1
  -8 -11  -1   55.99    5.30   1
   8 -11   1   48.50    6.30   1
   8 -11  -1   59.79    6.50   1
  -8 -11   1   57.69    6.00   1
  -8 -11   1   66.49    5.80   1
  -8 -11   1   55.39    6.10   1
  -9 -11  -1   22.20    4.80   1
  -9 -11  -1   22.00    4.10   1
  -9 -11  -1   14.40    4.40   1
   9 -11   1   29.60    5.60   1
   9 -11  -1   21.60    5.50   1
  -9 -11   1   23.30    4.80   1
  -9 -11   1   19.20    4.30   1
  -9 -11   1   22.40    4.80   1
 -10 -11  -1   57.09    6.30   1
  10 -11   1   56.09    7.30   1
 -10 -11  -1   64.89    6.00   1
 -10 -11   1   64.49    6.80   1
  10 -11  -1   66.89    7.40   1
 -10 -11   1   54.39    5.80   1
 -11 -11  -1  207.88   11.20   1
  11 -11   1  215.68   12.40   1
 -11 -11   1  208.68   11.40   1
 -11 -11   1  224.48   10.80   1
  11 -11  -1  220.88   12.30   1
  12 -11   1   97.89    9.60   1
 -12 -11  -1   83.09    7.80   1
 -12  11   1   85.69    8.40   1
 -12 -11   1   85.99    8.20   1
  12 -11  -1   97.69    9.20   1
 -12 -11   1   98.99    7.40   1
 -12  11  -1   89.49    7.80   1
  13 -11   1  256.87   14.40   1
 -13  11   1  209.48   11.90   1
 -13 -11  -1  202.58   11.40   1
 -13  11  -1  213.88   11.40   1
 -13 -11   1  196.18   11.90   1
 -14  11   1   23.10    6.10   1
 -14 -11  -1   26.60    6.20   1
 -14  11  -1   29.40    6.00   1
 -14 -11   1   28.00    6.40   1
   0  12  -1   54.09    5.00   1
   0 -12   1   57.89    4.60   1
   0 -12  -1   50.19    3.90   1
   0 -12  -1   47.90    4.10   1
   0  12   1   53.49    4.30   1
   0 -12   1   37.10    3.70   1
   0 -12   1   51.89    4.30   1
   1 -12   1  427.86   14.90   1
  -1  12   1  414.76   15.40   1
  -1 -12  -1  455.75   15.20   1
   1 -12   1  438.16   14.80   1
   1 -12   1  438.96   15.70   1
  -1 -12  -1  442.76   15.40   1
  -1 -12  -1  429.26   15.30   1
   1  12  -1  414.96   15.20   1
   1 -12  -1  443.56   14.60   1
  -1 -12   1  452.25   15.30   1
   1 -12  -1  433.26   15.10   1
   1  12   1  425.36   14.80   1
  -1 -12   1  419.36   15.10   1
  -1  12  -1  451.45   16.10   1
  -1 -12   1  453.35   15.40   1
  -1 -12   1  439.36   15.30   1
   2  12  -1  695.03   23.40   1
   2 -12   1  743.63   23.10   1
  -2 -12  -1  743.83   23.70   1
  -2 -12  -1  726.43   23.90   1
  -2  12   1  727.93   24.40   1
   2 -12   1  720.93   23.10   1
  -2 -12  -1  716.23   23.70   1
   2 -12   1  734.73   24.30   1
   2  12   1  731.53   22.80   1
  -2  12  -1  729.63   24.80   1
  -2 -12   1  750.02   23.80   1
   2 -12  -1  719.03   24.50   1
   2 -12  -1  763.92   23.50   1
  -2 -12   1  754.02   24.00   1
  -2 -12   1  713.33   23.80   1
   2 -12  -1  732.13   22.70   1
   3 -12   1  124.79    7.40   1
  -3 -12  -1  133.89    7.20   1
  -3  12   1  129.49    7.70   1
   3  12  -1  140.19    6.60   1
   3 -12   1  138.59    6.40   1
   3 -12   1  137.49    6.20   1
  -3 -12  -1  126.79    7.00   1
  -3 -12  -1  142.39    7.40   1
  -3 -12   1  139.39    7.30   1
  -3  12  -1  145.99    8.40   1
  -3 -12   1  145.19    7.70   1
   3 -12  -1  128.79    6.60   1
   3 -12  -1  138.59    8.00   1
  -3 -12   1  139.09    7.30   1
   3  12   1  133.69    5.60   1
   4 -12   1  501.35   19.00   1
  -4 -12  -1  520.55   18.50   1
   4 -12   1  545.85   17.20   1
  -4  12   1  536.15   19.70   1
   4  12  -1  538.85   17.80   1
   4 -12   1  522.65   17.40   1
  -4 -12  -1  559.34   18.90   1
  -4 -12  -1  519.15   18.60   1
   4 -12  -1  524.55   19.40   1
  -4 -12   1  557.44   19.10   1
  -4  12  -1  566.14   20.30   1
   4  12   1  536.35   16.60   1
  -4 -12   1  531.85   18.60   1
  -4 -12   1  531.25   18.70   1
   5 -12   1  350.86   12.20   1
   5  12  -1  337.37   12.40   1
  -5 -12  -1  355.56   13.70   1
  -5 -12  -1  341.77   13.20   1
  -5  12   1  361.46   13.30   1
   5 -12   1  360.26   14.00   1
  -5 -12  -1  331.37   13.20   1
  -5  12   1  346.87   14.70   1
  -5 -12   1  336.97   13.10   1
   5 -12  -1  352.46   14.40   1
  -5 -12   1  338.37   13.60   1
   5  12   1  365.06   11.10   1
  -5  12  -1  317.37   14.80   1
  -5 -12   1  331.27   13.90   1
  -6 -12  -1   27.90    3.90   1
  -6  12   1   30.80    4.00   1
  -6  12   1   29.10    4.00   1
  -6  12   1   23.90    5.00   1
   6 -12   1   31.60    5.00   1
   6 -12   1   23.40    3.00   1
   6  12  -1   23.90    3.10   1
  -6 -12  -1   31.40    4.70   1
  -6 -12  -1   20.10    3.90   1
  -6 -12   1   25.70    4.40   1
   6 -12  -1   24.70    4.90   1
  -6 -12   1   29.60    4.60   1
  -6  12  -1   30.60    3.50   1
  -6 -12   1   28.10    4.60   1
   7 -12   1  226.78   11.60   1
  -7  12   1  229.58   11.20   1
  -7 -12  -1  228.98   10.80   1
  -7 -12  -1  240.18   11.10   1
  -7 -12  -1  252.97   10.50   1
  -7  12   1  230.28   10.00   1
  -7 -12   1  230.28   10.60   1
  -7 -12   1  232.08   10.90   1
   7 -12  -1  229.88   11.70   1
  -7 -12   1  197.68   11.00   1
  -8 -12  -1  409.66   16.10   1
  -8 -12  -1  392.36   16.30   1
  -8 -12  -1  419.66   15.80   1
  -8  12   1  394.46   14.80   1
   8 -12   1  420.46   17.20   1
  -8 -12   1  425.76   16.10   1
   8 -12  -1  403.46   17.10   1
  -8 -12   1  403.26   16.10   1
  -8 -12   1  407.06   16.90   1
   9 -12   1   83.99    8.30   1
  -9 -12  -1   93.89    7.40   1
  -9 -12  -1   72.29    7.00   1
  -9 -12  -1   74.69    6.40   1
  -9 -12   1   70.09    6.90   1
   9 -12  -1  101.69    8.70   1
  -9 -12   1   74.49    7.50   1
  -9 -12   1   93.99    7.20   1
  10 -12   1  216.58   12.90   1
 -10 -12  -1  213.68   11.10   1
 -10 -12  -1  197.88   10.10   1
 -10 -12   1  198.48   10.40   1
 -10 -12   1  204.98   11.10   1
  10 -12  -1  221.98   12.80   1
 -11 -12  -1  140.69    9.20   1
 -11 -12  -1  142.89    8.80   1
  11 -12   1  157.38   11.50   1
 -11 -12   1  137.99    9.50   1
  11 -12  -1  141.29   11.20   1
 -11 -12   1  131.19    8.60   1
 -12 -12  -1    4.30    4.10   1
 -12 -12  -1    3.70    4.80   1
 -12  12   1    4.80    5.40   1
  12 -12   1   12.30    6.50   1
 -12 -12   1    0.40    4.40   1
 -12  12  -1   11.40    5.20   1
 -12 -12   1   12.00    5.50   1
 -13  12   1   91.69    9.00   1
 -13 -12  -1   94.29    8.40   1
  13 -12   1  130.59   11.00   1
 -13 -12   1  104.29    7.70   1
 -13  12  -1  117.09    8.60   1
 -13 -12   1  102.89    9.20   1
 -14 -12  -1  114.39    9.10   1
 -14 -12   1  130.69   10.00   1
 -14  12  -1  129.79    9.20   1
   0 -13   1   14.30    2.90   1
   0 -13  -1   12.40    2.60   1
   0 -13  -1   16.00    3.40   1
   0 -13   1    6.10    2.80   1
   0  13  -1   12.00    3.30   1
   0  13   1   11.50    2.90   1
   0 -13   1   12.20    3.10   1
   1  13  -1  899.51   29.00   1
   1 -13   1  868.71   29.20   1
  -1 -13  -1  905.11   28.70   1
  -1  13   1  872.71   29.10   1
   1 -13   1  932.71   28.60   1
  -1 -13  -1  905.91   29.00   1
   1 -13   1  903.41   28.50   1
  -1 -13   1  918.21   28.90   1
  -1 -13   1  929.01   28.90   1
  -1 -13   1  908.31   28.80   1
   1 -13  -1  920.61   28.20   1
   1 -13  -1  936.71   28.90   1
  -1 -13   1  927.41   28.90   1
  -1  13  -1  907.21   29.70   1
   1  13   1  859.01   28.30   1
   2 -13   1    9.10    3.30   1
   2  13  -1    8.40    2.60   1
  -2  13   1    5.30    2.90   1
   2 -13   1    9.60    2.60   1
  -2 -13  -1    3.10    3.10   1
  -2 -13  -1    4.40    3.00   1
  -2 -13  -1    6.20    2.80   1
   2 -13   1   13.10    2.70   1
  -2 -13   1    3.50    2.90   1
  -2 -13   1    5.00    3.10   1
   2  13   1    8.20    2.20   1
  -2  13  -1    6.90    3.70   1
  -2 -13   1   10.10    3.30   1
   2 -13  -1    8.70    3.00   1
   3  13  -1   20.60    3.10   1
   3 -13   1   14.20    2.70   1
   3 -13   1   15.70    2.90   1
  -3 -13  -1   19.10    3.80   1
  -3 -13  -1   13.10    2.90   1
  -3 -13  -1    9.30    3.20   1
  -3  13   1   13.70    3.80   1
   3 -13   1   16.40    3.90   1
   3 -13  -1   13.90    2.90   1
  -3 -13   1   17.10    3.30   1
  -3 -13   1   16.50    3.60   1
  -3  13  -1   16.80    4.50   1
   3  13   1   15.60    2.30   1
  -3 -13   1   16.50    3.60   1
   3 -13  -1   12.80    4.10   1
   4 -13   1    0.20    3.40   1
   4 -13   1    4.80    2.20   1
   4  13  -1    3.40    2.40   1
  -4 -13  -1   -1.50    2.30   1
  -4  13   1    5.00    3.50   1
  -4 -13  -1   -1.30    3.10   1
   4 -13   1   -0.90    2.10   1
  -4 -13  -1    3.10    2.90   1
  -4 -13   1    2.20    3.20   1
   4  13   1    0.00    1.60   1
  -4 -13   1   -1.60    3.00   1
   4 -13  -1    2.30    3.60   1
  -4  13  -1   -0.70    3.50   1
  -4 -13   1    5.50    3.30   1
   5 -13   1  620.44   22.60   1
  -5 -13  -1  624.14   21.90   1
  -5 -13  -1  661.63   22.20   1
  -5 -13  -1  620.04   21.60   1
  -5  13   1  642.24   21.60   1
  -5  13   1  658.53   23.50   1
  -5 -13   1  618.84   21.90   1
  -5  13  -1  587.04   23.40   1
  -5 -13   1  631.64   21.80   1
   5  13   1  656.43   19.30   1
  -5 -13   1  644.54   22.40   1
   5 -13  -1  597.24   22.70   1
  -6 -13  -1   24.10    4.20   1
  -6 -13  -1   14.70    4.20   1
  -6  13   1   20.40    3.90   1
  -6  13   1   14.10    3.90   1
  -6  13   1   17.10    4.90   1
   6 -13   1   18.30    4.80   1
  -6 -13  -1   20.20    4.40   1
  -6  13  -1   22.70    3.40   1
  -6 -13   1   17.30    4.30   1
  -6 -13   1   20.80    4.40   1
   6 -13  -1   12.10    4.60   1
  -6 -13   1   13.40    4.20   1
  -7 -13  -1  656.83   23.00   1
  -7  13   1  694.13   21.90   1
   7 -13   1  651.33   23.90   1
  -7 -13  -1  624.64   22.60   1
  -7 -13  -1  658.73   22.40   1
  -7 -13   1  615.74   22.40   1
  -7 -13   1  643.94   22.70   1
  -7 -13   1  624.44   23.20   1
   7 -13  -1  622.44   23.80   1
   8 -13   1    6.60    4.90   1
  -8 -13  -1    4.40    4.20   1
  -8 -13  -1    2.00    3.60   1
  -8  13   1    5.80    3.30   1
  -8 -13  -1    3.90    4.10   1
  -8 -13   1    4.50    4.20   1
   8 -13  -1   -2.40    4.60   1
  -8 -13   1    0.70    3.70   1
  -8 -13   1    9.00    4.30   1
  -9 -13  -1    3.40    4.10   1
  -9 -13  -1    1.20    3.70   1
   9 -13   1    8.90    5.20   1
   9 -13  -1    1.10    4.90   1
  -9 -13   1    3.50    4.00   1
  -9 -13   1    3.50    4.10   1
 -10 -13  -1    6.50    4.50   1
 -10 -13  -1    3.60    3.90   1
  10 -13   1    9.00    5.60   1
  10 -13  -1   -2.40    5.50   1
 -10 -13   1    6.50    4.20   1
 -10 -13   1   -2.20    4.30   1
 -11 -13  -1  296.77   13.30   1
 -11 -13  -1  319.47   14.20   1
  11 -13   1  321.47   16.00   1
  11 -13  -1  323.17   15.80   1
 -11 -13   1  295.57   14.20   1
 -11 -13   1  282.57   13.60   1
 -12  13   1   24.70    6.00   1
 -12 -13  -1   19.60    5.60   1
  12 -13   1   19.10    7.00   1
 -12 -13  -1   21.00    5.00   1
 -12 -13   1   18.40    5.90   1
 -12  13  -1   21.10    5.50   1
 -12 -13   1   22.40    5.30   1
 -13  13   1  280.17   14.70   1
 -13 -13  -1  305.87   14.50   1
 -13 -13   1  306.97   14.70   1
 -13 -13   1  294.07   13.40   1
 -13  13  -1  298.97   13.90   1
   0  14   1   25.60    3.90   1
   0  14  -1   26.30    4.30   1
   0 -14  -1   31.40    4.30   1
   0 -14   1   24.80    4.30   1
   0 -14   1   20.20    3.60   1
   0 -14   1   27.00    3.90   1
   1  14  -1  228.38    9.90   1
  -1  14   1  200.28    9.90   1
   1 -14   1  228.18    9.50   1
   1 -14   1  217.48   10.20   1
   1 -14   1  213.18    9.30   1
  -1 -14  -1  233.58    9.60   1
  -1 -14  -1  223.68   10.10   1
  -1 -14   1  222.68    9.90   1
  -1 -14   1  207.38    9.70   1
  -1 -14   1  227.88    9.80   1
   1  14   1  218.18    9.20   1
   1 -14  -1  225.68    9.80   1
  -1  14  -1  217.08   10.60   1
  -1 -14   1  224.58   10.00   1
  -2  14   1  460.45   17.20   1
  -2 -14  -1  430.46   16.70   1
   2  14  -1  453.55   16.20   1
   2 -14   1  452.75   16.00   1
   2 -14   1  441.36   17.20   1
  -2 -14  -1  453.05   16.80   1
   2 -14   1  466.95   15.90   1
  -2 -14  -1  473.25   16.60   1
   2 -14  -1  495.85   16.60   1
  -2 -14   1  453.75   16.70   1
  -2 -14   1  442.86   16.70   1
  -2  14  -1  477.25   17.80   1
   2  14   1  449.26   15.50   1
  -2 -14   1  484.65   17.00   1
  -3  14   1  380.86   15.60   1
  -3 -14  -1  376.86   14.80   1
  -3 -14  -1  394.56   14.70   1
  -3 -14  -1  382.26   14.90   1
   3 -14   1  368.66   13.70   1
   3 -14   1  384.96   15.50   1
   3 -14   1  392.46   13.80   1
   3 -14  -1  418.26   14.20   1
  -3 -14   1  388.66   14.90   1
   3  14   1  387.06   13.70   1
  -3  14  -1  377.26   16.00   1
  -3 -14   1  399.06   15.00   1
  -3 -14   1  368.46   15.00   1
   4 -14   1  399.66   16.20   1
  -4 -14  -1  401.16   15.40   1
   4 -14   1  394.86   13.90   1
  -4 -14  -1  411.56   15.50   1
  -4 -14  -1  351.76   15.00   1
  -4  14   1  427.76   16.70   1
  -4 -14   1  416.86   16.10   1
   4 -14  -1  383.26   16.30   1
  -4  14  -1  399.96   16.80   1
  -4 -14   1  396.16   15.40   1
  -4 -14   1  392.16   15.30   1
  -5 -14  -1  135.79    8.40   1
  -5 -14  -1  116.19    7.90   1
  -5  14   1  116.09    8.80   1
   5 -14   1  131.09    8.80   1
  -5 -14  -1  125.99    7.90   1
  -5  14   1  136.19    8.10   1
  -5 -14   1  134.69    8.20   1
  -5 -14   1  138.09    8.90   1
   5 -14  -1  119.29    8.90   1
  -5 -14   1  128.89    8.00   1
  -5  14  -1  140.09    9.70   1
  -6  14   1   20.50    4.10   1
  -6  14   1   16.10    4.10   1
  -6 -14  -1   18.00    4.40   1
  -6 -14  -1   22.20    4.60   1
  -6 -14  -1   16.40    4.40   1
   6 -14   1   21.50    5.30   1
  -6 -14   1   22.40    4.70   1
   6 -14  -1   19.30    5.40   1
  -6 -14   1   13.50    4.20   1
  -6 -14   1   11.70    4.20   1
  -6  14  -1   15.00    3.60   1
  -7  14   1  226.88   10.20   1
  -7 -14  -1  213.18   10.80   1
   7 -14   1  201.48   11.70   1
  -7 -14  -1  203.08   10.60   1
  -7 -14  -1  215.18   10.40   1
   7 -14  -1  201.98   11.90   1
  -7 -14   1  190.98   10.60   1
  -7 -14   1  202.48   11.10   1
  -7 -14   1  204.78   10.50   1
  -8 -14  -1  255.27   12.40   1
   8 -14   1  245.78   13.70   1
  -8  14   1  269.97   11.40   1
  -8 -14  -1  267.67   12.10   1
   8 -14  -1  288.47   14.20   1
  -8 -14   1  252.37   12.40   1
  -8 -14   1  273.17   12.30   1
   9 -14   1  156.88   11.30   1
  -9 -14  -1  162.48    9.90   1
  -9 -14  -1  157.38    9.50   1
  -9 -14   1  145.59    9.20   1
   9 -14  -1  170.48   11.30   1
  -9 -14   1  134.89    9.40   1
  10 -14   1  197.08   13.60   1
 -10 -14  -1  189.28   10.60   1
 -10 -14  -1  184.68   10.90   1
 -10 -14   1  200.18   11.30   1
  10 -14  -1  203.78   12.80   1
 -10 -14   1  218.08   10.90   1
 -11 -14  -1   90.79    7.60   1
  11 -14   1   86.79    9.70   1
 -11 -14  -1   70.19    7.70   1
 -11 -14   1   87.69    7.80   1
 -11 -14   1   91.89    8.70   1
 -12 -14  -1   20.30    5.00   1
  12 -14   1   12.30    7.60   1
 -12 -14  -1   13.60    5.40   1
 -12  14  -1   11.30    5.60   1
 -12 -14   1    9.50    4.60   1
 -12 -14   1   12.50    5.90   1
 -13  14   1   84.09    8.50   1
 -13 -14  -1  104.79    8.70   1
 -13  14  -1  113.49    9.30   1
 -13 -14   1   96.79    9.40   1
   0 -15  -1  374.26   14.20   1
   0 -15   1  368.36   13.90   1
   0 -15   1  360.86   14.50   1
   0 -15   1  345.27   13.90   1
  -1 -15  -1  446.56   17.10   1
   1 -15   1  454.95   17.50   1
   1 -15   1  476.15   16.70   1
   1 -15   1  469.75   16.80   1
  -1 -15   1  474.65   17.30   1
  -1 -15   1  477.45   17.20   1
   1 -15  -1  478.05   17.00   1
   2 -15   1  137.79    7.10   1
  -2 -15  -1  136.29    7.70   1
   2 -15   1  122.19    7.10   1
  -2 -15  -1  123.49    8.00   1
   2 -15   1  132.09    8.70   1
  -2 -15   1  119.59    7.90   1
  -2 -15   1  131.59    7.90   1
  -2 -15   1  122.99    7.70   1
   2 -15  -1  147.09    7.70   1
   3 -15   1   11.10    3.20   1
  -3 -15  -1   16.20    4.30   1
  -3 -15  -1   14.80    4.10   1
  -3 -15  -1    8.90    3.60   1
   3 -15   1   12.30    4.20   1
  -3 -15   1    5.50    3.70   1
  -3 -15   1   10.80    3.80   1
  -3 -15   1    7.80    4.00   1
   3 -15  -1   11.90    3.50   1
  -4 -15  -1  168.08    9.30   1
  -4 -15  -1  199.78    9.80   1
   4 -15   1  163.98   10.20   1
  -4 -15  -1  170.18    9.50   1
   4 -15   1  186.68    8.10   1
  -4 -15   1  159.98    9.20   1
  -4 -15   1  174.78    9.70   1
  -4 -15   1  172.78    9.60   1
  -5 -15  -1  358.66   14.80   1
  -5  15   1  352.96   14.40   1
  -5 -15  -1  340.77   14.30   1
  -5 -15  -1  384.86   15.10   1
   5 -15   1  345.77   15.70   1
  -5 -15   1  361.76   15.00   1
  -5 -15   1  361.76   14.80   1
  -5 -15   1  380.86   15.40   1
  -6 -15  -1  239.08   11.50   1
  -6  15   1  221.98   10.70   1
  -6  15   1  207.88   10.60   1
  -6 -15  -1  201.98   11.00   1
   6 -15   1  230.88   12.40   1
  -6 -15  -1  223.78   11.00   1
  -6 -15   1  222.08   11.30   1
   6 -15  -1  207.38   12.30   1
  -6 -15   1  215.28   11.00   1
  -6 -15   1  214.18   11.40   1
  -7 -15  -1  297.37   12.90   1
  -7 -15  -1  291.67   13.20   1
   7 -15   1  278.97   14.30   1
  -7  15   1  264.17   12.20   1
  -7 -15   1  265.77   12.70   1
  -7 -15   1  286.87   13.20   1
   7 -15  -1  268.47   14.30   1
  -8  15   1   82.19    8.60   1
  -8 -15  -1   76.19    7.20   1
  -8 -15  -1   66.99    7.10   1
   8 -15   1   75.79    8.50   1
   8 -15  -1   68.29    8.20   1
  -8 -15   1   73.59    7.10   1
  -8 -15   1   58.89    7.00   1
  -9 -15  -1    4.00    4.90   1
   9 -15   1    6.70    5.90   1
  -9 -15  -1    9.10    4.50   1
  -9 -15   1    6.30    4.90   1
  -9 -15   1   12.60    4.90   1
 -10 -15  -1  136.69    9.50   1
 -10 -15  -1  148.69    9.00   1
  10 -15   1  140.59   11.80   1
 -10 -15   1  143.89    9.40   1
 -10 -15   1  122.89    9.80   1
 -11 -15  -1  185.58   10.90   1
  11 -15   1  186.98   13.10   1
 -11 -15  -1  189.48   10.10   1
 -11 -15   1  162.68   11.00   1
 -12 -15  -1   66.09    7.40   1
 -12 -15  -1   83.59    7.20   1
  12 -15   1   89.89   10.30   1
 -12 -15   1   79.29    8.80   1
 -12 -15   1   89.29    7.70   1
 -12  15  -1   67.39    7.40   1
   0 -16   1   17.50    4.00   1
   0 -16  -1   20.00    4.50   1
   0 -16   1   25.60    4.40   1
  -1 -16  -1   14.70    4.40   1
   1 -16   1   17.00    4.10   1
   1 -16   1   23.80    4.80   1
  -1 -16   1   12.70    3.70   1
   1 -16  -1   15.10    4.10   1
  -1 -16   1   13.90    4.00   1
   2 -16   1  564.24   19.20   1
   2 -16   1  516.45   20.50   1
  -2 -16  -1  516.45   19.70   1
  -2 -16   1  566.14   20.20   1
  -2 -16   1  538.45   19.70   1
   2 -16  -1  556.04   19.40   1
   3 -16   1   39.50    4.40   1
  -3 -16  -1   35.90    5.40   1
  -3 -16  -1   41.30    5.50   1
   3 -16   1   45.40    6.40   1
  -3 -16   1   31.60    5.40   1
   3 -16  -1   34.80    4.70   1
  -3 -16   1   39.50    5.40   1
  -3 -16   1   44.10    5.50   1
   4 -16   1  541.55   21.20   1
  -4 -16  -1  534.65   20.20   1
  -4 -16  -1  531.85   20.40   1
  -4 -16   1  579.14   20.70   1
  -4 -16   1  571.74   20.50   1
  -4 -16   1  535.95   20.30   1
   5 -16   1   23.70    5.80   1
  -5 -16  -1   27.90    5.10   1
  -5 -16  -1   23.40    4.50   1
  -5 -16  -1   22.70    5.10   1
  -5  16   1   20.80    4.70   1
  -5 -16   1   25.40    5.20   1
  -5 -16   1   33.00    5.40   1
  -5 -16   1   23.20    5.00   1
  -6  16   1    9.50    4.30   1
  -6  16   1    7.20    4.40   1
   6 -16   1   10.30    5.40   1
  -6 -16  -1    4.40    4.40   1
  -6 -16  -1   10.10    4.50   1
  -6 -16   1    5.50    4.50   1
  -6 -16   1    5.20    4.40   1
  -7  16   1    6.10    3.80   1
  -7 -16  -1    7.50    4.50   1
   7 -16   1    8.40    5.60   1
  -7 -16  -1    3.70    4.60   1
  -7 -16   1    9.10    4.60   1
  -7 -16   1    0.30    4.90   1
  -8 -16  -1  323.47   14.70   1
   8 -16   1  316.57   16.70   1
  -8 -16  -1  336.87   14.30   1
  -8 -16   1  354.46   14.70   1
  -8 -16   1  297.97   14.60   1
  -9 -16  -1   31.90    5.90   1
   9 -16   1   35.80    7.70   1
  -9 -16  -1   36.30    6.30   1
  -9 -16   1   20.30    5.50   1
  -9 -16   1   35.00    6.70   1
  10 -16   1  319.17   17.70   1
 -10 -16  -1  318.87   15.10   1
 -10 -16   1  334.27   15.40   1
 -10 -16   1  347.37   14.80   1
  11 -16   1   12.20    7.50   1
 -11 -16  -1   10.20    5.30   1
 -11 -16  -1   18.00    5.70   1
 -11 -16   1   16.60    5.90   1
 -11 -16   1   13.90    5.10   1
   0 -17  -1  100.39    7.70   1
   0 -17   1  113.79    7.50   1
   1 -17   1  275.07   11.90   1
  -1 -17  -1  269.17   12.60   1
   1 -17  -1  272.97   12.30   1
  -1 -17   1  282.87   12.70   1
   2 -17   1  243.48   12.60   1
  -2 -17  -1  226.68   11.50   1
   2 -17   1  240.78   11.00   1
  -2 -17   1  244.78   11.90   1
  -2 -17   1  241.68   11.50   1
   2 -17  -1  244.08   11.10   1
   3 -17   1   41.80    4.90   1
  -3 -17  -1   48.30    6.00   1
   3 -17   1   41.00    6.60   1
  -3 -17   1   31.60    5.60   1
  -3 -17   1   32.60    5.40   1
  -3 -17   1   38.20    5.60   1
  -4  17   1  216.08   11.10   1
  -4 -17  -1  212.08   11.60   1
   4 -17   1  209.88   12.00   1
  -4 -17  -1  202.68   10.90   1
  -4 -17   1  206.58   11.60   1
  -4 -17   1  196.98   11.20   1
  -5 -17  -1  236.88   12.10   1
  -5  17   1  234.38   11.80   1
  -5 -17  -1  254.87   12.60   1
   5 -17   1  272.77   13.60   1
  -5 -17   1  245.28   12.10   1
  -5 -17   1  234.68   12.20   1
  -6  17   1   69.79    6.80   1
  -6  17   1   77.59    7.10   1
  -6 -17  -1   69.39    7.10   1
  -6 -17  -1   71.39    7.30   1
   6 -17   1   63.59    8.10   1
  -6 -17   1   62.29    7.10   1
  -6 -17   1   74.89    7.30   1
  -7 -17  -1  149.39   10.00   1
  -7  17   1  124.29    8.80   1
   7 -17   1  132.59   10.80   1
  -7 -17  -1  127.29    9.40   1
  -7 -17   1  134.49    9.30   1
  -7 -17   1  125.39    9.60   1
  -8 -17  -1  155.58   10.20   1
   8 -17   1  156.38   12.00   1
  -8 -17  -1  162.38   10.50   1
  -8 -17   1  143.89    9.90   1
  -8 -17   1  166.78   10.70   1
  -9 -17  -1   21.90    6.30   1
  -9 -17  -1   14.50    5.30   1
   9 -17   1   18.80    7.60   1
  -9 -17   1   12.60    5.30   1
  -9 -17   1   14.40    5.90   1
 -10 -17  -1  115.89    9.80   1
  10 -17   1  105.99   10.90   1
 -10 -17  -1  114.99    9.20   1
 -10 -17   1  118.39    9.70   1
 -10 -17   1  124.89    9.00   1
   0 -18  -1   -0.40    4.10   1
   0 -18   1   14.40    4.60   1
  -1 -18  -1    2.20    4.50   1
   1 -18   1    3.80    4.30   1
   1 -18  -1    7.90    4.30   1
  -1 -18   1    5.40    4.00   1
   2 -18   1  240.58   11.10   1
  -2 -18  -1  217.78   12.00   1
   2 -18  -1  234.68   11.20   1
  -2 -18   1  216.28   11.70   1
   3 -18   1   40.50    6.80   1
  -3 -18  -1   44.10    6.50   1
  -3 -18   1   33.30    5.60   1
   4 -18   1  240.98   13.10   1
  -4  18   1  236.78   12.30   1
  -4 -18  -1  222.68   11.70   1
  -4 -18   1  230.08   12.30   1
  -4 -18   1  218.68   12.00   1
  -5 -18  -1    1.30    4.90   1
   5 -18   1    2.80    5.30   1
  -5  18   1   -0.90    4.20   1
  -5 -18  -1    2.20    5.10   1
  -5 -18   1   -7.00    4.70   1
  -5 -18   1   -1.20    4.70   1
   6 -18   1    6.10    5.90   1
  -6  18   1    6.70    4.50   1
  -6 -18  -1    6.70    5.40   1
  -6 -18  -1   -1.10    4.90   1
  -6 -18   1    9.60    5.10   1
  -6 -18   1    1.30    5.10   1
  -7  18   1   10.20    5.20   1
  -7 -18  -1    4.20    5.60   1
  -7 -18  -1    9.80    5.20   1
   7 -18   1    5.90    6.30   1
  -7 -18   1    5.20    6.00   1
  -7 -18   1    6.30    5.00   1
  -8 -18  -1  118.99    9.60   1
  -8 -18  -1  129.99    9.30   1
   8 -18   1  136.89   11.80   1
  -8 -18   1  108.19    9.30   1
  -8 -18   1  129.29   10.00   1
   9 -18   1   20.90    7.60   1
  -9 -18  -1   17.30    5.80   1
  -9 -18  -1   16.20    5.80   1
  -9 -18   1   13.30    5.90   1
  -9 -18   1   14.90    5.50   1
   0 -19   1   41.10    6.10   1
   0 -19  -1   41.20    6.40   1
  -1 -19  -1  400.06   17.40   1
   1 -19   1  447.16   16.90   1
   1 -19  -1  403.56   16.70   1
  -1 -19   1  419.16   16.80   1
  -2 -19  -1   59.79    7.50   1
   2 -19   1   68.79    6.80   1
  -2 -19   1   77.59    7.70   1
   2 -19  -1   72.89    7.30   1
  -3 -19  -1    1.40    5.00   1
  -3 -19   1   12.50    5.20   1
  -4 -19  -1   34.30    6.40   1
  -4  19   1   42.00    6.30   1
  -4 -19   1   25.10    6.50   1
  -5  19   1  331.37   15.70   1
   5 -19   1  371.96   17.50   1
  -5  19   1  385.06   15.90   1
  -5 -19  -1  386.26   16.20   1
  -5 -19   1  360.26   16.10   1
  -5 -19   1  359.56   16.40   1
  -6 -19  -1   37.30    6.50   1
   6 -19   1   37.80    8.00   1
  -6  19   1   41.10    6.40   1
  -6 -19   1   27.80    6.70   1
  -6 -19   1   40.80    6.60   1
  -7 -19  -1  261.17   13.60   1
  -7 -19  -1  275.07   13.80   1
   7 -19   1  265.37   15.90   1
  -7 -19   1  273.57   13.60   1
  -7 -19   1  270.47   14.00   1
  -8 -19  -1   46.00    6.90   1
   8 -19   1   55.79    9.00   1
  -8 -19  -1   31.90    6.70   1
  -8 -19   1   34.50    7.00   1
  -8 -19   1   45.90    7.20   1
   0 -20   1    6.90    5.40   1
   0 -20  -1   -1.80    5.60   1
   1 -20   1   67.89    7.00   1
  -1 -20  -1   64.09    7.70   1
   1 -20  -1   76.09    7.80   1
  -1 -20   1   57.79    7.20   1
  -2 -20  -1  286.17   14.80   1
  -2 -20   1  310.17   14.70   1
  -3 -20  -1   44.30    7.20   1
  -3  20   1   44.10    7.20   1
  -3 -20   1   45.30    6.80   1
  -4  20   1  277.87   14.20   1
  -4 -20  -1  284.07   14.20   1
  -4 -20   1  293.17   14.70   1
  -5 -20  -1   69.09    8.40   1
  -5  20   1   66.69    7.60   1
  -5 -20   1   57.79    7.50   1
  -6 -20  -1   -0.70    5.60   1
  -6  20   1    1.40    5.00   1
  -6 -20   1    1.70    5.80   1
  -7 -20  -1   20.70    6.20   1
  -7 -20   1   24.70    6.60   1
  -7 -20   1   23.80    6.20   1
   0 -21  -1   13.10    6.00   1
   0 -21   1   25.80    6.30   1
   1 -21   1  131.89    9.60   1
  -1 -21  -1  105.39    9.10   1
  -1 -21   1  109.69    9.10   1
  -2 -21  -1    1.30    5.80   1
  -2 -21   1    1.30    6.10   1
  -3 -21  -1   14.10    6.40   1
  -3  21   1   11.00    5.90   1
  -3 -21   1   13.60    6.20   1
  -4 -21  -1   -3.40    6.00   1
  -4  21   1    4.70    5.60   1
  -4 -21   1   -1.10    6.00   1
  -5  21   1   94.69    8.70   1
  -5 -21  -1   83.39    8.50   1
   0 -22  -1   -2.20    6.00   1
   0 -22   1    2.00    5.60   1
  -1 -22  -1   88.79    8.90   1
  -1 -22   1   73.09    7.80   1
  -2 -22   1  176.78   11.90   1
   0   0   2  268.87    8.70   1
   0   0  -2  292.07    9.30   1
   0   0   2  279.87    9.30   1
   1   0   2   -1.20    1.00   1
   1   0   2   -0.20    0.60   1
  -1   0  -2   -0.50    0.60   1
  -1   0   2    1.20    0.90   1
  -1   0   2   -0.90    1.30   1
  -1   0   2    1.50    0.60   1
  -1   0   2   -1.20    0.70   1
   1   0  -2    0.50    1.30   1
  -2   0   2   20.30    1.70   1
   2   0  -2   19.80    1.30   1
  -2   0   2   20.70    2.20   1
  -2   0   2   18.00    1.50   1
   2   0  -2   21.40    2.30   1
  -2   0  -2   26.00    2.00   1
  -2   0   2   21.40    1.50   1
   2   0   2   20.50    1.90   1
   2   0   2   21.30    1.40   1
   3   0   2    1.20    0.90   1
  -3   0   2    0.40    1.20   1
  -3   0  -2   -1.10    1.10   1
  -3   0   2   -2.20    1.10   1
   3   0   2   -1.20    1.30   1
  -3   0   2   -1.90    1.30   1
  -3   0   2   -2.10    0.90   1
   3   0  -2   -3.60    0.90   1
   3   0   2   -1.80    1.20   1
  -4   0   2  122.89    4.90   1
  -4   0   2  106.79    5.30   1
   4   0   2  121.79    5.00   1
  -4   0  -2  122.69    4.40   1
   4   0   2  113.29    4.20   1
  -4   0  -2  117.09    4.70   1
  -4   0   2  118.19    4.70   1
  -4   0   2  118.09    4.80   1
   4   0   2  124.09    5.00   1
   5   0   2    0.50    1.00   1
  -5   0   2    4.00    1.40   1
   5   0   2    7.00    1.70   1
  -5   0  -2    1.30    1.20   1
  -5   0  -2    0.60    1.30   1
   5   0   2   -0.90    1.30   1
  -5   0   2   -0.60    1.30   1
  -5   0   2    1.70    1.50   1
  -5   0   2    0.90    1.70   1
  -6   0   2  300.97   10.20   1
   6   0   2  276.07   10.30   1
  -6   0   2  292.57   10.50   1
  -6   0   2  295.67   10.40   1
  -6   0  -2  305.37   10.00   1
   6   0   2  291.37    9.80   1
  -6   0  -2  306.77   10.30   1
   6   0   2  293.97   10.70   1
  -7   0  -2    0.90    1.70   1
  -7   0   2    0.00    1.60   1
  -7   0  -2    1.20    1.70   1
  -7   0   2    0.50    1.80   1
   7   0   2    0.00    1.40   1
  -7   0   2    1.10    1.90   1
   7   0   2    0.80    1.80   1
   8   0   2   53.79    4.40   1
  -8   0   2   67.39    5.00   1
  -8   0   2   64.59    3.90   1
  -8   0   2   63.59    4.10   1
  -8   0   2   53.29    4.70   1
  -8   0  -2   50.79    3.90   1
   8   0   2   61.49    4.00   1
  -9   0   2    2.50    2.80   1
  -9   0   2    1.30    1.90   1
   9   0   2    1.40    2.10   1
  -9   0  -2    0.80    2.20   1
   9   0   2    1.10    2.10   1
  -9   0   2   -0.20    2.10   1
 -10   0   2   97.49    5.60   1
  10   0   2   97.19    6.10   1
  10   0   2   89.59    5.90   1
 -10   0  -2   94.49    6.20   1
 -10   0   2  108.19    7.00   1
 -10   0   2   97.99    5.90   1
 -11   0   2   -2.50    2.50   1
 -11   0   2    2.70    3.70   1
 -11   0  -2   -0.20    2.80   1
  11   0   2    0.50    2.90   1
 -11   0   2    1.60    2.80   1
  12   0   2  131.19    7.90   1
 -12   0  -2  115.89    7.80   1
 -12   0   2  102.89    8.50   1
 -12   0   2  134.39    7.00   1
 -13   0  -2    0.00    3.60   1
 -13   0   2   -2.00    4.60   1
  13   0   2   -0.40    3.80   1
 -14   0  -2   38.70    5.50   1
 -14   0   2   33.60    6.60   1
 -15   0   2   -1.10    5.70   1
 -15   0  -2    0.00    4.40   1
 -16   0  -2   31.00    5.90   1
 -16   0   2   17.70    7.10   1
   0  -1   2  193.68    7.00   1
   0   1   2  204.38    6.90   1
   0  -1   2  221.48    6.90   1
   0   1   2  205.48    6.50   1
   0   1  -2  196.28    7.10   1
   0   1   2  203.28    6.30   1
   0  -1   2  191.08    6.50   1
   1  -1   2  828.42   22.90   1
   1  -1   2  745.53   23.30   1
  -1  -1  -2  770.92   23.00   1
  -1   1   2  794.32   23.00   1
  -1   1   2  752.82   23.40   1
   1  -1   2  804.12   23.20   1
  -1   1   2  786.62   22.80   1
   1   1  -2  760.22   23.50   1
  -1  -1   2  802.92   23.00   1
   1   1   2  784.32   22.50   1
  -1   1  -2  776.42   23.30   1
  -1  -1   2  775.42   23.50   1
  -1  -1   2  767.12   22.80   1
   1   1   2  764.42   23.00   1
  -2   1   2    5.90    1.00   1
   2  -1   2    2.90    1.30   1
   2   1  -2    2.00    1.60   1
  -2   1   2    3.40    0.70   1
   2   1  -2    1.50    0.80   1
  -2   1   2    4.80    1.20   1
  -2  -1  -2    1.20    0.90   1
   2  -1   2    2.20    1.20   1
  -2   1   2    3.10    1.60   1
  -2  -1   2    2.90    1.10   1
  -2  -1   2    3.50    1.60   1
  -2  -1   2    6.60    1.10   1
  -2  -1   2    3.10    1.00   1
   2   1   2    1.70    1.00   1
   3  -1   2 3714.83  104.39   1
  -3   1   2 3514.15  104.39   1
  -3   1   2 3592.74  105.39   1
   3  -1   2 3734.13  104.99   1
  -3   1   2 3568.44  104.49   1
  -3  -1  -2 3769.02  104.29   1
   3   1  -2 3568.84  105.39   1
   3  -1   2 3608.74  104.99   1
  -3  -1  -2 3713.73  104.29   1
  -3   1   2 3710.03  104.69   1
  -3  -1   2 3456.05  105.19   1
   3   1   2 3554.04  104.49   1
   3  -1  -2 3558.84  104.09   1
  -3   1  -2 3677.13  104.99   1
  -3  -1   2 3818.62  104.79   1
  -3  -1   2 3597.24  104.59   1
  -3  -1   2 3647.84  104.59   1
   3   1   2 3739.33  103.89   1
  -4   1   2   58.99    3.50   1
  -4  -1  -2   55.99    2.60   1
   4  -1   2   50.99    3.30   1
  -4   1   2   48.30    2.80   1
   4  -1   2   50.99    2.60   1
  -4  -1  -2   49.60    2.60   1
  -4   1   2   58.39    2.90   1
   4  -1   2   54.19    3.10   1
  -4  -1   2   49.70    2.90   1
  -4   1  -2   55.79    3.30   1
  -4  -1   2   54.79    3.40   1
  -4  -1   2   56.09    3.40   1
   4   1   2   50.69    2.80   1
   4  -1  -2   49.99    2.50   1
   4   1   2   57.09    3.10   1
  -4   1  -2   53.99    2.50   1
  -4  -1   2   48.60    2.90   1
   4   1   2   49.70    2.10   1
  -5  -1  -2  325.77   10.50   1
   5  -1   2  349.87   11.10   1
   5  -1   2  302.77   10.40   1
   5  -1   2  329.67   11.30   1
  -5  -1  -2  352.46   10.80   1
  -5   1   2  321.47   10.70   1
  -5   1   2  317.67   10.60   1
  -5   1   2  312.47   10.80   1
  -5   1   2  330.27   11.70   1
  -5  -1  -2  322.17   10.30   1
  -5  -1   2  346.57   11.30   1
   5   1   2  314.07   10.80   1
   5   1   2  307.67   10.00   1
  -5  -1   2  316.87   10.90   1
  -5   1  -2  312.37   11.10   1
  -5  -1   2  321.37   10.80   1
   5   1   2  313.87   10.90   1
  -5   1  -2  330.87   10.40   1
  -6   1   2   73.59    4.20   1
  -6  -1  -2   69.09    2.90   1
   6  -1   2   66.99    3.70   1
  -6   1   2   76.49    4.10   1
  -6   1   2   69.79    3.90   1
   6  -1   2   64.49    4.00   1
   6  -1   2   68.59    4.60   1
  -6  -1  -2   68.99    3.50   1
  -6  -1  -2   74.39    3.80   1
   6   1   2   75.59    4.00   1
  -6   1  -2   70.29    3.60   1
  -6  -1   2   69.99    3.90   1
  -6  -1   2   68.79    3.70   1
   6   1   2   70.49    3.20   1
  -6  -1   2   73.39    3.90   1
  -6  -1   2   69.49    4.30   1
  -6   1  -2   64.79    4.00   1
   6   1   2   62.09    4.00   1
   7  -1   2  357.26   12.10   1
  -7   1   2  368.66   12.70   1
  -7  -1  -2  373.36   11.80   1
  -7   1   2  366.16   12.20   1
  -7   1   2  354.96   12.30   1
  -7  -1  -2  383.56   12.30   1
   7  -1   2  365.86   12.60   1
  -7   1  -2  334.37   12.50   1
  -7  -1   2  338.47   12.20   1
  -7  -1   2  350.46   12.60   1
   7   1   2  330.67   11.60   1
  -7  -1   2  352.06   12.00   1
   7   1   2  376.06   12.50   1
  -7  -1   2  359.66   12.70   1
  -7   1  -2  365.06   12.00   1
   8  -1   2   10.60    2.40   1
   8  -1   2    9.90    2.50   1
  -8   1   2   10.80    2.30   1
  -8   1   2   10.20    2.90   1
  -8  -1  -2   15.80    2.60   1
  -8   1  -2   12.00    2.50   1
   8   1   2   17.30    2.60   1
  -8  -1   2   11.80    3.00   1
  -8  -1   2   14.80    3.10   1
   8   1   2    9.30    2.00   1
  -8  -1   2   11.30    2.30   1
  -8  -1   2   12.10    2.50   1
  -9   1   2 1463.45   44.90   1
  -9   1   2 1458.75   43.80   1
   9  -1   2 1483.05   44.10   1
  -9  -1  -2 1504.25   44.20   1
  -9   1   2 1411.96   43.50   1
   9  -1   2 1525.35   44.50   1
  -9  -1   2 1514.05   44.90   1
   9   1   2 1436.56   43.60   1
   9   1   2 1411.96   44.00   1
  -9  -1   2 1424.06   43.90   1
  -9  -1   2 1433.46   43.70   1
  -9  -1   2 1448.46   44.70   1
  -9   1  -2 1447.86   44.00   1
 -10   1   2   52.99    4.40   1
 -10   1   2   48.70    5.30   1
 -10   1   2   48.90    4.10   1
  10  -1   2   47.90    4.60   1
  10  -1   2   51.79    4.70   1
 -10  -1  -2   44.20    4.40   1
 -10  -1   2   46.40    5.10   1
 -10   1  -2   54.09    4.70   1
 -10  -1   2   50.29    4.30   1
  10   1   2   45.10    4.20   1
 -10  -1   2   49.99    4.30   1
  10   1   2   58.29    4.70   1
 -11  -1  -2  112.69    6.80   1
 -11   1   2  105.79    7.60   1
 -11   1   2   99.49    6.00   1
 -11   1   2  115.09    6.40   1
  11  -1   2  116.99    7.10   1
  11   1   2  112.39    6.70   1
 -11  -1   2  107.59    6.30   1
 -11   1  -2  107.59    6.70   1
 -11  -1   2  103.49    7.70   1
 -11  -1   2  107.69    6.50   1
 -12   1   2   11.10    4.30   1
 -12  -1  -2    5.80    3.50   1
  12  -1   2   11.80    3.80   1
 -12  -1   2    8.50    3.40   1
 -12   1  -2    9.90    3.60   1
 -12  -1   2   11.00    3.40   1
  12   1   2    9.70    3.60   1
 -12  -1   2    7.20    4.20   1
  13  -1   2   99.19    8.00   1
 -13   1   2  100.59    8.70   1
 -13  -1  -2  108.79    7.50   1
 -13  -1   2   93.99    8.40   1
 -13   1  -2   95.79    7.30   1
  13   1   2  107.79    7.60   1
 -14   1   2   19.20    5.90   1
 -14  -1  -2    9.60    4.70   1
 -14   1  -2    8.70    4.30   1
 -14  -1   2   17.40    5.80   1
 -15   1   2  406.56   17.90   1
 -15  -1   2  405.16   17.90   1
 -15   1  -2  380.46   16.20   1
 -16  -1  -2    7.50    5.10   1
 -16   1   2    9.40    6.30   1
 -16   1  -2   13.50    4.80   1
 -16  -1   2   19.10    6.60   1
   0   2   2 5111.79  147.59   1
   0  -2   2 5019.50  147.29   1
   0  -2   2 4843.52  147.79   1
   0   2  -2 4742.33  147.79   1
   0  -2   2 5163.18  147.39   1
   0   2   2 5499.25  147.09   1
   0   2   2 5683.13  147.49   1
   1  -2   2  320.17    9.80   1
   1  -2   2  309.57    9.60   1
  -1  -2  -2  310.07    9.40   1
  -1   2   2  300.47   10.10   1
  -1   2   2  299.07    9.60   1
   1   2  -2  317.97   10.30   1
  -1   2   2  308.77    9.40   1
   1  -2   2  277.27   10.10   1
  -1  -2   2  325.97    9.70   1
   1   2   2  305.17    9.60   1
  -1  -2   2  300.97   10.10   1
  -1   2  -2  306.57   10.10   1
  -1  -2   2  310.47    9.60   1
  -2   2   2 1190.28   33.80   1
  -2   2   2 1138.19   33.10   1
   2  -2   2 1169.48   34.00   1
   2  -2   2 1208.08   33.70   1
  -2  -2  -2 1160.88   33.40   1
  -2   2   2 1113.29   34.30   1
   2   2  -2 1100.79   34.30   1
   2  -2   2 1080.29   34.10   1
  -2   2   2 1140.79   33.50   1
  -2  -2  -2 1148.29   33.20   1
  -2  -2   2 1172.28   34.30   1
  -2  -2   2 1155.98   33.70   1
  -2  -2   2 1148.79   33.80   1
  -2   2  -2 1130.39   34.20   1
   2   2   2 1193.48   33.40   1
  -2  -2   2 1166.38   33.80   1
   3  -2   2  773.42   23.10   1
   3  -2   2  735.03   22.60   1
  -3  -2  -2  749.62   22.40   1
   3  -2   2  738.23   23.30   1
   3   2  -2  736.43   23.50   1
  -3  -2  -2  750.22   22.50   1
  -3   2   2  807.82   22.90   1
  -3  -2  -2  767.92   22.00   1
  -3   2   2  758.42   22.20   1
  -3   2   2  761.12   22.60   1
   3  -2  -2  757.02   22.10   1
  -3   2  -2  744.33   23.30   1
  -3  -2   2  782.92   23.40   1
   3   2   2  791.12   22.50   1
  -3  -2   2  786.32   23.00   1
  -3  -2   2  736.63   22.90   1
  -3  -2   2  735.73   22.80   1
   4  -2   2  794.42   23.80   1
  -4  -2  -2  786.12   23.40   1
  -4   2   2  794.42   23.40   1
  -4  -2  -2  806.82   23.10   1
   4   2  -2  768.32   24.70   1
  -4   2   2  833.22   24.00   1
  -4   2   2  817.62   23.80   1
   4  -2   2  750.92   24.20   1
   4  -2   2  818.12   24.60   1
  -4  -2  -2  801.42   23.70   1
  -4  -2   2  779.72   24.00   1
   4  -2  -2  829.32   23.40   1
  -4  -2   2  792.92   24.30   1
   4   2   2  763.52   23.50   1
  -4  -2   2  797.42   23.80   1
  -4  -2   2  782.42   24.40   1
  -4  -2   2  781.82   24.00   1
  -5  -2  -2   79.09    3.40   1
   5  -2   2   58.99    3.70   1
   5  -2   2   59.89    3.30   1
  -5  -2  -2   60.29    2.50   1
  -5  -2  -2   63.99    2.90   1
   5  -2   2   64.09    4.00   1
  -5   2   2   64.29    3.40   1
  -5   2   2   62.49    3.10   1
  -5   2   2   64.49    4.30   1
  -5   2   2   57.49    3.10   1
  -5   2  -2   55.39    2.90   1
   5   2   2   61.39    3.20   1
   5   2   2   58.09    2.30   1
   5   2   2   63.49    2.40   1
  -5  -2   2   63.29    3.40   1
   5   2   2   62.89    3.50   1
  -5  -2   2   62.99    4.00   1
  -5  -2   2   56.99    3.50   1
  -5  -2   2   59.99    3.50   1
  -6  -2  -2 3488.05  101.19   1
  -6  -2  -2 3479.45  100.29   1
   6  -2   2 3461.15  102.19   1
   6  -2   2 3537.45  101.69   1
  -6  -2  -2 3502.55  100.49   1
   6  -2   2 3540.75  101.19   1
  -6   2   2 3535.05  101.19   1
   6   2   2 3724.63  101.49   1
  -6  -2   2 3482.55  101.79   1
  -6   2  -2 3497.05  101.89   1
  -6  -2   2 3513.45  101.59   1
  -6  -2   2 3502.65  101.29   1
  -6   2  -2 3422.56  100.89   1
   6   2   2 3378.26  100.19   1
  -6  -2   2 3398.86  101.09   1
  -7   2   2  255.67    9.40   1
  -7   2   2  272.87    9.10   1
   7  -2   2  222.78    9.30   1
  -7  -2  -2  237.28    8.10   1
  -7  -2  -2  251.47    9.10   1
   7  -2   2  238.78    9.10   1
  -7  -2   2  241.88    8.90   1
   7   2   2  245.18    9.00   1
  -7  -2   2  247.38    9.60   1
  -7   2  -2  241.28    8.80   1
  -7  -2   2  244.58    9.10   1
   7   2   2  234.98    8.20   1
  -7  -2   2  250.57    9.90   1
  -7   2  -2  245.08    9.80   1
  -8   2   2  459.15   15.90   1
  -8   2   2  454.45   15.20   1
  -8  -2  -2  456.95   15.40   1
   8  -2   2  427.36   15.60   1
   8  -2   2  449.95   15.40   1
  -8  -2   2  459.25   16.20   1
   8   2   2  435.56   14.50   1
   8   2   2  486.95   15.40   1
  -8  -2   2  453.85   15.10   1
  -8  -2   2  479.95   16.00   1
  -8  -2   2  453.55   15.30   1
  -8   2  -2  459.45   15.20   1
   9  -2   2   78.69    5.80   1
  -9   2   2   82.19    4.80   1
  -9  -2  -2   82.69    5.50   1
   9  -2   2   78.29    5.50   1
  -9   2   2   87.39    6.00   1
  -9  -2   2   80.69    5.10   1
  -9  -2   2   81.59    4.90   1
  -9  -2   2   76.69    5.80   1
  -9  -2   2   81.69    5.90   1
   9   2   2   89.69    5.20   1
  -9   2  -2   81.69    5.00   1
   9   2   2   76.59    4.60   1
 -10   2   2  257.37    9.60   1
 -10  -2  -2  252.97   10.30   1
 -10   2   2  252.37    9.90   1
 -10   2   2  232.78   10.60   1
  10  -2   2  264.47   10.60   1
  10  -2   2  237.68   10.60   1
 -10  -2   2  247.68   10.20   1
 -10  -2   2  255.67   10.00   1
 -10  -2   2  252.47   11.00   1
 -10  -2   2  248.78   11.20   1
  10   2   2  230.78    9.60   1
 -10   2  -2  245.28   10.30   1
  11  -2   2   38.50    4.80   1
 -11   2   2   44.60    4.30   1
 -11  -2  -2   41.90    4.70   1
 -11   2   2   40.20    3.90   1
 -11   2   2   35.90    5.30   1
  11  -2   2   39.60    4.80   1
  11   2   2   35.80    4.10   1
 -11   2  -2   35.30    4.40   1
 -11  -2   2   33.00    4.30   1
 -11  -2   2   29.80    5.10   1
 -11  -2   2   45.30    4.50   1
  12  -2   2 1219.78   38.30   1
 -12  -2  -2 1261.67   38.20   1
 -12   2   2 1133.69   38.90   1
 -12  -2   2 1187.18   37.40   1
  12   2   2 1193.58   37.50   1
 -12   2  -2 1190.68   38.00   1
 -12  -2   2 1212.68   37.30   1
 -12  -2   2 1209.88   39.20   1
  13  -2   2   89.99    7.70   1
 -13  -2  -2   88.69    7.10   1
 -13   2   2   79.59    8.00   1
 -13   2  -2   89.59    7.30   1
  13   2   2   84.19    7.10   1
 -13  -2   2   84.29    8.00   1
 -14   2   2  116.69    9.60   1
 -14  -2  -2  116.59    8.70   1
 -14  -2   2  120.39    9.70   1
 -14   2  -2  117.29    8.10   1
 -15  -2  -2   16.00    5.20   1
 -15   2   2    3.90    5.80   1
 -15   2  -2    4.40    4.80   1
 -15  -2   2   10.70    6.10   1
 -16   2   2   45.10    8.00   1
 -16  -2   2   69.59    8.60   1
   0   3   2  516.85   16.50   1
   0   3   2  546.45   16.00   1
   0  -3   2  563.04   16.40   1
   0  -3   2  549.15   16.30   1
   0  -3   2  555.24   16.20   1
   0  -3   2  496.15   16.80   1
   0  -3  -2  551.44   16.30   1
   0   3  -2  510.25   16.80   1
   1  -3   2  278.57    9.40   1
   1  -3   2  300.67   10.30   1
  -1  -3  -2  307.07    9.50   1
  -1   3   2  307.17    9.70   1
  -1   3   2  307.27    8.80   1
   1  -3   2  305.27    9.80   1
   1   3  -2  298.97   10.20   1
  -1  -3  -2  316.07    9.30   1
  -1   3   2  291.67    9.30   1
   1  -3   2  302.07    9.50   1
  -1  -3   2  320.77    9.60   1
  -1  -3   2  303.67    9.40   1
   1   3   2  301.17    9.50   1
  -1  -3   2  301.47    9.70   1
   1   3   2  293.97    9.40   1
  -1   3  -2  292.67   10.20   1
  -1  -3   2  308.77   10.10   1
  -1  -3   2  306.67    9.70   1
  -2   3   2   11.40    1.30   1
   2  -3   2    8.90    1.90   1
   2  -3   2   10.60    1.40   1
   2  -3   2   12.30    1.60   1
  -2   3   2   10.10    1.50   1
  -2  -3  -2    8.90    1.10   1
  -2  -3  -2   11.40    1.30   1
   2   3  -2   10.10    1.90   1
  -2  -3   2    7.90    1.40   1
  -2   3  -2    9.50    1.80   1
  -2  -3   2    7.80    1.50   1
  -2  -3   2    9.40    1.50   1
  -2  -3   2    9.30    1.80   1
   2   3   2    7.70    1.00   1
  -2  -3   2   11.90    1.50   1
  -3   3   2 1463.35   43.30   1
   3  -3   2 1424.86   43.30   1
   3   3  -2 1455.45   44.00   1
   3  -3   2 1520.35   43.80   1
  -3  -3  -2 1521.25   43.20   1
  -3  -3  -2 1487.45   43.10   1
   3  -3   2 1539.75   44.20   1
  -3   3   2 1469.45   43.50   1
  -3  -3   2 1482.05   43.50   1
  -3  -3   2 1510.85   43.70   1
   3   3   2 1535.55   42.80   1
   3  -3  -2 1429.06   42.40   1
  -3   3  -2 1435.16   44.20   1
  -3  -3   2 1492.35   43.40   1
  -3  -3   2 1490.65   43.90   1
  -3  -3   2 1453.05   43.60   1
   4  -3   2   41.10    2.70   1
  -4   3   2   42.40    2.70   1
  -4   3   2   38.30    2.50   1
  -4  -3  -2   41.90    2.30   1
   4  -3   2   50.49    3.50   1
  -4  -3  -2   40.70    2.50   1
   4  -3   2   45.20    3.10   1
   4   3  -2   38.90    3.50   1
  -4  -3   2   38.70    2.80   1
  -4  -3   2   38.10    2.80   1
   4   3   2   49.99    2.20   1
  -4   3  -2   41.00    3.50   1
   4  -3  -2   41.40    1.90   1
  -4  -3   2   40.10    2.70   1
  -4  -3   2   38.80    3.10   1
   5  -3   2  193.98    7.50   1
   5   3  -2  187.28    7.80   1
  -5  -3  -2  192.78    6.70   1
   5  -3   2  185.38    7.10   1
   5  -3   2  194.18    8.10   1
  -5   3   2  194.28    6.90   1
  -5   3   2  176.68    7.00   1
  -5  -3  -2  198.88    7.10   1
  -5  -3   2  196.98    7.10   1
  -5  -3   2  197.58    7.80   1
   5  -3  -2  183.68    7.30   1
  -5  -3   2  183.18    7.30   1
  -5   3  -2  205.28    8.10   1
  -5  -3   2  193.28    7.30   1
   5  -3  -2  185.98    6.50   1
   5   3   2  194.88    6.70   1
   6  -3   2   34.90    3.10   1
  -6  -3  -2   38.10    2.70   1
  -6   3   2   34.80    2.70   1
  -6  -3  -2   34.00    2.90   1
   6  -3   2   27.10    3.10   1
  -6   3   2   34.10    2.90   1
   6  -3   2   34.50    3.80   1
  -6   3  -2   31.90    2.60   1
   6   3   2   33.10    3.10   1
  -6  -3   2   36.30    3.20   1
  -6   3  -2   38.40    3.70   1
  -6  -3   2   30.70    3.40   1
   6  -3  -2   37.10    3.30   1
   6   3   2   34.00    1.70   1
  -6  -3   2   29.80    3.20   1
  -6  -3   2   40.30    3.10   1
   6   3   2   33.80    1.80   1
  -7  -3  -2  160.38    6.90   1
   7  -3   2  159.18    7.10   1
  -7   3   2  169.28    7.00   1
   7  -3   2  178.98    7.60   1
  -7  -3  -2  174.08    6.40   1
   7  -3  -2  163.08    7.10   1
  -7  -3   2  184.28    7.70   1
  -7  -3   2  186.48    8.00   1
   7   3   2  158.38    5.80   1
   7   3   2  161.68    6.90   1
  -7   3  -2  168.28    6.70   1
  -7  -3   2  182.18    7.10   1
  -7  -3   2  167.08    7.10   1
   8  -3   2   13.90    2.80   1
   8  -3   2   10.80    2.80   1
  -8   3   2    7.70    2.80   1
  -8  -3  -2   12.30    2.50   1
  -8  -3  -2    9.60    1.90   1
  -8   3   2   11.50    2.50   1
  -8   3  -2   13.60    2.40   1
   8  -3  -2   10.20    2.60   1
  -8  -3   2    8.90    2.90   1
   8   3   2   11.70    1.80   1
   8   3   2   10.70    2.50   1
  -8  -3   2    8.20    2.50   1
  -8  -3   2    9.60    2.40   1
  -8  -3   2   11.80    3.10   1
  -9   3   2  468.95   17.70   1
   9  -3   2  509.95   17.40   1
  -9  -3  -2  535.65   17.50   1
   9  -3   2  573.84   18.20   1
  -9   3   2  496.15   16.90   1
  -9  -3   2  531.25   18.30   1
  -9  -3   2  484.75   17.90   1
   9   3   2  493.75   16.30   1
  -9   3  -2  478.65   17.00   1
  -9  -3   2  525.35   17.10   1
  -9  -3   2  496.75   17.20   1
   9   3   2  506.75   16.90   1
  10  -3   2   31.40    4.10   1
 -10   3   2   17.90    4.10   1
  10  -3   2   28.90    4.40   1
 -10   3   2   21.60    3.20   1
 -10  -3  -2   22.40    3.60   1
 -10  -3   2   28.50    4.30   1
 -10  -3   2   28.80    3.60   1
 -10   3  -2   22.00    3.50   1
  10   3   2   21.80    3.00   1
 -10  -3   2   27.40    3.70   1
 -10  -3   2   27.30    4.50   1
  11  -3   2   79.69    6.60   1
 -11  -3  -2   66.19    5.90   1
 -11   3   2   69.89    5.00   1
 -11   3   2   68.69    6.50   1
  11  -3   2   77.99    6.60   1
 -11   3   2   72.49    5.30   1
  11   3   2   69.49    5.30   1
 -11  -3   2   68.69    5.30   1
 -11   3  -2   65.69    5.60   1
 -11  -3   2   70.09    5.80   1
 -11  -3   2   73.89    6.70   1
  12  -3   2    1.60    3.60   1
 -12   3   2    6.60    4.50   1
 -12  -3  -2    5.80    3.60   1
 -12  -3   2    5.10    3.40   1
 -12  -3   2   -1.80    3.20   1
 -12   3  -2    0.10    3.30   1
  12   3   2   -0.70    3.00   1
 -12  -3   2    3.40    4.40   1
 -13  -3  -2   69.19    6.40   1
 -13   3   2   55.19    7.10   1
 -13  -3   2   48.20    6.70   1
 -13   3  -2   50.19    6.10   1
 -13  -3   2   73.09    5.90   1
 -14   3   2    4.60    4.90   1
 -14  -3  -2    4.20    4.10   1
 -14  -3   2    3.10    4.90   1
 -14   3  -2    4.50    4.00   1
 -15  -3  -2  151.78    9.90   1
 -15   3   2  143.09   10.90   1
 -15  -3   2  148.09   11.20   1
 -15   3  -2  163.38    9.50   1
 -16  -3  -2    4.90    4.80   1
 -16   3   2    5.90    6.10   1
 -16  -3   2    8.20    6.20   1
   0  -4   2 5320.97  147.49   1
   0  -4   2 5113.69  147.09   1
   0  -4   2 5175.78  147.39   1
   0   4  -2 5102.69  148.09   1
   0  -4  -2 5153.08  147.39   1
   0  -4   2 5027.90  147.49   1
   0  -4   2 4998.40  148.09   1
   0   4   2 5165.68  147.09   1
   0  -4   2 5285.07  147.59   1
  -1   4   2  275.97    7.90   1
  -1   4   2  279.27    9.10   1
   1  -4   2  260.87    9.50   1
  -1  -4  -2  267.87    8.60   1
   1  -4   2  268.27    8.60   1
   1  -4   2  273.37    9.10   1
   1   4  -2  256.97    9.40   1
  -1  -4  -2  275.87    8.80   1
   1   4   2  266.67    8.80   1
  -1  -4   2  275.67    8.70   1
  -1  -4   2  289.47    9.20   1
  -1  -4   2  274.07    9.10   1
  -1  -4   2  278.37    9.50   1
  -1  -4   2  284.87    8.90   1
  -1   4  -2  277.97    9.70   1
  -1  -4   2  282.07    8.70   1
   2  -4   2   30.70    2.50   1
   2  -4   2   37.30    2.40   1
  -2  -4  -2   29.70    2.10   1
  -2   4   2   31.20    2.10   1
   2  -4   2   30.40    2.90   1
  -2  -4  -2   30.70    1.90   1
  -2   4   2   34.00    2.00   1
   2   4  -2   35.10    2.80   1
  -2   4  -2   26.10    2.90   1
   2   4   2   33.80    1.60   1
  -2  -4   2   32.10    2.60   1
  -2  -4   2   33.00    2.30   1
  -2  -4   2   27.40    2.20   1
  -2  -4   2   35.10    2.50   1
  -2  -4   2   34.40    2.50   1
  -3   4   2   38.00    2.40   1
  -3  -4  -2   29.00    2.30   1
   3   4  -2   38.40    3.10   1
  -3   4   2   34.50    2.50   1
   3  -4   2   32.90    2.70   1
  -3  -4  -2   33.30    2.30   1
   3  -4   2   35.90    3.20   1
   3  -4   2   32.60    2.50   1
  -3  -4   2   41.20    2.70   1
  -3  -4   2   35.30    2.70   1
  -3  -4   2   32.20    2.50   1
  -3  -4   2   36.50    2.60   1
  -3  -4   2   39.40    2.80   1
   3   4   2   35.70    1.50   1
  -3   4  -2   33.00    3.30   1
   4  -4   2   56.89    3.90   1
   4  -4   2   45.00    2.90   1
   4   4  -2   36.60    3.30   1
  -4   4   2   45.60    2.90   1
  -4   4   2   58.69    3.00   1
   4  -4   2   39.20    2.80   1
  -4  -4  -2   43.30    2.70   1
  -4  -4  -2   55.29    2.80   1
   4  -4  -2   47.30    3.30   1
   4   4   2   42.70    2.00   1
  -4  -4   2   39.80    3.30   1
   4  -4  -2   41.50    1.70   1
  -4  -4   2   40.10    3.00   1
  -4   4  -2   43.50    3.90   1
  -4  -4   2   43.40    3.10   1
  -4  -4   2   41.70    2.90   1
  -5   4   2  304.47   10.10   1
   5  -4   2  294.47   11.40   1
   5  -4   2  295.17   10.80   1
  -5  -4  -2  309.27   10.30   1
  -5  -4  -2  308.17   10.00   1
  -5   4   2  315.87   10.30   1
   5  -4   2  295.37   10.30   1
   5   4  -2  295.17   10.90   1
  -5  -4   2  287.87   10.30   1
  -5   4  -2  296.97   11.50   1
   5  -4  -2  294.77   10.60   1
  -5  -4   2  299.27   10.60   1
   5  -4  -2  308.17    9.40   1
  -5  -4   2  292.37   10.50   1
  -5  -4   2  298.27   11.00   1
  -6   4   2 2718.33   77.59   1
  -6  -4  -2 2676.43   77.89   1
  -6  -4  -2 2614.74   77.39   1
   6  -4   2 2638.64   78.49   1
  -6   4   2 2719.23   77.79   1
   6  -4   2 2732.83   79.39   1
   6  -4   2 2512.95   77.89   1
  -6  -4   2 2691.63   78.29   1
   6  -4  -2 2741.43   78.39   1
  -6  -4   2 2638.94   77.89   1
  -6  -4   2 2716.73   78.79   1
  -6  -4   2 2702.73   78.19   1
  -6   4  -2 2618.94   79.09   1
  -7  -4  -2   34.50    3.40   1
  -7  -4  -2   42.20    3.10   1
   7  -4   2   35.80    3.90   1
  -7   4   2   39.30    3.40   1
   7  -4   2   38.90    3.60   1
  -7  -4   2   45.50    4.40   1
  -7   4  -2   41.20    4.40   1
   7  -4  -2   45.70    4.00   1
   7   4   2   44.30    2.10   1
  -7   4  -2   33.70    3.00   1
  -7  -4   2   44.00    4.10   1
  -7  -4   2   39.80    3.50   1
   7   4   2   39.90    3.40   1
  -7  -4   2   42.00    3.70   1
   8  -4   2   10.60    3.00   1
  -8  -4  -2   15.50    2.20   1
  -8  -4  -2   14.40    2.80   1
   8  -4   2   12.50    2.90   1
  -8   4   2   14.20    2.70   1
   8  -4  -2   11.80    2.90   1
  -8   4  -2   12.70    2.40   1
   8   4   2   12.90    1.70   1
  -8  -4   2   12.10    3.40   1
  -8  -4   2   20.80    2.90   1
  -8  -4   2   11.60    3.20   1
   8   4   2   17.00    2.60   1
  -8  -4   2   21.00    3.10   1
   9  -4   2   67.69    5.50   1
   9  -4   2   66.79    5.90   1
  -9  -4  -2   67.09    5.00   1
  -9   4   2   69.89    4.90   1
  -9   4   2   70.89    5.80   1
  -9  -4   2   74.19    5.40   1
  -9  -4   2   67.09    5.70   1
  -9  -4   2   67.59    4.90   1
   9   4   2   68.39    4.00   1
  -9  -4   2   60.69    5.50   1
  -9   4  -2   55.19    4.50   1
 -10   4   2   11.70    3.00   1
 -10   4   2   23.00    4.10   1
  10  -4   2   16.70    3.80   1
 -10  -4  -2   15.80    3.50   1
  10  -4   2   14.10    4.10   1
 -10   4  -2   21.10    3.50   1
 -10  -4   2    8.40    3.00   1
 -10  -4   2   14.50    4.00   1
 -10  -4   2   13.10    3.50   1
 -10  -4   2   14.20    3.90   1
  10   4   2   11.30    2.50   1
 -11   4   2   87.29    5.50   1
  11  -4   2   70.39    6.10   1
 -11  -4  -2   57.59    5.70   1
  11  -4   2   64.69    6.40   1
 -11   4   2   63.79    6.30   1
 -11  -4   2   74.49    5.90   1
 -11  -4   2   63.49    6.30   1
 -11  -4   2   63.39    5.60   1
 -11  -4   2   61.29    6.40   1
 -11   4  -2   71.19    5.90   1
  11   4   2   62.79    5.10   1
 -12   4   2  821.12   28.60   1
  12  -4   2  865.91   28.30   1
  12  -4   2  829.12   28.10   1
 -12  -4  -2  836.32   27.70   1
 -12  -4   2  834.72   26.90   1
 -12   4  -2  808.32   27.50   1
  12   4   2  800.02   26.50   1
 -12  -4   2  833.22   28.60   1
 -13   4   2   13.00    5.20   1
 -13  -4  -2    5.80    4.40   1
 -13  -4   2   18.30    5.30   1
 -13   4  -2    3.60    4.40   1
 -13  -4   2   10.00    3.90   1
 -14   4   2    5.30    5.40   1
 -14  -4  -2    4.10    4.60   1
 -14  -4   2    7.50    5.20   1
 -14   4  -2    9.20    4.80   1
 -15   4   2   37.10    7.20   1
 -15  -4  -2   39.20    6.30   1
 -15  -4   2   46.80    7.60   1
 -15   4  -2   47.80    6.50   1
 -16  -4  -2    4.00    4.80   1
 -16   4   2    2.50    5.90   1
 -16  -4   2   -1.80    5.70   1
   0  -5   2    3.10    1.20   1
   0  -5  -2    5.20    1.10   1
   0  -5   2    5.40    1.40   1
   0   5   2    5.70    1.10   1
   0  -5   2    4.50    1.40   1
   0   5  -2    7.70    2.00   1
   0  -5   2    5.90    1.90   1
   0  -5   2    5.50    1.20   1
   0  -5  -2    5.50    1.40   1
   1   5  -2  928.81   28.50   1
   1  -5   2  923.61   28.20   1
  -1  -5  -2  937.31   28.00   1
   1  -5   2  950.90   28.80   1
  -1  -5  -2  951.40   27.90   1
  -1  -5  -2  937.11   27.80   1
   1  -5   2  955.70   27.70   1
  -1  -5   2  941.71   27.80   1
  -1  -5   2  947.11   28.10   1
  -1  -5   2  947.71   28.00   1
  -1   5  -2  967.70   28.90   1
  -1  -5   2  952.70   27.80   1
  -1  -5   2  969.10   28.30   1
   1  -5  -2  933.31   27.90   1
  -1  -5   2  870.41   28.50   1
  -2  -5  -2   21.80    2.20   1
   2   5  -2   26.90    2.70   1
   2  -5   2   25.90    2.10   1
   2  -5   2   20.50    2.70   1
   2  -5   2   20.50    2.20   1
   2  -5   2   28.00    1.70   1
  -2  -5  -2   23.90    2.10   1
  -2  -5  -2   27.30    2.00   1
  -2   5   2   25.50    2.00   1
  -2  -5   2   34.90    2.60   1
  -2  -5   2   24.90    2.30   1
  -2  -5   2   24.70    2.30   1
  -2   5  -2   30.10    3.10   1
  -2  -5   2   23.80    1.60   1
  -2  -5   2   21.30    2.30   1
  -2  -5   2   23.10    2.10   1
  -3  -5  -2 6180.38  181.48   1
  -3  -5  -2 6345.27  180.98   1
  -3   5   2 6185.88  181.18   1
   3  -5   2 6254.17  181.48   1
  -3  -5  -2 6536.65  181.08   1
   3  -5   2 6325.17  182.08   1
  -3   5   2 6551.54  180.88   1
   3  -5   2 6361.76  181.08   1
   3   5  -2 6373.36  181.58   1
  -3  -5   2 6214.58  181.18   1
   3   5   2 6314.77  180.08   1
  -3  -5   2 6369.86  181.38   1
  -3  -5   2 6145.98  181.18   1
  -3  -5   2 6590.24  181.48   1
  -3   5  -2 5985.50  182.08   1
  -4   5   2    1.90    1.40   1
  -4  -5  -2    3.30    1.50   1
  -4  -5  -2    2.10    2.00   1
   4  -5   2    1.80    1.70   1
   4  -5   2    0.70    1.40   1
   4  -5   2    4.80    2.30   1
  -4  -5  -2    0.90    1.30   1
   4   5  -2    0.30    1.60   1
  -4   5   2    3.20    1.40   1
  -4   5  -2    1.20    1.80   1
  -4  -5   2    1.00    1.50   1
   4  -5  -2    4.00    1.90   1
  -4  -5   2    3.60    1.40   1
  -4  -5   2    1.70    1.80   1
   4  -5  -2    2.40    0.30   1
  -4  -5   2    2.50    1.80   1
   5   5  -2  848.52   26.10   1
  -5   5   2  821.02   25.30   1
  -5   5   2  814.72   25.40   1
   5  -5   2  813.62   26.10   1
   5  -5   2  857.91   26.90   1
  -5  -5  -2  842.32   25.50   1
  -5  -5  -2  838.12   25.30   1
   5  -5   2  833.72   25.60   1
  -5  -5   2  814.92   26.20   1
  -5  -5   2  843.12   25.90   1
   5  -5  -2  853.11   24.30   1
  -5   5  -2  827.62   26.90   1
  -5  -5   2  825.72   25.60   1
  -5  -5   2  815.72   25.80   1
   5  -5  -2  820.12   26.10   1
  -6   5   2   -3.30    1.60   1
   6   5  -2    1.20    2.40   1
   6  -5   2   -1.50    2.60   1
   6  -5   2   -0.40    2.30   1
  -6   5   2    0.90    1.70   1
   6  -5   2   -2.40    1.90   1
  -6  -5  -2    0.30    1.60   1
  -6  -5  -2    2.20    1.90   1
   6  -5  -2    4.10    2.30   1
  -6  -5   2    0.80    2.00   1
  -6  -5   2   10.70    2.60   1
  -6   5  -2   -5.00    2.30   1
  -6  -5   2    3.00    2.00   1
  -6  -5   2    1.60    2.50   1
   7  -5   2  410.96   14.70   1
  -7   5   2  429.16   13.90   1
  -7   5   2  416.56   16.30   1
   7  -5   2  403.46   14.20   1
  -7  -5  -2  407.26   13.50   1
  -7  -5  -2  406.76   14.10   1
   7  -5  -2  384.76   14.40   1
  -7  -5   2  427.26   15.20   1
   7   5   2  389.06   12.00   1
  -7  -5   2  397.06   14.40   1
   7   5   2  416.96   12.00   1
   7   5   2  404.16   13.70   1
  -7  -5   2  394.86   14.00   1
  -7  -5   2  413.16   14.20   1
  -8  -5  -2   11.90    2.80   1
  -8   5   2   10.80    2.50   1
   8  -5   2   10.00    3.20   1
   8  -5   2   10.80    2.80   1
  -8  -5  -2   11.80    2.30   1
   8   5   2   16.10    2.60   1
   8  -5  -2   13.90    3.20   1
  -8  -5   2   11.30    3.20   1
  -8  -5   2   10.30    2.80   1
  -8  -5   2   13.40    2.90   1
  -8  -5   2   16.10    3.30   1
   8   5   2    9.80    1.40   1
  -8   5  -2   11.50    2.40   1
   9  -5   2 2776.52   86.39   1
  -9   5   2 3104.49   85.29   1
  -9   5   2 2765.62   85.99   1
  -9  -5  -2 2904.81   85.69   1
   9  -5   2 3112.99   86.19   1
  -9  -5  -2 2938.61   84.69   1
  -9  -5   2 2912.01   85.49   1
  -9  -5   2 2860.31   85.59   1
  -9  -5   2 2953.80   86.69   1
  -9  -5   2 2846.12   86.19   1
   9   5   2 2994.80   84.09   1
  -9   5  -2 2778.62   85.19   1
   9  -5  -2 2829.42   85.89   1
 -10   5   2    3.10    3.50   1
  10  -5   2   10.00    3.70   1
 -10   5   2    4.60    2.70   1
  10  -5   2    2.10    3.80   1
 -10  -5  -2    5.70    3.20   1
 -10   5  -2    1.50    3.00   1
  10   5   2    1.50    2.00   1
 -10  -5   2   -1.30    3.30   1
 -10  -5   2   -1.60    3.00   1
 -10  -5   2   -0.50    3.20   1
 -10  -5   2    1.50    2.70   1
 -11   5   2  290.87   11.30   1
  11  -5   2  305.97   12.60   1
 -11  -5  -2  277.67   11.90   1
 -11   5   2  289.87   12.70   1
  11  -5   2  272.77   12.50   1
 -11  -5   2  258.57   12.50   1
 -11  -5   2  269.17   11.60   1
 -11  -5   2  280.07   12.80   1
  11   5   2  291.17   10.70   1
 -11   5  -2  277.17   11.60   1
 -12  -5  -2    1.90    4.10   1
 -12   5   2    0.30    4.20   1
  12  -5   2   -0.60    4.00   1
  12  -5   2    1.20    3.90   1
 -12   5  -2   -2.20    3.70   1
 -12  -5   2    5.20    4.20   1
  12   5   2    4.70    2.90   1
 -12  -5   2    3.90    3.30   1
 -13  -5  -2  113.29    8.00   1
 -13   5   2  111.29    9.00   1
 -13  -5   2  117.39    9.10   1
 -13   5  -2  102.79    8.10   1
 -13  -5   2  113.09    7.70   1
 -14   5   2    3.30    5.10   1
 -14  -5  -2    2.40    4.60   1
 -14  -5   2    1.30    5.20   1
 -14   5  -2    3.50    4.20   1
 -15   5   2  972.30   34.30   1
 -15  -5  -2 1020.90   33.20   1
 -15  -5   2  982.90   34.50   1
 -16   5   2   -0.30    5.80   1
 -16  -5  -2   -7.90    4.50   1
 -16  -5   2   -0.70    5.90   1
   0   6   2 1909.71   53.99   1
   0  -6   2 1714.03   54.39   1
   0  -6   2 1944.01   55.29   1
   0  -6   2 1909.81   54.69   1
   0  -6   2 1893.81   54.19   1
   0  -6   2 1876.21   54.69   1
   0  -6  -2 1887.11   54.19   1
   0  -6  -2 1836.42   54.49   1
   0   6  -2 1862.61   55.29   1
   1  -6   2  123.29    4.80   1
  -1  -6  -2  127.59    5.10   1
   1  -6   2  123.59    5.90   1
  -1  -6  -2  134.89    5.00   1
  -1  -6  -2  128.69    5.10   1
   1  -6   2  131.39    5.30   1
   1   6  -2  131.19    5.70   1
  -1  -6   2  120.69    5.30   1
  -1  -6   2  140.89    6.50   1
  -1   6  -2  133.79    6.10   1
   1  -6  -2  131.59    4.30   1
  -1  -6   2  130.89    5.00   1
   1  -6  -2  128.19    5.10   1
  -1  -6   2  136.89    5.00   1
  -1  -6   2  124.79    5.20   1
   2  -6   2  267.77    9.10   1
   2   6  -2  290.77   10.30   1
  -2  -6  -2  301.97   10.00   1
   2  -6   2  286.87   10.10   1
  -2  -6  -2  299.57    9.80   1
   2  -6   2  294.87   10.70   1
  -2  -6  -2  284.17    9.60   1
  -2  -6   2  296.67    9.90   1
  -2   6  -2  277.67   10.80   1
  -2  -6   2  303.37    9.80   1
  -2  -6   2  291.27   10.10   1
  -2  -6   2  279.07   10.00   1
  -2  -6   2  298.87    9.30   1
  -3  -6  -2   83.09    4.30   1
   3  -6   2   85.59    4.40   1
  -3   6   2   87.89    4.40   1
   3  -6   2   94.39    5.30   1
   3  -6   2   91.69    4.30   1
  -3   6   2   92.89    4.00   1
   3   6  -2   98.09    4.80   1
  -3  -6  -2   90.19    4.80   1
  -3  -6  -2   91.09    4.20   1
   3  -6   2   94.99    3.40   1
  -3  -6   2   95.49    4.70   1
  -3  -6   2   87.69    4.40   1
  -3   6  -2   93.59    5.60   1
  -3  -6   2   86.79    4.70   1
  -3  -6   2   93.79    4.30   1
  -3  -6   2   93.89    3.50   1
   3   6   2   88.79    2.80   1
   3   6   2   86.39    2.80   1
  -4  -6  -2  154.08    7.10   1
   4  -6   2  153.78    7.00   1
  -4   6   2  165.88    6.30   1
   4  -6   2  160.18    6.50   1
   4  -6   2  171.58    7.90   1
  -4  -6  -2  174.68    6.60   1
  -4   6   2  165.78    6.60   1
   4   6  -2  164.28    7.10   1
  -4  -6  -2  184.08    6.60   1
   4  -6  -2  166.68    7.20   1
  -4   6  -2  175.68    8.10   1
  -4  -6   2  159.38    6.50   1
  -4  -6   2  146.69    6.80   1
  -4  -6   2  162.08    7.10   1
  -4  -6   2  154.38    6.70   1
   5  -6   2   93.79    5.40   1
  -5   6   2   85.19    4.40   1
   5  -6   2   94.49    4.90   1
  -5   6   2   87.89    4.60   1
  -5  -6  -2   94.89    4.80   1
  -5  -6  -2   96.79    5.70   1
   5  -6   2  102.39    6.30   1
  -5  -6  -2   85.99    4.70   1
   5   6  -2   88.19    5.20   1
   5  -6  -2   96.69    3.10   1
  -5  -6   2  101.29    5.60   1
  -5  -6   2   95.29    4.90   1
   5  -6  -2   80.49    5.20   1
  -5  -6   2   85.79    5.00   1
  -5   6  -2   79.59    6.00   1
  -5  -6   2   90.59    4.80   1
  -6  -6  -2 1016.80   31.30   1
   6   6  -2 1008.40   31.70   1
  -6   6   2 1022.30   33.50   1
  -6   6   2 1051.49   31.20   1
   6  -6   2 1035.90   31.40   1
   6  -6   2 1008.50   32.00   1
  -6   6   2 1038.30   31.10   1
  -6  -6  -2 1009.00   31.00   1
  -6  -6   2 1020.40   31.40   1
   6  -6  -2  993.80   32.00   1
  -6  -6   2 1013.80   32.20   1
  -6  -6   2 1024.70   31.70   1
  -6   6  -2 1041.50   33.20   1
  -6  -6   2  995.50   31.60   1
  -7   6   2   56.59    4.20   1
   7  -6   2   47.10    4.70   1
  -7   6   2   69.39    4.00   1
  -7  -6  -2   41.50    3.60   1
  -7   6   2   50.39    5.90   1
   7  -6   2   48.80    4.30   1
  -7  -6  -2   48.80    4.20   1
  -7  -6   2   52.39    4.30   1
  -7  -6   2   48.40    4.50   1
  -7  -6   2   54.39    4.50   1
  -7  -6   2   49.99    4.90   1
   7  -6  -2   48.80    4.70   1
   8  -6   2  123.89    6.70   1
  -8  -6  -2   96.89    6.00   1
  -8   6   2  102.69    5.50   1
  -8  -6  -2  108.29    5.40   1
   8  -6   2   99.99    6.70   1
  -8  -6   2  103.69    6.90   1
  -8  -6   2   93.09    5.80   1
   8   6   2  103.49    5.40   1
  -8  -6   2  100.79    6.50   1
  -8  -6   2   99.39    6.00   1
   8  -6  -2  127.69    7.10   1
   8   6   2  103.49    3.90   1
  -9   6   2   44.60    4.30   1
  -9  -6  -2   45.00    4.70   1
   9  -6   2   43.30    5.20   1
  -9  -6  -2   49.99    4.00   1
   9  -6   2   45.30    4.80   1
   9   6   2   49.20    3.20   1
  -9   6  -2   44.60    4.20   1
  -9  -6   2   51.29    4.60   1
  -9  -6   2   47.80    4.80   1
  -9  -6   2   45.20    5.10   1
  -9  -6   2   49.30    5.30   1
   9  -6  -2   50.89    5.10   1
 -10  -6  -2   41.00    4.80   1
  10  -6   2   48.70    5.20   1
 -10   6   2   50.49    4.40   1
  10  -6   2   40.10    5.30   1
 -10   6   2   42.80    4.80   1
 -10   6  -2   49.20    4.70   1
 -10  -6   2   49.40    5.10   1
  10   6   2   48.40    3.80   1
 -10  -6   2   46.80    5.10   1
 -10  -6   2   48.80    5.40   1
  11  -6   2   35.50    5.10   1
 -11  -6  -2   36.80    4.90   1
  11  -6   2   32.40    5.70   1
 -11   6   2   24.70    5.10   1
 -11   6  -2   29.50    4.40   1
  11   6   2   33.20    3.50   1
 -11  -6   2   26.00    4.30   1
 -11  -6   2   26.30    4.90   1
 -11  -6   2   26.20    5.00   1
  12  -6   2  309.67   14.40   1
 -12   6   2  322.37   14.20   1
 -12  -6  -2  328.97   13.80   1
  12   6   2  312.47   12.00   1
 -12  -6   2  337.37   16.30   1
 -12  -6   2  298.47   12.70   1
 -12  -6   2  287.27   13.90   1
 -12   6  -2  324.07   13.40   1
 -13   6   2   16.80    5.80   1
 -13  -6  -2   14.80    5.00   1
 -13  -6   2   18.80    4.60   1
 -13   6  -2   15.70    4.40   1
 -13  -6   2   20.70    5.60   1
 -14  -6  -2   29.90    5.40   1
 -14   6   2   18.40    5.80   1
 -14   6  -2   20.70    5.30   1
 -14  -6   2   18.20    6.60   1
 -15   6   2   16.40    6.30   1
 -15  -6  -2   19.70    5.20   1
 -15  -6   2   17.60    7.00   1
   0  -7   2    2.50    1.20   1
   0  -7   2    0.60    1.50   1
   0  -7  -2    3.70    1.50   1
   0  -7   2    0.70    1.30   1
   0   7  -2   -0.80    1.80   1
   0  -7  -2    2.70    1.20   1
   0  -7   2    5.90    1.60   1
   0   7   2    0.90    0.90   1
   1   7  -2    1.90    1.70   1
  -1  -7  -2    4.70    1.40   1
  -1  -7  -2    8.10    1.40   1
   1  -7   2    5.40    1.70   1
  -1  -7  -2    2.80    1.40   1
   1  -7   2    3.60    1.40   1
   1  -7   2    4.40    1.60   1
   1  -7  -2    6.50    1.10   1
  -1  -7   2    7.00    1.70   1
   1  -7  -2    6.10    1.60   1
  -1  -7   2    3.40    1.60   1
  -1   7  -2    3.60    2.10   1
  -1  -7   2    7.10    1.40   1
  -1  -7   2    2.90    1.30   1
   1   7   2    5.60    1.40   1
  -2  -7  -2  103.49    5.00   1
   2   7  -2   96.79    5.00   1
   2  -7   2  105.89    6.40   1
   2  -7   2  103.29    4.10   1
  -2  -7  -2  106.99    4.70   1
  -2  -7  -2  106.69    4.60   1
   2  -7  -2   97.49    4.30   1
  -2  -7   2  111.59    5.10   1
  -2  -7   2  106.59    4.20   1
   2   7   2  101.39    3.90   1
  -2  -7   2  105.29    4.70   1
  -2  -7   2  107.59    4.90   1
  -2   7  -2   83.29    5.60   1
   2  -7  -2  102.39    3.20   1
   3  -7   2 1334.87   38.30   1
   3  -7   2 1289.17   39.10   1
   3  -7   2 1265.77   39.70   1
  -3   7   2 1380.06   39.60   1
   3  -7   2 1361.06   40.70   1
  -3  -7  -2 1293.67   39.20   1
  -3   7   2 1315.77   40.60   1
  -3  -7  -2 1309.07   39.40   1
  -3  -7  -2 1304.87   39.70   1
   3   7  -2 1303.37   39.70   1
  -3  -7   2 1274.27   39.40   1
  -3  -7   2 1303.67   39.70   1
  -3   7  -2 1406.66   40.90   1
   3   7   2 1307.37   37.80   1
  -3  -7   2 1287.77   39.40   1
  -3  -7   2 1343.07   38.50   1
  -4   7   2   21.70    2.80   1
   4  -7   2   30.00    4.00   1
  -4  -7  -2   26.40    2.80   1
  -4  -7  -2   30.70    3.50   1
   4  -7   2   27.70    3.30   1
   4   7  -2   31.70    3.20   1
  -4  -7  -2   24.40    2.70   1
   4  -7   2   27.80    2.70   1
  -4   7   2   26.00    2.50   1
  -4   7   2   28.00    4.00   1
   4  -7   2   27.10    1.70   1
   4  -7  -2   30.70    3.50   1
  -4  -7   2   25.10    3.20   1
  -4  -7   2   32.80    3.20   1
  -4  -7   2   28.10    3.00   1
  -4   7  -2   22.90    3.90   1
  -5  -7  -2    5.10    2.10   1
   5   7  -2    0.80    1.90   1
  -5   7   2    1.30    1.80   1
  -5   7   2    1.90    1.70   1
  -5   7   2    0.70    3.10   1
   5  -7   2    3.40    2.40   1
  -5  -7  -2   -1.20    1.70   1
  -5  -7  -2    1.50    2.40   1
   5  -7   2    0.90    2.80   1
   5  -7   2    1.30    1.90   1
  -5  -7   2    0.80    2.20   1
  -5  -7   2    1.10    2.40   1
  -5   7  -2    5.20    3.10   1
  -5  -7   2   -0.40    2.00   1
   5  -7  -2    5.50    2.50   1
  -6  -7  -2   15.60    2.80   1
  -6   7   2   17.50    4.20   1
  -6  -7  -2   10.50    2.40   1
   6  -7   2   16.30    2.80   1
  -6   7   2   20.70    2.70   1
   6  -7   2   10.60    3.00   1
   6   7  -2   12.60    2.80   1
  -6   7   2   16.60    2.60   1
  -6  -7  -2   19.80    3.50   1
  -6  -7   2   25.30    3.70   1
  -6  -7   2   11.80    2.60   1
  -6  -7   2   15.40    3.10   1
   6  -7  -2   10.90    3.30   1
  -6   7  -2   16.10    3.90   1
   7  -7   2   17.80    3.70   1
  -7   7   2   17.70    4.40   1
  -7  -7  -2   16.20    3.00   1
  -7   7   2   19.50    2.80   1
  -7  -7  -2   15.80    2.70   1
  -7   7   2   15.20    2.60   1
   7  -7   2   19.80    3.20   1
   7  -7  -2   18.80    3.80   1
  -7  -7   2   16.40    3.70   1
  -7  -7   2   18.90    3.30   1
  -7  -7   2   18.00    3.40   1
   8  -7   2   55.39    4.80   1
  -8   7   2   58.39    4.60   1
  -8  -7  -2   43.20    4.50   1
   8  -7   2   49.30    5.40   1
  -8  -7  -2   36.20    3.80   1
   8   7   2   49.60    2.20   1
  -8  -7   2   56.29    4.80   1
  -8  -7   2   47.30    4.90   1
   8  -7  -2   61.89    5.50   1
  -8  -7   2   54.69    5.40   1
  -9  -7  -2  656.33   21.90   1
   9  -7   2  646.14   22.80   1
   9  -7   2  688.13   22.30   1
  -9   7   2  656.63   21.20   1
  -9  -7  -2  625.94   21.00   1
   9  -7  -2  631.04   22.60   1
  -9  -7   2  632.14   21.70   1
  -9  -7   2  617.34   22.30   1
   9   7   2  673.03   19.70   1
  -9  -7   2  648.44   22.90   1
 -10   7   2    5.30    2.70   1
  10  -7   2    6.40    3.70   1
  10  -7   2    3.40    3.90   1
 -10  -7  -2   14.30    4.10   1
 -10  -7  -2    0.10    2.50   1
 -10  -7   2    6.20    3.70   1
 -10  -7   2    8.50    3.50   1
  10   7   2    3.20    1.90   1
 -10   7  -2    2.70    2.90   1
 -10  -7   2    2.90    3.70   1
  11  -7   2    0.50    4.00   1
 -11   7   2    2.50    4.00   1
 -11  -7  -2    8.60    4.10   1
 -11   7  -2    5.10    3.40   1
 -11  -7   2   -0.20    4.00   1
 -11  -7   2   -0.20    3.30   1
 -11  -7   2    2.60    3.90   1
  11   7   2    4.20    2.40   1
 -12  -7  -2   17.60    4.60   1
  12  -7   2   19.20    5.60   1
 -12   7   2   15.90    5.10   1
 -12  -7   2   16.70    5.10   1
 -12  -7   2   14.90    4.20   1
 -12   7  -2   15.50    4.30   1
 -13   7   2    8.50    5.10   1
 -13  -7  -2   14.20    4.60   1
 -13  -7   2   12.40    4.40   1
 -13   7  -2   12.00    4.40   1
 -13  -7   2    9.60    5.10   1
 -14   7   2   -0.30    5.30   1
 -14  -7  -2    0.50    4.70   1
 -14   7  -2    8.50    5.00   1
 -14  -7   2   13.70    6.10   1
 -15   7   2  233.98   13.30   1
 -15  -7   2  256.97   13.90   1
   0  -8   2 5080.49  139.79   1
   0  -8  -2 4770.32  139.59   1
   0  -8   2 4745.83  139.49   1
   0   8   2 4851.81  139.79   1
   0  -8  -2 4746.53  139.19   1
   0  -8   2 4831.92  139.69   1
   0   8  -2 4843.92  140.39   1
   0  -8   2 4910.81  139.29   1
   1  -8   2    1.40    1.40   1
  -1  -8  -2    2.80    1.60   1
  -1  -8  -2   14.30    2.20   1
  -1   8   2    1.60    1.80   1
   1  -8   2    3.40    1.70   1
   1  -8   2    1.20    1.70   1
   1   8  -2    3.40    2.00   1
  -1  -8  -2    0.00    1.50   1
  -1  -8   2    2.20    1.80   1
   1  -8  -2    4.10    1.70   1
   1   8   2    2.30    1.40   1
  -1  -8   2    1.70    1.50   1
   1  -8  -2    1.90    1.10   1
  -1  -8   2    3.80    1.50   1
  -1  -8   2    1.30    1.60   1
  -1   8  -2    0.80    2.10   1
   2  -8   2 1283.07   37.10   1
   2  -8   2 1256.97   38.10   1
  -2  -8  -2 1295.27   38.00   1
   2   8  -2 1251.17   38.10   1
   2  -8   2 1218.48   37.60   1
  -2   8   2 1264.07   38.70   1
  -2  -8  -2 1221.38   37.80   1
  -2  -8  -2 1253.97   37.60   1
  -2   8  -2 1304.57   39.10   1
  -2  -8   2 1275.37   37.20   1
  -2  -8   2 1224.38   37.90   1
  -2  -8   2 1269.67   37.70   1
   2  -8  -2 1266.87   36.40   1
  -2  -8   2 1312.47   38.10   1
   2   8   2 1246.48   36.80   1
   2  -8  -2 1210.18   37.50   1
  -3  -8  -2   56.89    4.20   1
  -3  -8  -2   57.79    4.00   1
   3  -8   2   56.49    2.90   1
  -3   8   2   60.79    4.10   1
  -3   8   2   56.09    4.90   1
  -3  -8  -2   59.69    3.80   1
   3   8  -2   58.59    4.00   1
   3  -8   2   54.59    3.90   1
  -3  -8   2   53.39    3.00   1
  -3  -8   2   58.59    4.30   1
  -3   8  -2   54.39    5.20   1
  -3  -8   2   51.79    4.00   1
   3   8   2   55.79    2.30   1
  -3  -8   2   53.49    3.90   1
  -4   8   2 1074.19   32.30   1
   4  -8   2 1081.69   33.30   1
  -4   8   2 1094.29   32.70   1
   4   8  -2 1089.59   33.00   1
  -4   8   2 1055.49   34.20   1
  -4  -8  -2 1093.99   33.30   1
   4  -8   2 1010.90   31.20   1
  -4  -8  -2 1043.90   32.60   1
  -4  -8  -2 1050.49   32.60   1
   4  -8  -2 1036.90   33.40   1
  -4   8  -2 1104.49   34.50   1
  -4  -8   2 1097.39   32.90   1
  -4  -8   2 1046.10   32.80   1
  -4  -8   2 1097.39   33.30   1
  -5  -8  -2   13.90    2.60   1
  -5  -8  -2    3.30    2.50   1
  -5   8   2    6.30    3.50   1
  -5   8   2    3.20    1.80   1
   5  -8   2    7.90    2.70   1
   5  -8   2    3.10    2.20   1
   5   8  -2    3.70    2.30   1
  -5  -8  -2    3.50    2.20   1
  -5   8   2    5.30    2.20   1
  -5   8  -2    6.00    3.50   1
  -5  -8   2    8.40    2.90   1
  -5  -8   2    2.50    2.40   1
   5  -8  -2   13.30    3.20   1
  -6   8   2 3385.16   93.49   1
  -6   8   2 3479.05   93.59   1
  -6  -8  -2 3197.28   93.49   1
  -6   8   2 3159.38   95.89   1
   6  -8   2 2938.31   93.49   1
   6  -8   2 3039.20   94.39   1
  -6  -8  -2 3320.97   94.69   1
   6   8  -2 3147.89   93.69   1
  -6  -8  -2 3252.47   93.79   1
  -6  -8   2 3185.68   93.79   1
  -6   8  -2 3278.27   95.89   1
  -6  -8   2 3096.09   94.49   1
   6  -8  -2 3190.78   94.59   1
  -6  -8   2 3134.59   93.99   1
  -7   8   2   32.60    3.30   1
  -7  -8  -2   29.80    3.70   1
   7   8  -2   28.60    3.50   1
  -7  -8  -2   35.10    3.60   1
   7  -8   2   36.40    4.70   1
  -7   8   2   27.60    3.40   1
  -7  -8  -2   31.30    4.50   1
  -7   8   2   31.50    5.30   1
   7  -8  -2   29.10    4.30   1
  -7  -8   2   37.70    4.40   1
  -7  -8   2   28.10    3.80   1
  -7  -8   2   25.20    4.20   1
  -8   8   2  603.94   19.90   1
   8  -8   2  585.44   21.30   1
  -8  -8  -2  610.44   20.50   1
  -8  -8  -2  608.04   20.00   1
  -8  -8   2  598.44   21.50   1
   8  -8  -2  582.74   21.40   1
  -8  -8   2  605.34   20.40   1
  -8  -8   2  628.64   21.10   1
   8   8   2  597.94   17.60   1
   9  -8   2    2.70    4.10   1
  -9  -8  -2    2.70    3.20   1
  -9   8   2    2.60    2.70   1
  -9  -8  -2    1.60    2.60   1
   9  -8  -2   -1.00    3.40   1
  -9  -8   2   -1.70    3.40   1
  -9  -8   2    1.00    3.00   1
   9   8   2    2.60    1.40   1
  -9  -8   2    4.10    3.80   1
 -10  -8  -2  421.76   15.30   1
  10  -8   2  428.86   17.50   1
 -10  -8  -2  434.36   16.60   1
 -10   8   2  431.86   15.30   1
 -10  -8   2  427.96   16.20   1
 -10  -8   2  441.86   17.10   1
 -10   8  -2  427.86   16.00   1
 -10  -8   2  427.36   17.30   1
  10   8   2  467.25   14.20   1
 -11  -8  -2    2.90    4.10   1
  11  -8   2    4.30    4.60   1
 -11   8   2    0.40    3.80   1
 -11  -8   2    2.80    3.90   1
 -11  -8   2   -2.10    3.90   1
  11   8   2   -1.70    2.20   1
 -11   8  -2    1.40    3.30   1
 -11  -8   2    0.40    4.10   1
 -12   8   2 1094.79   37.70   1
  12  -8   2 1148.89   38.40   1
 -12  -8  -2 1225.78   37.40   1
 -12   8  -2 1104.49   36.60   1
 -12  -8   2 1138.79   36.70   1
 -12  -8   2 1173.28   38.10   1
 -13  -8  -2   15.30    5.10   1
 -13   8   2   15.40    5.30   1
  13  -8   2   27.40    6.30   1
 -13   8  -2   18.80    5.00   1
 -13  -8   2   10.80    5.50   1
 -13  -8   2   21.80    4.70   1
 -14   8   2  189.68   12.00   1
 -14  -8  -2  209.18   10.80   1
 -14  -8   2  183.58   12.50   1
 -14   8  -2  203.38   11.00   1
 -15   8   2    3.80    6.20   1
 -15  -8  -2   -5.80    4.80   1
 -15  -8   2    6.10    5.90   1
   0  -9   2  388.96   12.60   1
   0  -9  -2  376.66   12.20   1
   0  -9  -2  378.16   12.70   1
   0  -9   2  358.06   12.60   1
   0   9  -2  368.26   13.40   1
   0  -9   2  364.56   12.60   1
   0  -9   2  352.36   12.20   1
   0   9   2  366.76   12.60   1
   1  -9   2   29.80    3.00   1
   1  -9   2   37.90    3.40   1
  -1  -9  -2   34.90    3.10   1
   1   9  -2   36.00    3.60   1
   1  -9   2   37.30    2.90   1
  -1  -9  -2   31.80    3.00   1
  -1   9   2   41.50    3.80   1
  -1  -9  -2   31.80    3.10   1
  -1  -9   2   38.50    3.40   1
   1  -9  -2   34.60    3.20   1
  -1  -9   2   30.70    3.10   1
  -1   9  -2   41.70    4.20   1
  -1  -9   2   49.40    3.20   1
  -1  -9   2   33.20    2.90   1
   1   9   2   32.70    2.80   1
   1  -9  -2   36.60    2.60   1
   2  -9   2   59.99    4.20   1
   2  -9   2   64.69    3.50   1
  -2   9   2   62.89    4.70   1
  -2  -9  -2   66.89    4.30   1
   2  -9   2   70.29    4.50   1
  -2  -9  -2   67.69    4.20   1
  -2  -9  -2   69.79    4.50   1
   2   9  -2   63.19    4.50   1
   2  -9  -2   67.79    2.90   1
  -2  -9   2   69.59    3.70   1
   2   9   2   66.59    3.30   1
  -2   9  -2   68.59    5.40   1
   2  -9  -2   63.19    3.90   1
  -2  -9   2   67.89    4.40   1
  -2  -9   2   67.79    4.20   1
  -2  -9   2   62.59    4.40   1
  -3  -9  -2 1003.60   31.80   1
   3  -9   2  966.70   32.10   1
   3   9  -2 1040.50   32.00   1
   3  -9   2 1044.10   31.50   1
  -3  -9  -2 1009.70   31.70   1
  -3  -9  -2 1050.29   32.10   1
  -3   9   2 1043.80   33.00   1
   3  -9   2 1060.49   30.70   1
  -3  -9   2 1028.90   32.10   1
  -3   9  -2 1133.19   33.60   1
  -3  -9   2 1015.90   31.90   1
  -3  -9   2 1027.30   31.80   1
  -3  -9   2 1041.50   30.90   1
   3   9   2 1024.30   30.20   1
  -4   9   2  156.58    8.40   1
   4  -9   2  156.68    7.30   1
  -4  -9  -2  167.18    7.10   1
  -4  -9  -2  164.78    7.80   1
  -4  -9  -2  160.58    7.20   1
  -4   9   2  166.48    7.20   1
   4  -9   2  156.58    5.70   1
   4   9  -2  152.08    7.20   1
   4  -9  -2  157.88    8.00   1
  -4  -9   2  156.88    7.60   1
  -4  -9   2  160.98    7.30   1
  -4   9  -2  162.58    8.80   1
  -4  -9   2  152.08    7.00   1
  -5  -9  -2   24.60    3.30   1
   5   9  -2   22.00    3.10   1
  -5   9   2   38.70    3.50   1
  -5  -9  -2   24.50    3.30   1
  -5   9   2   17.60    4.10   1
   5  -9   2   22.60    3.30   1
  -5   9   2   19.20    3.00   1
  -5  -9  -2   23.60    3.60   1
   5  -9  -2   20.10    3.80   1
  -5  -9   2   21.60    3.40   1
  -5   9  -2   24.20    4.60   1
  -5  -9   2   21.80    3.70   1
  -5  -9   2   19.20    3.20   1
  -6   9   2  173.98    7.40   1
   6  -9   2  144.99    8.20   1
  -6  -9  -2  153.28    7.50   1
  -6   9   2  164.98    9.50   1
   6   9  -2  154.18    7.40   1
  -6   9   2  163.88    7.10   1
  -6  -9  -2  167.98    8.40   1
  -6  -9  -2  162.18    7.40   1
  -6  -9   2  155.98    8.40   1
  -6  -9   2  159.78    7.90   1
  -6  -9   2  145.79    7.60   1
   6  -9  -2  153.38    8.50   1
  -6   9  -2  142.99    9.30   1
  -7  -9  -2   19.90    3.50   1
  -7   9   2   21.30    3.20   1
  -7  -9  -2   12.40    3.00   1
  -7  -9  -2   19.30    4.00   1
  -7   9   2   21.70    3.50   1
  -7   9   2   23.50    5.10   1
   7   9  -2   19.80    3.30   1
   7  -9   2   11.30    3.90   1
  -7  -9   2   24.30    4.10   1
  -7  -9   2   16.80    3.60   1
  -7  -9   2   13.10    3.80   1
   7  -9  -2   17.70    4.20   1
  -8  -9  -2   25.30    3.60   1
  -8  -9  -2   40.70    4.50   1
  -8   9   2   35.80    3.90   1
   8  -9   2   33.90    5.10   1
  -8  -9   2   41.20    4.60   1
  -8  -9   2   33.20    4.50   1
   8  -9  -2   21.30    5.00   1
   8   9   2   28.80    1.40   1
  -8  -9   2   24.30    4.50   1
  -9  -9  -2  484.25   17.60   1
  -9  -9  -2  471.25   16.80   1
   9  -9   2  497.45   19.10   1
  -9   9   2  502.15   16.90   1
  -9  -9   2  457.15   17.90   1
  -9  -9   2  479.55   18.80   1
   9  -9  -2  457.45   18.70   1
  -9  -9   2  462.35   17.40   1
   9   9   2  503.25   14.80   1
 -10  -9  -2  121.29    7.00   1
 -10   9   2  119.59    6.90   1
 -10  -9  -2  111.59    7.50   1
  10  -9   2  119.79    8.90   1
 -10  -9   2  113.49    8.60   1
  10   9   2  117.89    5.30   1
 -10  -9   2  103.29    8.10   1
 -10  -9   2  135.09    7.90   1
 -11   9   2    9.50    4.60   1
 -11  -9  -2    5.30    4.00   1
  11  -9   2    5.30    5.30   1
 -11  -9   2    7.50    4.30   1
 -11  -9   2   10.30    4.70   1
 -11   9  -2   11.20    4.30   1
  12  -9   2   25.60    6.50   1
 -12   9   2   18.80    5.30   1
 -12  -9  -2   24.30    5.30   1
 -12  -9   2   22.10    4.80   1
 -12  -9   2   22.20    5.60   1
 -12   9  -2   27.20    4.90   1
 -13   9   2   11.80    5.50   1
 -13  -9  -2    9.70    4.50   1
  13  -9   2    8.80    5.50   1
 -13  -9   2    7.30    5.50   1
 -13   9  -2    5.30    4.20   1
 -13  -9   2    8.50    4.40   1
 -14  -9  -2   26.80    5.80   1
 -14   9   2   19.60    6.60   1
 -14  -9   2   28.20    5.10   1
 -14  -9   2   24.90    6.70   1
 -15   9   2  159.68   11.20   1
 -15  -9  -2  167.18    9.90   1
 -15  -9   2  151.68   11.70   1
   0 -10  -2  262.17    9.40   1
   0  10   2  228.48    9.20   1
   0 -10   2  273.37    9.50   1
   0  10  -2  263.17   10.20   1
   0 -10   2  225.08    9.30   1
   0 -10   2  238.88    9.50   1
   0 -10  -2  246.68    8.90   1
   0 -10   2  247.28    9.10   1
   1  10  -2  113.69    5.90   1
   1 -10   2  100.09    5.60   1
   1 -10   2  112.39    5.30   1
  -1  10   2   98.99    5.60   1
   1 -10   2  112.99    5.50   1
  -1 -10  -2  105.39    5.60   1
  -1 -10  -2  109.89    5.50   1
  -1 -10  -2  118.69    5.60   1
   1  10   2  111.99    5.10   1
  -1 -10   2  101.69    5.50   1
   1 -10  -2  106.19    4.70   1
  -1 -10   2  104.59    5.60   1
  -1  10  -2  112.39    6.80   1
  -1 -10   2  105.99    5.40   1
  -1 -10   2  104.89    5.30   1
   1 -10  -2  101.39    5.40   1
  -2 -10  -2   50.89    3.60   1
   2 -10   2   55.39    3.40   1
  -2  10   2   48.00    4.40   1
  -2 -10  -2   53.39    4.30   1
   2  10  -2   51.19    4.10   1
  -2 -10  -2   50.19    4.30   1
   2 -10   2   55.69    4.00   1
   2 -10   2   48.90    4.30   1
   2  10   2   48.70    3.10   1
   2 -10  -2   54.09    2.80   1
  -2 -10   2   50.59    4.20   1
   2 -10  -2   55.09    3.90   1
  -2 -10   2   47.90    4.20   1
  -2  10  -2   49.00    5.00   1
  -2 -10   2   53.69    4.10   1
  -2 -10   2   56.09    3.50   1
  -3 -10  -2  216.78    8.70   1
   3 -10   2  190.68    7.20   1
  -3 -10  -2  196.38    8.50   1
  -3  10   2  196.48    9.30   1
   3  10  -2  187.58    8.30   1
  -3 -10  -2  200.28    8.40   1
   3 -10   2  190.28    8.80   1
   3 -10   2  203.88    8.20   1
   3  10   2  205.68    6.70   1
  -3 -10   2  214.78    7.60   1
  -3 -10   2  200.18    8.50   1
  -3 -10   2  200.48    8.80   1
  -3  10  -2  198.98    9.90   1
  -3 -10   2  201.68    8.60   1
  -4 -10  -2   71.19    5.00   1
   4 -10   2   69.49    3.50   1
  -4  10   2   67.09    5.90   1
   4 -10   2   69.59    5.40   1
  -4 -10  -2   58.69    4.90   1
  -4  10   2   76.29    5.00   1
  -4 -10  -2   66.69    5.10   1
   4  10  -2   64.99    4.90   1
  -4  10  -2   70.89    6.50   1
  -4 -10   2   74.79    5.50   1
  -4 -10   2   62.69    5.00   1
  -4 -10   2   72.39    4.80   1
   4  10   2   73.69    2.50   1
  -5  10   2   52.19    4.40   1
  -5  10   2   45.80    5.50   1
  -5  10   2   41.80    4.20   1
  -5 -10  -2   41.60    4.20   1
  -5 -10  -2   41.70    4.70   1
   5  10  -2   41.00    4.10   1
  -5 -10  -2   41.40    4.20   1
   5 -10   2   41.90    4.80   1
  -5  10  -2   45.00    5.70   1
  -5 -10   2   35.70    4.60   1
   5 -10  -2   43.30    5.10   1
  -5 -10   2   33.30    4.20   1
  -5 -10   2   47.00    4.60   1
   6 -10   2  219.08   10.00   1
  -6  10   2  219.08   11.00   1
  -6 -10  -2  202.58    9.60   1
  -6 -10  -2  195.38    8.90   1
  -6  10   2  181.88    8.50   1
  -6  10   2  194.38    8.40   1
  -6 -10  -2  201.58    9.00   1
   6  10  -2  197.48    8.60   1
  -6 -10   2  193.18    9.10   1
   6 -10  -2  192.48   10.00   1
  -6 -10   2  190.48    9.80   1
  -6 -10   2  182.88    9.00   1
  -7 -10  -2  111.89    6.80   1
  -7  10   2  119.99    9.00   1
  -7 -10  -2  108.69    7.50   1
  -7 -10  -2  117.59    6.60   1
  -7  10   2  113.89    6.50   1
  -7  10   2  121.89    6.80   1
   7 -10   2  102.09    7.60   1
   7  10  -2  112.59    6.50   1
  -7 -10   2  120.39    8.00   1
   7 -10  -2  110.69    8.00   1
  -7 -10   2  115.69    6.70   1
  -7 -10   2  108.39    7.10   1
  -8  10   2   38.40    4.30   1
  -8 -10  -2   34.10    4.50   1
   8 -10   2   23.60    5.10   1
  -8 -10  -2   32.10    4.10   1
  -8 -10   2   24.70    4.80   1
   8 -10  -2   29.30    5.60   1
  -8 -10   2   41.00    4.90   1
  -8 -10   2   31.90    4.80   1
   8  10   2   32.30    1.60   1
  -9 -10  -2   55.89    5.20   1
   9 -10   2   51.19    6.80   1
  -9 -10  -2   54.49    5.70   1
  -9  10   2   55.09    5.10   1
  -9 -10   2   49.90    5.80   1
  -9 -10   2   48.70    6.10   1
   9  10   2   57.79    3.10   1
  -9 -10   2   57.79    6.20   1
  10 -10   2   43.50    6.90   1
 -10 -10  -2   38.10    4.60   1
 -10 -10  -2   31.30    5.00   1
 -10  10   2   34.00    4.40   1
 -10 -10   2   44.30    5.60   1
 -10 -10   2   29.10    5.50   1
 -10 -10   2   24.70    5.20   1
 -11 -10  -2   23.50    5.00   1
  11 -10   2   31.60    6.30   1
 -11 -10   2   26.20    5.50   1
 -11 -10   2   29.20    5.10   1
 -11  10  -2   27.40    4.80   1
 -12  10   2   97.99    8.60   1
 -12 -10  -2   91.79    7.70   1
  12 -10   2   95.69    9.30   1
 -12  10  -2   96.09    7.40   1
 -12 -10   2   97.89    7.80   1
 -12 -10   2   98.39    8.70   1
  13 -10   2   45.50    7.80   1
 -13  10   2   49.90    7.00   1
 -13 -10  -2   55.49    6.80   1
 -13  10  -2   50.49    6.30   1
 -13 -10   2   67.89    6.90   1
 -13 -10   2   55.59    7.60   1
 -14 -10  -2   20.60    5.60   1
 -14  10   2   14.20    6.00   1
 -14 -10   2   22.10    5.30   1
 -14 -10   2   21.10    6.70   1
   0 -11  -2   15.90    3.10   1
   0 -11  -2   24.80    2.70   1
   0  11  -2   21.40    3.60   1
   0 -11   2   19.50    2.90   1
   0 -11   2   22.00    2.80   1
   0 -11   2   20.60    3.00   1
   0 -11   2   22.30    3.10   1
   0  11   2   17.70    2.80   1
   1 -11   2  616.04   20.00   1
   1 -11   2  599.24   20.60   1
  -1 -11  -2  639.04   20.20   1
  -1  11   2  630.94   20.80   1
   1  11  -2  630.84   20.90   1
   1 -11   2  633.34   20.40   1
  -1 -11  -2  580.34   20.40   1
  -1 -11   2  637.04   20.20   1
  -1 -11   2  642.74   20.30   1
   1 -11  -2  637.54   19.40   1
   1 -11  -2  606.74   20.30   1
  -1 -11   2  602.94   20.50   1
  -1 -11   2  641.44   20.60   1
   1  11   2  608.24   19.80   1
  -1  11  -2  678.53   21.80   1
  -2  11   2   47.00    4.60   1
   2  11  -2   46.80    4.10   1
  -2 -11  -2   41.00    4.00   1
  -2 -11  -2   47.60    4.10   1
   2 -11   2   49.20    3.70   1
   2 -11   2   42.20    3.70   1
  -2 -11  -2   45.50    4.30   1
   2 -11   2   46.80    4.50   1
  -2 -11   2   43.80    3.70   1
  -2  11  -2   49.99    5.10   1
  -2 -11   2   44.40    4.30   1
  -2 -11   2   44.80    4.20   1
   2  11   2   45.60    3.10   1
   2 -11  -2   37.60    3.70   1
  -2 -11   2   47.10    4.10   1
  -3  11   2 2536.95   77.39   1
   3  11  -2 2538.95   76.49   1
  -3 -11  -2 2600.54   76.39   1
   3 -11   2 2524.25   76.99   1
  -3 -11  -2 2670.53   76.59   1
   3 -11   2 2657.13   76.09   1
   3 -11   2 2548.34   75.29   1
  -3 -11  -2 2550.84   76.49   1
  -3 -11   2 2610.64   76.49   1
  -3 -11   2 2741.13   75.69   1
  -3 -11   2 2494.45   76.69   1
  -3 -11   2 2597.24   76.59   1
   3  11   2 2649.14   74.69   1
  -3  11  -2 2498.85   77.89   1
  -4 -11  -2   28.90    3.80   1
   4 -11   2   25.80    4.20   1
  -4  11   2   26.90    3.80   1
  -4 -11  -2   23.80    3.70   1
  -4 -11  -2   22.20    3.80   1
   4  11  -2   25.00    3.50   1
  -4  11   2   24.40    4.20   1
   4 -11   2   19.60    3.10   1
   4  11   2   24.60    1.60   1
  -4 -11   2   30.30    3.60   1
  -4 -11   2   24.80    3.90   1
  -4  11  -2   28.80    5.10   1
  -4 -11   2   24.80    3.80   1
  -5  11   2  414.76   16.90   1
   5 -11   2  370.16   15.70   1
   5 -11   2  432.46   14.70   1
  -5 -11  -2  401.16   15.10   1
  -5  11   2  421.56   14.80   1
  -5 -11  -2  435.46   15.70   1
  -5 -11  -2  418.06   15.20   1
  -5  11   2  427.16   15.20   1
   5  11  -2  425.36   15.00   1
  -5 -11   2  387.46   15.30   1
  -5 -11   2  408.66   15.30   1
  -5  11  -2  481.45   17.90   1
  -5 -11   2  443.16   16.20   1
  -6 -11  -2   16.20    3.70   1
  -6 -11  -2   19.00    3.60   1
  -6 -11  -2   12.40    3.60   1
  -6  11   2   13.90    3.40   1
  -6  11   2   19.30    3.40   1
   6 -11   2   15.00    4.30   1
   6  11  -2   15.50    3.20   1
  -6  11   2   14.70    4.50   1
   6 -11  -2   11.60    4.20   1
  -6 -11   2   12.70    3.70   1
  -6 -11   2   17.20    4.10   1
  -6 -11   2   11.80    3.70   1
  -7  11   2  442.86   15.60   1
  -7  11   2  412.96   17.90   1
  -7 -11  -2  433.76   16.70   1
   7 -11   2  409.66   16.90   1
  -7 -11  -2  430.86   16.00   1
  -7  11   2  436.96   15.40   1
  -7 -11  -2  442.56   15.80   1
  -7 -11   2  406.96   16.70   1
   7 -11  -2  438.36   17.30   1
  -7 -11   2  383.46   15.90   1
  -7 -11   2  431.76   16.10   1
   8 -11   2   21.20    5.30   1
  -8  11   2   35.10    4.50   1
  -8 -11  -2   26.40    4.40   1
  -8 -11  -2   26.60    4.50   1
  -8 -11   2   20.00    4.60   1
  -8 -11   2   20.60    4.50   1
  -8 -11   2   23.90    4.80   1
   8  11   2   26.60    1.70   1
  -9  11   2 1235.28   38.10   1
   9 -11   2 1226.18   40.60   1
  -9 -11  -2 1233.08   38.40   1
  -9 -11  -2 1193.98   39.00   1
  -9 -11   2 1210.58   40.10   1
  -9 -11   2 1212.48   39.40   1
  -9 -11   2 1247.38   39.10   1
 -10 -11  -2    3.10    3.40   1
  10 -11   2    3.20    4.90   1
 -10 -11  -2    5.40    4.10   1
 -10 -11   2    7.40    4.10   1
 -10 -11   2    4.00    4.40   1
 -11 -11  -2  201.88   10.80   1
  11 -11   2  189.38   12.40   1
 -11 -11  -2  194.18    9.50   1
 -11 -11   2  174.08   10.00   1
 -11  11  -2  184.68   10.20   1
 -11 -11   2  186.18   10.80   1
 -12 -11  -2    7.00    4.90   1
  12 -11   2    2.10    6.20   1
 -12  11   2   11.30    5.30   1
 -12 -11   2   14.90    4.70   1
 -12  11  -2   14.30    4.90   1
 -12 -11   2    5.30    5.10   1
 -13  11   2  156.68   11.60   1
 -13 -11  -2  162.48    9.90   1
 -13 -11   2  174.28   11.20   1
 -13  11  -2  159.58    9.50   1
 -14  11   2   -0.40    5.50   1
 -14 -11  -2   11.20    4.90   1
 -14 -11   2    5.20    4.60   1
 -14 -11   2    4.20    5.70   1
   0 -12  -2 1669.13   48.70   1
   0 -12   2 1654.03   49.30   1
   0  12   2 1628.84   49.30   1
   0 -12   2 1657.83   49.60   1
   0 -12   2 1638.24   49.40   1
   0  12  -2 1590.84   50.09   1
   0 -12  -2 1623.44   49.50   1
  -1  12   2  146.09    7.20   1
   1 -12   2  130.89    6.70   1
  -1 -12  -2  134.59    7.20   1
  -1 -12  -2  142.19    6.50   1
   1 -12   2  130.79    6.40   1
   1 -12   2  126.29    7.00   1
   1  12  -2  136.29    7.30   1
   1  12   2  125.79    6.10   1
  -1 -12   2  153.38    6.90   1
  -1 -12   2  142.99    6.70   1
  -1  12  -2  136.89    7.80   1
  -1 -12   2  139.99    7.00   1
   1 -12  -2  135.89    7.00   1
  -1 -12   2  140.29    7.30   1
   2 -12   2  194.88    9.10   1
  -2  12   2  199.08    9.30   1
  -2 -12  -2  193.68    8.90   1
   2 -12   2  192.18    8.00   1
   2  12  -2  192.78    8.70   1
   2 -12   2  189.38    8.30   1
  -2 -12  -2  203.58    8.60   1
  -2 -12  -2  175.48    8.60   1
  -2  12  -2  206.88    9.90   1
   2 -12  -2  201.78    8.50   1
  -2 -12   2  196.78    8.70   1
  -2 -12   2  193.68    8.80   1
   2  12   2  195.68    7.50   1
  -2 -12   2  199.98    8.90   1
  -2 -12   2  204.08    8.20   1
   3 -12   2  138.99    7.80   1
   3 -12   2  140.79    7.00   1
  -3 -12  -2  129.09    7.10   1
  -3 -12  -2  134.39    7.40   1
   3 -12   2  138.29    6.00   1
   3  12  -2  136.09    7.20   1
  -3  12   2  133.99    7.80   1
  -3 -12  -2  145.49    7.40   1
  -3 -12   2  128.59    7.40   1
  -3 -12   2  134.19    7.40   1
  -3  12  -2  138.49    8.60   1
   3  12   2  140.49    5.40   1
  -3 -12   2  148.99    7.00   1
  -4  12   2  134.99    7.40   1
  -4  12   2  124.89    8.00   1
   4  12  -2  128.99    6.80   1
  -4 -12  -2  129.79    7.40   1
   4 -12   2  125.79    6.80   1
   4 -12   2  127.49    7.90   1
  -4 -12  -2  122.19    7.20   1
  -4 -12  -2  143.59    7.70   1
  -4 -12   2  129.89    7.80   1
  -4  12  -2  138.39    9.10   1
   4  12   2  136.19    4.70   1
  -4 -12   2  131.69    7.40   1
  -4 -12   2  136.29    7.40   1
  -5 -12  -2   78.79    6.10   1
   5  12  -2   89.09    5.80   1
  -5  12   2   86.89    6.50   1
   5 -12   2   78.39    6.90   1
  -5 -12  -2   82.39    6.20   1
  -5 -12  -2   93.49    6.40   1
  -5  12   2   94.69    6.20   1
   5 -12   2   86.49    5.70   1
  -5  12   2   89.89    7.40   1
  -5 -12   2   84.19    6.50   1
  -5 -12   2   84.09    6.40   1
  -5  12  -2   91.79    8.10   1
  -5 -12   2   93.19    7.00   1
  -6  12   2 1216.78   39.90   1
  -6  12   2 1183.48   37.40   1
  -6 -12  -2 1221.48   38.10   1
  -6 -12  -2 1144.59   37.50   1
   6 -12   2 1166.38   38.70   1
  -6 -12  -2 1190.68   37.50   1
   6 -12   2 1179.78   36.80   1
  -6  12   2 1196.08   37.20   1
  -6 -12   2 1200.58   37.90   1
  -6 -12   2 1214.58   38.70   1
  -6 -12   2 1201.98   37.80   1
  -7  12   2  117.29    7.10   1
   7 -12   2  104.99    8.40   1
   7 -12   2   96.19    6.00   1
  -7 -12  -2   88.69    7.00   1
  -7  12   2   97.09    6.50   1
  -7 -12  -2  113.69    8.10   1
  -7 -12  -2  105.69    7.00   1
  -7 -12   2  100.29    7.30   1
  -7 -12   2  102.69    7.40   1
  -7 -12   2  112.09    8.10   1
  -8 -12  -2  108.49    7.60   1
  -8  12   2  102.89    6.70   1
   8 -12   2  101.29    8.90   1
  -8 -12  -2  110.99    7.20   1
  -8 -12   2  105.69    7.80   1
  -8 -12   2  107.39    8.20   1
  -8 -12   2   99.49    8.40   1
  -9  12   2   66.79    5.80   1
   9 -12   2   52.99    7.30   1
  -9 -12  -2   51.39    6.00   1
  -9 -12  -2   62.09    6.00   1
  -9 -12   2   48.80    6.30   1
  -9 -12   2   49.60    6.00   1
 -10 -12  -2   41.10    6.00   1
 -10 -12  -2   47.10    5.60   1
  10 -12   2   46.60    7.20   1
 -10 -12   2   43.10    6.10   1
 -10 -12   2   46.50    5.90   1
 -11 -12  -2   49.40    5.40   1
 -11 -12  -2   53.59    6.40   1
  11 -12   2   41.70    7.30   1
 -11 -12   2   60.99    6.50   1
 -11  12  -2   41.10    5.70   1
 -11 -12   2   46.50    6.80   1
  12 -12   2  577.64   23.30   1
 -12 -12  -2  566.64   21.10   1
 -12  12   2  550.14   21.70   1
 -12  12  -2  549.85   20.80   1
 -12 -12   2  570.34   21.90   1
 -12 -12   2  552.84   20.70   1
 -13  12   2   36.60    7.30   1
 -13 -12  -2   46.00    6.80   1
  13 -12   2   51.69    9.10   1
 -13 -12   2   38.60    5.90   1
 -13 -12   2   30.00    6.80   1
   0 -13   2    8.30    3.00   1
   0 -13   2   11.90    3.00   1
   0 -13   2   14.50    3.30   1
   0  13   2    4.50    2.50   1
   0  13  -2    4.40    3.00   1
   0 -13  -2    6.50    3.10   1
  -1 -13  -2  153.98    8.00   1
  -1 -13  -2  155.58    9.60   1
   1 -13   2  153.88    7.30   1
   1 -13   2  160.78    7.60   1
   1 -13   2  157.88    8.00   1
  -1  13   2  163.58    8.00   1
   1  13  -2  144.69    8.00   1
  -1  13  -2  153.28    8.50   1
  -1 -13   2  149.29    7.70   1
  -1 -13   2  159.08    7.60   1
   1  13   2  161.48    7.10   1
  -1 -13   2  154.48    7.90   1
  -1 -13   2  158.48    7.70   1
   1 -13  -2  152.48    7.80   1
  -2 -13  -2    4.80    3.30   1
  -2 -13  -2    8.30    3.10   1
  -2  13   2    9.00    3.40   1
   2 -13   2    4.70    3.20   1
   2 -13   2    8.90    2.50   1
   2 -13   2    2.20    2.40   1
   2  13  -2    6.40    2.70   1
  -2 -13  -2    4.00    2.70   1
  -2 -13   2    9.30    3.20   1
  -2 -13   2    7.90    2.50   1
  -2 -13   2    6.70    3.10   1
   2  13   2    9.10    2.20   1
  -2  13  -2    5.90    3.80   1
  -2 -13   2    6.00    3.00   1
   2 -13  -2    6.60    3.10   1
   3 -13   2  388.36   13.10   1
  -3  13   2  368.26   15.00   1
  -3 -13  -2  403.56   14.30   1
   3 -13   2  362.76   13.60   1
   3  13  -2  377.46   14.10   1
   3 -13   2  373.66   14.80   1
  -3 -13  -2  366.56   14.10   1
  -3 -13  -2  370.66   14.30   1
  -3 -13   2  361.36   14.30   1
   3  13   2  372.06   12.20   1
  -3 -13   2  375.06   14.30   1
  -3 -13   2  376.66   14.60   1
  -3  13  -2  396.16   15.80   1
  -4 -13  -2    2.60    3.20   1
  -4  13   2    0.40    3.20   1
   4 -13   2    1.70    2.60   1
   4 -13   2   -0.30    3.60   1
  -4  13   2   -4.10    3.10   1
   4  13  -2    2.20    2.70   1
  -4 -13  -2    1.70    3.10   1
  -4 -13  -2    2.20    2.80   1
  -4 -13   2   -0.40    3.20   1
  -4 -13   2   -0.70    3.10   1
   4  13   2    1.20    1.10   1
  -4  13  -2    0.10    3.80   1
  -4 -13   2    6.40    3.70   1
  -5  13   2  130.39    8.80   1
   5 -13   2  136.69    7.20   1
   5 -13   2  137.59    8.80   1
  -5  13   2  141.29    7.90   1
  -5  13   2  141.39    7.70   1
  -5 -13  -2  121.79    7.70   1
  -5 -13  -2  144.49    8.00   1
  -5 -13  -2  138.29    8.20   1
  -5 -13   2  137.79    8.10   1
  -5 -13   2  123.69    7.90   1
  -5 -13   2  129.79    8.60   1
  -6  13   2   -3.30    3.40   1
  -6 -13  -2   -0.80    3.30   1
  -6 -13  -2    1.90    3.20   1
   6 -13   2    7.70    4.40   1
  -6  13   2    0.30    3.10   1
  -6 -13  -2    1.50    3.40   1
  -6  13   2    0.10    4.00   1
   6 -13   2    0.70    2.70   1
  -6 -13   2    4.60    3.70   1
  -6 -13   2   -0.30    3.50   1
  -6 -13   2    2.30    3.70   1
  -7 -13  -2   78.79    6.80   1
  -7  13   2   90.69    6.90   1
  -7 -13  -2   92.89    7.10   1
   7 -13   2   80.69    8.00   1
  -7 -13  -2   76.69    6.50   1
  -7  13   2   87.39    6.50   1
  -7 -13   2   81.99    7.50   1
  -7 -13   2   75.99    6.80   1
  -7 -13   2   80.49    7.10   1
  -8  13   2    4.40    3.70   1
  -8 -13  -2    7.80    4.10   1
  -8 -13  -2    0.00    3.50   1
   8 -13   2    6.30    5.10   1
  -8 -13   2    5.70    4.20   1
  -8 -13   2    5.10    4.20   1
  -9 -13  -2  184.08   10.20   1
  -9 -13  -2  183.48    9.90   1
  -9  13   2  181.18    9.50   1
   9 -13   2  173.48   11.60   1
  -9 -13   2  192.38   10.60   1
  -9 -13   2  194.48   10.80   1
 -10 -13  -2    4.60    4.20   1
  10 -13   2    7.90    5.80   1
 -10 -13  -2    4.60    4.40   1
 -10 -13   2    3.70    4.60   1
 -10 -13   2    6.30    4.80   1
  11 -13   2   83.19    9.50   1
 -11 -13  -2   58.89    7.10   1
 -11 -13  -2   68.79    6.40   1
 -11 -13   2   63.09    7.60   1
 -11 -13   2   64.79    6.90   1
 -12  13   2    4.50    5.50   1
  12 -13   2   15.10    7.40   1
 -12 -13  -2   -6.00    4.70   1
 -12 -13   2    3.80    5.50   1
 -12 -13   2    3.00    4.40   1
 -12  13  -2    1.30    4.60   1
 -13 -13  -2   40.70    6.40   1
  13 -13   2   45.00    8.40   1
 -13  13   2   40.60    7.20   1
 -13 -13   2   46.40    7.20   1
 -13 -13   2   48.60    6.20   1
   0 -14   2 1791.62   54.29   1
   0 -14   2 1777.82   53.79   1
   0  14  -2 1774.22   54.79   1
   0 -14  -2 1708.43   54.19   1
   0 -14   2 1802.42   54.19   1
   0  14   2 1831.02   53.89   1
   1 -14   2   51.49    5.30   1
  -1  14   2   48.30    4.90   1
  -1 -14  -2   42.20    5.00   1
   1 -14   2   45.90    4.60   1
   1 -14   2   50.79    4.60   1
   1  14  -2   46.30    5.10   1
  -1 -14   2   49.00    4.80   1
   1  14   2   49.30    4.70   1
   1 -14  -2   50.19    5.10   1
  -1 -14   2   50.29    5.00   1
  -1 -14   2   55.79    5.10   1
  -1 -14   2   59.89    5.20   1
  -1  14  -2   53.99    5.70   1
   2  14  -2  129.49    7.30   1
   2 -14   2  120.59    6.90   1
  -2 -14  -2  134.69    7.90   1
   2 -14   2  132.09    8.10   1
  -2  14   2  138.19    8.20   1
   2 -14   2  152.78    7.20   1
  -2 -14   2  130.09    6.90   1
  -2  14  -2  140.29    8.70   1
  -2 -14   2  146.99    8.00   1
  -2 -14   2  141.99    7.80   1
  -2 -14   2  117.09    7.50   1
   2 -14  -2  138.59    7.50   1
  -3 -14  -2   12.70    4.00   1
   3 -14   2    8.80    4.00   1
   3 -14   2   10.00    3.10   1
   3 -14   2   12.70    2.90   1
  -3 -14  -2   11.70    3.90   1
  -3 -14  -2   12.10    3.40   1
  -3 -14   2    9.30    3.70   1
  -3  14  -2    9.00    4.10   1
  -3 -14   2   12.40    3.70   1
  -3 -14   2    9.80    3.80   1
   4 -14   2  111.29    8.10   1
  -4 -14  -2  115.39    6.90   1
  -4 -14  -2   97.59    7.30   1
  -4 -14  -2  120.19    7.60   1
   4 -14   2  103.09    6.50   1
  -4  14   2  107.09    7.50   1
  -4  14  -2  126.39    9.10   1
  -4 -14   2  112.79    7.40   1
  -4 -14   2  103.29    7.70   1
  -4 -14   2  102.19    7.20   1
  -5  14   2   67.09    5.80   1
  -5 -14  -2   74.49    6.60   1
   5 -14   2   63.29    5.40   1
  -5 -14  -2   81.29    6.70   1
   5 -14   2   64.09    7.00   1
  -5  14   2   80.89    6.60   1
  -5 -14   2   73.99    6.70   1
  -5 -14   2   77.29    7.20   1
  -5 -14   2   90.19    7.00   1
  -6 -14  -2 1307.37   41.50   1
  -6  14   2 1307.67   40.80   1
  -6 -14  -2 1308.97   41.40   1
  -6  14   2 1287.17   41.20   1
  -6 -14  -2 1302.07   41.20   1
   6 -14   2 1281.17   42.50   1
  -6 -14   2 1277.17   41.30   1
  -6 -14   2 1323.57   41.60   1
  -6 -14   2 1299.27   42.20   1
  -7 -14  -2    5.40    3.90   1
  -7 -14  -2    4.00    4.00   1
  -7  14   2   10.60    3.90   1
  -7 -14  -2    3.90    4.40   1
   7 -14   2    6.50    5.00   1
  -7  14   2    5.40    3.80   1
  -7 -14   2   11.40    4.50   1
  -7 -14   2    6.10    4.20   1
  -8 -14  -2   76.99    6.90   1
  -8  14   2   78.49    6.80   1
   8 -14   2   85.99    8.90   1
  -8 -14  -2   74.69    7.10   1
  -8 -14   2   80.79    7.20   1
  -8 -14   2   79.69    7.50   1
  -9  14   2   25.80    4.60   1
   9 -14   2   20.20    6.30   1
  -9 -14  -2   28.40    5.50   1
  -9 -14  -2   21.20    5.00   1
  -9 -14   2    8.50    4.70   1
  -9 -14   2   17.70    5.20   1
 -10 -14  -2   40.50    6.20   1
  10 -14   2   54.19    8.70   1
 -10 -14  -2   46.20    6.00   1
 -10 -14   2   45.50    6.80   1
 -10 -14   2   45.00    6.50   1
  11 -14   2   31.80    8.40   1
 -11 -14  -2   35.70    6.00   1
 -11 -14  -2   25.60    5.20   1
 -11 -14   2   25.30    5.60   1
 -11 -14   2   26.20    6.70   1
 -12 -14  -2  665.33   23.80   1
  12 -14   2  701.23   26.70   1
 -12 -14   2  628.24   24.70   1
 -12 -14   2  629.64   23.60   1
   0 -15   2   14.10    3.60   1
   0 -15   2   13.70    3.70   1
   0 -15   2    9.40    3.60   1
   0 -15  -2   11.90    3.90   1
   1 -15   2  229.28   10.10   1
   1 -15   2  224.38   11.10   1
   1 -15   2  231.58   10.40   1
  -1 -15  -2  233.88   11.00   1
  -1 -15   2  220.18   10.30   1
  -1 -15   2  234.88   10.90   1
   1 -15  -2  243.68   10.80   1
  -1 -15   2  228.88   10.20   1
   2 -15   2   10.40    3.30   1
   2 -15   2   12.90    3.10   1
   2 -15   2   11.10    4.20   1
  -2 -15  -2   10.40    4.00   1
  -2 -15   2    9.00    3.80   1
   2 -15  -2    3.60    3.50   1
  -2 -15   2   10.10    3.80   1
  -2 -15   2   11.50    3.80   1
   3 -15   2 1680.63   51.89   1
  -3 -15  -2 1667.63   52.69   1
   3 -15   2 1741.93   53.49   1
  -3 -15  -2 1733.03   52.89   1
   3 -15   2 1696.53   51.49   1
  -3 -15   2 1725.53   53.19   1
  -3 -15   2 1721.93   52.79   1
  -3 -15   2 1693.83   52.69   1
   4 -15   2    0.30    4.10   1
  -4  15   2   -2.60    3.60   1
  -4 -15  -2   -0.50    3.80   1
  -4 -15  -2    1.20    3.80   1
  -4 -15   2   -0.30    3.70   1
  -4 -15   2    3.60    3.80   1
  -4 -15   2    0.80    3.80   1
  -5 -15  -2  210.98   10.60   1
  -5  15   2  205.18   10.80   1
  -5 -15  -2  194.98   10.30   1
   5 -15   2  192.28   11.30   1
  -5  15   2  200.88   10.20   1
  -5 -15   2  201.98   10.90   1
  -5 -15   2  209.78   10.50   1
  -5 -15   2  189.78   10.90   1
  -6  15   2   -1.20    4.20   1
  -6 -15  -2    4.60    4.20   1
  -6 -15  -2    2.00    3.80   1
  -6  15   2    3.00    3.80   1
   6 -15   2   -0.50    4.70   1
  -6 -15  -2    1.80    4.00   1
  -6 -15   2    2.40    4.10   1
  -6 -15   2    3.90    4.30   1
  -7 -15  -2  118.09    8.30   1
  -7 -15  -2  125.69    8.70   1
  -7  15   2  127.29    8.10   1
   7 -15   2  117.99    9.80   1
  -7 -15   2  124.79    8.70   1
  -7 -15   2  118.69    8.50   1
  -8 -15  -2    3.10    4.20   1
  -8  15   2    8.40    4.40   1
   8 -15   2    7.20    5.70   1
  -8 -15  -2    7.40    4.50   1
  -8 -15   2    5.40    4.60   1
  -8 -15   2    3.90    4.40   1
  -9 -15  -2 1081.49   34.10   1
   9 -15   2 1047.30   36.50   1
  -9 -15  -2 1009.90   34.20   1
  -9 -15   2  984.80   34.40   1
  -9 -15   2  994.40   34.00   1
  10 -15   2    8.30    7.60   1
 -10 -15  -2    4.00    4.50   1
 -10 -15  -2    6.70    4.80   1
 -10 -15   2    3.10    5.80   1
 -10 -15   2    5.60    4.70   1
  11 -15   2   87.29   10.30   1
 -11 -15  -2   79.79    8.00   1
 -11 -15  -2  101.59    7.80   1
 -11 -15   2   94.59    8.80   1
 -11 -15   2   94.49    8.10   1
 -12 -15  -2    3.00    5.10   1
  12 -15   2    8.20    7.80   1
 -12 -15   2    1.40    5.00   1
 -12 -15   2    3.00    5.70   1
   0 -16   2  331.37   13.50   1
   0 -16  -2  325.07   13.70   1
   0 -16   2  302.17   13.10   1
   0 -16   2  321.17   13.00   1
   1 -16   2    4.40    3.70   1
   1 -16   2    6.50    3.70   1
   1 -16   2    4.90    3.50   1
  -1 -16  -2    5.40    4.10   1
  -1 -16   2    9.30    3.60   1
   1 -16  -2    9.40    4.10   1
  -1 -16   2    7.20    4.00   1
  -1 -16   2    3.30    3.90   1
   2 -16   2   58.79    5.30   1
   2 -16   2   60.89    6.40   1
  -2 -16  -2   55.69    6.40   1
   2 -16   2   57.69    5.40   1
   2 -16  -2   57.99    5.80   1
  -2 -16   2   59.59    6.10   1
  -2 -16   2   52.09    6.00   1
  -3 -16  -2   20.10    4.90   1
   3 -16   2   25.60    5.60   1
  -3 -16   2   29.00    5.10   1
  -3 -16   2   29.90    5.10   1
  -3 -16   2   24.90    4.80   1
  -4  16   2   42.30    6.20   1
   4 -16   2   43.50    6.50   1
  -4 -16  -2   37.70    5.80   1
  -4 -16  -2   46.90    5.80   1
  -4 -16   2   47.10    6.00   1
  -4 -16   2   49.50    6.10   1
  -4 -16   2   40.80    5.80   1
  -5 -16  -2   -2.40    4.00   1
  -5 -16  -2    2.10    4.30   1
   5 -16   2   -1.00    5.10   1
  -5  16   2    2.90    4.30   1
  -5  16   2    2.20    3.90   1
  -5 -16   2   -0.50    4.20   1
  -5 -16   2    2.80    4.30   1
  -6  16   2  229.68   11.40   1
  -6 -16  -2  231.08   11.40   1
   6 -16   2  232.68   12.90   1
  -6  16   2  225.18   11.40   1
  -6 -16  -2  214.38   11.40   1
  -6 -16   2  217.38   11.50   1
  -6 -16   2  205.28   11.30   1
   7 -16   2   12.60    5.80   1
  -7  16   2   12.60    4.50   1
  -7 -16  -2   15.90    4.80   1
  -7 -16  -2   12.30    4.80   1
  -7 -16   2   18.40    5.40   1
  -7 -16   2   13.10    5.20   1
  -8 -16  -2   41.50    5.80   1
   8 -16   2   45.80    8.00   1
  -8  16   2   52.09    6.20   1
  -8 -16  -2   40.60    6.20   1
  -8 -16   2   44.50    6.70   1
  -8 -16   2   42.70    6.60   1
  -9 -16  -2    6.80    4.90   1
  -9 -16  -2    8.10    4.90   1
   9 -16   2   14.10    7.10   1
  -9 -16   2   13.50    5.40   1
  -9 -16   2   10.20    5.70   1
 -10 -16  -2   36.60    6.10   1
 -10 -16  -2   21.20    5.70   1
  10 -16   2   42.10    8.60   1
 -10 -16   2   19.90    6.20   1
 -10 -16   2   27.10    5.90   1
  11 -16   2   -2.00    6.80   1
 -11 -16  -2   -7.00    4.50   1
 -11 -16  -2   -4.80    4.20   1
 -11 -16   2    2.60    5.50   1
 -11 -16   2    3.70    5.00   1
   0 -17   2   24.20    5.00   1
   0 -17   2   25.70    4.60   1
   0 -17  -2   18.60    4.90   1
   0 -17   2   26.50    4.60   1
   1 -17   2   32.50    5.40   1
   1 -17   2   28.50    4.80   1
  -1 -17  -2   23.50    5.10   1
   1 -17  -2   29.20    5.20   1
  -1 -17   2   35.50    5.40   1
  -1 -17   2   34.10    5.40   1
   2 -17   2   19.80    5.00   1
  -2 -17  -2   20.90    5.20   1
   2 -17   2   30.50    4.70   1
  -2 -17   2   22.60    4.80   1
  -2 -17   2   21.50    4.80   1
  -3 -17  -2  477.95   19.10   1
  -3  17   2  488.95   19.80   1
   3 -17   2  516.45   19.90   1
  -3 -17   2  506.55   19.00   1
  -3 -17   2  498.55   19.10   1
  -4 -17  -2   18.90    5.10   1
   4 -17   2   18.00    5.80   1
  -4  17   2   21.50    5.60   1
  -4 -17   2   30.30    5.70   1
  -4 -17   2   16.80    5.10   1
   5 -17   2   29.00    6.30   1
  -5 -17  -2   34.10    5.80   1
  -5  17   2   25.40    5.60   1
  -5  17   2   33.50    5.40   1
  -5 -17  -2   33.60    6.10   1
  -5 -17   2   28.00    5.60   1
  -5 -17   2   37.80    5.90   1
  -6  17   2   18.20    5.60   1
  -6 -17  -2   20.60    5.40   1
  -6 -17  -2   22.40    5.50   1
  -6  17   2   23.70    5.30   1
   6 -17   2   25.30    6.60   1
  -6 -17   2   24.20    5.60   1
  -6 -17   2   13.50    5.20   1
  -7  17   2    7.30    4.80   1
  -7 -17  -2    8.20    5.10   1
   7 -17   2    9.80    6.90   1
  -7 -17  -2    5.00    4.90   1
  -7 -17   2    7.80    5.30   1
  -7 -17   2    7.60    5.00   1
   8 -17   2    4.30    6.50   1
  -8 -17  -2   11.80    5.60   1
  -8 -17  -2   10.60    5.20   1
  -8  17   2   14.40    4.90   1
  -8 -17   2   13.80    5.40   1
  -8 -17   2   15.70    6.00   1
  -9 -17  -2  336.47   15.10   1
  -9 -17  -2  344.27   14.70   1
   9 -17   2  359.46   17.80   1
  -9 -17   2  343.27   15.80   1
  -9 -17   2  312.57   15.00   1
  10 -17   2    7.40    7.20   1
 -10 -17  -2   12.80    5.70   1
 -10 -17  -2   12.30    5.40   1
 -10 -17   2   21.40    6.40   1
 -10 -17   2   14.30    5.40   1
   0 -18  -2 1069.49   35.40   1
  -1 -18  -2    5.80    4.60   1
   1 -18   2    8.70    5.00   1
   1 -18   2   17.00    4.60   1
  -1 -18   2   12.10    4.40   1
   1 -18  -2    3.70    4.80   1
  -2 -18  -2  222.18   12.00   1
   2 -18   2  241.58   12.50   1
  -2 -18   2  245.48   11.70   1
  -3 -18  -2    7.00    4.90   1
   3 -18   2    1.90    4.80   1
  -3  18   2    1.50    5.00   1
  -3 -18   2    0.90    4.60   1
  -4  18   2  223.58   12.50   1
  -4 -18  -2  223.38   12.10   1
   4 -18   2  229.68   12.70   1
  -4 -18   2  224.58   11.80   1
  -4 -18   2  243.88   12.70   1
  -5  18   2    5.60    4.80   1
   5 -18   2    5.40    5.30   1
  -5 -18  -2    8.20    5.10   1
  -5  18   2   11.10    4.80   1
  -5 -18   2    4.80    5.20   1
  -5 -18   2    7.00    5.10   1
  -6 -18  -2  786.12   27.80   1
  -6  18   2  788.62   27.80   1
   6 -18   2  772.92   29.40   1
  -6  18   2  787.82   27.40   1
  -6 -18  -2  795.72   27.70   1
  -6 -18   2  786.82   28.00   1
  -6 -18   2  771.62   28.00   1
  -7  18   2    2.80    4.70   1
  -7 -18  -2   -0.90    5.20   1
  -7 -18  -2   -2.10    4.80   1
   7 -18   2    6.20    6.80   1
  -7 -18   2   -1.20    5.10   1
  -7 -18   2    0.40    5.40   1
  -8 -18  -2  111.79    9.50   1
  -8 -18  -2  138.99    9.90   1
   8 -18   2  148.19   11.90   1
  -8 -18   2  133.59   10.00   1
  -8 -18   2  136.89   10.80   1
  -9 -18  -2    6.60    5.00   1
  -9 -18  -2    4.40    5.60   1
   9 -18   2    3.20    6.60   1
  -9 -18   2    5.30    5.60   1
  -9 -18   2    1.80    6.10   1
   0 -19   2   43.50    6.00   1
   0 -19  -2   39.00    6.40   1
   1 -19   2    2.30    4.40   1
  -1 -19  -2    3.80    5.10   1
   1 -19  -2    4.40    4.90   1
  -1 -19   2    4.20    4.30   1
  -2 -19  -2    1.70    5.10   1
  -2 -19   2   12.90    5.00   1
   3 -19   2  149.99   11.10   1
  -3 -19  -2  140.69   10.20   1
  -3  19   2  137.89   10.10   1
  -3 -19   2  159.58   10.00   1
  -4  19   2   19.90    5.10   1
   4 -19   2   21.90    6.20   1
  -4 -19  -2   20.00    5.90   1
  -4  19   2   21.40    5.80   1
  -4 -19   2   24.80    6.20   1
  -5  19   2    0.20    5.00   1
  -5  19   2   -0.60    4.40   1
   5 -19   2    4.30    5.70   1
  -5 -19  -2    2.90    5.30   1
  -5 -19   2   -1.00    5.50   1
  -5 -19   2    9.00    5.90   1
  -6  19   2   26.70    6.30   1
  -6 -19  -2   24.20    6.40   1
   6 -19   2   22.50    7.30   1
  -6 -19   2   23.40    7.00   1
  -6 -19   2   21.00    6.10   1
  -7  19   2   -1.50    4.80   1
   7 -19   2    0.10    6.70   1
  -7 -19  -2   -1.80    5.00   1
  -7 -19   2   10.50    5.60   1
  -7 -19   2   -0.80    5.40   1
   8 -19   2   11.10    7.10   1
  -8 -19  -2    1.60    5.30   1
  -8 -19  -2   -3.00    4.90   1
  -8 -19   2    2.60    5.60   1
  -8 -19   2    4.10    5.40   1
   0 -20  -2  247.88   13.00   1
   0 -20   2  227.68   12.40   1
  -1 -20  -2   18.60    6.10   1
  -1 -20   2   18.90    5.60   1
  -2  20   2   12.30    6.10   1
  -2 -20  -2    7.80    6.00   1
  -2 -20   2    9.70    5.60   1
  -3  20   2   52.09    7.70   1
  -3 -20  -2   57.39    7.60   1
  -3 -20   2   60.79    7.50   1
  -4  20   2    6.00    4.80   1
  -4  20   2    6.50    5.90   1
  -4 -20  -2    0.40    6.10   1
  -4 -20   2    8.60    5.40   1
  -5 -20  -2    5.60    6.10   1
  -5  20   2    5.00    5.00   1
   5 -20   2    6.70    6.40   1
  -5  20   2    4.00    5.90   1
  -5 -20   2   24.50    6.20   1
   6 -20   2  179.18   12.60   1
  -6 -20  -2  177.48   11.60   1
  -6 -20   2  183.68   11.40   1
   0 -21   2   -1.20    5.60   1
  -1 -21  -2  146.19   11.80   1
  -1 -21   2  178.58   11.20   1
  -2  21   2    4.30    5.50   1
  -2 -21  -2   -1.00    5.60   1
  -2 -21   2    4.50    5.90   1
  -3  21   2  674.43   25.80   1
  -3  21   2  692.13   24.70   1
  -3 -21  -2  684.23   25.60   1
  -4 -21  -2   -4.20    5.50   1
  -4  21   2    2.10    5.40   1
  -4  21   2   -2.50    4.70   1
  -4 -21   2   -4.90    5.80   1
   0   0  -3    9.30    1.90   1
   0   0   3   20.00    2.30   1
   0   0   3    8.10    1.30   1
   0   0   3   13.10    1.50   1
   1   0  -3    1.20    1.50   1
   1   0   3    3.40    1.00   1
   1   0   3    2.90    0.90   1
  -1   0   3    0.60    1.00   1
  -1   0  -3   -0.10    0.60   1
  -1   0   3    0.80    1.50   1
   1   0   3    0.00    1.30   1
  -1   0   3    0.90    1.00   1
  -2   0   3  635.34   18.40   1
   2   0   3  629.14   18.40   1
  -2   0   3  610.04   19.60   1
  -2   0  -3  602.94   18.90   1
  -2   0   3  611.74   18.80   1
   2   0   3  658.43   18.50   1
   2   0  -3  581.24   19.50   1
   2   0   3  597.54   19.00   1
  -2   0   3  609.54   18.60   1
  -2   0   3  615.44   18.40   1
  -3   0  -3    0.10    1.20   1
  -3   0   3    1.10    1.20   1
   3   0   3   -0.60    0.90   1
  -3   0   3   -0.20    1.30   1
   3   0   3   -1.30    1.20   1
  -3   0   3   -0.40    1.00   1
  -3   0   3    1.10    1.50   1
   3   0   3   -2.70    1.30   1
  -3   0   3    0.40    1.10   1
  -4   0   3  967.00   29.40   1
  -4   0   3  982.10   30.50   1
   4   0   3  945.41   28.90   1
  -4   0  -3 1017.20   28.80   1
   4   0   3  986.00   29.60   1
  -4   0   3  952.80   29.30   1
   4   0   3  980.00   30.00   1
  -4   0   3 1032.70   29.30   1
  -4   0  -3 1007.60   29.40   1
  -4   0   3  944.11   29.60   1
  -5   0   3    0.40    1.60   1
   5   0   3    0.30    1.80   1
  -5   0   3    1.60    1.60   1
  -5   0  -3    0.00    1.30   1
   5   0   3    0.90    1.20   1
  -5   0  -3    1.70    1.10   1
   5   0   3    0.90    1.60   1
   6   0   3  129.59    5.20   1
  -6   0  -3  137.69    5.30   1
  -6   0  -3  126.49    5.40   1
   6   0   3  120.19    6.00   1
  -6   0   3  131.39    6.00   1
   6   0   3  130.69    6.20   1
  -6   0   3  124.79    5.70   1
  -6   0   3  127.19    6.00   1
  -7   0   3   -0.10    2.20   1
  -7   0   3    1.70    2.00   1
   7   0   3   -0.60    1.50   1
  -7   0  -3    0.90    1.60   1
   7   0   3    1.30    2.20   1
  -7   0   3    3.20    2.30   1
  -8   0  -3  210.38    8.40   1
  -8   0   3  216.28    8.90   1
   8   0   3  213.88    8.40   1
  -8   0   3  230.48    9.00   1
  -8   0   3  191.28    9.10   1
   8   0   3  240.68    9.60   1
   9   0   3   -3.30    2.40   1
  -9   0   3   -0.40    2.30   1
  -9   0   3   -0.30    2.50   1
  -9   0   3    1.90    2.50   1
  -9   0   3    0.30    2.30   1
  -9   0  -3    4.40    2.20   1
   9   0   3    0.40    2.20   1
  10   0   3  420.06   15.40   1
  10   0   3  454.45   16.20   1
 -10   0   3  434.76   15.90   1
 -10   0   3  444.26   15.40   1
 -10   0  -3  451.95   15.40   1
 -10   0   3  405.66   16.40   1
 -11   0   3    1.60    3.90   1
  11   0   3   -4.10    2.80   1
 -11   0   3    1.20    2.80   1
 -11   0   3   14.40    3.90   1
  11   0   3    1.00    3.20   1
 -11   0  -3    6.20    3.30   1
 -12   0   3  126.59    7.70   1
  12   0   3  127.79    8.00   1
 -12   0  -3  125.49    7.30   1
 -12   0   3  141.59    8.10   1
 -12   0   3  129.29    9.00   1
  13   0   3   -2.30    3.60   1
 -13   0   3    2.10    4.80   1
 -13   0  -3    6.50    4.00   1
 -13   0   3    4.80    3.80   1
  14   0   3  120.89    8.70   1
 -14   0   3  103.49    9.50   1
 -15   0   3    2.60    6.30   1
 -16   0   3  112.99   10.20   1
   0   1   3 1454.75   44.90   1
   0   1   3 1506.85   44.20   1
   0  -1   3 1527.35   44.30   1
   0  -1   3 1580.94   44.40   1
   0   1   3 1547.95   44.40   1
   0  -1   3 1507.65   45.10   1
   0   1  -3 1521.85   45.10   1
   1  -1   3 2747.53   76.49   1
   1  -1   3 2607.34   76.29   1
   1  -1   3 2791.82   77.29   1
  -1   1   3 2668.73   76.39   1
  -1  -1  -3 2657.93   76.79   1
  -1   1   3 2595.94   77.29   1
   1   1  -3 2473.65   77.19   1
   1  -1   3 2674.83   76.89   1
  -1   1   3 2696.23   76.59   1
  -1  -1   3 2621.14   76.49   1
   1   1   3 2661.83   76.89   1
  -1  -1   3 2660.33   76.39   1
  -1  -1   3 2556.64   77.29   1
   1   1   3 2791.92   76.29   1
   1  -1  -3 2644.54   77.19   1
   1   1   3 2647.14   76.29   1
  -1   1  -3 2599.54   77.09   1
  -1  -1   3 2670.83   76.59   1
  -2   1   3  593.24   16.90   1
  -2   1   3  546.55   17.30   1
   2  -1   3  552.64   17.80   1
  -2   1   3  584.84   18.40   1
   2   1  -3  578.84   18.40   1
  -2   1   3  581.54   17.60   1
   2  -1   3  591.14   17.30   1
  -2  -1  -3  574.14   17.40   1
   2  -1   3  535.05   17.80   1
  -2  -1   3  557.74   17.10   1
  -2  -1   3  560.84   17.20   1
  -2  -1   3  576.34   17.40   1
   2   1   3  560.54   17.00   1
   2   1   3  570.04   17.50   1
   2   1   3  557.74   16.90   1
  -2  -1   3  609.94   18.40   1
  -2  -1   3  559.14   17.50   1
   3  -1   3   52.39    3.40   1
  -3   1   3   64.79    3.00   1
   3  -1   3   52.59    3.40   1
  -3   1   3   50.99    3.10   1
  -3   1   3   52.89    2.60   1
   3  -1   3   54.29    2.80   1
  -3  -1  -3   52.29    2.90   1
  -3   1   3   50.39    3.90   1
   3   1  -3   48.50    4.00   1
  -3  -1   3   51.49    2.90   1
  -3  -1   3   55.19    3.90   1
  -3  -1   3   58.99    3.00   1
  -3  -1   3   55.69    2.90   1
  -3   1  -3   52.79    3.20   1
   3   1   3   49.20    3.10   1
  -3  -1   3   49.70    3.10   1
   3   1   3   51.89    2.50   1
  -4   1   3  489.15   15.60   1
   4  -1   3  469.45   15.10   1
  -4   1   3  514.95   15.40   1
   4  -1   3  498.35   15.90   1
  -4   1   3  473.95   15.10   1
   4  -1   3  474.45   15.90   1
  -4  -1  -3  484.85   14.80   1
  -4  -1  -3  490.45   15.10   1
  -4   1   3  494.55   15.30   1
  -4   1   3  522.15   16.60   1
  -4  -1   3  498.05   16.40   1
   4   1   3  494.05   15.40   1
  -4   1  -3  476.95   15.60   1
  -4  -1   3  488.65   15.40   1
   4   1   3  486.25   16.00   1
  -4   1  -3  508.45   14.70   1
  -4  -1   3  452.95   15.30   1
  -4  -1   3  484.55   15.60   1
   4   1   3  467.75   14.70   1
   5  -1   3 2153.58   62.69   1
  -5  -1  -3 2170.88   61.69   1
  -5   1   3 2083.39   61.89   1
  -5   1   3 2173.58   63.49   1
  -5  -1  -3 2174.08   61.69   1
   5  -1   3 2147.29   61.89   1
  -5   1   3 1975.10   62.19   1
   5  -1   3 2085.39   62.69   1
  -5   1   3 2089.19   62.39   1
  -5   1   3 2264.57   62.09   1
  -5  -1   3 2128.29   62.39   1
  -5  -1   3 2163.58   62.49   1
  -5   1  -3 2175.28   61.49   1
  -5  -1   3 2261.97   62.39   1
   5   1   3 2157.48   62.79   1
   5   1   3 2003.10   61.39   1
   5   1   3 2060.49   62.09   1
  -5   1  -3 2016.00   62.29   1
  -6   1   3  626.94   20.40   1
  -6  -1  -3  677.73   20.30   1
   6  -1   3  672.53   21.30   1
  -6   1   3  642.64   20.90   1
  -6   1   3  636.34   20.80   1
   6  -1   3  644.04   20.40   1
  -6  -1  -3  680.93   20.00   1
   6  -1   3  659.63   21.30   1
   6   1   3  626.24   20.70   1
   6   1   3  616.04   19.90   1
  -6  -1   3  671.33   21.00   1
   6   1   3  663.43   21.20   1
  -6  -1   3  637.84   20.90   1
  -6  -1   3  682.73   21.10   1
  -6   1  -3  663.73   20.80   1
  -6   1  -3  703.13   20.20   1
   7  -1   3 1049.20   30.80   1
  -7   1   3  957.80   29.70   1
  -7   1   3 1005.90   30.40   1
   7  -1   3  969.70   29.70   1
  -7   1   3  962.00   30.10   1
  -7  -1  -3  993.90   29.50   1
   7   1   3  972.40   30.40   1
  -7  -1   3  990.40   30.30   1
  -7  -1   3  952.80   30.10   1
  -7   1  -3  976.40   29.40   1
   7   1   3  916.41   29.20   1
  -7  -1   3  972.50   30.30   1
   7   1   3  949.60   30.10   1
   8  -1   3  236.88    9.50   1
   8  -1   3  256.57   10.30   1
  -8   1   3  244.38    9.50   1
  -8  -1  -3  251.97    9.40   1
  -8   1   3  246.18    9.80   1
  -8   1   3  263.77   10.40   1
   8   1   3  234.48    9.10   1
   8   1   3  262.17   10.10   1
  -8   1  -3  251.07    9.30   1
  -8  -1   3  247.88   10.30   1
  -8  -1   3  259.67   10.20   1
  -8  -1   3  250.07   10.00   1
  -8  -1   3  253.27    9.70   1
  -9  -1  -3    2.70    2.20   1
   9  -1   3    0.80    3.00   1
   9  -1   3    2.20    2.50   1
  -9   1   3    0.90    2.50   1
  -9   1   3    2.60    3.20   1
  -9  -1   3   -0.40    2.60   1
  -9  -1   3   -3.80    2.40   1
  -9  -1   3   -2.50    2.30   1
  -9  -1   3    0.40    2.90   1
   9   1   3   -1.20    2.00   1
   9   1   3   -0.40    2.50   1
  -9   1  -3    1.60    2.10   1
 -10   1   3  201.68    8.70   1
 -10   1   3  170.38    9.30   1
  10  -1   3  183.98    9.20   1
 -10   1   3  187.08    8.40   1
  10  -1   3  170.08    8.50   1
 -10  -1  -3  184.68    8.30   1
 -10   1  -3  177.28    7.90   1
 -10  -1   3  174.48    8.70   1
 -10  -1   3  162.18    9.10   1
 -10  -1   3  163.38    8.00   1
  10   1   3  164.68    8.00   1
 -10  -1   3  178.28    8.70   1
  10   1   3  179.48    8.50   1
  11  -1   3  639.74   21.70   1
 -11   1   3  584.34   22.40   1
 -11  -1  -3  643.24   21.30   1
 -11   1   3  643.94   21.20   1
 -11   1   3  649.83   21.60   1
  11  -1   3  633.84   22.10   1
 -11  -1   3  655.33   21.80   1
  11   1   3  616.44   21.20   1
 -11  -1   3  627.84   21.20   1
 -11  -1   3  624.64   22.60   1
 -11   1  -3  635.44   21.30   1
 -12  -1  -3  193.68    9.30   1
 -12   1   3  188.18    9.30   1
 -12   1   3  205.28   11.10   1
  12  -1   3  210.98   10.20   1
 -12   1   3  201.78    9.70   1
 -12  -1   3  196.78    9.60   1
 -12  -1   3  198.88    9.80   1
 -12   1  -3  199.18    9.60   1
  12   1   3  192.68    9.50   1
 -12  -1   3  197.88   11.10   1
 -13  -1  -3  294.07   12.30   1
  13  -1   3  296.57   13.00   1
 -13   1   3  289.87   14.10   1
  13   1   3  286.47   12.60   1
 -13  -1   3  281.37   14.00   1
 -13   1  -3  305.37   12.60   1
 -13  -1   3  274.87   12.20   1
  14  -1   3   84.19    7.30   1
 -14   1   3   84.19    8.70   1
 -14  -1   3   72.19    8.30   1
  14   1   3   88.09    7.30   1
 -15   1   3    6.80    6.10   1
 -15  -1   3    2.10    5.90   1
 -16   1   3   53.89    8.10   1
 -16  -1   3   49.90    8.00   1
   0   2   3  102.39    3.90   1
   0   2   3  103.79    4.20   1
   0  -2   3  101.99    4.20   1
   0   2   3  107.99    4.90   1
   0   2  -3  111.09    5.10   1
   0  -2   3  112.39    4.40   1
   0  -2   3  107.89    4.20   1
   0  -2   3  108.49    4.90   1
   1  -2   3  794.82   24.40   1
   1  -2   3  822.02   24.10   1
  -1   2   3  805.02   24.20   1
  -1   2   3  790.22   23.90   1
  -1   2   3  811.42   24.90   1
   1  -2   3  806.12   24.80   1
  -1  -2  -3  828.12   24.10   1
   1  -2   3  792.82   23.90   1
   1   2  -3  805.52   25.00   1
   1   2   3  805.32   24.30   1
  -1  -2   3  813.72   24.10   1
  -1  -2   3  791.32   24.00   1
  -1  -2   3  834.72   24.20   1
   1   2   3  794.72   23.60   1
  -1  -2   3  805.42   24.90   1
  -1   2  -3  827.22   24.80   1
  -1  -2   3  827.32   24.10   1
   1   2   3  786.52   24.00   1
   2  -2   3 2170.38   63.29   1
  -2   2   3 2136.59   61.89   1
   2  -2   3 2109.29   62.99   1
  -2  -2  -3 2162.08   62.29   1
  -2   2   3 2212.98   62.79   1
  -2   2   3 2186.68   63.59   1
  -2   2   3 2147.79   62.39   1
   2  -2   3 2208.88   62.59   1
   2   2  -3 2184.18   63.59   1
   2   2   3 2193.68   61.89   1
  -2   2  -3 2144.69   63.19   1
  -2  -2   3 2230.18   62.59   1
  -2  -2   3 1946.61   62.29   1
   2   2   3 2232.78   62.29   1
  -2  -2   3 2151.08   62.69   1
  -2  -2   3 2159.68   62.29   1
  -2  -2   3 2124.09   63.39   1
  -2  -2   3 2121.49   62.49   1
   2   2   3 2171.18   62.49   1
   3  -2   3  190.98    7.50   1
  -3   2   3  195.58    6.90   1
  -3  -2  -3  194.08    6.40   1
   3  -2   3  206.68    7.70   1
  -3   2   3  206.38    8.10   1
   3   2  -3  204.48    8.20   1
  -3   2   3  188.18    6.40   1
   3  -2   3  190.38    6.90   1
  -3  -2  -3  198.48    6.50   1
  -3   2   3  189.18    7.20   1
  -3  -2   3  195.68    7.90   1
  -3  -2   3  195.08    6.40   1
   3   2   3  203.08    6.20   1
   3   2   3  196.68    6.50   1
  -3   2  -3  203.98    7.70   1
  -3  -2   3  199.58    7.00   1
  -3  -2   3  200.28    7.20   1
  -3  -2   3  185.78    7.20   1
   3   2   3  198.58    6.90   1
   4   2  -3 2180.18   65.39   1
  -4   2   3 2274.27   64.19   1
   4  -2   3 2249.38   64.99   1
  -4   2   3 2198.18   65.49   1
  -4  -2  -3 2228.68   63.79   1
  -4   2   3 2239.08   64.49   1
   4  -2   3 2172.58   64.79   1
   4  -2   3 2146.59   64.09   1
  -4  -2  -3 2197.88   63.59   1
  -4  -2  -3 2288.07   63.49   1
  -4   2   3 2118.69   63.69   1
  -4  -2   3 2248.77   64.59   1
  -4  -2   3 2187.38   64.39   1
   4   2   3 2164.58   63.29   1
   4   2   3 2320.77   64.09   1
  -4  -2   3 2150.98   65.09   1
   4   2   3 2230.88   63.49   1
  -4   2  -3 2319.67   63.49   1
  -4  -2   3 2000.40   64.19   1
   5  -2   3  408.56   14.30   1
  -5   2   3  413.96   13.40   1
  -5   2   3  415.56   13.10   1
  -5   2   3  448.76   15.10   1
   5  -2   3  400.06   14.20   1
  -5  -2  -3  415.26   12.80   1
  -5  -2  -3  425.86   13.20   1
   5  -2   3  390.36   13.50   1
  -5  -2  -3  423.76   12.70   1
  -5   2   3  395.16   13.80   1
  -5   2  -3  430.96   13.00   1
  -5  -2   3  427.36   14.00   1
   5   2   3  403.06   13.30   1
   5   2   3  411.36   12.70   1
  -5  -2   3  431.46   13.90   1
  -5  -2   3  418.46   13.90   1
  -5   2  -3  420.86   14.20   1
   5   2   3  437.66   14.30   1
  -6  -2  -3   28.80    2.00   1
   6  -2   3   34.10    3.80   1
  -6   2   3   29.20    2.60   1
  -6  -2  -3   27.30    2.60   1
  -6   2   3   27.70    3.10   1
  -6   2   3   28.60    3.00   1
  -6   2   3   26.70    2.60   1
   6  -2   3   28.90    2.80   1
   6  -2   3   22.70    3.20   1
  -6   2  -3   30.00    2.50   1
  -6  -2   3   26.60    3.00   1
  -6  -2   3   23.40    3.00   1
   6   2   3   40.40    3.80   1
  -6  -2   3   35.40    2.80   1
   6   2   3   28.60    2.20   1
   6   2   3   28.90    2.80   1
  -6  -2   3   24.10    3.00   1
  -6   2  -3   33.20    3.50   1
  -7  -2  -3  374.66   12.30   1
  -7   2   3  380.16   13.20   1
   7  -2   3  361.56   13.30   1
   7  -2   3  360.26   12.60   1
  -7   2   3  351.06   12.70   1
   7   2   3  345.97   11.60   1
   7   2   3  357.76   12.60   1
  -7  -2   3  364.16   12.60   1
  -7  -2   3  349.07   12.80   1
   7   2   3  385.86   13.10   1
  -7  -2   3  382.36   13.30   1
  -7  -2   3  333.17   12.90   1
  -7   2  -3  367.66   12.00   1
  -8   2   3 1098.39   33.10   1
   8  -2   3 1058.89   33.60   1
  -8  -2  -3 1125.49   32.70   1
   8  -2   3 1024.40   32.80   1
  -8   2   3 1062.39   33.50   1
   8   2   3 1000.20   31.90   1
  -8  -2   3 1055.69   33.50   1
  -8  -2   3 1089.79   33.30   1
  -8  -2   3 1059.39   32.90   1
  -8  -2   3 1089.59   33.60   1
   8   2   3 1081.49   33.30   1
  -8   2  -3 1072.09   32.40   1
  -9   2   3   73.69    5.90   1
   9  -2   3   74.49    5.50   1
  -9   2   3   68.49    5.40   1
  -9  -2  -3   69.89    5.00   1
   9  -2   3   81.69    5.80   1
   9   2   3   63.99    4.40   1
  -9  -2   3   71.59    5.10   1
   9   2   3   69.39    5.40   1
  -9  -2   3   64.69    5.60   1
  -9  -2   3   67.79    5.20   1
  -9  -2   3   71.69    5.90   1
  -9   2  -3   67.29    4.70   1
  10  -2   3  936.71   30.70   1
 -10   2   3  997.40   30.70   1
 -10  -2  -3  958.70   30.40   1
 -10   2   3  968.90   30.20   1
  10  -2   3  998.00   31.50   1
 -10   2   3  966.10   31.60   1
 -10  -2   3  910.81   31.40   1
 -10  -2   3  963.00   31.20   1
  10   2   3  951.50   30.80   1
 -10  -2   3  979.50   30.90   1
  10   2   3  951.90   29.90   1
 -10  -2   3  955.10   30.50   1
 -10   2  -3 1002.80   30.40   1
 -11   2   3  135.59    7.10   1
  11  -2   3  127.69    8.50   1
 -11   2   3  142.29    7.60   1
 -11  -2  -3  138.79    7.30   1
 -11   2   3  142.29    8.80   1
  11  -2   3  125.19    7.90   1
  11   2   3  145.29    7.40   1
 -11  -2   3  122.79    7.90   1
 -11   2  -3  143.69    7.60   1
 -11  -2   3  138.29    7.80   1
 -11  -2   3  133.09    8.60   1
 -12   2   3   -0.50    3.50   1
 -12   2   3   -2.20    4.20   1
  12  -2   3   -0.10    3.70   1
 -12  -2  -3    4.80    3.70   1
  12  -2   3   -1.20    3.80   1
 -12   2   3    1.40    3.30   1
  12   2   3   -0.40    3.10   1
 -12  -2   3    1.20    4.10   1
 -12  -2   3    5.10    3.70   1
 -12  -2   3   -2.80    3.50   1
 -12   2  -3    2.90    3.40   1
 -13  -2  -3  117.99    8.00   1
 -13   2   3  132.59    9.50   1
  13  -2   3  139.59    9.00   1
 -13  -2   3  128.69    8.30   1
  13   2   3  115.99    8.00   1
 -13  -2   3  125.69    7.60   1
 -13  -2   3  119.79    9.50   1
 -13   2  -3  126.69    8.10   1
 -14   2   3  357.16   16.80   1
  14  -2   3  389.56   16.10   1
 -14  -2   3  352.96   17.20   1
  14   2   3  378.86   15.20   1
 -15   2   3   10.70    6.30   1
 -15  -2   3   27.30    6.90   1
 -16   2   3  311.37   15.60   1
 -16  -2   3  298.17   15.60   1
   0  -3   3    8.60    1.50   1
   0   3  -3   10.30    2.20   1
   0  -3   3    8.20    1.50   1
   0   3   3    7.90    1.70   1
   0  -3   3    9.50    2.10   1
   0  -3   3   16.30    1.80   1
   0   3   3    8.10    1.10   1
   0   3   3   10.00    1.60   1
   0  -3   3    9.30    1.40   1
   1  -3   3  397.26   11.80   1
   1  -3   3  380.76   13.00   1
  -1   3   3  375.86   12.30   1
   1  -3   3  385.16   12.00   1
   1   3  -3  377.06   13.00   1
   1  -3   3  388.96   12.20   1
  -1   3   3  385.66   12.80   1
   1  -3   3  366.76   12.40   1
  -1   3   3  375.96   11.90   1
  -1  -3   3  397.06   12.20   1
   1   3   3  374.46   12.20   1
   1   3   3  380.36   11.50   1
  -1  -3   3  401.06   12.10   1
  -1  -3   3  398.76   13.00   1
   1   3   3  367.76   12.00   1
  -1   3  -3  375.46   12.90   1
  -1  -3   3  393.56   12.10   1
  -1  -3   3  387.36   12.00   1
  -1  -3   3  381.26   11.70   1
  -1  -3   3  374.06   12.30   1
  -2  -3  -3  273.27    8.90   1
   2  -3   3  272.67    9.20   1
  -2   3   3  291.67    8.20   1
   2  -3   3  280.97    8.80   1
   2  -3   3  264.97    9.60   1
  -2   3   3  266.67    9.00   1
   2  -3   3  283.27   10.10   1
  -2  -3  -3  285.27    8.70   1
  -2   3   3  284.07   10.20   1
   2   3  -3  273.27   10.20   1
  -2   3   3  273.17    9.40   1
  -2  -3   3  286.47    8.90   1
  -2  -3   3  271.07    9.00   1
  -2  -3   3  280.17    9.40   1
  -2   3  -3  277.27   10.00   1
  -2  -3   3  288.97    9.30   1
   2   3   3  274.07    9.00   1
  -2  -3   3  281.27   10.10   1
   2   3   3  276.67    9.00   1
  -2  -3   3  282.37    9.40   1
   2   3   3  267.27    8.20   1
  -3   3   3  601.44   19.90   1
  -3   3   3  600.74   18.60   1
   3  -3   3  601.54   19.20   1
  -3  -3  -3  625.84   18.20   1
  -3  -3  -3  630.54   18.40   1
   3  -3   3  603.24   18.70   1
  -3   3   3  609.94   17.70   1
  -3   3   3  593.24   18.90   1
   3  -3   3  591.74   19.50   1
   3   3  -3  592.04   19.70   1
   3   3   3  605.94   18.30   1
  -3  -3   3  564.04   18.70   1
  -3  -3   3  640.24   19.70   1
  -3  -3   3  623.34   18.10   1
  -3  -3   3  610.34   19.10   1
  -3   3  -3  616.94   19.60   1
  -3  -3   3  602.14   18.90   1
  -3  -3   3  601.34   18.70   1
  -4  -3  -3  184.28    6.30   1
  -4   3   3  184.38    8.10   1
   4   3  -3  172.68    7.80   1
   4  -3   3  184.18    7.40   1
   4  -3   3  168.48    6.70   1
   4  -3   3  180.08    7.70   1
  -4   3   3  179.48    5.70   1
  -4   3   3  176.88    6.90   1
  -4   3   3  180.58    6.70   1
  -4  -3  -3  176.88    6.30   1
   4   3   3  183.08    6.20   1
  -4  -3   3  178.78    6.90   1
   4   3   3  181.38    5.30   1
  -4  -3   3  166.98    7.00   1
  -4  -3   3  185.28    7.10   1
  -4   3  -3  184.88    7.60   1
   4   3   3  181.98    5.30   1
  -4  -3   3  183.78    6.90   1
   5   3  -3  250.77   10.30   1
  -5   3   3  257.97    9.10   1
   5  -3   3  256.57   10.10   1
   5  -3   3  254.27    9.70   1
  -5   3   3  267.07    9.50   1
  -5  -3  -3  259.77    8.90   1
  -5  -3  -3  268.17    8.60   1
   5  -3   3  260.67    9.30   1
  -5   3   3  265.47   10.70   1
  -5   3  -3  273.67    8.50   1
  -5  -3   3  257.37    9.40   1
   5   3   3  257.77    7.80   1
  -5  -3   3  255.97    9.60   1
   5   3   3  253.87    7.80   1
   5   3   3  265.47    8.70   1
  -5  -3   3  256.97    9.60   1
   5  -3  -3  252.07    8.00   1
  -5  -3   3  246.18    9.20   1
  -6   3   3    4.00    2.10   1
  -6  -3  -3    5.90    1.80   1
  -6  -3  -3    4.10    1.40   1
   6  -3   3    4.30    2.00   1
   6  -3   3    2.40    2.40   1
  -6   3   3    1.70    1.60   1
  -6   3  -3    1.10    1.80   1
  -6   3  -3    1.90    1.40   1
  -6  -3   3    1.50    2.10   1
   6   3   3    3.80    1.00   1
  -6  -3   3    3.40    2.10   1
  -6  -3   3    0.30    2.20   1
   6   3   3    2.60    1.60   1
   6   3   3    1.30    2.20   1
  -6  -3   3   -0.80    1.90   1
  -7   3   3  232.98    9.50   1
   7  -3   3  227.58    9.20   1
  -7   3   3  241.68    9.30   1
  -7  -3  -3  239.28    8.80   1
  -7  -3  -3  270.27    9.00   1
   7  -3   3  243.38   10.00   1
   7   3   3  247.88    9.50   1
  -7   3  -3  235.68    8.50   1
  -7  -3   3  246.68    9.30   1
  -7  -3   3  240.98   10.00   1
   7   3   3  226.78    7.90   1
  -7  -3   3  214.38    9.40   1
  -7  -3   3  226.98    9.40   1
  -8   3   3   98.89    6.10   1
  -8   3   3   99.29    5.60   1
  -8  -3  -3   94.59    5.30   1
   8  -3   3  103.89    6.00   1
   8  -3   3   92.49    6.20   1
   8   3   3   92.49    5.60   1
  -8  -3   3   96.49    5.80   1
  -8  -3   3  101.89    5.60   1
  -8   3  -3   94.19    5.00   1
  -8  -3   3   91.69    6.10   1
   8   3   3   91.49    4.40   1
  -8  -3   3   94.99    6.10   1
   9  -3   3  260.67   11.30   1
  -9   3   3  256.27   11.10   1
   9  -3   3  259.77   10.80   1
  -9   3   3  259.97   10.50   1
  -9  -3  -3  272.57   10.20   1
  -9  -3   3  272.17   11.20   1
  -9  -3   3  255.47   10.40   1
  -9  -3   3  260.67   11.20   1
   9   3   3  263.37   10.60   1
   9   3   3  240.08    9.30   1
  -9  -3   3  265.47   10.80   1
  -9   3  -3  259.47    9.90   1
 -10  -3  -3   47.10    4.60   1
 -10   3   3   45.50    5.40   1
  10  -3   3   56.79    5.70   1
  10  -3   3   53.39    5.20   1
 -10   3   3   41.70    4.60   1
 -10  -3   3   44.90    4.90   1
  10   3   3   45.00    3.90   1
 -10  -3   3   51.29    4.80   1
 -10   3  -3   48.10    4.50   1
 -10  -3   3   46.80    5.50   1
  10   3   3   53.69    5.00   1
 -10  -3   3   60.09    5.60   1
 -11   3   3   99.99    6.00   1
  11  -3   3   95.39    7.20   1
  11  -3   3  101.39    7.90   1
 -11  -3  -3   97.19    6.30   1
 -11   3   3   87.79    6.70   1
 -11   3   3   95.09    7.60   1
 -11   3  -3   94.59    6.40   1
 -11  -3   3  100.59    7.10   1
  11   3   3   98.19    6.10   1
 -11  -3   3   96.79    7.70   1
 -11  -3   3  102.69    6.70   1
 -11  -3   3  101.39    7.70   1
 -12   3   3    2.20    4.40   1
  12  -3   3    5.20    4.00   1
 -12   3   3    5.40    3.60   1
 -12  -3  -3    2.70    3.70   1
  12  -3   3   -2.20    3.70   1
 -12   3   3   -0.20    3.20   1
  12   3   3    3.90    3.10   1
 -12   3  -3    1.30    3.10   1
 -12  -3   3   -1.20    3.40   1
 -12  -3   3    3.00    3.50   1
 -12  -3   3    2.80    4.40   1
 -13   3   3   78.99    7.80   1
  13  -3   3   69.89    7.00   1
 -13  -3  -3   68.69    6.30   1
 -13  -3   3   79.49    7.90   1
 -13  -3   3   78.89    6.50   1
  13   3   3   82.59    6.70   1
 -13  -3   3   76.89    6.70   1
 -14  -3  -3   25.10    6.00   1
 -14   3   3   17.60    6.20   1
  14   3   3   27.00    4.80   1
 -14  -3   3   17.70    6.20   1
 -15   3   3  108.49   10.10   1
 -15  -3   3   93.79    9.40   1
 -16   3   3   20.50    7.30   1
 -16  -3   3   20.90    6.90   1
   0  -4   3  129.79    4.50   1
   0   4   3  128.99    5.30   1
   0   4   3  132.69    5.60   1
   0  -4   3  135.79    5.30   1
   0  -4   3  132.69    6.00   1
   0  -4   3  133.89    5.30   1
   0  -4   3  136.39    5.10   1
   0  -4   3  136.69    5.00   1
   0   4   3  131.59    4.70   1
   0   4   3  126.49    4.60   1
   0   4  -3  148.69    6.10   1
   1   4  -3  466.85   15.30   1
  -1   4   3  439.26   14.00   1
  -1   4   3  457.45   14.60   1
  -1  -4  -3  448.46   14.20   1
   1  -4   3  444.66   14.60   1
   1  -4   3  471.55   14.00   1
  -1   4   3  441.06   15.00   1
   1  -4   3  462.75   15.30   1
   1  -4   3  470.25   14.40   1
   1  -4   3  458.55   14.20   1
  -1   4   3  463.25   13.50   1
  -1  -4   3  464.35   14.50   1
  -1  -4   3  474.45   14.20   1
   1   4   3  450.25   14.40   1
  -1  -4   3  466.85   13.90   1
   1   4   3  444.66   14.30   1
  -1  -4   3  437.66   14.50   1
  -1  -4   3  462.15   14.30   1
  -1   4  -3  449.56   15.20   1
  -1  -4   3  460.95   15.20   1
   2   4  -3 1670.33   49.10   1
   2  -4   3 1604.64   49.00   1
  -2   4   3 1650.93   49.10   1
  -2   4   3 1609.94   48.30   1
   2  -4   3 1660.83   47.50   1
  -2  -4  -3 1627.84   47.90   1
   2  -4   3 1587.14   48.10   1
  -2  -4  -3 1624.04   47.60   1
   2  -4   3 1634.34   48.50   1
  -2   4   3 1607.64   47.90   1
  -2  -4   3 1631.54   48.30   1
   2   4   3 1633.14   47.70   1
  -2  -4   3 1689.03   48.20   1
  -2   4  -3 1650.33   49.10   1
  -2  -4   3 1596.54   48.90   1
  -2  -4   3 1674.23   48.40   1
  -2  -4   3 1715.33   47.70   1
  -2  -4   3 1695.33   48.00   1
  -3  -4  -3  637.04   19.10   1
   3  -4   3  601.04   20.20   1
  -3   4   3  617.84   19.20   1
  -3   4   3  641.24   20.50   1
  -3   4   3  628.04   19.60   1
   3   4  -3  595.84   20.20   1
   3  -4   3  647.64   19.40   1
  -3  -4  -3  639.14   18.90   1
   3  -4   3  645.14   19.90   1
   3   4   3  616.94   18.60   1
  -3  -4   3  621.64   18.50   1
  -3  -4   3  605.34   19.50   1
  -3   4  -3  634.84   20.30   1
  -3  -4   3  625.64   19.40   1
  -3  -4   3  585.44   19.30   1
  -3  -4   3  639.14   19.70   1
   4  -4   3  999.00   32.50   1
  -4   4   3 1041.20   31.50   1
  -4  -4  -3 1057.19   31.30   1
  -4  -4  -3 1043.20   31.20   1
   4  -4   3 1086.09   32.30   1
   4   4  -3 1059.19   32.70   1
  -4   4   3 1027.20   31.80   1
   4  -4   3 1021.80   31.70   1
  -4   4   3 1117.79   33.20   1
  -4  -4   3 1012.60   31.70   1
   4   4   3 1055.69   30.80   1
  -4   4  -3 1072.79   32.70   1
  -4  -4   3 1055.59   32.00   1
  -4  -4   3 1083.89   32.10   1
  -4  -4   3 1045.20   31.70   1
   5   4  -3  366.26   13.50   1
   5  -4   3  385.96   12.60   1
   5  -4   3  360.86   13.40   1
  -5   4   3  377.36   12.60   1
  -5   4   3  361.46   13.80   1
  -5  -4  -3  353.26   11.80   1
  -5  -4  -3  371.56   12.10   1
  -5   4   3  363.86   12.20   1
   5  -4   3  358.66   13.00   1
  -5  -4   3  371.96   12.50   1
   5   4   3  357.36   11.40   1
  -5   4  -3  362.16   13.40   1
  -5  -4   3  374.46   12.90   1
  -5  -4   3  370.66   12.60   1
  -5  -4   3  350.16   12.70   1
  -6   4   3   52.89    3.90   1
  -6  -4  -3   58.79    3.80   1
  -6   4   3   54.09    5.90   1
  -6  -4  -3   46.70    3.10   1
  -6   4   3   52.09    3.50   1
   6  -4   3   43.40    4.30   1
   6  -4   3   53.89    4.00   1
  -6  -4   3   52.39    4.00   1
   6   4   3   47.30    3.00   1
  -6  -4   3   48.30    4.10   1
   6   4   3   46.60    2.00   1
  -6  -4   3   57.89    4.30   1
  -6   4  -3   52.79    4.60   1
  -6  -4   3   52.89    4.50   1
   6   4   3   49.40    2.00   1
  -6   4  -3   49.90    3.00   1
   7  -4   3  228.68    9.10   1
   7  -4   3  221.08    9.60   1
  -7  -4  -3  238.58    8.80   1
  -7   4   3  236.58    9.00   1
  -7  -4  -3  221.68    7.90   1
   7   4   3  222.08    9.00   1
   7   4   3  206.48    7.10   1
  -7   4  -3  212.18    8.00   1
  -7  -4   3  218.98    9.50   1
  -7  -4   3  210.58    9.10   1
  -7  -4   3  210.78    8.80   1
  -7  -4   3  229.18    9.10   1
  -8  -4  -3  755.72   23.50   1
   8  -4   3  742.83   23.90   1
  -8   4   3  751.42   24.10   1
   8  -4   3  688.03   24.40   1
  -8   4   3  758.02   23.80   1
   8   4   3  756.62   23.80   1
  -8  -4   3  771.82   24.20   1
   8   4   3  740.83   22.10   1
  -8  -4   3  697.43   23.90   1
  -8   4  -3  686.23   22.90   1
  -8  -4   3  727.83   23.70   1
  -8  -4   3  745.63   24.50   1
  -9   4   3  280.37   10.90   1
  -9  -4  -3  264.67   10.60   1
   9  -4   3  273.87   11.40   1
  -9   4   3  275.77   11.60   1
   9  -4   3  292.97   12.30   1
  -9  -4   3  264.77   11.50   1
  -9  -4   3  265.07   11.20   1
   9   4   3  269.87    9.50   1
  -9  -4   3  280.27   11.70   1
  -9  -4   3  264.77   11.10   1
   9   4   3  278.87   10.90   1
  -9   4  -3  273.07   10.30   1
  10  -4   3  358.46   14.40   1
 -10  -4  -3  364.16   13.20   1
  10  -4   3  346.47   13.80   1
 -10   4   3  369.96   13.50   1
 -10   4   3  326.57   13.90   1
  10   4   3  345.27   12.00   1
 -10  -4   3  341.77   13.40   1
 -10  -4   3  339.87   13.50   1
 -10  -4   3  338.87   14.10   1
 -10   4  -3  331.47   12.60   1
 -10  -4   3  333.87   14.10   1
  11  -4   3  121.89    8.70   1
  11  -4   3  130.39    8.20   1
 -11   4   3  117.19    8.30   1
 -11   4   3  131.09    7.20   1
 -11  -4  -3  127.99    7.30   1
 -11  -4   3  125.49    7.80   1
 -11  -4   3  128.39    8.50   1
 -11  -4   3  120.09    7.50   1
 -11  -4   3  122.09    8.10   1
  11   4   3  114.99    6.40   1
 -11   4  -3  112.49    6.70   1
 -12   4   3   10.90    3.70   1
  12  -4   3    6.50    4.90   1
 -12  -4  -3    3.30    3.50   1
 -12   4   3    6.90    3.70   1
  12  -4   3    7.50    4.20   1
 -12   4   3   12.00    5.00   1
 -12   4  -3    8.80    3.70   1
 -12  -4   3    0.60    4.40   1
  12   4   3   12.10    3.20   1
 -12  -4   3   11.60    4.40   1
 -12  -4   3    9.60    4.20   1
 -12  -4   3   12.20    3.90   1
 -13   4   3   56.89    7.20   1
 -13  -4  -3   67.19    6.60   1
  13  -4   3   56.19    6.50   1
 -13  -4   3   63.29    6.30   1
 -13  -4   3   61.19    6.10   1
 -13  -4   3   64.09    7.50   1
  13   4   3   67.19    5.60   1
 -14  -4  -3  202.68   10.60   1
 -14   4   3  190.68   12.00   1
 -14  -4   3  195.38   12.80   1
 -14  -4   3  211.18   12.50   1
 -15   4   3  101.89   10.00   1
 -15  -4   3   89.19    9.40   1
   0   5   3    7.00    1.20   1
   0   5  -3   -1.10    1.80   1
   0  -5   3    0.50    1.40   1
   0  -5   3    0.20    1.20   1
   0  -5   3    0.70    1.40   1
   0   5   3    2.40    1.60   1
   0  -5   3    1.30    1.50   1
   0   5   3   -0.40    1.40   1
   0  -5   3   -0.20    0.80   1
   0  -5   3    0.40    1.20   1
   1  -5   3 3148.89   90.99   1
  -1   5   3 3078.19   90.59   1
   1  -5   3 2988.10   91.99   1
  -1  -5  -3 3125.99   90.99   1
   1   5  -3 3092.29   91.99   1
  -1   5   3 3070.59   91.69   1
  -1   5   3 3205.68   89.89   1
  -1   5   3 3241.98   91.39   1
   1  -5   3 3100.49   91.29   1
   1  -5   3 3105.69   90.69   1
  -1  -5   3 3275.17   91.09   1
  -1  -5   3 3184.48   91.39   1
  -1  -5   3 3091.99   91.89   1
  -1   5  -3 3222.98   92.19   1
   1   5   3 3168.08   90.99   1
  -1  -5   3 3167.18   91.29   1
  -1  -5   3 3283.17   90.89   1
  -1  -5   3 3176.88   90.59   1
   2  -5   3    2.20    1.60   1
  -2  -5  -3    2.40    1.20   1
  -2  -5  -3   12.40    1.80   1
   2  -5   3    2.70    1.60   1
  -2   5   3   -0.90    1.40   1
   2   5  -3    1.60    2.00   1
   2  -5   3   -0.20    0.90   1
   2  -5   3   -0.10    1.30   1
  -2  -5   3    1.30    1.00   1
   2   5   3    1.00    1.00   1
  -2  -5   3    0.90    1.30   1
  -2  -5   3    1.40    1.40   1
  -2  -5   3    0.60    1.60   1
  -2  -5   3   -0.80    1.30   1
  -2   5  -3    2.80    2.10   1
  -3   5   3  485.15   15.90   1
   3  -5   3  540.15   17.40   1
   3   5  -3  523.65   17.20   1
   3  -5   3  483.95   16.50   1
  -3   5   3  506.85   16.40   1
   3  -5   3  505.95   16.20   1
  -3  -5  -3  497.95   15.70   1
  -3  -5  -3  509.15   16.00   1
   3   5   3  502.25   15.10   1
  -3  -5   3  526.65   16.60   1
  -3  -5   3  476.55   16.10   1
  -3  -5   3  490.15   16.20   1
  -3  -5   3  516.95   16.50   1
  -3  -5   3  510.05   15.20   1
  -3   5  -3  526.75   17.40   1
   4  -5   3    2.70    1.80   1
   4  -5   3    2.20    2.30   1
   4   5  -3    1.00    2.10   1
  -4  -5  -3    1.20    1.60   1
  -4  -5  -3    1.50    1.30   1
   4  -5   3    3.20    2.00   1
  -4   5   3    2.40    1.60   1
  -4   5   3    1.20    1.40   1
  -4  -5   3    2.80    1.80   1
   4   5   3    2.80    0.80   1
  -4   5  -3    5.00    2.60   1
  -4  -5   3    0.10    1.90   1
  -4  -5   3    0.40    1.70   1
  -4  -5   3    1.70    2.00   1
   5  -5   3 1879.51   56.99   1
  -5   5   3 1881.61   56.49   1
   5   5  -3 1952.10   57.29   1
  -5  -5  -3 1943.81   56.09   1
  -5   5   3 1934.61   56.19   1
  -5  -5  -3 1910.81   55.89   1
   5  -5   3 1873.31   56.39   1
   5  -5   3 1882.11   57.59   1
  -5  -5   3 1949.70   56.59   1
  -5  -5   3 1928.31   56.49   1
   5   5   3 1962.30   54.99   1
  -5  -5   3 1779.22   56.59   1
  -5  -5   3 1914.21   56.89   1
  -5   5  -3 1906.81   57.69   1
   6   5  -3    0.20    2.40   1
  -6  -5  -3    1.00    1.70   1
   6  -5   3    3.10    2.60   1
  -6   5   3    3.80    1.90   1
  -6  -5  -3    2.50    1.70   1
   6  -5   3    2.30    2.10   1
  -6   5   3    5.50    2.30   1
  -6  -5   3    1.30    2.40   1
  -6  -5   3    3.30    2.20   1
  -6   5  -3    4.50    2.80   1
  -6  -5   3    4.70    2.40   1
  -6  -5   3    5.00    2.40   1
   7  -5   3 2172.88   64.69   1
   7  -5   3 2115.89   65.29   1
  -7  -5  -3 2186.58   64.19   1
  -7  -5  -3 2136.49   63.69   1
  -7   5   3 2245.48   64.49   1
   7   5   3 2155.58   64.49   1
  -7  -5   3 2079.59   64.39   1
  -7  -5   3 2076.79   64.69   1
   7   5   3 2124.79   62.29   1
  -7  -5   3 2224.58   64.89   1
  -7   5  -3 2191.08   63.59   1
  -7  -5   3 2169.28   65.29   1
   7   5   3 2385.66   62.59   1
  -8  -5  -3    1.20    1.80   1
  -8   5   3    0.90    2.50   1
  -8  -5  -3    2.20    2.50   1
   8  -5   3   -0.20    3.00   1
   8  -5   3    5.70    3.00   1
  -8  -5   3    0.20    2.60   1
   8   5   3    4.50    2.60   1
   8   5   3    2.20    1.20   1
  -8  -5   3    1.80    2.80   1
  -8  -5   3   -2.10    2.40   1
  -8  -5   3    0.00    2.70   1
  -8   5  -3   -0.10    2.00   1
  -9  -5  -3   86.09    6.00   1
  -9   5   3   89.49    6.00   1
   9  -5   3   84.59    6.80   1
  -9   5   3   97.59    6.60   1
   9  -5   3   84.19    6.60   1
  -9  -5   3   83.89    6.50   1
  -9   5  -3   82.89    5.30   1
   9   5   3   87.59    4.30   1
   9   5   3   90.79    5.80   1
  -9  -5   3   86.59    6.20   1
  -9  -5   3   79.29    6.20   1
  -9  -5   3   87.39    6.60   1
  10  -5   3    0.10    3.50   1
  10  -5   3    2.40    4.00   1
 -10  -5  -3   -0.90    2.80   1
 -10   5   3    4.70    3.60   1
 -10   5   3    0.10    2.80   1
 -10  -5   3    3.20    3.30   1
 -10  -5   3    5.90    3.50   1
  10   5   3    1.60    2.00   1
 -10   5  -3    3.50    2.60   1
 -10  -5   3    1.30    3.20   1
 -10  -5   3    1.10    3.50   1
  11  -5   3  847.62   28.00   1
 -11   5   3  790.02   26.10   1
 -11  -5  -3  821.42   26.40   1
  11  -5   3  837.82   27.30   1
 -11   5   3  758.72   27.30   1
 -11  -5   3  795.52   26.40   1
 -11  -5   3  787.72   26.70   1
  11   5   3  810.62   25.10   1
 -11   5  -3  792.62   26.00   1
 -11  -5   3  759.82   27.30   1
 -11  -5   3  767.72   27.40   1
  12  -5   3    4.50    4.30   1
  12  -5   3    8.60    4.60   1
 -12   5   3    5.80    4.50   1
 -12   5   3    5.30    3.60   1
 -12  -5  -3   10.30    3.90   1
 -12  -5   3   -0.70    3.60   1
 -12  -5   3    4.10    4.00   1
  12   5   3    1.50    2.80   1
 -12  -5   3    4.40    3.80   1
 -12  -5   3    5.90    4.70   1
 -12   5  -3    8.90    3.80   1
 -13   5   3  744.73   28.00   1
 -13  -5  -3  809.82   26.60   1
  13  -5   3  781.82   27.50   1
 -13  -5   3  780.02   26.40   1
  13   5   3  796.62   25.50   1
 -13  -5   3  767.12   27.90   1
 -14  -5  -3   -1.20    4.10   1
 -14   5   3    0.70    5.40   1
 -14  -5   3   -7.80    5.20   1
 -14  -5   3   -3.90    4.00   1
 -15   5   3    6.90    6.10   1
 -15  -5   3    2.70    6.50   1
   0   6  -3  566.24   18.80   1
   0  -6   3  510.85   18.70   1
   0  -6   3  563.54   17.20   1
   0  -6   3  570.24   17.70   1
   0  -6   3  592.54   18.10   1
   0   6   3  582.24   17.10   1
   0  -6   3  580.54   17.90   1
   0  -6  -3  576.44   17.80   1
   1  -6   3  276.37    9.20   1
   1  -6   3  264.97   10.50   1
  -1  -6  -3  267.87    9.50   1
   1  -6   3  279.87    9.50   1
   1  -6   3  275.57    9.80   1
  -1   6   3  269.77    8.10   1
   1   6  -3  280.97   10.50   1
  -1   6   3  287.97   10.00   1
   1   6   3  280.77    9.50   1
  -1  -6   3  276.77    9.10   1
  -1  -6   3  294.97   10.00   1
  -1  -6   3  282.17    9.40   1
  -1   6  -3  286.47   10.70   1
  -1  -6   3  272.57    9.80   1
  -1  -6   3  276.57    9.60   1
  -2   6   3  892.71   26.80   1
  -2  -6  -3  894.91   26.80   1
   2  -6   3  908.11   27.20   1
  -2  -6  -3  896.61   27.20   1
   2  -6   3  926.11   28.40   1
   2  -6   3  943.51   26.60   1
  -2   6   3  891.71   27.50   1
   2   6  -3  895.51   28.10   1
   2  -6   3  866.81   27.50   1
  -2  -6   3  898.81   27.60   1
  -2  -6   3  865.91   26.90   1
   2   6   3  907.31   26.50   1
  -2   6  -3  888.41   28.40   1
  -2  -6   3  888.61   26.70   1
  -2  -6   3  881.51   27.30   1
  -2  -6   3  878.31   27.40   1
  -3   6   3  520.95   17.20   1
   3   6  -3  544.05   17.80   1
   3  -6   3  506.75   16.80   1
  -3   6   3  520.75   16.60   1
   3  -6   3  523.25   15.70   1
   3  -6   3  525.85   18.00   1
  -3  -6  -3  536.05   16.60   1
  -3  -6  -3  518.75   16.70   1
   3  -6   3  517.65   17.40   1
  -3  -6   3  533.25   17.30   1
  -3  -6   3  534.25   15.90   1
   3   6   3  510.25   15.60   1
  -3  -6   3  521.45   17.00   1
  -3   6  -3  523.05   18.20   1
  -3  -6   3  552.34   16.90   1
  -3  -6   3  522.05   17.30   1
   4  -6   3  458.65   16.10   1
   4  -6   3  445.66   14.70   1
  -4  -6  -3  461.25   14.40   1
  -4   6   3  427.86   14.80   1
  -4   6   3  431.86   14.40   1
   4  -6   3  420.86   15.20   1
  -4  -6  -3  450.05   14.50   1
   4   6  -3  445.86   15.50   1
  -4   6  -3  484.45   16.30   1
  -4  -6   3  438.66   14.80   1
  -4  -6   3  431.16   14.80   1
  -4  -6   3  432.96   15.10   1
   4   6   3  436.56   13.00   1
  -4  -6   3  433.46   15.10   1
   5   6  -3  214.78    8.90   1
  -5   6   3  192.78    7.80   1
  -5   6   3  202.18    8.20   1
  -5  -6  -3  209.08    7.80   1
  -5  -6  -3  209.28    7.80   1
   5  -6   3  209.38    8.20   1
   5  -6   3  198.98    8.80   1
  -5  -6   3  192.78    8.40   1
  -5  -6   3  183.68    8.50   1
  -5  -6   3  188.38    8.10   1
  -5   6  -3  193.18    9.40   1
  -5  -6   3  212.88    8.40   1
   6   6  -3  216.98   10.00   1
   6  -6   3  217.48    9.90   1
  -6  -6  -3  234.58    9.00   1
  -6  -6  -3  232.68    8.70   1
  -6   6   3  235.78    9.20   1
  -6   6   3  247.58    9.00   1
   6  -6   3  231.28    9.40   1
  -6  -6   3  227.88    9.90   1
  -6  -6   3  236.78    9.30   1
  -6  -6   3  236.78    9.70   1
  -6  -6   3  221.98    9.40   1
  -7   6   3  144.19    6.80   1
  -7   6   3  143.89    7.00   1
  -7  -6  -3  137.09    6.30   1
   7  -6   3  148.19    7.20   1
  -7  -6  -3  151.68    6.80   1
   7  -6   3  159.28    8.20   1
  -7  -6   3  155.98    7.60   1
  -7  -6   3  134.39    7.30   1
  -7  -6   3  153.08    8.00   1
  -7  -6   3  142.39    7.20   1
  -8  -6  -3  446.36   15.40   1
  -8   6   3  463.65   15.50   1
   8  -6   3  466.85   16.10   1
   8  -6   3  431.46   16.60   1
  -8  -6  -3  444.26   14.80   1
   8   6   3  434.16   15.40   1
   8   6   3  433.46   13.20   1
  -8  -6   3  417.26   15.80   1
  -8  -6   3  419.56   15.50   1
  -8  -6   3  420.36   15.90   1
  -8   6  -3  434.76   14.70   1
  -8  -6   3  434.76   16.40   1
  -9  -6  -3  229.18    9.60   1
   9  -6   3  211.48   10.20   1
  -9   6   3  238.18    9.90   1
   9  -6   3  225.58   11.30   1
  -9  -6   3  232.88   10.30   1
  -9  -6   3  222.58    9.90   1
   9   6   3  214.48    7.70   1
  -9  -6   3  220.98   10.70   1
  -9   6  -3  238.28    9.20   1
  -9  -6   3  224.48   10.40   1
   9   6   3  204.78    9.40   1
 -10   6   3  106.39    7.80   1
 -10  -6  -3  118.39    7.00   1
  10  -6   3  111.09    8.80   1
 -10   6   3  111.69    6.80   1
  10  -6   3  120.39    8.10   1
  10   6   3  118.89    5.40   1
 -10  -6   3  120.09    7.50   1
 -10  -6   3  114.39    7.20   1
 -10  -6   3  112.29    7.90   1
 -10   6  -3  130.69    6.80   1
 -10  -6   3  107.59    7.80   1
 -11  -6  -3   82.59    6.30   1
  11  -6   3   87.59    7.20   1
 -11   6   3   75.99    5.90   1
 -11   6   3   66.69    7.00   1
  11  -6   3   79.79    7.70   1
 -11  -6   3   58.49    6.10   1
 -11   6  -3   68.39    5.70   1
 -11  -6   3   61.09    6.50   1
 -11  -6   3   76.09    6.70   1
  11   6   3   79.49    5.10   1
 -11  -6   3   81.89    7.20   1
  12  -6   3   45.00    5.90   1
 -12   6   3   30.70    5.80   1
  12  -6   3   45.60    6.70   1
 -12  -6  -3   41.40    5.50   1
 -12  -6   3   41.40    6.10   1
  12   6   3   39.50    4.10   1
 -12  -6   3   46.70    5.80   1
  13  -6   3   55.69    7.30   1
 -13  -6  -3   44.60    5.80   1
 -13   6   3   32.00    6.40   1
 -13  -6   3   46.80    6.00   1
  13   6   3   49.40    4.80   1
 -13  -6   3   46.60    6.80   1
 -14   6   3   79.99    8.70   1
 -14  -6  -3   88.79    7.20   1
 -14  -6   3   90.69    7.50   1
 -14  -6   3   90.29    9.20   1
 -15   6   3   72.79    8.90   1
 -15  -6   3   79.09    9.00   1
   0   7   3    7.30    1.20   1
   0   7  -3   10.40    2.70   1
   0  -7   3    8.60    2.10   1
   0  -7  -3    9.20    2.00   1
   0  -7   3   11.20    1.60   1
   0  -7   3    2.90    1.60   1
   0  -7   3    3.60    1.70   1
  -1   7   3  673.13   21.90   1
  -1  -7  -3  694.43   21.60   1
   1  -7   3  689.03   21.80   1
   1  -7   3  675.93   21.20   1
   1   7  -3  688.73   22.50   1
   1  -7   3  719.83   21.80   1
  -1  -7   3  690.33   21.10   1
  -1   7  -3  703.33   22.70   1
  -1  -7   3  709.73   21.40   1
  -1  -7   3  691.43   21.80   1
  -1  -7   3  699.43   21.60   1
   2   7  -3  226.48    9.20   1
  -2   7   3  221.98    8.00   1
   2  -7   3  230.98    8.20   1
   2  -7   3  218.68    8.70   1
  -2   7   3  220.38    8.70   1
   2  -7   3  225.68    7.70   1
  -2  -7  -3  223.08    8.40   1
  -2  -7  -3  233.08    8.10   1
  -2  -7   3  230.08    7.80   1
  -2  -7   3  226.28    8.10   1
  -2  -7   3  222.08    8.80   1
  -2  -7   3  219.38    8.70   1
  -2   7  -3  207.68    9.40   1
   2   7   3  227.98    7.60   1
  -2  -7   3  235.18    8.50   1
   3  -7   3   32.90    3.00   1
   3  -7   3   30.80    3.50   1
  -3  -7  -3   33.40    3.10   1
  -3   7   3   33.80    3.40   1
   3  -7   3   35.30    2.20   1
  -3  -7  -3   28.30    2.80   1
  -3   7   3   33.30    2.90   1
   3   7  -3   30.80    3.70   1
  -3  -7   3   29.70    2.20   1
  -3  -7   3   28.60    3.20   1
  -3   7  -3   31.20    4.00   1
  -3  -7   3   30.50    3.00   1
   3   7   3   31.60    1.80   1
  -3  -7   3   28.80    3.20   1
  -3  -7   3   34.60    3.50   1
  -4   7   3  192.78    7.50   1
  -4  -7  -3  194.68    7.70   1
   4  -7   3  211.98   10.30   1
   4   7  -3  189.68    8.40   1
  -4   7   3  180.88    7.90   1
  -4  -7  -3  194.28    7.60   1
   4  -7   3  179.28    8.30   1
   4  -7   3  195.58    7.70   1
  -4   7  -3  186.48    9.20   1
  -4  -7   3  192.08    8.30   1
  -4  -7   3  175.38    7.80   1
  -4  -7   3  196.58    7.90   1
  -4  -7   3  191.08    8.30   1
   5  -7   3  411.66   13.70   1
   5   7  -3  390.76   14.20   1
  -5  -7  -3  402.36   13.40   1
  -5   7   3  391.86   13.70   1
   5  -7   3  366.86   14.30   1
  -5  -7  -3  387.26   13.30   1
  -5   7   3  396.26   13.40   1
  -5  -7   3  389.26   14.10   1
  -5  -7   3  400.86   13.80   1
  -5  -7   3  373.16   14.20   1
  -5  -7   3  392.06   13.80   1
  -5   7  -3  378.46   15.20   1
   6   7  -3   23.80    3.60   1
   6  -7   3   19.60    3.20   1
   6  -7   3   20.10    3.70   1
  -6  -7  -3   10.30    2.60   1
  -6   7   3   25.40    3.40   1
  -6  -7  -3   16.20    2.80   1
  -6   7   3   22.10    3.00   1
  -6  -7   3   23.70    3.40   1
  -6  -7   3   16.50    3.10   1
  -6  -7   3   12.90    3.20   1
  -6  -7   3   13.80    3.20   1
  -7  -7  -3  559.34   18.60   1
  -7   7   3  559.04   21.60   1
   7  -7   3  555.74   19.30   1
  -7   7   3  582.44   18.80   1
   7  -7   3  557.44   20.20   1
  -7  -7  -3  579.24   19.00   1
   7   7  -3  563.64   19.80   1
  -7   7   3  583.54   19.10   1
  -7  -7   3  596.34   19.60   1
  -7  -7   3  541.85   19.10   1
  -7  -7   3  556.14   19.50   1
  -7  -7   3  569.14   20.20   1
  -8  -7  -3  123.59    6.50   1
   8  -7   3  114.79    6.90   1
  -8   7   3  123.09    6.60   1
   8  -7   3  106.69    7.70   1
  -8  -7  -3  118.29    6.20   1
  -8  -7   3  120.59    7.80   1
   8   7   3  109.99    6.40   1
  -8  -7   3  109.49    6.80   1
  -8  -7   3  117.29    7.40   1
  -8  -7   3  126.79    7.30   1
   8   7   3  113.99    3.80   1
   9  -7   3   55.99    6.30   1
   9  -7   3   66.39    5.70   1
  -9   7   3   51.09    5.00   1
  -9  -7  -3   61.59    5.20   1
  -9  -7  -3   47.30    4.80   1
   9   7   3   53.59    3.00   1
  -9  -7   3   50.39    5.40   1
  -9  -7   3   49.70    5.70   1
  -9  -7   3   60.19    5.90   1
  -9  -7   3   55.49    5.40   1
  -9   7  -3   56.29    4.50   1
  10  -7   3   75.49    7.50   1
 -10  -7  -3   74.99    6.00   1
 -10   7   3   81.99    6.30   1
 -10   7   3   91.19    7.20   1
  10  -7   3   76.69    6.70   1
 -10  -7   3   66.69    6.60   1
  10   7   3   80.09    4.30   1
 -10   7  -3   82.19    5.80   1
 -10  -7   3   77.29    7.20   1
 -10  -7   3   70.19    6.20   1
 -11  -7  -3  167.08    8.90   1
 -11   7   3  162.98    9.90   1
  11  -7   3  191.08   10.80   1
 -11   7   3  168.58    8.80   1
  11  -7   3  174.88   10.60   1
 -11   7  -3  160.88    8.50   1
 -11  -7   3  175.48    9.30   1
  11   7   3  179.08    7.30   1
 -11  -7   3  168.08   10.40   1
 -11  -7   3  163.48    9.80   1
 -12   7   3   11.10    5.00   1
  12  -7   3    4.90    5.30   1
 -12  -7  -3    9.20    4.00   1
  12   7   3   12.90    3.00   1
 -12  -7   3   14.40    4.80   1
 -12  -7   3    6.80    4.80   1
 -13  -7  -3  228.28   10.90   1
  13  -7   3  205.78   12.60   1
 -13   7   3  219.28   12.30   1
  13   7   3  212.38    9.60   1
 -13  -7   3  257.37   12.90   1
 -13  -7   3  218.18   11.30   1
 -14  -7  -3   26.60    5.30   1
 -14   7   3   37.30    7.40   1
 -14  -7   3   34.40    7.00   1
 -14  -7   3   33.50    5.50   1
 -15   7   3   46.40    7.60   1
 -15  -7   3   41.70    7.70   1
   0   8  -3   33.60    3.80   1
   0  -8   3   30.30    3.20   1
   0  -8   3   40.70    3.20   1
   0  -8  -3   36.10    3.20   1
   0  -8   3   32.40    3.10   1
   0  -8   3   37.50    2.60   1
   1   8  -3   81.59    5.20   1
   1  -8   3   81.89    4.20   1
  -1  -8  -3   83.69    4.60   1
   1  -8   3   82.59    4.70   1
   1  -8   3   83.19    4.70   1
   1  -8  -3   78.09    4.50   1
  -1  -8   3   77.89    4.70   1
  -1  -8   3   76.99    4.20   1
  -1  -8   3   84.99    4.00   1
  -1  -8   3   87.79    4.90   1
  -1   8  -3   80.59    5.50   1
   2  -8   3 2031.30   61.49   1
  -2  -8  -3 2109.99   61.19   1
   2   8  -3 2093.49   61.89   1
  -2  -8  -3 2109.09   60.89   1
  -2   8   3 2024.30   61.49   1
   2  -8   3 2014.60   60.29   1
  -2  -8   3 2127.09   60.49   1
  -2   8  -3 2048.70   62.39   1
  -2  -8   3 2087.59   60.89   1
  -2  -8   3 2000.20   61.29   1
  -2  -8   3 2106.59   61.19   1
   2   8   3 2128.29   60.19   1
   3   8  -3    3.30    2.40   1
  -3   8   3    4.00    2.30   1
   3  -8   3    5.50    2.10   1
  -3  -8  -3    2.60    1.90   1
  -3  -8  -3   -0.40    2.00   1
   3  -8   3    5.80    1.40   1
  -3   8   3    4.10    1.90   1
   3   8   3    3.70    1.00   1
  -3  -8   3    4.10    2.00   1
   3   8   3    4.10    1.00   1
  -3  -8   3   -0.10    2.10   1
  -3   8  -3    5.60    3.10   1
  -3  -8   3    1.40    2.20   1
  -3  -8   3    5.30    1.40   1
  -4   8   3 1649.63   50.09   1
  -4  -8  -3 1675.93   49.80   1
  -4   8   3 1712.63   49.60   1
   4  -8   3 1690.73   50.59   1
   4   8  -3 1683.53   50.59   1
  -4  -8  -3 1715.83   49.60   1
  -4   8  -3 1681.03   51.59   1
  -4  -8   3 1642.04   50.29   1
  -4  -8   3 1600.04   49.80   1
  -4  -8   3 1607.54   49.90   1
  -5  -8  -3   37.90    3.70   1
  -5   8   3   42.00    4.10   1
  -5   8   3   43.40    3.80   1
   5  -8   3   45.80    4.70   1
   5   8  -3   39.30    4.20   1
   5  -8   3   35.80    3.60   1
  -5   8   3   37.30    5.30   1
  -5  -8  -3   47.40    3.90   1
  -5  -8   3   45.60    4.60   1
  -5  -8   3   41.70    4.10   1
  -5  -8   3   36.00    4.00   1
  -5   8  -3   47.20    5.50   1
  -5  -8   3   49.70    4.10   1
  -6  -8  -3   24.10    3.30   1
   6   8  -3   32.90    4.20   1
  -6   8   3   26.40    3.30   1
  -6   8   3   36.50    3.90   1
   6  -8   3   27.10    4.30   1
  -6  -8  -3   31.60    3.60   1
  -6   8   3   33.90    5.40   1
   6  -8   3   29.50    3.50   1
  -6  -8   3   31.10    4.30   1
  -6  -8   3   34.20    4.20   1
  -6  -8   3   31.20    4.00   1
  -6  -8   3   29.40    3.90   1
  -7   8   3   61.49    5.00   1
  -7  -8  -3   55.09    4.80   1
  -7   8   3   59.99    5.00   1
  -7  -8  -3   60.89    4.70   1
   7  -8   3   50.59    5.70   1
   7  -8   3   63.29    5.40   1
   7   8  -3   63.69    5.60   1
  -7   8   3   62.79    7.00   1
  -7  -8   3   60.09    4.80   1
  -7  -8   3   51.39    5.50   1
  -7  -8   3   65.89    5.30   1
   8  -8   3 1041.20   35.50   1
  -8  -8  -3 1121.09   34.20   1
  -8   8   3 1116.99   34.10   1
   8  -8   3  958.20   35.70   1
  -8  -8  -3 1109.59   33.70   1
  -8  -8   3 1124.09   34.90   1
  -8  -8   3 1112.89   34.50   1
  -8  -8   3 1084.69   35.40   1
  -9   8   3    2.70    2.90   1
   9  -8   3    3.60    4.20   1
  -9  -8  -3    4.80    2.90   1
  -9  -8  -3    2.60    3.10   1
   9   8   3    1.30    1.20   1
  -9  -8   3    1.80    3.50   1
  -9   8  -3    0.90    2.40   1
  -9  -8   3    7.50    3.70   1
  -9  -8   3   -2.10    3.30   1
  10  -8   3  659.43   24.80   1
 -10   8   3  675.93   23.10   1
 -10  -8  -3  691.53   23.30   1
 -10  -8   3  684.43   24.90   1
 -10  -8   3  680.53   24.20   1
 -10  -8   3  687.13   23.60   1
  10   8   3  729.93   21.10   1
 -10   8  -3  669.43   22.70   1
 -11  -8  -3   14.20    4.40   1
 -11   8   3    9.30    4.80   1
  11  -8   3   17.30    5.80   1
 -11   8   3   14.90    4.00   1
 -11  -8   3   13.30    4.60   1
  11   8   3   20.50    2.70   1
 -11  -8   3   16.90    4.60   1
 -11   8  -3   13.10    4.50   1
 -12   8   3   17.30    5.30   1
  12  -8   3   11.80    5.60   1
 -12  -8  -3   18.10    4.50   1
  12   8   3   18.60    3.10   1
 -12  -8   3   13.10    4.80   1
 -12  -8   3    3.50    4.80   1
 -13   8   3   19.70    6.40   1
 -13  -8  -3   30.30    5.50   1
  13  -8   3   25.40    7.10   1
 -13  -8   3   26.60    5.60   1
 -13  -8   3   35.80    6.70   1
 -14  -8  -3  355.56   15.20   1
 -14   8   3  358.26   16.90   1
 -14  -8   3  366.16   16.80   1
 -14  -8   3  385.76   15.30   1
 -15   8   3    7.20    6.10   1
 -15  -8   3   13.00    6.80   1
   0  -9   3  384.66   13.50   1
   0  -9   3  415.36   13.20   1
   0  -9   3  400.96   14.00   1
   0  -9   3  404.36   13.70   1
   0   9   3  404.26   13.90   1
   0  -9  -3  395.86   13.80   1
   0   9  -3  414.36   14.90   1
   1   9  -3  670.63   21.90   1
   1  -9   3  655.13   21.20   1
  -1  -9  -3  648.84   21.00   1
  -1   9   3  645.74   21.40   1
   1  -9   3  675.23   21.10   1
   1  -9   3  626.24   20.50   1
  -1  -9   3  677.23   21.30   1
   1   9   3  665.13   20.60   1
  -1   9  -3  667.13   22.10   1
  -1  -9   3  643.94   20.60   1
   1  -9  -3  615.34   20.80   1
  -1  -9   3  673.03   20.50   1
  -1  -9   3  645.44   20.90   1
   2  -9   3  221.18    9.00   1
  -2  -9  -3  216.48    8.70   1
   2  -9   3  224.58    8.70   1
   2   9  -3  213.78    9.20   1
  -2   9   3  206.88    9.40   1
   2  -9   3  218.48    7.80   1
  -2  -9  -3  205.18    8.30   1
  -2   9   3  207.88    8.90   1
  -2   9  -3  217.48    9.90   1
   2   9   3  211.88    7.50   1
  -2  -9   3  215.08    8.20   1
  -2  -9   3  213.18    8.80   1
  -2  -9   3  200.08    8.70   1
  -2  -9   3  217.18    7.90   1
  -3  -9  -3  103.59    5.20   1
   3  -9   3   87.89    5.70   1
  -3   9   3  101.49    5.10   1
  -3  -9  -3   90.09    5.40   1
  -3   9   3   91.09    5.60   1
  -3   9   3   91.89    6.30   1
   3  -9   3   94.99    4.20   1
   3   9  -3   88.99    6.00   1
  -3  -9   3   99.59    5.30   1
  -3   9  -3   88.59    6.20   1
  -3  -9   3  106.39    5.90   1
  -3  -9   3   94.19    4.30   1
   3   9   3   93.09    3.50   1
   3   9   3   92.89    3.60   1
  -3  -9   3   92.09    5.50   1
  -4   9   3  212.78   10.30   1
  -4  -9  -3  216.48    8.70   1
  -4   9   3  212.18    8.40   1
   4   9  -3  210.88    9.30   1
  -4  -9  -3  214.28    8.80   1
   4  -9   3  213.68    9.60   1
  -4   9   3  211.48    9.10   1
  -4   9  -3  214.18   10.60   1
  -4  -9   3  208.58    8.90   1
  -4  -9   3  223.08    9.50   1
  -4  -9   3  208.08    9.10   1
  -5   9   3  517.95   17.80   1
  -5  -9  -3  525.45   17.50   1
   5  -9   3  523.45   18.50   1
  -5  -9  -3  524.55   17.60   1
   5   9  -3  516.75   18.10   1
  -5   9   3  533.15   17.50   1
  -5   9   3  521.85   19.70   1
  -5  -9   3  514.15   17.80   1
  -5  -9   3  480.45   17.70   1
  -5  -9   3  520.85   18.50   1
  -5   9  -3  536.05   20.10   1
  -6  -9  -3  276.47   10.80   1
  -6   9   3  260.07   12.80   1
  -6   9   3  263.77   10.60   1
   6   9  -3  250.57   11.00   1
  -6  -9  -3  269.07   10.60   1
   6  -9   3  278.07   11.90   1
  -6   9   3  258.17   10.70   1
  -6  -9   3  283.07   11.90   1
  -6  -9   3  257.37   10.90   1
  -6  -9   3  265.47   10.70   1
  -7  -9  -3  362.76   13.70   1
  -7   9   3  384.16   16.60   1
  -7  -9  -3  382.56   13.80   1
   7  -9   3  364.16   15.20   1
  -7   9   3  372.26   13.60   1
  -7   9   3  377.06   13.90   1
   7   9  -3  360.96   14.30   1
  -7  -9   3  384.16   14.40   1
  -7  -9   3  363.96   15.00   1
  -7  -9   3  347.67   14.00   1
  -8  -9  -3  119.59    7.10   1
   8  -9   3  121.59    8.60   1
  -8   9   3  127.39    7.10   1
  -8  -9  -3  125.19    7.00   1
  -8  -9   3  128.19    8.50   1
  -8  -9   3  127.89    7.60   1
  -8  -9   3  114.59    7.70   1
   9  -9   3   37.00    5.90   1
  -9  -9  -3   37.90    4.90   1
  -9  -9  -3   34.20    4.20   1
  -9   9   3   39.80    4.80   1
  -9  -9   3   41.10    5.30   1
  -9  -9   3   34.10    5.40   1
   9   9   3   37.80    2.20   1
  -9  -9   3   35.80    5.30   1
 -10   9   3  111.29    7.30   1
  10  -9   3   98.89    8.80   1
 -10  -9  -3  100.19    7.60   1
 -10  -9   3  112.49    8.70   1
 -10  -9   3  102.39    7.60   1
 -10  -9   3  108.69    8.00   1
 -10   9  -3  103.29    6.80   1
  10   9   3  116.69    4.80   1
 -11   9   3  203.18   11.10   1
  11  -9   3  195.68   12.40   1
 -11   9   3  195.48    9.70   1
 -11  -9  -3  192.78   10.00   1
 -11  -9   3  195.08   11.40   1
  11   9   3  203.68    7.80   1
 -11  -9   3  211.78   11.00   1
 -12  -9  -3   88.29    7.40   1
 -12   9   3   82.19    8.40   1
  12  -9   3  109.39   10.00   1
 -12  -9   3  105.49    8.80   1
 -12  -9   3  104.19    8.00   1
  13  -9   3  143.89   11.30   1
 -13   9   3  146.49   10.70   1
 -13  -9  -3  164.38    9.10   1
 -13  -9   3  133.49   10.40   1
 -13  -9   3  141.19    9.80   1
 -14   9   3   47.80    7.60   1
 -14  -9  -3   64.09    6.40   1
 -14  -9   3   65.19    6.90   1
 -14  -9   3   56.29    8.00   1
   0  10  -3  113.49    6.60   1
   0 -10   3   98.89    5.70   1
   0  10   3  101.09    5.60   1
   0 -10   3  107.49    5.00   1
   0 -10   3  112.29    5.60   1
   0 -10  -3  105.99    5.80   1
   0 -10   3  103.79    5.50   1
   1 -10   3   99.39    5.60   1
   1 -10   3   94.69    5.10   1
  -1  10   3   90.69    5.70   1
  -1 -10  -3   95.89    5.70   1
   1  10  -3  107.49    6.20   1
   1 -10   3   97.69    5.60   1
  -1 -10   3  102.09    5.80   1
  -1 -10   3   96.89    4.90   1
  -1 -10   3   99.89    5.10   1
   1  10   3   94.49    4.90   1
  -1  10  -3  103.99    6.50   1
  -1 -10   3   93.69    5.70   1
   1 -10  -3  101.09    5.50   1
   2 -10   3  246.08    9.10   1
  -2 -10  -3  260.27    9.80   1
  -2  10   3  251.47   10.60   1
   2  10  -3  260.67   10.80   1
   2 -10   3  253.17   10.30   1
  -2 -10  -3  234.18    9.80   1
   2 -10   3  249.18   10.10   1
  -2  10   3  244.68   10.40   1
  -2 -10   3  258.87   10.30   1
  -2 -10   3  264.57   10.20   1
  -2 -10   3  269.07    9.80   1
  -2 -10   3  265.07    9.30   1
  -2  10  -3  250.97   11.30   1
   2  10   3  250.87    8.80   1
   3 -10   3  157.08    7.00   1
   3 -10   3  153.28    5.90   1
  -3  10   3  144.79    7.90   1
  -3 -10  -3  148.79    6.80   1
  -3 -10  -3  144.59    7.10   1
   3  10  -3  137.79    7.60   1
   3 -10   3  135.19    7.40   1
  -3  10   3  137.59    7.30   1
   3  10   3  136.79    5.10   1
  -3  10  -3  133.19    8.40   1
  -3 -10   3  150.98    6.00   1
  -3 -10   3  138.09    7.20   1
  -3 -10   3  153.08    7.60   1
  -3 -10   3  153.38    6.90   1
   3  10   3  141.89    5.00   1
  -4  10   3  320.47   12.90   1
  -4 -10  -3  349.17   12.60   1
  -4  10   3  351.16   14.30   1
   4  10  -3  335.67   13.10   1
  -4  10   3  354.46   12.50   1
   4 -10   3  324.87   13.30   1
  -4 -10  -3  344.07   12.80   1
  -4 -10   3  344.87   13.00   1
  -4 -10   3  354.66   12.90   1
  -4 -10   3  350.96   13.40   1
  -4  10  -3  351.06   14.60   1
   5 -10   3   65.19    5.90   1
  -5  10   3   67.49    6.80   1
  -5  10   3   67.09    5.10   1
  -5 -10  -3   70.09    5.10   1
  -5  10   3   58.79    5.20   1
   5  10  -3   68.09    5.70   1
  -5 -10  -3   64.89    5.20   1
  -5 -10   3   65.79    5.50   1
  -5 -10   3   68.69    6.00   1
  -5 -10   3   63.09    5.30   1
  -6  10   3  103.69    6.60   1
   6  10  -3  109.69    6.90   1
  -6 -10  -3  114.99    6.60   1
  -6  10   3  122.29    6.70   1
  -6 -10  -3   94.19    6.30   1
  -6  10   3  125.39    9.20   1
   6 -10   3  122.29    7.80   1
  -6 -10   3   95.59    7.30   1
  -6 -10   3  105.19    6.90   1
  -6 -10   3  113.19    6.90   1
  -7 -10  -3   60.99    5.50   1
   7  10  -3   65.79    6.40   1
  -7  10   3   77.79    5.80   1
   7 -10   3   65.29    6.60   1
  -7  10   3   69.49    7.50   1
  -7  10   3   79.39    5.90   1
  -7 -10  -3   65.19    5.60   1
  -7 -10   3   80.89    6.30   1
  -7 -10   3   55.59    5.60   1
  -7 -10   3   71.79    6.60   1
   8 -10   3  126.69    9.10   1
  -8  10   3  132.19    7.50   1
  -8 -10  -3  136.69    7.70   1
  -8 -10  -3  137.29    7.70   1
  -8 -10   3  140.29    9.10   1
  -8 -10   3  130.29    8.10   1
  -8 -10   3  138.79    8.40   1
   9 -10   3   61.19    7.30   1
  -9  10   3   67.69    6.00   1
  -9 -10  -3   60.59    5.80   1
  -9 -10  -3   73.59    5.60   1
  -9 -10   3   60.39    6.80   1
  -9 -10   3   60.19    6.20   1
  -9 -10   3   63.69    6.60   1
   9  10   3   68.09    2.80   1
 -10 -10  -3  224.48   10.50   1
  10 -10   3  227.48   12.50   1
 -10  10   3  198.98   10.20   1
 -10 -10   3  208.58   11.50   1
 -10 -10   3  216.38   10.90   1
 -10  10  -3  194.98    9.70   1
  10  10   3  228.68    7.60   1
  11 -10   3   29.50    6.50   1
 -11  10   3   29.40    4.90   1
 -11 -10  -3   31.20    5.20   1
 -11  10   3   38.20    5.90   1
 -11 -10   3   29.00    5.50   1
  11  10   3   24.50    2.80   1
 -11 -10   3   29.50    5.20   1
  12 -10   3   87.79    9.30   1
 -12 -10  -3   99.19    7.80   1
 -12  10   3   68.09    8.00   1
 -12 -10   3   88.29    7.70   1
 -12 -10   3   77.09    8.20   1
 -13  10   3   31.40    7.00   1
 -13 -10  -3   17.50    5.00   1
  13 -10   3   34.00    8.20   1
 -13 -10   3   33.30    6.00   1
 -13 -10   3   26.30    7.00   1
 -14  10   3   66.39    8.30   1
 -14 -10   3   67.19    7.20   1
 -14 -10   3   76.29    8.50   1
   0  11   3   94.09    5.60   1
   0 -11   3  113.79    5.80   1
   0 -11   3   98.19    5.90   1
   0 -11  -3  101.69    6.00   1
   0  11  -3   97.29    6.80   1
   0 -11   3  104.39    5.20   1
   0 -11   3  106.69    6.40   1
  -1 -11  -3 1590.84   49.20   1
  -1  11   3 1596.14   49.30   1
   1 -11   3 1697.23   49.40   1
   1 -11   3 1624.04   48.50   1
   1 -11   3 1623.34   49.10   1
   1  11  -3 1620.54   49.90   1
  -1  11  -3 1610.34   50.19   1
   1 -11  -3 1587.34   49.00   1
   1  11   3 1614.24   48.40   1
  -1 -11   3 1681.53   48.70   1
  -1 -11   3 1570.04   49.00   1
  -1 -11   3 1700.83   48.80   1
  -1 -11   3 1621.94   49.30   1
   2 -11   3   19.80    2.70   1
  -2 -11  -3   20.30    3.70   1
  -2 -11  -3   22.30    3.30   1
   2  11  -3   21.60    3.60   1
  -2  11   3   16.10    3.50   1
   2 -11   3   25.10    3.50   1
   2 -11   3   25.30    3.70   1
  -2  11   3   22.20    3.90   1
  -2 -11   3   21.30    3.10   1
  -2 -11   3   22.50    3.40   1
  -2  11  -3   17.10    4.00   1
   2  11   3   22.20    2.30   1
  -2 -11   3   19.50    3.40   1
  -2 -11   3   23.70    3.00   1
  -3  11   3   13.20    3.60   1
  -3  11   3   26.20    4.00   1
   3 -11   3   19.60    3.30   1
   3 -11   3   18.70    3.70   1
   3  11  -3   23.10    3.70   1
  -3 -11  -3   17.40    3.20   1
  -3 -11  -3   16.90    3.50   1
   3  11   3   21.20    1.90   1
  -3 -11   3   19.00    3.10   1
  -3 -11   3   18.40    3.60   1
   3  11   3   22.00    2.10   1
  -3 -11   3   17.00    3.50   1
  -3  11  -3   22.30    4.50   1
   4 -11   3   19.50    3.90   1
  -4 -11  -3   16.50    3.60   1
   4  11  -3   16.80    3.50   1
  -4  11   3   17.90    4.10   1
  -4  11   3   15.70    3.60   1
  -4 -11  -3   24.30    3.50   1
  -4  11   3   18.70    3.20   1
   4 -11   3   16.60    3.20   1
  -4  11  -3   25.10    4.90   1
  -4 -11   3   18.30    3.70   1
  -4 -11   3   15.30    3.70   1
  -4 -11   3   14.90    3.30   1
  -5  11   3 1441.46   46.10   1
  -5  11   3 1454.85   44.60   1
  -5  11   3 1436.86   43.90   1
  -5 -11  -3 1460.95   44.20   1
   5 -11   3 1381.26   45.00   1
  -5 -11  -3 1390.56   44.10   1
   5  11  -3 1436.16   44.60   1
  -5 -11   3 1440.56   44.50   1
  -5 -11   3 1478.95   45.40   1
  -5 -11   3 1450.05   44.40   1
  -6 -11  -3   68.29    5.70   1
   6  11  -3   68.69    5.90   1
  -6  11   3   75.39    5.90   1
  -6  11   3   83.89    6.10   1
   6 -11   3   68.79    6.80   1
  -6 -11  -3   66.19    5.60   1
  -6  11   3   66.59    7.20   1
  -6 -11   3   63.89    5.90   1
  -6 -11   3   73.79    6.00   1
  -6 -11   3   66.69    6.50   1
   7 -11   3  783.32   27.50   1
  -7  11   3  818.62   26.20   1
  -7 -11  -3  789.72   26.00   1
  -7  11   3  784.32   29.10   1
  -7 -11  -3  786.22   26.00   1
  -7  11   3  806.72   26.00   1
  -7 -11   3  760.02   27.30   1
  -7 -11   3  782.52   26.50   1
  -7 -11   3  748.43   26.30   1
  -8 -11  -3   14.70    4.10   1
  -8 -11  -3    9.70    3.70   1
  -8  11   3   20.40    4.30   1
   8 -11   3   14.60    5.10   1
  -8 -11   3   10.90    4.50   1
  -8 -11   3   19.00    4.60   1
  -8 -11   3    7.10    3.90   1
  -9 -11  -3   35.70    5.30   1
   9 -11   3   39.90    6.60   1
  -9 -11  -3   31.00    4.50   1
  -9  11   3   31.00    4.60   1
  -9 -11   3   32.90    5.40   1
  -9 -11   3   40.80    5.60   1
   9  11   3   37.10    2.00   1
 -10 -11  -3    8.70    3.60   1
  10 -11   3    3.20    5.30   1
 -10  11   3    5.90    3.60   1
 -10 -11  -3    7.50    4.40   1
  10  11   3    9.60    1.80   1
 -10 -11   3    3.10    4.30   1
 -10 -11   3    4.50    4.70   1
  11 -11   3  586.34   23.40   1
 -11 -11  -3  552.14   20.90   1
 -11 -11   3  595.84   21.60   1
 -11 -11   3  587.24   22.00   1
 -12  11   3   37.80    6.90   1
 -12 -11  -3   26.20    5.10   1
  12 -11   3   27.70    7.40   1
 -12 -11   3   36.80    7.10   1
 -12 -11   3   38.10    6.10   1
 -13  11   3  326.77   16.10   1
 -13 -11  -3  304.67   14.10   1
  13 -11   3  308.47   16.30   1
 -13 -11   3  333.47   15.40   1
   0 -12   3   59.69    4.80   1
   0  12  -3   63.59    5.70   1
   0 -12   3   71.29    5.70   1
   0 -12  -3   49.99    4.90   1
   0 -12   3   62.19    4.70   1
   0  12   3   58.99    4.50   1
  -1 -12  -3  280.47   11.50   1
   1 -12   3  285.57   10.80   1
   1 -12   3  291.57   11.40   1
   1  12  -3  286.17   11.90   1
   1 -12   3  287.47   11.40   1
  -1  12   3  270.07   11.20   1
   1  12   3  279.67   10.30   1
  -1  12  -3  289.57   12.30   1
  -1 -12   3  283.87   10.90   1
   1 -12  -3  272.57   11.20   1
  -1 -12   3  283.37   11.70   1
  -1 -12   3  282.07   11.20   1
  -1 -12   3  280.27   10.80   1
  -2  12   3  759.42   25.50   1
   2 -12   3  757.32   25.30   1
   2  12  -3  760.32   25.40   1
  -2 -12  -3  767.22   25.20   1
   2 -12   3  751.02   24.80   1
   2 -12   3  754.02   23.90   1
  -2 -12   3  777.02   24.20   1
  -2 -12   3  742.73   25.10   1
  -2 -12   3  786.62   24.70   1
   2  12   3  753.22   23.30   1
  -2 -12   3  753.82   24.90   1
  -2  12  -3  764.72   26.30   1
  -3  12   3   94.49    6.60   1
  -3 -12  -3   89.39    6.50   1
  -3 -12  -3  100.09    6.20   1
   3  12  -3   91.49    6.60   1
  -3  12   3   94.49    6.80   1
   3 -12   3   93.99    6.70   1
   3 -12   3   93.29    6.10   1
  -3 -12   3   93.09    6.60   1
  -3  12  -3   91.59    7.50   1
   3  12   3   91.39    4.00   1
   3  12   3   98.59    3.90   1
  -3 -12   3   83.49    6.20   1
  -3 -12   3   93.49    6.00   1
   4  12  -3  890.11   29.50   1
  -4  12   3  873.91   29.40   1
  -4 -12  -3  873.41   28.90   1
   4 -12   3  897.71   29.90   1
  -4  12   3  895.41   30.40   1
   4 -12   3  916.91   28.90   1
  -4 -12  -3  905.11   29.30   1
  -4  12   3  926.41   28.80   1
  -4 -12   3  935.71   29.20   1
  -4 -12   3  886.21   29.30   1
  -4 -12   3  902.01   29.80   1
  -5 -12  -3  230.18    9.90   1
   5 -12   3  207.28    9.40   1
   5  12  -3  210.48    9.90   1
  -5  12   3  215.48   10.20   1
   5 -12   3  218.18   10.80   1
  -5 -12  -3  219.38    9.90   1
  -5  12   3  208.58    9.50   1
  -5 -12   3  180.98    9.80   1
  -5 -12   3  204.08   10.60   1
  -5 -12   3  212.48   10.00   1
  -6  12   3   18.90    4.00   1
   6 -12   3   18.80    3.60   1
  -6  12   3   12.30    3.90   1
  -6 -12  -3   14.80    3.90   1
  -6  12   3   34.90    5.80   1
  -6 -12  -3   23.50    4.20   1
   6 -12   3   18.80    4.70   1
  -6 -12   3   17.00    4.10   1
  -6 -12   3   13.20    4.30   1
  -6 -12   3   12.50    4.30   1
  -7 -12  -3  184.78    9.30   1
  -7  12   3  190.18    9.60   1
   7 -12   3  190.08   11.00   1
  -7 -12  -3  182.98    9.70   1
  -7  12   3  206.48    9.50   1
  -7 -12   3  176.18   10.50   1
  -7 -12   3  198.78   10.00   1
  -7 -12   3  164.38    9.70   1
   8 -12   3  420.56   17.70   1
  -8  12   3  416.76   15.70   1
  -8 -12  -3  418.16   15.70   1
  -8 -12  -3  410.36   16.00   1
  -8 -12   3  392.16   16.00   1
  -8 -12   3  372.56   15.90   1
  -8 -12   3  388.36   18.70   1
  -9 -12  -3   42.80    5.60   1
  -9 -12  -3   26.80    4.70   1
  -9  12   3   47.00    5.40   1
   9 -12   3   51.69    7.50   1
  -9 -12   3   53.09    6.20   1
  -9 -12   3   34.90    5.60   1
   9  12   3   48.00    2.30   1
 -10  12   3  527.35   19.60   1
 -10 -12  -3  568.24   20.20   1
  10 -12   3  568.34   22.60   1
 -10 -12   3  541.55   20.70   1
 -10 -12   3  517.15   20.50   1
 -11 -12  -3   93.39    8.00   1
  11 -12   3  116.49   10.60   1
 -11 -12   3   81.59    8.20   1
 -11 -12   3   91.69    8.00   1
  12 -12   3    2.00    7.00   1
 -12 -12  -3    4.90    4.80   1
 -12  12   3   -3.30    5.40   1
 -12 -12   3   -2.90    5.20   1
 -12 -12   3   -1.70    4.50   1
 -13  12   3   89.19    9.30   1
 -13 -12  -3   93.09    7.70   1
  13 -12   3   84.89   10.20   1
 -13 -12   3   88.09    8.10   1
 -13 -12   3   87.09    8.90   1
   0  13  -3   55.09    5.70   1
   0 -13  -3   45.20    5.00   1
   0  13   3   53.59    4.50   1
   0 -13   3   53.89    5.00   1
   0 -13   3   52.49    4.70   1
   0 -13   3   61.49    5.10   1
   1 -13   3  122.89    7.30   1
   1  13  -3  133.99    7.70   1
   1 -13   3  113.09    7.00   1
   1 -13   3  124.39    6.50   1
  -1  13   3  129.89    7.20   1
  -1 -13  -3  123.29    7.40   1
  -1 -13   3  123.09    7.30   1
   1 -13  -3  115.99    7.10   1
   1  13   3  130.19    6.20   1
  -1 -13   3  130.49    7.10   1
  -1 -13   3  128.39    6.70   1
  -1 -13   3  117.19    6.80   1
  -1  13  -3  130.79    8.10   1
  -2  13   3    1.40    2.70   1
   2 -13   3    5.90    3.30   1
   2 -13   3    4.10    2.60   1
   2  13  -3    4.90    3.40   1
  -2 -13  -3    5.70    3.20   1
   2 -13   3    3.10    2.90   1
  -2 -13   3    3.20    3.10   1
  -2 -13   3    4.50    2.90   1
  -2 -13   3    3.80    2.60   1
   2  13   3    3.50    1.80   1
  -2 -13   3    0.60    3.20   1
  -2  13  -3    2.70    3.50   1
  -3  13   3  307.07   12.90   1
   3 -13   3  281.87   11.90   1
  -3  13   3  302.97   13.10   1
  -3 -13  -3  317.07   12.80   1
   3 -13   3  291.07   12.80   1
  -3 -13  -3  287.77   12.10   1
   3  13  -3  294.57   12.50   1
  -3 -13   3  308.77   12.20   1
  -3  13  -3  311.67   14.00   1
   3  13   3  297.87    9.70   1
  -3 -13   3  312.37   12.90   1
  -3 -13   3  294.47   12.40   1
  -4  13   3    7.60    3.80   1
  -4  13   3    6.20    3.10   1
   4 -13   3    3.20    3.30   1
   4 -13   3    3.00    3.70   1
  -4 -13  -3    9.20    3.50   1
  -4 -13  -3   -0.30    3.40   1
  -4  13   3    1.40    3.70   1
  -4 -13   3    3.90    3.50   1
  -4 -13   3   -0.30    3.10   1
  -4 -13   3   -0.60    3.70   1
  -5  13   3  137.79    8.40   1
  -5  13   3  149.59    8.10   1
   5 -13   3  141.99    7.90   1
  -5 -13  -3  125.69    7.90   1
  -5 -13  -3  117.99    7.70   1
   5 -13   3  134.79    9.00   1
  -5 -13   3  144.29    9.00   1
  -5 -13   3  130.89    8.20   1
  -5 -13   3  136.99    8.10   1
  -6 -13  -3   44.00    5.20   1
  -6 -13  -3   38.60    5.10   1
  -6  13   3   43.40    5.50   1
   6 -13   3   32.70    4.50   1
  -6  13   3   38.80    4.90   1
   6 -13   3   38.30    6.20   1
  -6 -13   3   44.90    5.50   1
  -6 -13   3   40.00    5.80   1
  -6 -13   3   36.30    5.40   1
  -7 -13  -3   50.09    5.50   1
  -7  13   3   47.10    5.40   1
   7 -13   3   46.60    5.10   1
  -7 -13  -3   40.30    5.30   1
   7 -13   3   36.30    6.30   1
  -7  13   3   47.80    5.60   1
  -7 -13   3   41.80    5.60   1
  -7 -13   3   57.09    6.10   1
  -7 -13   3   37.70    6.10   1
  -8  13   3   11.10    4.60   1
  -8 -13  -3    4.70    3.80   1
   8 -13   3    7.40    5.10   1
  -8 -13  -3    1.00    3.90   1
  -8 -13   3    2.40    4.10   1
  -8 -13   3    5.60    4.40   1
  -9  13   3  129.29    8.20   1
  -9 -13  -3  126.79    8.40   1
  -9 -13  -3  123.19    8.30   1
   9 -13   3  125.49   10.40   1
  -9 -13   3  121.79    8.90   1
  -9 -13   3  122.79    8.90   1
  10 -13   3    1.00    6.30   1
 -10 -13  -3    1.90    4.40   1
 -10  13   3    5.20    3.70   1
 -10 -13  -3   -2.30    4.00   1
 -10 -13   3   -1.40    4.60   1
 -10 -13   3   10.70    4.80   1
  11 -13   3   55.49    8.70   1
 -11 -13  -3   50.49    6.20   1
 -11 -13   3   51.09    7.20   1
 -11 -13   3   46.80    6.40   1
 -12 -13  -3   15.50    4.80   1
  12 -13   3   16.50    7.40   1
 -12  13   3   12.20    6.10   1
 -12 -13   3   11.90    5.20   1
 -12 -13   3   14.50    6.00   1
   0 -14   3    4.40    3.10   1
   0 -14  -3   10.60    3.60   1
   0 -14   3    6.00    3.10   1
   0 -14   3    6.80    3.30   1
   0  14  -3    4.30    3.40   1
  -1 -14  -3   64.29    6.00   1
   1  14  -3   56.49    5.80   1
   1 -14   3   75.49    6.20   1
   1 -14   3   66.29    5.80   1
   1 -14   3   66.79    5.40   1
  -1  14  -3   73.69    6.70   1
   1 -14  -3   62.49    5.90   1
  -1 -14   3   76.19    5.90   1
  -1 -14   3   70.89    6.20   1
  -1 -14   3   69.99    5.40   1
  -2  14   3  581.74   21.50   1
   2 -14   3  586.34   19.70   1
   2 -14   3  579.94   20.70   1
   2 -14   3  620.54   21.50   1
  -2 -14  -3  575.94   21.00   1
  -2  14  -3  603.54   22.20   1
  -2 -14   3  585.34   21.10   1
  -2 -14   3  601.44   20.60   1
  -2 -14   3  625.64   20.20   1
  -2 -14   3  585.54   20.80   1
  -3  14   3   77.09    6.90   1
   3 -14   3   63.69    5.60   1
   3 -14   3   79.99    7.00   1
  -3 -14  -3   67.59    6.40   1
  -3 -14   3   65.39    6.40   1
  -3 -14   3   76.59    6.10   1
  -3  14  -3   91.79   12.00   1
  -3 -14   3   64.69    6.00   1
  -4  14   3  549.85   19.50   1
   4 -14   3  548.55   20.80   1
  -4 -14  -3  562.44   19.90   1
  -4  14   3  560.84   20.50   1
   4 -14   3  563.34   19.50   1
  -4 -14  -3  525.75   20.00   1
  -4 -14   3  573.54   20.00   1
  -4 -14   3  546.05   20.00   1
  -4 -14   3  558.84   20.70   1
  -5  14   3   62.69    6.60   1
  -5 -14  -3   60.79    6.10   1
   5 -14   3   76.29    7.70   1
   5 -14   3   53.09    5.30   1
  -5  14   3   58.49    5.80   1
  -5 -14  -3   53.99    6.00   1
  -5 -14   3   59.09    6.00   1
  -5 -14   3   66.29    6.90   1
  -5 -14   3   61.49    6.30   1
   6 -14   3    4.60    5.20   1
  -6 -14  -3    5.60    4.10   1
  -6 -14  -3    5.40    4.00   1
   6 -14   3    0.60    3.40   1
  -6  14   3    2.40    3.90   1
  -6  14   3    9.40    4.20   1
  -6 -14   3    2.10    4.40   1
  -6 -14   3    6.90    4.40   1
  -6 -14   3    7.20    5.20   1
  -7 -14  -3   35.10    5.50   1
  -7  14   3   35.50    5.30   1
  -7 -14  -3   38.50    5.50   1
   7 -14   3   38.60    6.70   1
  -7  14   3   28.30    5.20   1
  -7 -14   3   32.60    5.60   1
  -7 -14   3   38.70    5.70   1
   8 -14   3  347.47   16.30   1
  -8 -14  -3  329.77   14.20   1
  -8  14   3  323.97   14.10   1
  -8 -14  -3  340.07   14.30   1
  -8 -14   3  330.87   14.90   1
  -8 -14   3  325.37   14.50   1
  -9 -14  -3   41.30    6.20   1
  -9 -14  -3   54.09    6.00   1
   9 -14   3   54.09    8.10   1
  -9  14   3   48.50    6.20   1
  -9 -14   3   55.89    6.90   1
  -9 -14   3   46.10    6.60   1
 -10 -14  -3  291.67   14.10   1
  10 -14   3  312.97   17.30   1
 -10 -14  -3  332.37   13.50   1
 -10 -14   3  322.17   14.50   1
 -10 -14   3  323.17   14.90   1
 -11 -14  -3   18.60    5.10   1
  11 -14   3   41.40    9.00   1
 -11 -14   3   34.10    6.50   1
 -11 -14   3   44.50    7.00   1
  12 -14   3   -1.20    6.70   1
 -12  14   3    4.80    5.80   1
 -12 -14  -3   -6.40    4.30   1
 -12 -14   3    2.60    5.20   1
 -12 -14   3   -4.90    5.20   1
   0 -15   3   67.69    5.70   1
   0 -15   3   72.79    6.30   1
   0 -15   3   63.39    5.90   1
   0 -15  -3   80.49    6.70   1
   1 -15   3  740.23   23.90   1
   1 -15   3  710.53   24.90   1
  -1 -15  -3  714.03   24.90   1
   1 -15   3  695.23   24.50   1
  -1 -15   3  748.33   24.30   1
  -1 -15   3  720.83   24.90   1
   1 -15  -3  707.33   24.70   1
  -1 -15   3  736.33   24.50   1
   2 -15   3   57.89    5.70   1
  -2  15   3   58.49    6.60   1
  -2 -15  -3   55.39    6.10   1
   2 -15   3   55.69    5.70   1
   2 -15   3   52.79    6.00   1
  -2 -15   3   60.59    5.80   1
  -2 -15   3   61.19    5.70   1
  -2 -15   3   64.29    6.30   1
  -3 -15  -3   30.70    5.20   1
   3 -15   3   48.50    6.10   1
   3 -15   3   29.50    4.50   1
  -3  15   3   45.00    6.10   1
  -3 -15   3   35.30    5.10   1
  -3 -15   3   37.40    5.00   1
  -3 -15   3   34.10    5.40   1
  -4  15   3   50.89    6.40   1
   4 -15   3   47.30    6.60   1
  -4 -15  -3   42.10    5.90   1
  -4  15   3   46.60    5.50   1
   4 -15   3   46.50    5.10   1
  -4 -15   3   41.50    5.40   1
  -4 -15   3   47.80    5.90   1
  -4 -15   3   36.80    5.60   1
  -5  15   3  552.74   20.00   1
  -5 -15  -3  534.45   20.50   1
  -5 -15  -3  540.95   20.20   1
  -5  15   3  552.44   20.70   1
   5 -15   3  541.55   21.30   1
  -5 -15   3  557.54   20.40   1
  -5 -15   3  567.24   20.40   1
  -6 -15  -3   59.79    6.40   1
  -6 -15  -3   55.49    6.20   1
   6 -15   3   51.19    7.20   1
  -6  15   3   63.09    6.70   1
  -6  15   3   59.59    6.40   1
  -6 -15   3   52.69    6.30   1
  -6 -15   3   55.79    6.50   1
  -7 -15  -3  520.65   19.70   1
  -7 -15  -3  532.65   19.90   1
  -7  15   3  542.25   20.20   1
   7 -15   3  540.55   21.70   1
  -7  15   3  500.25   20.40   1
  -7 -15   3  533.95   20.10   1
  -7 -15   3  532.15   20.20   1
  -8 -15  -3   28.40    5.20   1
  -8  15   3   32.30    5.80   1
  -8 -15  -3   37.70    5.60   1
   8 -15   3   32.60    7.20   1
  -8 -15   3   35.10    6.00   1
  -8 -15   3   38.60    6.30   1
   9 -15   3   15.70    7.00   1
  -9 -15  -3   16.30    5.10   1
  -9 -15  -3    8.70    4.60   1
  -9  15   3    5.60    4.50   1
  -9 -15   3   10.70    5.60   1
  -9 -15   3    3.20    5.20   1
 -10 -15  -3   19.50    5.30   1
 -10 -15  -3   18.90    5.30   1
  10 -15   3   29.70    8.60   1
 -10 -15   3   20.50    6.10   1
 -10 -15   3   26.60    5.90   1
  11 -15   3  309.57   17.40   1
 -11 -15   3  265.77   14.50   1
 -11 -15   3  291.77   14.20   1
   0 -16  -3  106.99    8.40   1
   0 -16   3   95.89    7.30   1
   0 -16   3  113.89    8.00   1
   0 -16   3  101.89    7.60   1
   1 -16   3    4.10    4.20   1
   1 -16   3    0.10    3.60   1
  -1 -16  -3   -1.60    3.90   1
   1 -16   3    4.70    3.40   1
  -1 -16   3    4.30    3.70   1
  -1 -16   3    5.20    3.60   1
  -1 -16   3    5.60    4.10   1
   2 -16   3  213.58   10.90   1
  -2  16   3  181.48   11.00   1
  -2 -16  -3  173.08   10.40   1
   2 -16   3  203.98   10.00   1
  -2 -16   3  196.78   10.10   1
  -2 -16   3  205.48   11.10   1
  -3 -16  -3   35.40    5.80   1
   3 -16   3   31.90    5.60   1
   3 -16   3   41.00    5.00   1
  -3  16   3   39.20    6.10   1
  -3 -16   3   35.50    5.70   1
  -3 -16   3   48.30    6.10   1
  -4  16   3  130.09    8.30   1
   4 -16   3  123.79    9.20   1
  -4  16   3  112.79    9.50   1
  -4 -16  -3  119.99    8.60   1
  -4 -16   3  118.69    8.40   1
  -4 -16   3  120.89    8.40   1
  -5  16   3   -3.20    3.80   1
  -5 -16  -3    2.10    4.40   1
  -5  16   3    0.60    4.80   1
   5 -16   3   -2.10    5.20   1
  -5 -16   3    0.20    4.20   1
  -5 -16   3   -0.10    4.40   1
   6 -16   3   61.99    7.90   1
  -6 -16  -3   61.69    6.80   1
  -6  16   3   55.99    6.80   1
  -6  16   3   63.89    6.60   1
  -6 -16  -3   56.19    6.60   1
  -6 -16   3   49.80    6.90   1
  -6 -16   3   67.29    7.00   1
   7 -16   3   -2.50    6.00   1
  -7 -16  -3    0.70    4.40   1
  -7 -16  -3    6.20    4.60   1
  -7  16   3    1.70    4.70   1
  -7 -16   3   -5.70    4.80   1
  -7 -16   3   -1.00    4.60   1
  -8 -16  -3  110.29    8.60   1
  -8  16   3  127.29    9.20   1
  -8 -16  -3  124.09    8.80   1
   8 -16   3  127.99   11.30   1
  -8 -16   3  133.99    9.60   1
  -8 -16   3  133.09    9.60   1
   9 -16   3   27.80    7.70   1
  -9 -16  -3   27.30    5.90   1
  -9 -16  -3   25.50    5.50   1
  -9  16   3   26.00    5.40   1
  -9 -16   3   21.30    5.80   1
  -9 -16   3   25.90    6.60   1
 -10 -16  -3   29.90    5.80   1
  10 -16   3   43.80    9.40   1
 -10 -16  -3   42.40    6.00   1
 -10 -16   3   48.30    7.40   1
 -10 -16   3   33.50    6.90   1
   0 -17   3   75.19    6.40   1
   0 -17   3   55.59    6.30   1
   0 -17  -3   64.39    7.00   1
   1 -17   3  369.16   15.40   1
  -1 -17  -3  367.56   15.60   1
   1 -17   3  380.16   14.60   1
  -1 -17   3  351.66   15.00   1
   2 -17   3  145.69   10.00   1
  -2  17   3  129.59    9.80   1
  -2 -17  -3  135.59    9.30   1
  -2 -17   3  141.69    9.20   1
  -3  17   3   10.40    5.60   1
  -3 -17  -3    9.60    4.90   1
   3 -17   3   18.80    5.30   1
  -3  17   3   11.20    4.30   1
  -3 -17   3    9.10    4.50   1
   4 -17   3  146.79   10.70   1
  -4  17   3  146.89    9.30   1
  -4 -17  -3  126.59    9.40   1
  -4  17   3  148.39   10.10   1
  -4 -17   3  136.99    9.20   1
  -4 -17   3  144.49    9.30   1
  -5  17   3  260.27   12.50   1
  -5  17   3  269.67   13.20   1
  -5 -17  -3  259.77   12.70   1
   5 -17   3  252.67   13.60   1
  -5 -17   3  257.97   12.60   1
  -5 -17   3  233.08   12.40   1
  -6  17   3   54.29    7.20   1
  -6 -17  -3   41.70    6.30   1
   6 -17   3   49.50    8.00   1
  -6  17   3   55.19    6.60   1
  -6 -17   3   40.10    6.60   1
  -6 -17   3   40.90    6.70   1
  -7 -17  -3  367.86   15.70   1
   7 -17   3  355.86   17.40   1
  -7  17   3  344.67   15.40   1
  -7 -17  -3  361.26   15.50   1
  -7 -17   3  356.06   15.90   1
  -7 -17   3  357.86   16.30   1
  -8 -17  -3   78.29    8.10   1
  -8  17   3   89.09    8.10   1
  -8 -17  -3  104.19    8.50   1
   8 -17   3   92.19   10.10   1
  -8 -17   3   99.39    9.20   1
  -8 -17   3   83.49    8.60   1
  -9 -17  -3   -1.70    4.60   1
   9 -17   3   -4.90    6.50   1
  -9 -17  -3    1.50    4.90   1
  -9 -17   3    8.00    5.50   1
  -9 -17   3    7.10    5.60   1
   0 -18   3    7.40    4.50   1
   0 -18  -3    5.00    4.80   1
   0 -18   3    6.50    4.30   1
   1 -18   3   23.30    5.60   1
  -1 -18  -3    8.80    5.10   1
  -1  18   3   24.50    5.90   1
  -1 -18   3   25.00    5.20   1
   2 -18   3  588.44   21.80   1
  -2 -18  -3  550.14   21.40   1
  -2  18   3  556.54   22.20   1
  -2 -18   3  576.54   21.00   1
  -3  18   3   62.69    6.50   1
  -3  18   3   59.89    7.80   1
   3 -18   3   58.89    7.60   1
  -3 -18  -3   42.90    7.00   1
  -3 -18   3   65.19    7.20   1
  -4  18   3  429.46   17.10   1
  -4  18   3  422.96   18.10   1
  -4 -18  -3  415.76   17.60   1
   4 -18   3  427.16   18.40   1
  -4 -18   3  419.66   17.70   1
   5 -18   3   16.60    6.00   1
  -5  18   3   16.30    5.10   1
  -5 -18  -3   17.70    5.50   1
  -5  18   3   22.30    5.90   1
  -5 -18   3   13.20    5.70   1
  -5 -18   3   12.60    6.20   1
  -6 -18  -3    8.50    5.30   1
  -6  18   3   12.10    5.10   1
  -6  18   3    6.80    5.00   1
   6 -18   3   12.50    6.20   1
  -6 -18   3   11.40    6.20   1
  -6 -18   3    6.60    5.50   1
  -7 -18  -3   11.30    5.70   1
  -7  18   3   11.50    5.60   1
   7 -18   3   12.50    6.90   1
  -7 -18   3   12.20    5.80   1
  -7 -18   3    9.50    5.80   1
   8 -18   3  411.76   20.10   1
  -8 -18  -3  407.06   17.10   1
  -8  18   3  383.16   16.90   1
  -8 -18   3  417.86   17.50   1
  -8 -18   3  412.76   17.40   1
   0 -19   3   83.59    7.50   1
  -1  19   3  113.29    9.90   1
  -1 -19  -3  122.29    9.60   1
  -1 -19   3   95.69    8.10   1
  -2 -19  -3   44.70    7.20   1
   2 -19   3   57.19    7.40   1
  -2  19   3   47.70    7.80   1
  -2 -19   3   62.39    7.10   1
   3 -19   3   15.40    5.70   1
  -3  19   3    3.80    6.10   1
  -3  19   3   22.60    5.20   1
  -3 -19  -3   14.60    5.80   1
  -3 -19   3   26.90    5.90   1
   4 -19   3   49.00    7.80   1
  -4  19   3   51.29    7.40   1
  -4  19   3   51.19    6.60   1
  -4 -19  -3   55.69    7.40   1
  -4 -19   3   53.89    7.10   1
  -5  19   3   73.99    7.40   1
  -5 -19  -3   81.39    8.20   1
  -5  19   3   81.19    8.40   1
   5 -19   3   80.19    8.90   1
  -5 -19   3   70.89    8.00   1
  -6  19   3   43.30    6.90   1
   6 -19   3   52.89    8.40   1
  -6 -19  -3   54.99    7.20   1
  -6 -19   3   57.69    7.70   1
  -6 -19   3   54.69    7.90   1
  -7 -19  -3   94.89    8.90   1
  -7  19   3  108.79    9.40   1
   7 -19   3  146.79   12.20   1
  -7 -19   3   86.69    9.10   1
  -7 -19   3  106.39    9.70   1
   0  20   3   18.20    6.40   1
  -1  20   3   82.49    8.80   1
  -1 -20   3   91.59    8.50   1
  -2  20   3  147.79   11.10   1
  -2 -20  -3  134.59   10.50   1
  -2  20   3  155.98   10.00   1
  -2 -20   3  130.09   10.20   1
  -3  20   3  149.19   11.00   1
  -3 -20  -3  126.89   10.20   1
  -3  20   3  129.79    9.70   1
   3 -20   3  134.89   11.10   1
  -3 -20   3  151.58   10.80   1
  -4 -20  -3  126.69   10.00   1
  -4  20   3  116.29    9.50   1
   4 -20   3  131.39   10.40   1
  -4  20   3  107.39   10.20   1
  -4 -20   3  117.29    9.80   1
  -5 -20  -3   72.79    8.10   1
  -5  20   3   68.19    8.20   1
   5 -20   3   75.59    8.70   1
  -5  20   3   71.19    7.60   1
   0  21   3    3.60    6.40   1
  -1  21   3  433.76   18.90   1
   1  21   3  412.56   19.20   1
  -2  21   3    7.10    4.70   1
  -2  21   3    8.50    6.60   1
  -2 -21   3    7.80    5.70   1
  -3  21   3   26.10    7.00   1
  -3 -21  -3   21.10    6.90   1
  -3  21   3   23.30    5.70   1
  -3 -21   3   30.00    6.30   1
   0   0  -4 3861.61  111.69   1
   0   0   4 3961.10  111.89   1
   0   0   4 3560.34  110.89   1
   0   0   4 4031.90  110.99   1
   1   0  -4    0.50    1.70   1
  -1   0   4    0.10    1.20   1
   1   0   4    2.00    1.60   1
   1   0   4    0.70    1.20   1
   1   0   4    0.00    1.00   1
  -1   0   4    0.30    1.30   1
  -1   0  -4    5.60    1.40   1
  -1   0   4    1.10    1.80   1
   2   0  -4  399.06   13.90   1
  -2   0   4  371.96   12.70   1
  -2   0   4  387.76   12.90   1
   2   0   4  395.96   12.60   1
   2   0   4  395.16   12.30   1
  -2   0   4  392.76   13.90   1
  -2   0  -4  393.96   13.10   1
  -2   0   4  403.86   12.40   1
   2   0   4  409.46   13.40   1
  -2   0   4  396.46   12.30   1
   3   0   4    0.60    0.90   1
  -3   0   4   -1.90    2.00   1
  -3   0   4    0.80    1.20   1
   3   0   4   -0.30    1.30   1
  -3   0   4    0.60    1.40   1
  -3   0   4    0.30    1.60   1
   3   0   4    0.00    1.50   1
  -3   0   4   -1.00    1.30   1
   3   0   4   -0.40    1.60   1
  -3   0  -4   -1.60    1.50   1
  -4   0   4  150.98    6.20   1
  -4   0   4  156.78    6.70   1
  -4   0   4  157.18    6.20   1
  -4   0   4  158.58    7.70   1
  -4   0  -4  160.28    6.40   1
   4   0   4  155.38    7.10   1
   4   0   4  157.18    6.70   1
   4   0   4  150.28    6.00   1
  -4   0   4  164.08    6.10   1
   5   0   4    0.10    1.80   1
  -5   0  -4   -0.30    1.60   1
   5   0   4    1.00    2.30   1
  -5   0   4    3.20    2.20   1
  -5   0   4    1.30    1.70   1
   5   0   4   -0.90    1.50   1
  -5   0   4   -1.20    1.40   1
  -5   0   4    6.40    1.90   1
  -6   0   4 2769.42   83.19   1
  -6   0   4 2897.01   82.99   1
   6   0   4 2864.91   83.79   1
  -6   0   4 2800.22   82.69   1
   6   0   4 2839.32   82.39   1
  -7   0   4    2.00    2.40   1
  -7   0   4    1.90    2.10   1
  -7   0   4    1.20    2.40   1
   7   0   4    1.30    1.80   1
  -8   0   4  226.38    9.20   1
  -8   0   4  213.78    9.60   1
   8   0   4  239.28   10.20   1
   8   0   4  202.48    8.70   1
  -8   0   4  237.08    9.80   1
  -9   0   4   -2.50    2.20   1
   9   0   4   -1.20    3.10   1
  -9   0   4    1.30    2.80   1
  -9   0   4   -2.50    2.90   1
   9   0   4   -2.00    2.40   1
  10   0   4   28.50    4.00   1
 -10   0   4   28.40    4.30   1
  10   0   4   39.60    5.10   1
 -10   0   4   33.70    5.00   1
 -10   0   4   41.00    5.00   1
 -11   0   4    2.00    4.00   1
  11   0   4    3.60    3.30   1
  11   0   4    0.50    3.80   1
 -11   0   4   -0.70    3.20   1
 -11   0   4   -2.50    3.50   1
  12   0   4 1126.09   45.00   1
 -12   0   4 1220.68   39.10   1
 -12   0   4 1236.28   40.20   1
  12   0   4 1245.58   38.80   1
 -12   0   4 1253.97   38.80   1
 -13   0   4    0.40    4.40   1
  13   0   4   -2.50    3.80   1
 -13   0   4    2.80    4.80   1
 -13   0   4    3.00    4.10   1
  14   0   4   37.10    5.50   1
 -14   0   4   34.50    7.00   1
  15   0   4   -3.50    4.50   1
 -15   0   4   10.40    6.80   1
   0   1  -4  681.53   21.40   1
   0  -1   4  698.03   20.50   1
   0   1   4  678.33   21.30   1
   0   1   4  628.04   20.40   1
   0  -1   4  651.53   20.50   1
   0   1   4  662.73   20.40   1
   0  -1   4  685.43   21.50   1
   1  -1   4    5.50    1.50   1
   1  -1   4    2.00    1.30   1
  -1   1   4    2.00    1.90   1
  -1   1   4    1.30    1.30   1
   1   1  -4    3.20    2.10   1
  -1  -1  -4    2.20    1.60   1
  -1   1   4    0.20    1.20   1
   1  -1   4    0.60    1.10   1
   1  -1   4    1.40    1.70   1
   1  -1  -4    2.20    1.80   1
  -1  -1   4    1.10    1.30   1
  -1  -1   4    0.80    1.10   1
   1   1   4    1.50    1.20   1
  -1  -1   4    4.40    2.10   1
   1   1   4    1.60    1.10   1
  -1   1  -4    2.70    1.70   1
   1   1   4    3.00    1.70   1
  -1  -1   4    2.70    1.40   1
   2  -1   4  392.46   13.10   1
  -2  -1  -4  390.16   12.60   1
   2  -1   4  395.36   11.90   1
  -2   1   4  391.26   13.70   1
   2  -1   4  371.56   12.30   1
  -2   1   4  372.66   12.40   1
   2   1  -4  399.06   13.70   1
  -2   1   4  394.46   11.90   1
   2  -1   4  352.06   13.00   1
  -2   1   4  393.96   11.90   1
  -2   1   4  379.26   12.60   1
  -2  -1   4  389.26   12.30   1
   2   1   4  352.36   12.10   1
  -2  -1   4  383.26   12.40   1
  -2  -1   4  366.36   12.60   1
   2   1   4  388.76   12.80   1
  -2  -1   4  403.36   13.70   1
   2   1   4  378.66   12.00   1
  -2  -1   4  371.96   11.90   1
  -3   1   4 2820.82   84.79   1
  -3   1   4 2926.21   85.39   1
  -3   1   4 2928.01   86.89   1
   3  -1   4 2903.61   86.09   1
  -3   1   4 2954.80   85.69   1
   3  -1   4 2991.90   85.29   1
  -3  -1  -4 2995.80   85.39   1
  -3   1   4 2994.60   85.19   1
   3  -1   4 2877.11   86.19   1
   3   1  -4 2925.61   86.79   1
   3  -1   4 3121.09   84.59   1
  -3  -1   4 2662.83   85.29   1
   3   1   4 3013.20   85.69   1
   3   1   4 2946.21   84.69   1
  -3  -1   4 3007.80   85.29   1
   3   1   4 2935.11   85.09   1
  -3   1  -4 3002.10   85.99   1
  -3  -1   4 3102.39   86.99   1
  -3  -1   4 2904.61   85.79   1
  -3  -1   4 2925.81   85.19   1
  -4   1   4  414.86   13.90   1
  -4   1   4  442.46   13.90   1
  -4   1   4  411.76   13.50   1
  -4   1   4  430.16   14.30   1
  -4  -1  -4  438.76   13.80   1
   4  -1   4  423.66   13.90   1
  -4   1   4  445.06   15.60   1
   4  -1   4  407.16   14.60   1
   4  -1   4  411.86   14.50   1
  -4   1  -4  432.66   14.30   1
   4   1   4  426.76   13.50   1
   4   1   4  421.36   14.90   1
  -4  -1   4  433.66   13.90   1
  -4  -1   4  448.26   15.50   1
  -4  -1   4  436.36   13.90   1
  -4  -1   4  448.46   14.00   1
  -4  -1   4  418.56   14.30   1
   4   1   4  430.56   14.20   1
  -5   1   4    5.50    1.80   1
  -5  -1  -4    9.30    1.30   1
  -5   1   4    6.00    1.90   1
  -5   1   4    7.70    2.30   1
   5  -1   4    8.40    2.40   1
  -5  -1  -4    8.30    1.70   1
   5  -1   4    7.90    1.90   1
   5  -1   4    7.90    2.60   1
  -5   1   4    6.20    1.90   1
  -5  -1   4    1.90    2.20   1
   5   1   4    4.90    2.50   1
   5   1   4    5.80    1.60   1
  -5  -1   4    5.50    2.00   1
  -5   1  -4    3.60    1.90   1
  -5  -1   4    5.30    2.00   1
   5   1   4    4.70    1.90   1
  -6  -1  -4  363.86   11.30   1
  -6   1   4  388.46   12.50   1
  -6   1   4  335.17   11.70   1
   6  -1   4  340.27   11.90   1
  -6   1   4  365.86   12.70   1
   6  -1   4  335.07   12.90   1
  -6  -1   4  341.37   12.30   1
   6   1   4  345.17   13.00   1
  -6  -1   4  340.07   12.60   1
   6   1   4  322.57   12.60   1
   6   1   4  330.67   11.50   1
  -6  -1   4  357.36   12.40   1
  -7   1   4   14.50    3.00   1
   7  -1   4    9.30    2.30   1
  -7  -1  -4   10.90    1.90   1
  -7   1   4    6.50    2.70   1
   7  -1   4   17.20    3.50   1
  -7   1   4    3.60    2.00   1
  -7  -1   4   11.00    2.80   1
  -7  -1   4   13.00    2.80   1
   7   1   4    7.40    2.00   1
   7   1   4    9.80    3.10   1
  -7  -1   4    8.90    3.00   1
  -8   1   4  176.38    8.30   1
  -8  -1  -4  179.58    7.20   1
  -8   1   4  179.18    8.30   1
   8  -1   4  159.68    8.60   1
   8  -1   4  165.58    7.70   1
  -8  -1   4  164.58    7.90   1
   8   1   4  167.68    7.20   1
  -8  -1   4  154.88    7.80   1
  -8  -1   4  176.38    8.30   1
   8   1   4  177.48    8.60   1
  -8  -1   4  169.98    8.30   1
   9  -1   4 1066.39   33.70   1
  -9   1   4 1117.89   34.70   1
   9  -1   4 1030.00   34.60   1
  -9   1   4 1094.59   34.30   1
  -9  -1   4 1064.29   33.90   1
   9   1   4 1181.08   35.00   1
  -9  -1   4 1078.09   34.60   1
   9   1   4 1048.20   33.20   1
  -9  -1   4 1076.29   34.40   1
  -9  -1   4 1058.09   33.90   1
 -10   1   4  187.28    9.80   1
  10  -1   4  201.58    9.80   1
  10  -1   4  176.78    8.80   1
 -10   1   4  180.98    9.20   1
 -10   1   4  182.08    9.00   1
 -10  -1   4  186.28    9.20   1
 -10  -1   4  182.68    9.30   1
 -10  -1   4  190.98    9.80   1
  10   1   4  175.38    8.40   1
  10   1   4  169.18    9.20   1
 -11   1   4    0.40    3.90   1
 -11   1   4   -1.60    3.20   1
  11  -1   4    2.70    3.80   1
  11  -1   4    0.60    3.40   1
 -11   1   4    0.10    4.10   1
  11   1   4    0.00    3.70   1
  11   1   4    1.50    3.10   1
 -11  -1   4   -5.50    3.70   1
 -11  -1   4    3.40    4.20   1
 -11  -1   4    1.10    3.90   1
  12  -1   4   92.79    7.50   1
 -12   1   4   84.29    8.10   1
 -12   1   4   99.39    7.40   1
 -12   1   4   95.29    7.70   1
  12  -1   4   79.49    7.40   1
 -12  -1   4   91.39    7.50   1
 -12  -1   4   95.99    8.30   1
 -12  -1   4   87.49    7.20   1
  12   1   4   83.39    7.00   1
 -13   1   4    6.40    4.50   1
 -13   1   4    8.30    4.40   1
 -13   1   4   10.50    5.40   1
  13  -1   4    6.10    4.20   1
 -13  -1   4   -3.30    4.70   1
 -13  -1   4    9.20    4.70   1
 -13  -1   4    3.00    4.00   1
  13   1   4    5.10    3.80   1
  14  -1   4   73.19    7.20   1
 -14   1   4   70.79    8.60   1
  14   1   4   95.09    7.50   1
 -14  -1   4   64.89    8.60   1
 -14  -1   4   75.89    7.00   1
  15  -1   4  331.47   14.90   1
 -15   1   4  318.97   16.30   1
  15   1   4  332.87   14.40   1
 -15  -1   4  314.07   16.60   1
   0   2   4 1403.06   41.90   1
   0   2   4 1448.76   42.90   1
   0   2  -4 1432.96   43.10   1
   0   2   4 1398.36   42.10   1
   0  -2   4 1462.35   42.20   1
   0  -2   4 1434.66   42.10   1
   0  -2   4 1450.35   43.20   1
   0  -2   4 1405.56   42.40   1
  -1   2   4  214.28    7.80   1
   1   2  -4  221.48    8.80   1
  -1   2   4  202.88    7.50   1
   1  -2   4  224.98    7.50   1
   1  -2   4  215.88    8.60   1
  -1   2   4  210.58    8.70   1
   1  -2   4  215.28    7.70   1
   1  -2   4  215.68    8.10   1
  -1  -2  -4  220.38    7.90   1
  -1  -2   4  234.68    7.80   1
  -1  -2   4  217.48    7.60   1
   1   2   4  212.88    8.10   1
  -1   2  -4  210.78    8.50   1
  -1  -2   4  209.28    7.70   1
   1   2   4  209.08    7.30   1
  -1  -2   4  212.88    8.70   1
   1   2   4  215.58    7.50   1
  -1  -2   4  218.08    7.70   1
  -2   2   4    7.50    1.10   1
  -2   2   4    9.80    2.50   1
   2  -2   4    8.50    2.40   1
   2  -2   4    5.40    1.60   1
  -2   2   4    9.40    1.70   1
   2  -2   4    8.90    2.10   1
   2  -2   4    5.10    1.20   1
  -2  -2  -4    9.00    1.60   1
  -2   2   4    7.00    1.80   1
  -2   2  -4    6.40    2.00   1
   2   2   4    8.90    1.90   1
   2   2   4    7.30    1.40   1
   2   2   4    5.50    1.20   1
  -2  -2   4    4.40    1.60   1
  -2  -2   4    6.20    1.50   1
  -2  -2   4    4.00    2.20   1
  -2  -2   4    7.70    1.40   1
  -2  -2   4    6.80    1.80   1
  -3   2   4  317.47   11.20   1
  -3   2   4  326.17   10.20   1
   3  -2   4  280.87   11.60   1
  -3  -2  -4  327.57   10.60   1
  -3   2   4  345.57   11.10   1
   3  -2   4  310.77   10.90   1
   3  -2   4  319.07   11.70   1
  -3   2   4  344.27   12.50   1
   3  -2   4  342.27   10.20   1
   3   2  -4  331.57   12.40   1
  -3  -2   4  320.27   10.90   1
  -3  -2   4  322.27   11.20   1
   3   2   4  314.87   11.00   1
   3   2   4  327.47   10.40   1
  -3  -2   4  334.67   12.30   1
   3   2   4  332.77   10.40   1
  -3  -2   4  332.27   10.90   1
  -3  -2   4  328.57   10.50   1
  -3  -2   4  324.57   10.80   1
   4   2  -4   28.50    3.90   1
  -4   2   4   29.20    2.70   1
  -4   2   4   29.80    2.30   1
   4  -2   4   25.40    3.20   1
   4  -2   4   26.00    2.60   1
  -4   2   4   25.50    2.90   1
  -4  -2  -4   30.00    1.80   1
   4  -2   4   27.80    3.40   1
  -4  -2  -4   26.10    2.20   1
  -4   2   4   22.70    3.50   1
   4   2   4   26.30    2.10   1
  -4  -2   4   21.20    2.80   1
  -4  -2   4   27.10    2.60   1
  -4  -2   4   33.20    2.70   1
  -4   2  -4   32.40    3.20   1
  -4  -2   4   28.50    2.00   1
   4   2   4   30.30    2.00   1
  -4  -2   4   21.10    2.50   1
   4   2   4   34.40    3.10   1
  -5  -2  -4   91.89    3.90   1
  -5   2   4   87.39    4.10   1
  -5   2   4   90.39    4.80   1
  -5   2   4  100.19    4.90   1
   5  -2   4   98.09    5.70   1
   5  -2   4   88.09    4.80   1
  -5   2   4   95.09    6.30   1
  -5   2   4   91.19    4.70   1
  -5  -2   4   92.39    4.80   1
   5   2   4   88.79    4.50   1
  -5  -2   4   89.39    4.90   1
  -5   2  -4   92.59    5.20   1
   5   2   4   90.49    4.10   1
  -5  -2   4   88.09    4.80   1
   5   2   4   96.59    5.70   1
  -6   2   4 1015.10   30.40   1
   6  -2   4 1016.90   30.20   1
  -6  -2  -4  973.00   29.30   1
  -6   2   4  994.80   30.10   1
  -6   2   4  944.91   29.30   1
  -6   2   4 1003.60   30.60   1
   6  -2   4  972.00   31.10   1
   6   2   4  928.71   29.20   1
  -6  -2   4  944.51   30.40   1
  -6  -2   4 1002.10   30.70   1
  -6  -2   4 1008.30   30.40   1
   6   2   4  952.50   29.90   1
   6   2   4 1000.80   31.10   1
  -7   2   4  204.68    8.90   1
  -7   2   4  220.98    8.90   1
  -7  -2  -4  213.88    7.80   1
   7  -2   4  201.78    8.40   1
   7  -2   4  208.68    9.50   1
  -7  -2   4  185.08    8.50   1
  -7  -2   4  198.78    9.00   1
  -7  -2   4  200.18    8.70   1
  -7  -2   4  207.28    8.80   1
   7   2   4  205.68    9.20   1
   7   2   4  198.48    7.50   1
  -8   2   4    2.50    2.90   1
   8  -2   4   -0.40    2.40   1
  -8  -2  -4    4.80    2.00   1
  -8   2   4    5.90    3.00   1
   8  -2   4   -0.10    3.00   1
   8   2   4    3.00    1.90   1
  -8  -2   4    1.80    2.60   1
  -8  -2   4    1.90    2.80   1
  -8  -2   4    7.30    3.00   1
   8   2   4    5.40    2.90   1
  -8  -2   4   -0.80    2.70   1
   9  -2   4   82.99    6.60   1
  -9   2   4   75.09    5.90   1
   9  -2   4   76.89    6.00   1
  -9   2   4   64.89    6.10   1
  -9  -2  -4   82.89    5.10   1
  -9  -2   4   86.99    5.90   1
  -9  -2   4   87.59    6.80   1
   9   2   4   76.29    4.90   1
   9   2   4   73.69    6.00   1
  -9  -2   4   82.29    6.30   1
  -9  -2   4   83.19    5.90   1
  10  -2   4   26.70    5.10   1
 -10   2   4   20.00    4.60   1
  10  -2   4   26.30    4.20   1
 -10   2   4   21.30    4.40   1
  10   2   4   19.60    4.20   1
 -10  -2   4   26.60    4.50   1
 -10  -2   4   20.50    4.50   1
 -10  -2   4   25.80    4.50   1
  10   2   4   21.10    3.30   1
 -10  -2   4   24.50    4.30   1
  11  -2   4   50.19    5.50   1
 -11   2   4   52.39    5.70   1
  11  -2   4   42.30    5.80   1
 -11   2   4   37.60    4.80   1
 -11   2   4   51.49    6.10   1
 -11  -2   4   48.30    5.70   1
  11   2   4   54.09    5.60   1
  11   2   4   47.50    4.70   1
 -11  -2   4   59.29    5.70   1
 -11  -2   4   45.00    6.00   1
 -12   2   4  385.76   15.80   1
  12  -2   4  396.06   16.30   1
 -12   2   4  386.06   16.60   1
  12  -2   4  384.66   15.80   1
 -12   2   4  382.86   14.90   1
 -12  -2   4  417.46   16.90   1
  12   2   4  373.36   14.80   1
 -12  -2   4  398.36   15.70   1
 -12  -2   4  401.06   15.90   1
  13  -2   4   67.29    6.90   1
 -13   2   4   60.29    7.70   1
 -13   2   4   89.29    6.80   1
 -13   2   4   76.29    7.00   1
 -13  -2   4   78.79    7.10   1
 -13  -2   4   77.99    7.30   1
 -13  -2   4   70.19    7.80   1
  13   2   4   74.79    6.40   1
 -14   2   4    4.80    6.10   1
  14  -2   4    5.60    4.60   1
 -14  -2   4    7.00    4.60   1
 -14  -2   4    8.40    5.90   1
  14   2   4    5.70    4.20   1
 -15   2   4    5.10    7.10   1
  15  -2   4   19.50    5.60   1
 -15  -2   4   14.90    6.60   1
  15   2   4   11.60    4.80   1
   0  -3   4   63.79    3.40   1
   0   3   4   59.79    3.40   1
   0  -3   4   57.29    3.60   1
   0  -3   4   55.59    4.30   1
   0   3  -4   58.69    4.40   1
   0   3   4   52.09    4.00   1
   0  -3   4   57.79    3.50   1
   0   3   4   59.59    3.10   1
   1  -3   4  895.91   27.70   1
  -1   3   4  920.71   27.50   1
   1   3  -4  931.01   28.60   1
   1  -3   4  903.91   27.10   1
   1  -3   4  926.11   28.40   1
  -1   3   4  878.41   28.20   1
  -1   3   4  875.81   27.10   1
   1  -3   4  925.21   27.40   1
   1  -3   4  921.71   26.90   1
  -1  -3   4  936.51   27.30   1
   1   3   4  877.31   26.80   1
   1   3   4  918.31   27.30   1
  -1  -3   4  924.21   27.50   1
  -1  -3   4  902.71   26.50   1
  -1  -3   4  923.51   27.40   1
  -1  -3   4  886.21   27.30   1
  -1   3  -4  872.11   28.30   1
  -1  -3   4  869.51   28.30   1
   1   3   4  909.61   27.60   1
   2  -3   4  327.97   10.40   1
   2  -3   4  319.87   11.40   1
   2   3  -4  327.57   12.10   1
  -2   3   4  303.07   10.60   1
   2  -3   4  344.77   10.20   1
   2  -3   4  313.07   10.80   1
  -2   3   4  330.27    9.80   1
  -2   3   4  314.27   11.10   1
   2  -3   4  304.77   11.80   1
  -2   3   4  320.67   12.10   1
  -2  -3   4  327.07   10.40   1
  -2  -3   4  340.67   10.60   1
   2   3   4  307.37   10.60   1
  -2   3  -4  328.37   11.80   1
  -2  -3   4  327.77   12.00   1
  -2  -3   4  333.57   11.20   1
  -2  -3   4  336.17   10.80   1
  -2  -3   4  333.07   10.90   1
   2   3   4  304.87   10.80   1
   2   3   4  308.97   10.10   1
  -3   3   4 3609.64  108.39   1
  -3   3   4 3730.13  109.59   1
  -3   3   4 3575.14  107.99   1
   3  -3   4 4012.70  109.29   1
  -3   3   4 3694.73  106.99   1
  -3  -3  -4 3744.53  107.19   1
   3  -3   4 3542.85  108.09   1
   3   3  -4 3872.11  109.69   1
   3  -3   4 3862.11  107.29   1
   3  -3   4 3733.63  107.19   1
   3  -3   4 3789.22  108.89   1
  -3  -3   4 3759.92  108.59   1
  -3  -3   4 3735.53  108.19   1
  -3  -3   4 3776.02  107.99   1
  -3  -3   4 3783.42  107.59   1
   3   3   4 3703.23  107.89   1
  -3  -3   4 3670.03  107.89   1
  -3   3  -4 3688.03  108.99   1
   3   3   4 3782.32  107.29   1
   3   3   4 3789.02  107.69   1
  -4  -3  -4  123.89    4.60   1
   4  -3   4  114.69    5.50   1
   4  -3   4  123.99    6.40   1
   4  -3   4  112.99    6.10   1
  -4   3   4  119.09    5.80   1
  -4   3   4  114.39    4.20   1
  -4   3   4  131.29    7.00   1
  -4   3   4  126.29    5.50   1
   4   3  -4  114.79    6.80   1
  -4  -3   4  117.49    5.90   1
  -4  -3   4  127.49    4.50   1
  -4  -3   4  122.59    5.40   1
  -4  -3   4  129.29    5.70   1
   4   3   4  119.59    5.20   1
   4   3   4  125.79    4.80   1
  -4   3  -4  121.49    6.10   1
  -4  -3   4  132.49    5.60   1
   4   3   4  130.69    4.60   1
  -5   3   4  624.84   19.80   1
   5  -3   4  609.04   19.90   1
  -5   3   4  619.74   20.20   1
   5  -3   4  635.34   20.80   1
  -5   3   4  623.34   18.50   1
   5   3  -4  629.94   21.50   1
  -5  -3  -4  646.04   19.10   1
  -5  -3   4  599.04   20.00   1
  -5  -3   4  636.94   20.20   1
   5   3   4  608.34   19.30   1
   5   3   4  596.84   18.70   1
  -5  -3   4  650.33   20.00   1
  -5  -3   4  628.24   20.40   1
  -6   3   4   58.09    4.70   1
  -6  -3  -4   66.79    3.60   1
  -6   3   4   68.49    4.40   1
   6  -3   4   65.99    4.60   1
  -6   3   4   64.69    4.60   1
   6  -3   4   51.49    5.00   1
   6   3   4   68.59    5.40   1
  -6  -3   4   69.99    5.00   1
   6   3   4   60.39    3.80   1
  -6  -3   4   64.39    4.20   1
  -6  -3   4   67.69    5.10   1
   6   3   4   67.49    3.30   1
  -6  -3   4   67.59    4.60   1
   7  -3   4  405.76   15.60   1
   7  -3   4  438.16   14.90   1
  -7   3   4  439.26   15.10   1
  -7   3   4  410.56   15.00   1
  -7  -3  -4  436.46   14.00   1
  -7  -3   4  434.26   15.00   1
  -7  -3   4  419.06   15.30   1
   7   3   4  416.76   13.50   1
  -7  -3   4  396.66   14.90   1
   7   3   4  450.15   15.60   1
  -7  -3   4  406.46   15.10   1
  -8  -3  -4  131.99    6.20   1
   8  -3   4  135.19    7.20   1
   8  -3   4  139.09    8.00   1
  -8   3   4  115.09    7.20   1
  -8   3   4  136.49    7.20   1
  -8  -3   4  135.39    7.10   1
   8   3   4  123.89    5.60   1
  -8  -3   4  137.39    7.50   1
  -8  -3   4  143.89    7.50   1
  -8  -3   4  126.39    7.40   1
   8   3   4  145.79    7.50   1
  -9  -3  -4 1784.82   52.19   1
  -9   3   4 1819.02   53.39   1
  -9   3   4 1731.13   53.49   1
   9  -3   4 1744.93   53.09   1
   9  -3   4 1740.63   53.99   1
  -9  -3   4 1743.93   53.49   1
   9   3   4 1773.52   53.49   1
  -9  -3   4 1756.62   53.59   1
   9   3   4 1716.03   51.69   1
  -9  -3   4 1737.73   53.09   1
  -9  -3   4 1675.33   53.19   1
  10  -3   4   22.90    4.70   1
 -10   3   4   26.20    4.40   1
 -10   3   4   19.30    4.60   1
  10  -3   4   19.60    4.20   1
  10   3   4   24.70    4.20   1
 -10  -3   4   30.30    4.90   1
 -10  -3   4   17.20    4.00   1
 -10  -3   4   19.80    4.60   1
  10   3   4   18.30    3.00   1
 -10  -3   4   25.10    4.10   1
 -11   3   4  218.58   10.50   1
  11  -3   4  220.18   11.50   1
  11  -3   4  207.78   10.80   1
 -11   3   4  218.08   11.50   1
 -11   3   4  233.28   10.20   1
 -11  -3   4  227.88   11.00   1
 -11  -3   4  228.58   11.40   1
 -11  -3   4  227.08   10.60   1
  11   3   4  235.58    9.70   1
  12  -3   4   51.09    6.90   1
 -12   3   4   57.09    6.30   1
 -12   3   4   48.50    5.30   1
  12  -3   4   52.89    6.20   1
 -12   3   4   36.80    6.20   1
  12   3   4   53.29    5.10   1
 -12  -3   4   40.30    5.60   1
 -12  -3   4   48.40    6.30   1
 -12  -3   4   64.49    6.20   1
 -13   3   4  143.39    9.00   1
 -13   3   4  133.59   10.20   1
  13  -3   4  147.19    9.80   1
 -13   3   4  139.19    8.50   1
  13   3   4  134.19    8.30   1
 -13  -3   4  148.69   10.10   1
 -13  -3   4  142.19    9.20   1
 -13  -3   4  138.69    9.00   1
 -14   3   4   29.80    7.60   1
  14  -3   4   30.80    5.70   1
 -14  -3   4   35.50    5.40   1
  14   3   4   18.30    4.50   1
 -14  -3   4   28.00    7.00   1
 -15   3   4  548.95   23.00   1
  15   3   4  595.94   20.90   1
   0   4   4 2427.06   69.09   1
   0   4   4 2308.67   68.39   1
   0  -4   4 2375.96   68.69   1
   0  -4   4 2359.46   70.09   1
   0  -4   4 2422.46   68.99   1
   0   4   4 2316.27   69.49   1
   0   4  -4 2273.87   69.99   1
   0  -4   4 2422.96   68.89   1
   0  -4   4 2378.86   69.09   1
   1   4  -4  627.24   20.40   1
   1  -4   4  623.84   19.10   1
  -1   4   4  592.64   19.90   1
  -1   4   4  603.24   18.10   1
  -1   4   4  584.54   18.70   1
   1  -4   4  626.84   19.50   1
   1  -4   4  574.54   20.20   1
  -1   4   4  573.74   19.20   1
   1  -4   4  634.04   18.70   1
   1  -4   4  620.24   19.00   1
   1   4   4  599.14   19.10   1
   1   4   4  608.24   19.30   1
  -1  -4   4  616.14   19.30   1
  -1  -4   4  609.54   19.00   1
  -1  -4   4  614.54   19.20   1
  -1  -4   4  650.33   19.10   1
   1   4   4  602.14   18.40   1
  -1   4  -4  631.64   20.30   1
  -1  -4   4  631.14   20.30   1
  -1  -4   4  616.84   19.00   1
  -1  -4   4  610.44   18.20   1
  -2   4   4  186.88    7.40   1
   2  -4   4  173.38    8.10   1
   2  -4   4  183.88    6.30   1
   2  -4   4  182.98    7.30   1
  -2   4   4  182.98    5.60   1
   2  -4   4  178.38    6.60   1
  -2   4   4  180.68    5.60   1
  -2   4   4  179.38    6.80   1
  -2   4   4  172.38    7.90   1
   2  -4   4  174.48    7.00   1
   2   4  -4  185.48    8.30   1
   2   4   4  189.88    6.10   1
  -2   4  -4  178.98    8.00   1
   2   4   4  183.08    6.90   1
  -2  -4   4  183.88    6.50   1
  -2  -4   4  186.28    6.60   1
  -2  -4   4  188.48    7.40   1
  -2  -4   4  187.18    7.20   1
  -2  -4   4  190.48    7.10   1
   2   4   4  177.48    6.70   1
  -2  -4   4  185.18    6.80   1
  -3   4   4  330.67   12.30   1
   3  -4   4  377.46   12.30   1
  -3   4   4  359.16   13.40   1
  -3  -4  -4  356.96   11.20   1
   3   4  -4  368.46   13.50   1
   3  -4   4  358.26   13.20   1
   3  -4   4  346.87   12.70   1
  -3   4   4  346.67   12.00   1
  -3   4  -4  354.26   13.10   1
  -3  -4   4  362.16   12.20   1
  -3  -4   4  355.26   12.50   1
   3   4   4  353.06   10.90   1
   3   4   4  351.16   11.60   1
  -3  -4   4  368.26   11.40   1
  -3  -4   4  375.76   12.40   1
   3   4   4  347.37   11.70   1
  -3  -4   4  365.96   11.90   1
   4  -4   4  207.28   10.00   1
  -4  -4  -4  220.08    7.60   1
   4   4  -4  235.28    9.90   1
  -4   4   4  224.68   10.10   1
  -4   4   4  225.68    8.40   1
  -4   4   4  229.68    8.80   1
   4  -4   4  220.08    8.60   1
   4  -4   4  218.68    9.20   1
  -4  -4   4  215.78    8.30   1
   4   4   4  231.78    7.10   1
  -4  -4   4  216.48    8.80   1
   4   4   4  231.38    7.80   1
   4   4   4  217.98    7.80   1
  -4  -4   4  224.18    8.60   1
  -4   4  -4  212.58    9.20   1
  -4  -4   4  217.28    8.60   1
   5  -4   4  507.75   18.00   1
  -5   4   4  533.05   17.60   1
   5  -4   4  523.35   17.30   1
  -5   4   4  525.95   17.10   1
  -5  -4  -4  534.65   16.50   1
   5   4  -4  533.25   18.70   1
  -5  -4  -4  527.05   16.40   1
   5   4   4  531.75   15.70   1
   5   4   4  536.85   16.40   1
  -5  -4   4  491.35   17.30   1
  -5  -4   4  514.45   17.20   1
  -5  -4   4  533.35   17.60   1
  -5  -4   4  527.65   17.70   1
   5   4   4  529.75   16.40   1
  -6  -4  -4 1513.15   43.60   1
  -6   4   4 1428.96   44.50   1
   6  -4   4 1495.95   45.30   1
   6  -4   4 1499.95   44.40   1
  -6   4   4 1438.96   44.00   1
  -6  -4  -4 1473.85   43.30   1
   6   4   4 1466.75   43.30   1
  -6  -4   4 1491.45   44.80   1
   6   4   4 1456.75   42.70   1
  -6  -4   4 1453.75   44.40   1
  -6  -4   4 1450.65   44.70   1
  -6  -4   4 1450.25   44.30   1
   7  -4   4  227.18   10.30   1
  -7   4   4  240.78    9.70   1
   7  -4   4  228.18    9.40   1
  -7  -4  -4  226.78    8.50   1
  -7  -4   4  223.58    9.40   1
   7   4   4  225.28   10.00   1
  -7  -4   4  222.78    9.40   1
  -7  -4   4  205.88    9.60   1
   7   4   4  218.88    7.60   1
  -7  -4   4  232.08    9.80   1
   7   4   4  216.78    9.00   1
  -8  -4  -4   69.59    4.70   1
   8  -4   4   83.29    6.10   1
  -8   4   4   71.19    6.00   1
  -8   4   4   77.49    5.90   1
   8  -4   4   60.09    6.10   1
   8   4   4   91.29    6.40   1
  -8  -4   4   74.49    5.70   1
  -8  -4   4   85.69    6.60   1
  -8  -4   4   79.79    5.90   1
  -8  -4   4   74.89    6.00   1
   8   4   4   80.59    4.10   1
   9  -4   4  236.28   10.40   1
  -9   4   4  223.38   10.60   1
  -9   4   4  239.18   10.30   1
  -9  -4  -4  244.08    9.40   1
   9  -4   4  231.18   11.10   1
  -9  -4   4  209.88   10.40   1
   9   4   4  212.68   10.00   1
   9   4   4  213.88    8.40   1
  -9  -4   4  234.28   10.80   1
  -9  -4   4  230.98   10.50   1
  -9  -4   4  213.08   10.30   1
  10  -4   4   93.79    7.40   1
  10  -4   4  112.69    8.20   1
 -10  -4  -4   95.39    6.20   1
 -10   4   4  113.39    7.20   1
 -10   4   4   88.39    7.40   1
 -10  -4   4  103.49    7.90   1
  10   4   4  104.89    5.60   1
  10   4   4  105.19    7.20   1
 -10  -4   4  110.69    8.00   1
 -10  -4   4   98.39    7.00   1
 -10  -4   4   93.79    7.50   1
  11  -4   4  157.98   10.10   1
  11  -4   4  169.08    9.80   1
 -11   4   4  173.98    9.40   1
 -11   4   4  179.58   10.20   1
  11   4   4  176.38    8.00   1
 -11  -4   4  162.38    9.60   1
 -11  -4   4  183.38   10.00   1
 -11  -4   4  167.38    9.90   1
 -11  -4   4  171.28    9.80   1
 -12   4   4  478.15   17.50   1
  12  -4   4  484.95   19.30   1
 -12   4   4  461.95   19.10   1
  12  -4   4  483.15   18.70   1
 -12   4   4  458.55   17.90   1
  12   4   4  480.75   16.80   1
 -12  -4   4  483.25   18.80   1
 -12  -4   4  486.95   19.10   1
 -12  -4   4  485.75   18.10   1
 -13   4   4   75.79    9.20   1
  13  -4   4   74.69    8.20   1
 -13   4   4   65.29    8.10   1
  13  -4   4   71.79    7.20   1
 -13  -4   4   66.59    7.00   1
 -13  -4   4   75.39    7.30   1
 -13  -4   4   75.49    8.10   1
  13   4   4   61.19    5.50   1
 -14   4   4   25.00    6.90   1
  14  -4   4   28.20    5.90   1
 -14  -4   4   28.00    7.00   1
  14   4   4   26.40    4.80   1
 -14  -4   4   40.90    6.10   1
 -15   4   4  117.49   10.40   1
 -15  -4   4   94.39   10.00   1
   0  -5   4    0.70    1.80   1
   0   5   4    2.80    2.00   1
   0   5   4    8.10    1.50   1
   0  -5   4   -0.60    1.50   1
   0   5  -4    0.60    2.40   1
   0  -5   4    2.40    1.50   1
   0  -5   4   -0.10    1.50   1
   0   5   4   -0.30    1.70   1
   0  -5   4    4.60    1.00   1
   0  -5   4    0.70    1.70   1
   0  -5   4   -0.80    1.50   1
   1   5  -4   64.99    5.00   1
  -1   5   4   56.99    3.30   1
   1  -5   4   61.79    4.50   1
   1  -5   4   67.69    3.80   1
   1  -5   4   71.49    4.10   1
  -1   5   4   59.89    4.20   1
   1  -5   4   60.39    3.60   1
  -1   5   4   60.99    2.50   1
   1  -5   4   59.89    3.30   1
  -1   5   4   60.59    4.00   1
  -1  -5   4   61.29    2.90   1
   1   5   4   61.89    4.00   1
  -1  -5   4   63.89    3.90   1
  -1  -5   4   64.29    3.50   1
  -1  -5   4   61.89    3.50   1
  -1  -5   4   65.49    3.70   1
  -1  -5   4   60.79    4.10   1
   1   5   4   61.99    3.00   1
  -1   5  -4   67.99    4.90   1
   1   5   4   57.79    3.80   1
   2  -5   4    8.10    2.40   1
  -2   5   4   13.10    1.90   1
  -2   5   4    9.60    2.20   1
   2  -5   4   16.80    3.10   1
   2  -5   4   11.40    2.10   1
  -2   5   4   11.00    2.80   1
   2   5  -4   13.50    3.00   1
  -2  -5   4    9.90    2.30   1
  -2  -5   4   11.80    1.70   1
   2   5   4   14.10    2.20   1
   2   5   4    9.30    1.20   1
  -2  -5   4    9.10    1.60   1
  -2   5  -4    9.10    2.40   1
  -2  -5   4   12.10    2.30   1
   2   5   4   10.80    1.80   1
  -2  -5   4   10.10    2.10   1
  -3   5   4  183.18    9.20   1
   3  -5   4  213.48    8.70   1
  -3   5   4  202.78    7.80   1
   3  -5   4  201.48    8.00   1
  -3   5   4  198.98    8.30   1
   3   5  -4  217.98    9.40   1
   3  -5   4  212.48    9.20   1
  -3  -5  -4  209.38    7.70   1
  -3  -5  -4  202.68    7.10   1
   3   5   4  200.78    7.70   1
  -3  -5   4  207.58    8.10   1
  -3  -5   4  205.58    7.10   1
   3   5   4  197.78    6.40   1
  -3  -5   4  214.88    8.50   1
  -3   5  -4  211.78    9.10   1
  -3  -5   4  194.68    7.60   1
   3   5   4  211.88    7.20   1
  -3  -5   4  213.18    8.30   1
  -4   5   4    3.40    2.30   1
  -4  -5  -4    7.80    1.90   1
   4  -5   4    2.00    2.10   1
   4   5  -4    1.20    2.50   1
  -4   5   4    5.70    1.90   1
  -4  -5  -4    4.30    1.50   1
   4  -5   4    6.90    2.70   1
   4   5   4    4.30    1.70   1
  -4  -5   4    3.40    1.90   1
   4   5   4    4.40    1.40   1
   4   5   4    3.80    0.70   1
  -4   5  -4    3.80    2.60   1
  -4  -5   4    2.70    2.10   1
  -4  -5   4    4.00    2.40   1
  -4  -5   4    5.10    2.20   1
  -5  -5  -4   21.50    2.60   1
  -5   5   4   29.10    3.20   1
   5   5  -4   17.60    3.60   1
  -5   5   4   19.60    2.70   1
   5  -5   4   19.20    3.50   1
   5  -5   4   23.80    3.10   1
  -5  -5  -4   24.70    2.40   1
  -5  -5   4   24.90    3.50   1
   5   5   4   23.70    1.40   1
   5   5   4   22.90    2.10   1
  -5  -5   4   21.90    3.20   1
  -5  -5   4   19.70    2.90   1
  -5  -5   4   18.10    3.10   1
   6   5  -4    4.40    3.00   1
  -6   5   4    0.70    2.50   1
   6  -5   4    1.20    2.30   1
  -6   5   4    2.50    2.00   1
  -6  -5  -4    1.00    1.80   1
  -6  -5  -4    1.90    1.80   1
   6  -5   4   -1.10    2.60   1
  -6  -5   4    2.30    2.50   1
   6   5   4    1.50    1.30   1
   6   5   4    2.20    0.90   1
  -6  -5   4   -2.30    2.60   1
  -6  -5   4    1.70    2.40   1
  -6  -5   4    1.50    2.50   1
   7  -5   4   94.69    6.00   1
   7  -5   4   83.49    6.50   1
  -7  -5  -4   82.29    4.60   1
  -7  -5  -4   85.59    4.90   1
  -7   5   4   89.29    6.10   1
  -7  -5   4   88.69    6.20   1
  -7  -5   4   85.39    5.70   1
  -7  -5   4   93.09    6.00   1
  -7  -5   4   87.39    6.20   1
   7   5   4   86.59    5.90   1
   7   5   4   86.29    3.60   1
  -8   5   4   11.20    3.50   1
  -8  -5  -4    9.60    2.70   1
  -8   5   4   11.60    3.30   1
   8  -5   4   10.90    3.40   1
   8  -5   4   16.10    4.20   1
  -8  -5   4   11.40    3.40   1
  -8  -5   4    6.50    3.50   1
  -8  -5   4    9.20    3.50   1
  -8  -5   4    7.70    3.20   1
   8   5   4    8.30    3.50   1
   8   5   4    7.50    1.60   1
   9  -5   4  165.98    9.70   1
  -9   5   4  170.58    8.60   1
  -9   5   4  163.88    9.10   1
   9  -5   4  185.48    9.30   1
  -9  -5  -4  163.68    7.90   1
   9   5   4  179.88    6.80   1
  -9  -5   4  164.28    9.40   1
  -9  -5   4  149.19    8.50   1
  -9  -5   4  176.78    9.20   1
  -9  -5   4  170.08    9.00   1
   9   5   4  174.08    8.50   1
  10  -5   4   -4.80    3.90   1
 -10   5   4   -2.10    3.70   1
  10  -5   4   -0.40    3.80   1
 -10   5   4   -2.80    3.20   1
 -10  -5  -4   -0.80    2.80   1
 -10  -5   4    5.70    3.80   1
 -10  -5   4    0.70    3.70   1
  10   5   4    2.30    3.50   1
  10   5   4    1.20    2.10   1
 -10  -5   4   -0.60    3.90   1
 -10  -5   4    2.20    3.70   1
 -11   5   4   22.00    5.10   1
  11  -5   4   34.00    5.40   1
  11  -5   4   16.70    5.30   1
 -11   5   4   18.40    4.30   1
 -11  -5   4   14.90    4.40   1
 -11  -5   4   14.20    4.40   1
  11   5   4   18.30    3.10   1
 -11  -5   4   21.10    4.90   1
 -11  -5   4   15.80    4.80   1
 -12   5   4    2.90    4.80   1
 -12   5   4    1.10    3.60   1
 -12   5   4    0.80    3.60   1
  12  -5   4    2.00    4.80   1
  12  -5   4   -2.50    4.20   1
  12   5   4   -0.60    2.80   1
 -12  -5   4   -0.20    4.50   1
 -12  -5   4   -0.20    4.00   1
 -12  -5   4    1.70    4.20   1
  13  -5   4   50.69    6.60   1
 -13   5   4   52.69    7.50   1
  13  -5   4   40.40    6.60   1
 -13  -5   4   53.99    6.60   1
  13   5   4   42.60    4.70   1
 -13  -5   4   42.80    7.20   1
 -13  -5   4   53.09    6.70   1
  14  -5   4    3.40    4.90   1
 -14   5   4    3.50    6.10   1
  14   5   4    0.70    3.70   1
 -14  -5   4    1.70    6.40   1
 -14  -5   4    3.50    4.80   1
 -15   5   4   78.49    9.00   1
 -15  -5   4   59.79    8.80   1
   0  -6   4 3043.30   89.09   1
   0  -6   4 3152.18   88.79   1
   0   6   4 3103.19   89.29   1
   0  -6   4 3015.20   89.09   1
   0  -6   4 3079.59   87.89   1
   0  -6   4 3027.90   88.69   1
   0  -6   4 3061.49   88.99   1
   0   6   4 3018.50   88.19   1
   0   6   4 3061.29   89.29   1
   0   6  -4 3035.00   90.29   1
  -1   6   4  280.37   10.40   1
   1  -6   4  261.37   12.10   1
   1  -6   4  285.57    9.90   1
  -1   6   4  270.67   10.60   1
   1  -6   4  286.27   10.20   1
   1   6  -4  272.87   11.10   1
   1  -6   4  284.27    9.50   1
  -1   6   4  259.57    9.40   1
   1   6   4  272.47    9.00   1
   1   6   4  283.27   10.00   1
  -1   6  -4  302.47   11.30   1
  -1  -6   4  295.87   10.00   1
   1   6   4  268.77   10.10   1
  -1  -6   4  274.07    9.10   1
  -1  -6   4  287.57    9.80   1
  -1  -6   4  276.57   10.20   1
  -1  -6   4  270.27   10.20   1
  -2   6   4  293.27   10.70   1
   2  -6   4  302.67   10.30   1
  -2   6   4  254.97   11.00   1
   2  -6   4  283.07   11.40   1
   2  -6   4  281.47    9.40   1
  -2  -6  -4  284.07   10.10   1
  -2   6   4  282.67    9.90   1
   2  -6   4  293.17   10.70   1
   2   6  -4  292.37   11.60   1
  -2   6  -4  288.27   11.50   1
   2   6   4  278.07   10.30   1
  -2  -6   4  279.47   10.20   1
  -2  -6   4  294.17    9.70   1
   2   6   4  283.97    8.90   1
  -2  -6   4  298.97   10.70   1
   2   6   4  280.17    9.70   1
  -2  -6   4  279.97    9.70   1
  -2  -6   4  289.87   10.50   1
   3   6  -4  268.37   11.00   1
   3  -6   4  244.18   10.20   1
  -3  -6  -4  268.27    9.60   1
  -3   6   4  267.27   10.10   1
   3  -6   4  249.88    9.70   1
  -3   6   4  257.97    9.50   1
  -3  -6  -4  264.97    9.10   1
  -3  -6   4  270.07   10.10   1
   3   6   4  263.47    8.70   1
  -3  -6   4  259.37   10.30   1
  -3  -6   4  275.87    9.60   1
  -3   6  -4  278.77   11.10   1
  -3  -6   4  274.37   10.00   1
  -3  -6   4  258.57    8.80   1
   4  -6   4  380.16   14.30   1
  -4   6   4  382.96   13.50   1
   4  -6   4  397.06   13.80   1
   4   6  -4  393.76   14.90   1
  -4  -6  -4  400.16   13.00   1
  -4  -6  -4  399.46   13.40   1
  -4   6   4  376.16   13.90   1
  -4   6  -4  414.76   15.20   1
  -4  -6   4  389.66   14.20   1
   4   6   4  410.76   12.30   1
  -4  -6   4  417.26   14.20   1
  -4  -6   4  399.66   13.70   1
  -4  -6   4  395.16   13.90   1
  -5   6   4  237.38    9.00   1
   5   6  -4  228.48   10.10   1
  -5   6   4  212.68    9.20   1
  -5  -6  -4  220.88    8.70   1
   5  -6   4  225.78    9.20   1
   5  -6   4  218.58    9.80   1
  -5  -6  -4  235.48    8.50   1
  -5  -6   4  223.48    9.60   1
  -5  -6   4  208.28    9.10   1
  -5  -6   4  231.58    9.60   1
  -5  -6   4  229.78    9.20   1
   5   6   4  214.68    7.20   1
   6  -6   4 1784.22   56.39   1
  -6  -6  -4 1890.41   54.79   1
  -6  -6  -4 1940.01   54.99   1
  -6   6   4 1856.71   55.29   1
   6   6  -4 1780.32   56.59   1
   6  -6   4 1920.21   55.69   1
  -6   6   4 1867.51   55.69   1
   6   6   4 1900.41   53.59   1
  -6  -6   4 1831.32   55.59   1
  -6  -6   4 1873.21   56.19   1
  -6  -6   4 1758.52   55.49   1
  -6  -6   4 1805.72   55.99   1
  -7  -6  -4  146.19    6.70   1
   7  -6   4  152.38    8.70   1
  -7   6   4  160.98    7.70   1
   7  -6   4  156.58    8.00   1
  -7  -6  -4  155.88    6.90   1
  -7   6   4  154.18    7.30   1
  -7  -6   4  144.39    8.00   1
   7   6   4  137.79    5.00   1
  -7  -6   4  141.49    7.60   1
  -7  -6   4  149.59    8.20   1
  -7  -6   4  158.88    7.80   1
   8  -6   4  147.19    8.80   1
  -8   6   4  123.69    7.40   1
  -8  -6  -4  135.39    6.90   1
   8  -6   4  131.99    7.60   1
   8   6   4  131.29    5.00   1
  -8  -6   4  139.69    8.10   1
  -8  -6   4  135.99    7.70   1
   8   6   4  147.19    7.90   1
  -8  -6   4  143.39    7.80   1
  -8  -6   4  133.29    8.20   1
  -9  -6  -4  132.49    7.10   1
   9  -6   4  130.79    8.20   1
   9  -6   4  137.29    9.00   1
  -9   6   4  138.19    7.70   1
  -9   6   4  128.49    8.10   1
  -9  -6   4  115.59    7.70   1
   9   6   4  128.39    5.30   1
  -9  -6   4  134.79    8.30   1
  -9  -6   4  137.09    8.30   1
   9   6   4  121.39    7.30   1
  -9  -6   4  130.69    8.00   1
  10  -6   4  240.58   12.00   1
 -10  -6  -4  239.68   10.00   1
  10  -6   4  250.97   11.60   1
 -10   6   4  201.98   10.20   1
 -10   6   4  229.98   11.30   1
 -10  -6   4  196.38   10.40   1
 -10  -6   4  202.18   11.00   1
 -10  -6   4  220.68   11.00   1
 -10  -6   4  227.18   11.10   1
  10   6   4  222.88    8.40   1
 -11   6   4   72.79    6.40   1
 -11   6   4   71.29    7.30   1
  11  -6   4   79.69    7.30   1
  11  -6   4   79.09    8.10   1
 -11  -6   4   83.29    7.30   1
 -11  -6   4   87.09    7.20   1
  11   6   4   79.89    5.20   1
 -11  -6   4   98.39    7.70   1
 -11  -6   4   80.29    7.40   1
  12  -6   4  593.64   23.30   1
 -12   6   4  578.44   21.10   1
 -12   6   4  581.24   22.30   1
  12  -6   4  571.84   22.00   1
 -12  -6   4  606.64   21.50   1
 -12  -6   4  569.14   22.10   1
  12   6   4  614.14   19.60   1
 -12  -6   4  598.44   22.00   1
 -13   6   4   46.30    7.40   1
  13  -6   4   57.69    8.10   1
 -13  -6   4   63.99    7.10   1
 -13  -6   4   56.09    7.50   1
  13   6   4   56.89    5.10   1
 -14   6   4   68.39    8.60   1
 -14  -6   4   67.89    7.00   1
  14   6   4   67.29    5.90   1
 -14  -6   4   85.29    9.00   1
 -15   6   4   46.80    7.90   1
 -15  -6   4   58.09    8.20   1
   0  -7   4   70.89    3.30   1
   0  -7   4   68.89    4.50   1
   0  -7   4   73.89    4.00   1
   0   7   4   71.79    3.60   1
   0   7  -4   72.69    5.50   1
   0   7   4   71.59    4.60   1
   0   7   4   71.49    4.70   1
   0  -7   4   65.59    4.20   1
   1   7  -4  228.58   10.00   1
  -1   7   4  238.38    9.50   1
   1  -7   4  261.17    9.20   1
   1  -7   4  222.88    8.20   1
   1  -7   4  221.98    8.90   1
  -1   7   4  234.08    9.20   1
  -1   7   4  207.88    8.10   1
   1   7   4  220.28    9.00   1
  -1  -7   4  224.98    9.00   1
  -1   7  -4  227.28    9.90   1
  -1  -7   4  234.88    8.50   1
  -1  -7   4  234.68    9.10   1
  -1  -7   4  227.18    7.90   1
  -1  -7   4  225.48    8.60   1
   1   7   4  223.48    8.50   1
  -2   7   4  180.08    7.40   1
  -2  -7  -4  192.18    7.80   1
   2  -7   4  198.38    7.80   1
  -2   7   4  185.68    8.30   1
   2   7  -4  191.58    9.00   1
   2  -7   4  194.28    8.30   1
   2  -7   4  202.18    7.10   1
   2   7   4  193.08    7.10   1
  -2  -7   4  191.98    8.10   1
  -2  -7   4  195.88    7.30   1
  -2   7  -4  183.78    9.00   1
  -2  -7   4  189.68    7.90   1
  -2  -7   4  196.08    7.30   1
  -2  -7   4  212.98    8.50   1
   3   7  -4 1884.31   55.99   1
   3  -7   4 1740.03   55.19   1
  -3   7   4 1851.41   55.09   1
  -3   7   4 1818.02   54.39   1
  -3  -7  -4 1869.21   54.59   1
  -3  -7  -4 1875.51   54.09   1
   3  -7   4 1799.42   54.59   1
  -3   7  -4 1832.42   56.19   1
  -3  -7   4 1874.11   54.79   1
   3   7   4 1777.12   53.29   1
  -3  -7   4 1867.11   55.09   1
  -3  -7   4 1876.21   55.29   1
  -3  -7   4 1890.51   53.69   1
  -3  -7   4 1795.02   54.29   1
   4   7  -4  120.19    6.90   1
   4  -7   4  103.89    6.40   1
   4  -7   4  118.89    5.90   1
  -4   7   4  113.39    6.20   1
  -4  -7  -4  110.59    5.10   1
  -4   7   4  115.19    5.70   1
  -4  -7  -4  112.29    5.90   1
   4   7   4  109.49    4.00   1
  -4  -7   4  105.39    6.20   1
  -4  -7   4  100.79    5.90   1
  -4  -7   4  100.99    5.70   1
  -4  -7   4  105.49    6.30   1
  -4   7  -4   91.89    6.80   1
  -5  -7  -4  231.68    8.80   1
   5  -7   4  233.38    9.40   1
   5   7  -4  236.68   10.40   1
   5  -7   4  224.08   10.20   1
  -5   7   4  221.78    9.60   1
  -5  -7  -4  238.48    9.30   1
  -5   7   4  253.67    9.40   1
  -5  -7   4  213.78    9.50   1
   5   7   4  233.08    7.00   1
  -5  -7   4  204.28    9.70   1
  -5  -7   4  232.98    9.90   1
  -5  -7   4  216.18    9.30   1
  -6   7   4   81.59    5.20   1
  -6  -7  -4   73.49    5.20   1
   6  -7   4   62.39    6.10   1
   6   7  -4   82.29    6.70   1
   6  -7   4   76.19    5.60   1
  -6  -7  -4   82.79    5.00   1
  -6   7   4   83.89    5.80   1
  -6  -7   4   69.09    5.80   1
  -6  -7   4   79.99    5.60   1
  -6  -7   4   68.79    5.50   1
  -6  -7   4   80.29    6.10   1
  -7   7   4   82.89    5.70   1
  -7  -7  -4   82.49    5.30   1
  -7  -7  -4   77.19    5.00   1
   7  -7   4   70.49    6.80   1
  -7   7   4   88.79    6.40   1
   7   7  -4   85.79    6.60   1
   7  -7   4   84.39    6.10   1
  -7  -7   4   84.19    6.40   1
  -7  -7   4   88.19    6.10   1
  -7  -7   4   69.09    5.80   1
  -7  -7   4   60.39    5.80   1
   8  -7   4  107.09    8.10   1
  -8   7   4  101.69    6.70   1
   8  -7   4  109.39    7.00   1
  -8  -7  -4   90.79    5.80   1
  -8  -7   4   91.59    6.80   1
   8   7   4  106.19    6.60   1
  -8  -7   4   96.19    6.90   1
  -8  -7   4  108.59    7.60   1
   8   7   4  108.69    3.90   1
  -8  -7   4   96.69    7.60   1
  -9  -7  -4 1003.50   31.60   1
   9  -7   4  987.00   33.70   1
   9  -7   4 1069.19   32.90   1
  -9   7   4 1011.40   32.20   1
  -9  -7   4  974.30   32.80   1
   9   7   4 1042.70   29.60   1
  -9  -7   4 1003.90   32.70   1
   9   7   4  976.60   32.00   1
  -9  -7   4  983.50   33.10   1
  -9  -7   4  926.31   32.20   1
 -10  -7  -4   38.80    4.60   1
  10  -7   4   43.30    6.80   1
 -10   7   4   37.30    5.20   1
 -10   7   4   37.50    5.70   1
  10  -7   4   36.80    5.50   1
  10   7   4   36.00    3.00   1
 -10  -7   4   34.70    5.40   1
 -10  -7   4   31.60    5.10   1
 -10  -7   4   39.40    5.70   1
 -10  -7   4   37.30    5.40   1
  11  -7   4   68.49    7.90   1
 -11  -7  -4   64.79    6.00   1
  11  -7   4   57.49    7.40   1
 -11   7   4   66.39    7.10   1
 -11   7   4   66.59    6.50   1
 -11  -7   4   72.89    6.90   1
  11   7   4   75.19    4.80   1
 -11  -7   4   64.09    6.90   1
 -11  -7   4   71.99    6.80   1
  12  -7   4   46.80    7.00   1
 -12   7   4   49.30    7.10   1
 -12   7   4   45.80    5.80   1
 -12  -7   4   47.50    6.90   1
 -12  -7   4   49.70    6.50   1
  12   7   4   51.69    4.30   1
  13  -7   4   15.40    6.40   1
 -13   7   4   18.70    6.50   1
  13   7   4   20.70    3.80   1
 -13  -7   4   12.30    5.40   1
 -13  -7   4   22.00    6.30   1
 -14   7   4   28.00    6.90   1
 -14  -7   4   20.10    5.40   1
 -14  -7   4   18.20    6.60   1
   0  -8   4 1273.07   37.40   1
   0  -8   4 1300.87   38.50   1
   0   8  -4 1293.07   39.80   1
   0  -8   4 1234.18   38.10   1
   0  -8   4 1286.57   38.70   1
   0   8   4 1271.37   38.60   1
   0   8   4 1214.18   37.50   1
   0   8   4 1269.57   38.90   1
  -1   8   4    4.20    1.80   1
  -1  -8  -4    6.40    2.40   1
   1  -8   4    2.90    2.20   1
   1  -8   4    5.60    2.30   1
   1  -8   4    5.10    1.90   1
  -1   8   4    8.10    2.70   1
   1   8  -4    7.60    3.00   1
  -1   8  -4    3.90    2.40   1
   1   8   4    5.90    2.00   1
  -1  -8   4    2.30    2.20   1
   1   8   4    6.30    2.60   1
  -1  -8   4    3.80    2.00   1
  -1  -8   4    5.60    1.60   1
  -1  -8   4    6.10    2.10   1
  -2   8   4   18.70    3.30   1
  -2   8   4   20.60    2.70   1
   2  -8   4   21.20    3.30   1
   2  -8   4   24.60    2.40   1
   2   8  -4   28.10    4.00   1
  -2  -8  -4   19.20    3.00   1
  -2  -8   4   22.20    2.50   1
  -2  -8   4   24.30    2.60   1
  -2  -8   4   30.10    3.30   1
  -2   8  -4   24.80    4.00   1
  -2  -8   4   25.40    3.30   1
   2   8   4   27.50    2.50   1
   3  -8   4   23.70    3.40   1
  -3  -8  -4   30.40    3.10   1
  -3   8   4   28.50    3.10   1
  -3   8   4   26.60    3.70   1
  -3  -8  -4   25.10    3.30   1
   3   8  -4   19.80    3.80   1
  -3  -8   4   24.70    3.40   1
  -3  -8   4   31.40    3.70   1
  -3   8  -4   31.10    4.50   1
   3   8   4   26.00    2.20   1
  -3  -8   4   24.90    3.00   1
  -3  -8   4   28.70    3.80   1
  -4  -8  -4   17.50    2.70   1
  -4   8   4   12.30    2.70   1
   4   8  -4   32.90    4.30   1
  -4  -8  -4   13.90    3.10   1
  -4   8   4   11.00    3.10   1
   4  -8   4    9.40    3.40   1
  -4  -8   4   11.40    3.00   1
  -4  -8   4   15.70    2.80   1
  -4  -8   4   18.40    3.50   1
  -4  -8   4    8.10    2.90   1
   4   8   4   17.10    1.30   1
  -5  -8  -4    0.50    2.10   1
   5   8  -4    0.20    2.90   1
   5  -8   4   -1.80    2.50   1
  -5   8   4    2.10    2.80   1
  -5  -8  -4   -0.20    2.40   1
   5  -8   4    0.40    3.00   1
  -5   8   4    2.50    2.40   1
  -5  -8   4    1.90    3.00   1
  -5  -8   4    5.30    3.00   1
  -5  -8   4   -1.10    2.80   1
  -5  -8   4   -0.30    2.30   1
  -6   8   4  839.42   26.40   1
   6   8  -4  828.42   27.60   1
  -6  -8  -4  818.12   26.00   1
  -6  -8  -4  847.92   26.40   1
  -6   8   4  838.92   26.90   1
   6  -8   4  789.02   27.60   1
   6  -8   4  841.92   26.80   1
  -6  -8   4  864.31   26.80   1
  -6  -8   4  792.02   26.70   1
  -6  -8   4  821.32   27.40   1
  -6  -8   4  753.12   26.90   1
  -7  -8  -4   25.60    3.60   1
  -7  -8  -4   22.90    3.60   1
  -7   8   4   21.30    5.50   1
   7  -8   4   19.00    4.70   1
  -7   8   4   26.10    3.90   1
  -7   8   4   23.90    4.10   1
   7  -8   4   18.00    4.20   1
   7   8  -4   15.30    3.80   1
  -7  -8   4   16.50    4.10   1
  -7  -8   4   23.10    4.40   1
  -7  -8   4   25.50    4.10   1
  -7  -8   4   17.40    4.00   1
  -8  -8  -4   12.20    3.40   1
   8  -8   4   11.30    4.70   1
  -8  -8  -4    4.80    2.90   1
  -8   8   4   14.60    3.80   1
  -8  -8   4   13.70    4.20   1
  -8  -8   4   12.80    4.20   1
  -8  -8   4   18.60    4.30   1
  -8  -8   4   18.80    4.20   1
   8   8   4   17.00    1.40   1
   9  -8   4    3.90    4.80   1
  -9  -8  -4    0.20    2.80   1
  -9   8   4    7.50    3.60   1
  -9  -8   4   -2.50    4.00   1
  -9  -8   4    3.40    3.90   1
   9   8   4    3.70    3.40   1
  -9  -8   4    2.40    3.80   1
  -9  -8   4    1.90    3.80   1
   9   8   4    2.40    1.30   1
 -10   8   4    3.80    4.20   1
 -10  -8  -4   10.60    3.70   1
 -10   8   4    7.40    3.80   1
  10  -8   4    8.20    5.10   1
 -10  -8   4   15.80    4.70   1
  10   8   4    8.10    1.90   1
 -10  -8   4    7.40    4.50   1
 -10  -8   4    7.50    4.30   1
 -11  -8  -4    3.00    3.60   1
 -11   8   4    4.80    4.60   1
  11  -8   4    3.70    5.10   1
 -11   8   4    0.80    3.90   1
 -11  -8   4    3.00    4.30   1
  11   8   4   -1.40    2.00   1
 -11  -8   4    3.70    4.40   1
  12  -8   4  287.17   15.10   1
 -12   8   4  289.87   14.50   1
  12   8   4  322.07   11.30   1
 -12  -8   4  304.87   14.10   1
 -12  -8   4  308.47   14.40   1
 -13   8   4   15.50    6.10   1
  13  -8   4    6.90    7.00   1
 -13  -8   4   10.40    5.40   1
 -13  -8   4   11.00    5.80   1
  13   8   4   11.90    3.40   1
 -14   8   4   10.10    6.80   1
 -14  -8   4   15.50    5.50   1
 -14  -8   4    2.50    5.70   1
   0   9  -4  269.07   11.80   1
   0  -9   4  273.47   10.90   1
   0  -9   4  290.97   10.80   1
   0  -9   4  282.97    9.60   1
   0  -9   4  283.27   10.40   1
   0   9   4  301.17   11.50   1
   1  -9   4   96.19    5.60   1
   1  -9   4   87.09    5.60   1
   1  -9   4   94.99    5.00   1
  -1   9   4   97.29    4.90   1
  -1  -9  -4   89.09    5.50   1
  -1   9   4   91.79    5.90   1
   1   9  -4  106.69    6.70   1
  -1  -9   4   84.79    5.20   1
  -1  -9   4   87.79    4.90   1
  -1   9  -4  113.69    6.90   1
  -1  -9   4   84.19    5.60   1
   1   9   4   90.49    5.00   1
  -1  -9   4   93.89    4.60   1
   2  -9   4   78.19    5.40   1
  -2   9   4   98.99    5.10   1
   2   9  -4   82.59    6.20   1
  -2   9   4   86.89    5.90   1
   2  -9   4   77.99    4.50   1
   2  -9   4   87.29    5.70   1
  -2  -9  -4   85.59    5.40   1
  -2  -9   4   83.29    4.50   1
  -2  -9   4   93.79    4.70   1
  -2  -9   4   93.49    5.50   1
   2   9   4   86.39    4.40   1
  -2   9  -4   87.69    6.50   1
  -2  -9   4   84.89    5.60   1
   3  -9   4 2237.38   65.39   1
  -3   9   4 2149.48   64.19   1
  -3  -9  -4 2194.18   64.09   1
  -3   9   4 2093.79   64.99   1
  -3  -9  -4 2172.18   64.69   1
   3   9  -4 2218.18   65.79   1
  -3   9  -4 2170.58   66.29   1
  -3  -9   4 2143.99   64.19   1
   3   9   4 2127.99   62.69   1
  -3  -9   4 2236.38   65.19   1
  -3  -9   4 2162.98   64.69   1
  -4  -9  -4  143.39    7.00   1
   4  -9   4  136.39    7.50   1
  -4  -9  -4  138.29    7.30   1
  -4   9   4  158.98    7.20   1
  -4   9   4  155.78    7.80   1
   4   9  -4  144.19    8.10   1
  -4  -9   4  150.18    7.90   1
  -4  -9   4  149.59    7.60   1
  -4  -9   4  158.38    7.40   1
  -5  -9  -4   71.89    4.90   1
   5  -9   4   67.49    6.30   1
   5   9  -4   67.59    6.30   1
  -5   9   4   65.99    5.60   1
  -5   9   4   69.89    5.40   1
  -5  -9  -4   67.99    5.30   1
  -5  -9   4   63.79    5.70   1
  -5  -9   4   67.99    5.60   1
  -5  -9   4   70.59    5.20   1
   6   9  -4  143.29    8.30   1
  -6  -9  -4  154.28    7.70   1
  -6   9   4  138.79    9.80   1
  -6  -9  -4  157.08    7.30   1
   6  -9   4  149.88    9.00   1
  -6   9   4  136.59    8.00   1
  -6   9   4  152.68    7.70   1
  -6  -9   4  146.79    8.70   1
  -6  -9   4  153.08    7.90   1
  -6  -9   4  145.99    8.10   1
  -7   9   4   66.29    5.50   1
  -7  -9  -4   64.09    5.50   1
  -7   9   4   56.39    5.60   1
   7   9  -4   57.99    6.00   1
  -7  -9  -4   59.99    5.20   1
  -7   9   4   59.89    7.40   1
   7  -9   4   66.69    6.80   1
  -7  -9   4   49.70    5.80   1
  -7  -9   4   49.30    5.40   1
  -7  -9   4   55.49    5.40   1
  -8  -9  -4   47.20    5.00   1
  -8   9   4   52.39    5.50   1
   8  -9   4   51.99    6.60   1
  -8  -9  -4   45.70    4.70   1
  -8  -9   4   53.79    5.60   1
  -8  -9   4   51.99    6.00   1
  -8  -9   4   45.40    5.50   1
   9  -9   4 1031.20   36.00   1
  -9   9   4 1054.29   34.20   1
  -9  -9  -4 1072.39   33.80   1
  -9  -9   4 1061.59   35.60   1
  -9  -9   4 1037.20   34.60   1
  -9  -9   4 1082.89   34.80   1
   9   9   4 1087.29   31.00   1
  10  -9   4  112.19    9.50   1
 -10  -9  -4  101.99    6.90   1
 -10   9   4   98.49    7.70   1
 -10  -9   4   99.19    7.90   1
 -10  -9   4   93.79    7.70   1
  10   9   4  105.29    4.60   1
  11  -9   4   24.90    6.70   1
 -11  -9  -4   25.60    4.90   1
 -11   9   4   28.00    5.20   1
 -11   9   4   29.70    5.90   1
 -11  -9   4   29.00    5.40   1
 -11  -9   4   39.40    6.00   1
  11   9   4   32.60    3.00   1
 -12   9   4   28.50    6.30   1
  12  -9   4   38.50    7.80   1
 -12   9   4   33.80    7.90   1
  12   9   4   34.80    3.60   1
 -12  -9   4   21.60    6.10   1
 -12  -9   4   27.70    5.70   1
 -13   9   4    7.80    5.90   1
  13  -9   4    9.80    6.80   1
 -13  -9   4   10.80    6.00   1
 -13  -9   4   11.10    5.70   1
  13   9   4   15.40    3.40   1
 -14   9   4   35.00    7.40   1
  14  -9   4   44.20    8.10   1
 -14  -9   4   37.30    6.90   1
 -14  -9   4   36.90    6.50   1
   0  10  -4 2211.18   67.39   1
   0 -10   4 2144.49   65.69   1
   0  10   4 2179.68   66.79   1
   0 -10   4 2274.37   66.09   1
   0 -10   4 2316.87   66.49   1
  -1  10   4   44.40    3.60   1
   1 -10   4   42.00    4.30   1
   1 -10   4   49.40    4.10   1
  -1  10   4   42.30    4.70   1
   1  10  -4   45.80    5.10   1
  -1 -10  -4   52.49    4.40   1
   1 -10   4   41.10    4.30   1
  -1 -10   4   46.30    3.70   1
  -1  10  -4   43.70    5.10   1
  -1 -10   4   40.30    4.10   1
   1  10   4   47.50    4.00   1
  -1 -10   4   39.50    4.30   1
  -1 -10   4   46.30    4.10   1
   2 -10   4  219.98    9.60   1
   2 -10   4  218.08    8.10   1
  -2  10   4  210.78    9.60   1
  -2 -10  -4  209.98    9.20   1
   2 -10   4  203.18    9.20   1
   2  10  -4  207.38   10.00   1
  -2  10   4  209.28    8.60   1
  -2 -10   4  215.78    8.30   1
  -2 -10   4  216.88    9.50   1
  -2 -10   4  196.28    8.30   1
   2  10   4  209.58    7.80   1
  -2 -10   4  218.48    9.20   1
   2  10   4  214.58    8.00   1
  -2  10  -4  217.78   10.50   1
  -3 -10  -4   86.89    5.30   1
   3  10  -4   87.29    6.40   1
  -3  10   4   89.09    6.60   1
  -3  10   4   85.59    5.30   1
   3 -10   4   86.49    5.80   1
  -3 -10  -4   77.29    5.80   1
  -3  10   4   85.19    6.30   1
   3 -10   4   86.59    6.30   1
  -3 -10   4   80.09    6.00   1
  -3 -10   4   89.59    6.00   1
   3  10   4   85.99    3.70   1
   3  10   4   85.99    3.70   1
  -3 -10   4   88.99    5.50   1
  -3  10  -4  100.09    7.40   1
   4 -10   4  100.39    7.30   1
  -4  10   4  124.99    8.10   1
   4  10  -4  109.59    7.60   1
  -4 -10  -4  116.49    6.20   1
  -4  10   4  120.19    7.20   1
  -4  10   4  135.19    6.80   1
  -4 -10  -4  110.99    6.80   1
  -4 -10   4  117.79    7.00   1
  -4 -10   4  119.39    6.50   1
  -4 -10   4  110.89    7.20   1
  -5  10   4   25.60    3.90   1
  -5 -10  -4   16.80    3.50   1
  -5  10   4   17.80    4.00   1
   5  10  -4   15.90    3.80   1
   5 -10   4   19.30    4.40   1
  -5  10   4   23.20    4.90   1
  -5 -10  -4   22.00    3.80   1
  -5 -10   4   15.00    3.90   1
  -5 -10   4   24.00    3.80   1
  -5 -10   4   17.30    4.00   1
  -6  10   4 1659.23   51.39   1
   6 -10   4 1559.54   52.19   1
  -6  10   4 1739.33   53.99   1
  -6 -10  -4 1669.03   50.69   1
  -6 -10  -4 1673.53   50.99   1
   6  10  -4 1628.24   51.79   1
  -6  10   4 1704.93   50.99   1
  -6 -10   4 1659.33   52.19   1
  -6 -10   4 1753.22   51.49   1
  -6 -10   4 1678.03   51.39   1
  -7  10   4   46.70    5.00   1
  -7  10   4   67.49    9.50   1
  -7 -10  -4   57.89    5.30   1
  -7 -10  -4   49.99    5.40   1
  -7  10   4   59.49    5.80   1
   7 -10   4   60.39    6.90   1
  -7 -10   4   48.00    6.20   1
  -7 -10   4   48.50    5.40   1
  -7 -10   4   43.50    5.50   1
   8 -10   4  126.69    9.50   1
  -8 -10  -4  117.19    7.50   1
  -8 -10  -4  119.29    7.50   1
  -8  10   4  118.09    7.80   1
  -8 -10   4  122.49    8.20   1
  -8 -10   4  127.79    9.10   1
  -8 -10   4  129.59    8.00   1
  -9 -10  -4   31.10    4.80   1
   9 -10   4   22.20    5.90   1
  -9  10   4   22.60    4.70   1
   9  10   4   24.40    1.70   1
  -9 -10   4   24.70    4.90   1
  -9 -10   4   26.70    5.20   1
 -10 -10  -4   29.70    5.00   1
 -10  10   4   30.10    5.30   1
  10 -10   4   32.60    6.70   1
 -10 -10   4   29.50    5.50   1
 -10 -10   4   27.60    5.40   1
  10  10   4   34.90    2.70   1
  11 -10   4   14.90    6.70   1
 -11  10   4    8.90    4.30   1
 -11  10   4    8.30    5.10   1
 -11 -10  -4   18.70    4.50   1
 -11 -10   4   13.90    5.60   1
  11  10   4   11.90    2.20   1
 -11 -10   4    7.00    5.20   1
  12 -10   4  837.82   31.30   1
 -12  10   4  791.82   29.60   1
  12  10   4  872.01   25.70   1
 -12 -10   4  841.22   28.90   1
 -12 -10   4  795.52   29.10   1
 -13  10   4   26.10    6.70   1
  13 -10   4   33.00    8.30   1
 -13 -10   4   22.20    6.30   1
 -13 -10   4   31.80    7.00   1
   0  11  -4   33.80    4.80   1
   0  11   4   31.40    3.70   1
   0 -11   4   31.60    3.80   1
   0  11   4   25.00    4.30   1
   0 -11   4   32.50    4.00   1
   0 -11   4   32.40    3.90   1
  -1  11   4   23.00    3.70   1
  -1 -11  -4   30.40    4.10   1
   1 -11   4   23.80    3.20   1
   1  11  -4   24.70    4.30   1
  -1  11   4   28.10    4.40   1
   1 -11   4   26.70    3.80   1
   1 -11   4   25.20    3.80   1
  -1 -11   4   29.20    4.00   1
  -1 -11   4   24.80    3.80   1
  -1 -11   4   35.50    3.80   1
  -1  11  -4   26.20    4.50   1
   1  11   4   27.00    3.10   1
  -1 -11   4   25.80    3.10   1
  -2  11   4   37.40    4.80   1
   2 -11   4   47.70    4.70   1
  -2  11   4   45.10    4.10   1
   2  11  -4   44.50    5.30   1
  -2 -11  -4   49.70    5.00   1
   2 -11   4   54.29    5.30   1
  -2  11   4   52.19    5.30   1
  -2 -11   4   50.39    4.80   1
  -2 -11   4   50.69    5.00   1
   2  11   4   49.90    3.50   1
  -2 -11   4   42.20    4.10   1
  -2  11  -4   57.49    6.10   1
  -2 -11   4   57.49    4.30   1
   3 -11   4  856.21   28.20   1
  -3  11   4  862.51   28.30   1
  -3 -11  -4  848.52   27.80   1
   3  11  -4  835.32   28.50   1
  -3  11   4  850.81   28.70   1
   3 -11   4  842.82   27.70   1
  -3  11   4  839.32   27.10   1
  -3 -11   4  834.32   28.00   1
   3  11   4  858.41   25.20   1
  -3 -11   4  859.81   27.20   1
   3  11   4  863.61   25.20   1
  -3 -11   4  867.61   27.90   1
  -4  11   4   32.90    5.50   1
   4 -11   4   40.20    4.70   1
  -4 -11  -4   36.60    4.20   1
  -4  11   4   36.10    4.90   1
   4  11  -4   40.00    5.00   1
   4 -11   4   24.20    4.60   1
  -4  11   4   36.90    4.20   1
  -4 -11  -4   39.40    4.80   1
  -4 -11   4   32.60    4.70   1
  -4 -11   4   34.70    4.70   1
  -4 -11   4   29.10    4.00   1
  -5 -11  -4   35.70    4.90   1
  -5  11   4   35.60    5.00   1
  -5 -11  -4   36.30    4.30   1
  -5  11   4   38.50    4.50   1
  -5  11   4   33.40    5.60   1
   5  11  -4   35.40    4.90   1
   5 -11   4   32.50    5.20   1
  -5 -11   4   38.00    4.60   1
  -5 -11   4   36.40    5.10   1
  -5 -11   4   39.70    5.00   1
  -6 -11  -4   23.90    4.60   1
   6 -11   4   23.70    5.20   1
  -6  11   4   24.80    4.60   1
  -6  11   4   22.10    5.60   1
  -6  11   4   30.80    4.50   1
  -6 -11  -4   28.30    4.40   1
  -6 -11   4   30.50    4.90   1
  -6 -11   4   30.90    4.50   1
  -6 -11   4   27.30    5.00   1
  -7  11   4    7.40    3.50   1
  -7  11   4   14.60    4.30   1
  -7 -11  -4    1.10    3.50   1
  -7 -11  -4    4.00    3.60   1
   7 -11   4    8.50    4.70   1
  -7 -11   4    4.90    4.00   1
  -7 -11   4    7.70    4.10   1
  -7 -11   4    6.30    4.30   1
  -8  11   4   34.10    5.10   1
  -8 -11  -4   31.30    4.70   1
  -8 -11  -4   36.30    5.10   1
   8 -11   4   36.50    6.40   1
  -8 -11   4   26.20    5.20   1
  -8 -11   4   34.50    5.50   1
  -8 -11   4   29.60    5.60   1
  -9 -11  -4  361.66   14.70   1
  -9 -11  -4  385.36   14.60   1
   9 -11   4  372.46   17.20   1
  -9  11   4  358.36   15.00   1
  -9 -11   4  384.06   15.50   1
  -9 -11   4  374.16   15.60   1
   9  11   4  373.56   11.00   1
 -10  11   4   13.70    4.60   1
 -10 -11  -4   12.00    4.40   1
  10 -11   4   13.60    6.10   1
 -10 -11   4   12.20    4.70   1
  10  11   4   17.20    1.80   1
 -10 -11   4    7.80    4.90   1
 -11 -11  -4   12.40    4.10   1
  11 -11   4   13.40    7.40   1
 -11  11   4    8.70    4.60   1
 -11  11   4   13.90    6.10   1
 -11 -11   4   15.50    5.30   1
  11  11   4   15.90    2.40   1
 -11 -11   4   13.50    5.70   1
 -12  11   4   21.60    6.60   1
  12 -11   4   21.90    7.50   1
 -12 -11   4   15.80    5.80   1
 -12 -11   4   23.90    5.90   1
 -13  11   4    2.00    5.90   1
  13 -11   4    7.60    7.40   1
 -13 -11   4    2.30    5.90   1
 -13 -11   4   13.50    5.70   1
   0  12  -4  601.34   21.70   1
   0  12   4  603.04   21.40   1
   0 -12   4  616.54   21.00   1
   0 -12   4  580.14   20.30   1
   0  12   4  608.74   20.20   1
   0 -12   4  585.74   20.00   1
  -1  12   4  154.48    8.70   1
   1 -12   4  145.99    7.30   1
   1  12  -4  151.18    8.80   1
   1 -12   4  161.68    8.10   1
   1 -12   4  151.88    8.10   1
  -1  12   4  157.98    8.00   1
  -1 -12  -4  138.89    8.10   1
  -1  12  -4  143.29    9.00   1
  -1 -12   4  149.39    8.20   1
  -1 -12   4  142.79    6.90   1
   1  12   4  160.48    7.10   1
  -1 -12   4  160.48    7.90   1
  -1 -12   4  161.58    7.70   1
   2  12  -4   18.30    4.10   1
  -2  12   4   14.90    3.10   1
   2 -12   4   13.60    3.50   1
   2 -12   4    9.60    3.60   1
  -2 -12  -4   12.60    3.70   1
  -2  12   4   11.30    3.60   1
  -2  12   4    8.50    3.80   1
  -2 -12   4    8.90    3.50   1
   2  12   4   15.50    2.20   1
  -2 -12   4   14.80    3.60   1
  -2 -12   4   10.20    3.00   1
  -2  12  -4   18.40    4.80   1
  -2 -12   4   16.80    3.10   1
  -3  12   4  139.79    8.40   1
   3  12  -4  150.88    8.90   1
   3 -12   4  128.09    7.80   1
  -3  12   4  148.39    7.50   1
  -3  12   4  133.09    8.40   1
  -3 -12  -4  132.99    8.10   1
   3 -12   4  157.48    8.60   1
  -3 -12   4  154.38    8.20   1
  -3 -12   4  134.99    7.20   1
   3  12   4  142.89    5.10   1
  -3 -12   4  143.59    8.40   1
   4  12  -4    4.80    3.80   1
  -4  12   4    8.70    3.30   1
   4 -12   4   -2.40    3.20   1
  -4 -12  -4   -1.70    2.90   1
  -4  12   4    1.40    3.60   1
   4 -12   4    0.90    3.70   1
  -4 -12  -4    0.40    3.30   1
  -4 -12   4    4.20    3.60   1
  -4 -12   4    3.50    2.90   1
  -4 -12   4   -2.70    3.30   1
   5 -12   4   96.39    8.00   1
  -5  12   4  110.19    7.70   1
  -5  12   4  100.79    7.20   1
  -5 -12  -4  111.09    7.30   1
   5 -12   4  109.49    7.50   1
  -5 -12  -4  102.79    7.40   1
  -5 -12   4  106.89    8.00   1
  -5 -12   4  114.49    7.20   1
  -5 -12   4  116.19    7.80   1
   6 -12   4  454.05   18.90   1
  -6 -12  -4  488.05   17.80   1
  -6  12   4  513.85   17.90   1
  -6  12   4  448.96   17.90   1
   6 -12   4  480.55   17.60   1
  -6 -12  -4  461.65   17.20   1
  -6 -12   4  461.95   18.10   1
  -6 -12   4  513.45   18.10   1
  -6 -12   4  482.25   19.00   1
  -7  12   4  120.59    8.00   1
  -7 -12  -4  110.59    8.10   1
   7 -12   4  106.29    9.40   1
  -7 -12  -4  115.29    7.80   1
  -7  12   4  108.79    8.00   1
  -7 -12   4  124.89    8.40   1
  -7 -12   4  107.69    9.00   1
  -7 -12   4  131.29    8.60   1
  -8  12   4    8.80    4.20   1
  -8 -12  -4   11.90    4.40   1
  -8 -12  -4    4.90    4.20   1
   8 -12   4   16.60    5.80   1
  -8 -12   4    9.00    4.20   1
  -8 -12   4    5.40    4.90   1
  -9  12   4   73.39    7.00   1
  -9 -12  -4   65.49    6.30   1
  -9 -12  -4   67.49    6.20   1
   9 -12   4   65.09    8.20   1
  -9 -12   4   62.99    7.00   1
  -9 -12   4   58.79    6.90   1
 -10 -12  -4    4.50    4.00   1
  10 -12   4    4.20    6.20   1
 -10  12   4    2.70    4.10   1
 -10 -12   4    3.10    5.20   1
  10  12   4    5.90    1.40   1
 -10 -12   4    5.30    5.20   1
 -11 -12  -4   45.50    5.90   1
  11 -12   4   55.39    9.40   1
 -11  12   4   57.79    6.50   1
 -11 -12   4   60.49    7.20   1
 -11 -12   4   53.49    6.90   1
 -12  12   4  278.87   14.50   1
  12 -12   4  263.87   15.60   1
 -12 -12   4  257.57   13.20   1
 -12 -12   4  269.07   14.20   1
   0  13  -4   18.10    4.70   1
   0  13   4   17.00    4.50   1
   0 -13   4   16.90    3.70   1
   0 -13   4   19.30    4.00   1
   0 -13   4   18.50    3.70   1
   1 -13   4  393.96   15.40   1
   1  13  -4  402.56   16.20   1
  -1 -13  -4  387.06   15.40   1
   1 -13   4  399.86   14.50   1
   1 -13   4  407.36   15.50   1
  -1  13   4  410.16   16.20   1
  -1 -13   4  398.36   15.10   1
  -1 -13   4  407.66   14.80   1
  -1  13  -4  405.06   16.60   1
  -1 -13   4  397.86   15.60   1
  -2  13   4    1.10    2.80   1
   2 -13   4    2.00    3.40   1
  -2 -13  -4    0.70    3.60   1
  -2  13   4   -1.00    3.60   1
   2  13  -4    0.90    3.30   1
   2 -13   4   -2.90    2.90   1
  -2 -13   4    6.60    3.40   1
  -2 -13   4    5.00    2.90   1
  -2 -13   4    1.40    3.30   1
   3 -13   4 1709.73   52.59   1
  -3  13   4 1689.13   51.89   1
   3 -13   4 1708.33   53.19   1
  -3 -13  -4 1749.22   52.79   1
  -3  13   4 1618.54   53.09   1
  -3 -13   4 1700.63   51.99   1
  -3 -13   4 1720.63   52.59   1
  -3 -13   4 1774.72   53.29   1
   4 -13   4    9.50    4.30   1
  -4  13   4    5.20    4.10   1
  -4 -13  -4    4.80    3.90   1
  -4  13   4    5.90    3.40   1
   4 -13   4    2.70    3.60   1
  -4 -13   4   10.70    3.70   1
  -4 -13   4    5.60    3.90   1
  -4 -13   4    8.50    3.90   1
   5 -13   4  282.47   12.60   1
  -5 -13  -4  293.67   12.70   1
  -5 -13  -4  274.27   12.10   1
   5 -13   4  291.17   13.70   1
  -5  13   4  270.77   12.80   1
  -5  13   4  302.87   12.60   1
  -5 -13   4  284.27   12.40   1
  -5 -13   4  311.27   13.10   1
  -5 -13   4  306.57   14.00   1
   6 -13   4   -1.50    3.10   1
  -6  13   4    4.80    4.10   1
  -6 -13  -4    2.40    3.50   1
  -6 -13  -4    2.20    3.90   1
  -6  13   4   11.90    4.10   1
   6 -13   4    4.80    4.80   1
  -6 -13   4    7.40    4.00   1
  -6 -13   4    6.40    5.10   1
  -6 -13   4    3.40    4.20   1
  -7  13   4  330.47   13.80   1
  -7 -13  -4  313.97   13.90   1
  -7  13   4  316.47   14.00   1
   7 -13   4  311.07   15.30   1
  -7 -13  -4  326.47   13.60   1
  -7 -13   4  341.17   14.40   1
  -7 -13   4  300.97   14.00   1
  -8 -13  -4   -1.90    4.00   1
  -8 -13  -4    4.50    4.40   1
   8 -13   4   -5.40    5.20   1
  -8  13   4   -4.20    3.90   1
  -8 -13   4   -0.80    4.00   1
  -8 -13   4    1.50    4.50   1
  -9  13   4  933.11   30.70   1
  -9 -13  -4  882.71   30.00   1
   9 -13   4  924.41   33.20   1
  -9 -13   4  902.71   31.00   1
  -9 -13   4  885.91   30.70   1
 -10 -13  -4   -1.70    3.80   1
  10 -13   4    5.40    6.70   1
 -10  13   4    0.80    4.30   1
 -10 -13   4    6.80    5.50   1
 -10 -13   4   10.40    5.40   1
  11 -13   4  158.28   13.50   1
 -11 -13  -4  146.19   10.70   1
 -11 -13   4  146.09   10.90   1
 -11 -13   4  129.39   10.00   1
 -12  13   4   -1.00    5.90   1
  12 -13   4    5.00    6.90   1
 -12 -13   4   -0.30    5.40   1
 -12 -13   4   -0.30    5.30   1
   0 -14   4  420.66   16.50   1
   0  14   4  393.96   16.90   1
   0 -14   4  437.96   15.80   1
   0 -14   4  440.36   16.20   1
  -1 -14  -4   93.79    7.50   1
  -1  14   4  109.59    8.20   1
   1 -14   4   80.49    6.10   1
   1 -14   4   92.09    7.60   1
   1 -14   4  120.89    7.80   1
  -1 -14   4  101.79    6.80   1
  -1 -14   4   99.89    7.90   1
  -1  14  -4   87.69    8.40   1
  -1 -14   4   91.89    7.00   1
   2 -14   4   15.40    4.00   1
  -2 -14  -4   18.50    4.60   1
   2 -14   4   23.10    5.00   1
  -2  14   4   22.20    3.90   1
  -2  14   4   26.30    5.20   1
  -2 -14   4   26.40    4.50   1
  -2 -14   4   17.20    4.50   1
  -2 -14   4   20.60    3.90   1
  -3  14   4   48.80    5.20   1
   3 -14   4   46.00    5.50   1
  -3 -14  -4   57.99    6.40   1
   3 -14   4   45.20    6.00   1
  -3  14   4   61.09    6.90   1
  -3 -14   4   49.99    6.00   1
  -3 -14   4   53.99    5.40   1
  -3 -14   4   50.99    5.70   1
   4 -14   4   11.70    4.10   1
   4 -14   4   18.00    5.00   1
  -4  14   4   19.10    4.20   1
  -4 -14  -4   19.60    4.80   1
  -4  14   4   15.90    5.00   1
  -4 -14   4   13.10    4.50   1
  -4 -14   4   17.30    4.60   1
  -4 -14   4   13.20    4.00   1
   5 -14   4  103.09    8.70   1
  -5  14   4  112.89    7.90   1
  -5 -14  -4   98.99    7.80   1
   5 -14   4  105.09    7.80   1
  -5  14   4   92.19    8.00   1
  -5 -14   4  113.49    7.70   1
  -5 -14   4   89.39    7.70   1
  -6  14   4  318.17   13.70   1
  -6 -14  -4  306.77   13.60   1
  -6  14   4  320.57   14.10   1
   6 -14   4  305.67   15.10   1
  -6 -14  -4  293.47   13.50   1
  -6 -14   4  322.37   13.70   1
  -6 -14   4  310.17   14.30   1
   7 -14   4   33.60    7.20   1
  -7 -14  -4   30.20    5.40   1
  -7  14   4   35.40    5.40   1
  -7  14   4   37.30    5.90   1
  -7 -14  -4   29.00    5.60   1
  -7 -14   4   26.60    5.60   1
  -7 -14   4   30.30    5.70   1
   8 -14   4   11.10    6.00   1
  -8  14   4   10.40    5.10   1
  -8 -14  -4    4.10    4.50   1
  -8 -14  -4   11.80    4.90   1
  -8 -14   4   16.30    5.60   1
  -8 -14   4   14.50    5.30   1
   9 -14   4   52.69    8.40   1
  -9 -14  -4   60.69    6.20   1
  -9  14   4   51.39    6.70   1
  -9 -14  -4   51.39    6.00   1
  -9 -14   4   51.09    6.80   1
  -9 -14   4   53.39    7.00   1
  10 -14   4    8.90    7.50   1
 -10 -14  -4   10.70    4.30   1
 -10  14   4    5.20    4.70   1
 -10 -14   4    7.90    5.40   1
 -10 -14   4    6.50    5.80   1
  11 -14   4   46.70    9.20   1
 -11 -14   4   40.60    6.90   1
 -11 -14   4   47.80    6.90   1
   0 -15   4   54.59    5.80   1
   0 -15   4   47.20    5.10   1
   0  15   4   39.40    6.20   1
   0 -15   4   34.00    5.50   1
  -1 -15  -4   12.00    4.70   1
  -1  15   4    8.80    4.60   1
   1 -15   4   20.10    4.40   1
   1 -15   4    5.90    4.20   1
  -1 -15   4    1.20    3.70   1
  -1 -15   4    1.50    5.10   1
  -1 -15   4   -1.30    3.60   1
  -2 -15  -4  115.79    8.90   1
  -2  15   4  125.89    7.70   1
   2 -15   4  104.99    7.70   1
   2 -15   4  115.99    8.70   1
  -2  15   4  124.19    8.90   1
  -2 -15   4  125.19    7.80   1
  -2 -15   4  104.89    8.30   1
  -3 -15  -4  269.07   12.90   1
  -3  15   4  254.57   13.00   1
   3 -15   4  278.07   13.00   1
   3 -15   4  249.18   12.00   1
  -3  15   4  281.87   12.00   1
  -3 -15   4  265.37   12.20   1
  -3 -15   4  259.87   11.70   1
  -4  15   4   71.49    6.40   1
   4 -15   4   65.49    8.80   1
   4 -15   4   61.39    7.20   1
  -4 -15  -4   72.19    7.10   1
  -4  15   4   57.79    7.00   1
  -4 -15   4   70.39    6.70   1
  -4 -15   4   55.19    5.90   1
   5 -15   4    2.80    5.20   1
  -5  15   4    5.00    4.00   1
  -5  15   4    4.40    4.80   1
  -5 -15  -4    6.00    4.40   1
  -5 -15   4    2.80    4.40   1
  -5 -15   4    7.90    4.70   1
  -6 -15  -4   46.90    5.80   1
  -6 -15  -4   43.40    6.10   1
  -6  15   4   45.90    6.40   1
  -6  15   4   49.40    6.30   1
   6 -15   4   51.29    7.80   1
  -6 -15   4   42.40    6.10   1
  -6 -15   4   42.40    5.90   1
   7 -15   4    7.20    5.70   1
  -7 -15  -4    1.50    4.70   1
  -7  15   4    2.60    4.90   1
  -7 -15  -4    2.80    4.10   1
  -7  15   4    2.40    4.40   1
  -7 -15   4    6.40    4.90   1
  -7 -15   4    3.30    4.20   1
  -8  15   4   84.39    7.90   1
   8 -15   4   74.29    9.30   1
  -8 -15  -4   79.89    7.30   1
  -8 -15  -4   77.19    7.30   1
  -8 -15   4   93.29    8.50   1
  -8 -15   4   61.79    7.60   1
  -9  15   4  184.78   11.00   1
  -9 -15  -4  161.38    9.70   1
   9 -15   4  186.38   13.10   1
  -9 -15   4  189.78   11.10   1
  -9 -15   4  172.78   11.10   1
 -10 -15  -4   26.10    5.30   1
  10 -15   4   17.20    8.10   1
 -10  15   4   26.60    5.70   1
 -10 -15   4   15.70    6.30   1
 -10 -15   4   23.60    6.10   1
   0  16   4 1069.79   36.80   1
   0 -16   4 1061.99   34.80   1
   0 -16   4 1139.89   35.70   1
   1 -16   4    2.00    4.40   1
  -1  16   4    4.70    4.70   1
  -1 -16   4   -0.30    3.50   1
  -2  16   4  155.58    9.00   1
  -2 -16  -4  161.58   10.50   1
   2 -16   4  159.58   10.10   1
  -2  16   4  140.69   10.10   1
  -2 -16   4  154.48    9.00   1
  -3  16   4    9.90    5.20   1
  -3  16   4    9.40    4.10   1
   3 -16   4   10.80    4.90   1
  -3 -16  -4    8.90    4.80   1
  -3 -16   4   -0.50    4.30   1
  -3 -16   4    8.70    4.60   1
  -4  16   4  171.48   11.80   1
  -4 -16  -4  190.38   10.80   1
  -4  16   4  187.88   10.40   1
   4 -16   4  211.58   11.60   1
  -4 -16   4  202.98   10.90   1
  -4 -16   4  201.28   10.60   1
  -5  16   4    5.80    4.50   1
   5 -16   4   -1.80    4.90   1
  -5 -16  -4   -5.00    4.40   1
  -5  16   4    6.40    4.90   1
  -5 -16   4    2.70    4.10   1
  -5 -16   4    1.10    4.90   1
   6 -16   4  790.12   28.90   1
  -6 -16  -4  782.82   27.40   1
  -6  16   4  789.52   27.30   1
  -6  16   4  751.72   27.80   1
  -6 -16   4  787.72   27.50   1
  -6 -16   4  778.32   27.50   1
  -7  16   4    3.20    5.30   1
   7 -16   4    3.20    5.90   1
  -7 -16  -4   -3.30    4.40   1
  -7 -16   4    7.60    5.10   1
  -7 -16   4   -2.00    5.60   1
   8 -16   4  102.49   10.40   1
  -8 -16  -4   90.79    7.80   1
  -8  16   4   94.79    8.40   1
  -8 -16   4   76.49    8.00   1
  -8 -16   4   96.39    9.20   1
  -9 -16  -4    2.30    4.40   1
  -9  16   4    4.50    5.00   1
   9 -16   4    1.30    6.60   1
  -9 -16  -4   -3.60    4.50   1
  -9 -16   4    5.30    5.40   1
  -9 -16   4    1.00    5.50   1
  10 -16   4  144.59   12.90   1
 -10 -16   4  117.29    9.50   1
 -10 -16   4  133.59   10.10   1
   0 -17   4   98.59    8.00   1
   0 -17   4   95.19    7.40   1
   0  17   4   82.89    8.30   1
  -1  17   4   12.00    5.30   1
  -1  17   4   11.30    3.90   1
   1 -17   4   12.60    5.00   1
  -1 -17   4    8.70    4.10   1
   1  17   4    7.80    5.10   1
  -2 -17  -4  102.99    8.70   1
  -2  17   4   81.39    8.60   1
  -2  17   4  103.59    7.90   1
   2 -17   4   96.99    8.50   1
  -2 -17   4   99.69    7.60   1
  -3 -17  -4  309.37   14.80   1
   3 -17   4  357.76   15.90   1
  -3  17   4  330.87   14.30   1
  -3  17   4  310.97   15.50   1
  -3 -17   4  352.66   14.90   1
   4 -17   4   81.19    8.70   1
  -4  17   4   98.49    8.90   1
  -4 -17  -4   73.09    7.90   1
  -4  17   4   88.39    7.60   1
  -4 -17   4   91.99    7.90   1
  -4 -17   4   94.79    8.30   1
  -5  17   4   14.00    5.00   1
  -5 -17  -4   21.00    6.00   1
   5 -17   4    8.60    5.50   1
  -5  17   4    5.70    5.20   1
  -5 -17   4   20.30    5.50   1
  -5 -17   4   11.10    5.20   1
  -6  17   4   83.49    7.50   1
   6 -17   4   77.09    9.40   1
  -6  17   4   78.89    8.10   1
  -6 -17  -4   74.09    7.50   1
  -6 -17   4   74.69    7.80   1
  -6 -17   4   66.69    8.20   1
   7 -17   4   -4.00    5.90   1
  -7  17   4   -6.40    4.80   1
  -7 -17  -4   -5.20    4.90   1
  -7 -17   4    4.80    5.20   1
  -7 -17   4    1.90    5.50   1
   8 -17   4   66.29    9.70   1
  -8  17   4   61.89    7.80   1
  -8 -17  -4   51.99    6.90   1
  -8 -17   4   59.89    7.50   1
  -8 -17   4   61.89    7.60   1
   9 -17   4  269.67   16.10   1
  -9 -17   4  248.78   13.70   1
  -9 -17   4  236.88   13.30   1
   0  18   4  431.16   19.00   1
  -1  18   4   30.00    5.10   1
   1 -18   4   35.30    6.20   1
  -1  18   4   34.00    6.70   1
   1  18   4   38.00    7.30   1
  -1 -18   4   17.70    5.20   1
   2 -18   4    6.10    4.70   1
  -2  18   4    1.30    6.00   1
  -2  18   4    9.00    4.40   1
   2  18   4    7.20    5.50   1
  -2 -18   4   10.20    5.30   1
  -3 -18  -4   27.90    6.70   1
  -3  18   4   25.60    5.20   1
   3 -18   4   17.50    6.00   1
  -3  18   4   36.40    7.40   1
  -3 -18   4   14.10    5.30   1
  -4  18   4    3.60    4.60   1
   4 -18   4    1.90    5.20   1
  -4 -18  -4   -2.10    5.00   1
  -4  18   4    2.60    5.40   1
  -4 -18   4    2.60    5.40   1
   5 -18   4   27.50    7.10   1
  -5 -18  -4   33.50    6.30   1
  -5  18   4   36.80    7.20   1
  -5  18   4   35.50    6.10   1
  -5 -18   4   32.00    6.50   1
  -5 -18   4   33.20    6.60   1
  -6  18   4  301.97   15.50   1
  -6 -18  -4  314.87   15.00   1
   6 -18   4  332.67   16.40   1
  -6 -18   4  318.07   15.40   1
  -6 -18   4  340.57   15.30   1
   7 -18   4   25.40    7.10   1
  -7 -18  -4   23.40    5.90   1
  -7  18   4   21.90    6.60   1
  -7 -18   4   22.60    6.80   1
  -7 -18   4   12.00    6.40   1
  -8  18   4    4.20    5.20   1
   8 -18   4   11.50    7.10   1
  -8 -18  -4   -0.50    5.00   1
  -8 -18   4    8.40    6.00   1
  -8 -18   4    9.00    6.20   1
   0  19   4   72.69    8.70   1
   0  19   4   66.29    6.30   1
  -1  19   4   85.39    9.30   1
  -1  19   4   98.69    8.20   1
   1  19   4   78.89    9.10   1
   2 -19   4   36.20    6.20   1
  -2  19   4   36.90    7.40   1
  -2  19   4   24.70    5.30   1
   2  19   4   25.10    6.70   1
  -2 -19   4   23.50    6.00   1
  -3  19   4  699.03   27.70   1
  -3  19   4  713.93   25.80   1
   3 -19   4  778.92   27.30   1
   3  19   4  736.43   27.20   1
  -3 -19   4  739.53   26.10   1
   4 -19   4   44.80    7.20   1
  -4 -19  -4   40.40    7.20   1
  -4  19   4   45.90    7.50   1
  -4  19   4   47.50    6.50   1
  -4 -19   4   39.10    6.60   1
  -5 -19  -4   80.09    8.30   1
  -5  19   4   87.19    9.00   1
   5 -19   4   74.49    8.80   1
  -5  19   4   92.59    8.30   1
  -5 -19   4   92.09    9.00   1
  -6  19   4   36.30    6.90   1
  -6 -19  -4   35.40    6.40   1
   6 -19   4   41.80    8.20   1
  -6  19   4   36.70    8.30   1
  -6 -19   4   45.00    7.40   1
   0  20   4  672.03   23.40   1
  -1  20   4   56.29    8.90   1
  -1  20   4   61.19    6.60   1
   1  20   4   61.39    5.90   1
   1  20   4   49.70    8.10   1
  -2  20   4   51.09    6.40   1
  -2  20   4   42.20    8.00   1
   2 -20   4   66.59    7.90   1
   2  20   4   50.49    7.80   1
  -2 -20   4   49.70    6.80   1
   3 -20   4  105.29    9.40   1
  -3  20   4  100.59   10.10   1
   3  20   4   91.69    9.70   1
  -3 -20   4   70.19    8.30   1
   4 -20   4   51.19    8.00   1
  -4  20   4   38.00    7.50   1
  -4  20   4   52.79    6.90   1
   4  20   4   41.50    7.70   1
  -4 -20   4   42.50    7.20   1
   0   0   5  434.26   14.20   1
   0   0  -5  424.16   15.00   1
   0   0   5  419.06   15.10   1
   0   0   5  451.05   14.20   1
  -1   0   5    2.40    1.70   1
   1   0   5    2.60    1.60   1
  -1   0   5   -0.60    2.20   1
  -1   0   5    3.70    1.50   1
  -1   0  -5    0.60    1.90   1
  -1   0   5    0.10    1.60   1
   1   0  -5    2.20    2.20   1
   1   0   5    0.30    1.90   1
   1   0   5    0.40    1.60   1
  -2   0   5 3260.37   91.59   1
   2   0  -5 3233.98   93.79   1
  -2   0   5 3202.08   93.89   1
   2   0   5 3092.89   93.09   1
  -2   0   5 3251.87   91.99   1
   2   0   5 3099.39   92.29   1
  -2   0  -5 3149.98   92.89   1
  -2   0   5 3142.49   92.49   1
   2   0   5 3271.77   91.89   1
  -2   0   5 3116.69   92.59   1
   3   0   5    1.30    1.30   1
  -3   0  -5    4.80    2.10   1
   3   0   5    0.40    1.70   1
   3   0   5   -2.20    2.40   1
   3   0   5   -0.30    2.40   1
  -3   0   5   -2.10    3.10   1
  -3   0   5    0.20    2.10   1
  -3   0   5    7.40    1.70   1
  -3   0   5    1.50    1.80   1
  -3   0   5   -0.10    1.40   1
   4   0   5 2620.64   77.49   1
  -4   0   5 2662.73   77.79   1
  -4   0   5 2703.93   77.49   1
  -4   0   5 2652.53   77.29   1
   4   0   5 2676.23   78.99   1
  -4   0   5 2642.14   78.29   1
  -5   0   5    0.30    2.40   1
   5   0   5   -2.60    2.50   1
   5   0   5    0.30    1.90   1
  -5   0   5    1.50    2.10   1
  -5   0   5    2.70    1.90   1
   6   0   5  280.37   10.40   1
  -6   0   5  286.57   10.50   1
  -6   0   5  287.77   10.80   1
   6   0   5  256.47   11.60   1
  -6   0   5  283.47   11.30   1
  -7   0   5    0.70    2.50   1
  -7   0   5    2.30    3.00   1
   7   0   5    0.60    3.00   1
   7   0   5    2.70    2.30   1
  -8   0   5 1674.03   50.69   1
  -8   0   5 1663.43   50.39   1
   8   0   5 1628.04   49.50   1
   8   0   5 1618.24   51.09   1
  -9   0   5   -2.00    3.40   1
  -9   0   5    1.90    3.30   1
   9   0   5   -2.10    3.40   1
  -9   0   5    0.90    3.60   1
   9   0   5   -1.10    2.70   1
 -10   0   5 1179.48   37.70   1
 -10   0   5 1212.58   37.90   1
  10   0   5 1146.89   38.00   1
 -10   0   5 1193.38   37.20   1
  10   0   5 1097.69   36.40   1
 -11   0   5    5.70    4.40   1
 -11   0   5    2.20    4.60   1
  11   0   5   -0.10    3.40   1
 -11   0   5   -1.20    3.90   1
  11   0   5    0.10    3.90   1
 -12   0   5  107.89    8.70   1
 -12   0   5  106.69    8.00   1
  12   0   5  108.59    8.50   1
  12   0   5  105.79    8.10   1
 -12   0   5  114.99    8.40   1
  13   0   5    2.20    4.10   1
 -13   0   5    3.60    4.90   1
 -13   0   5    1.20    5.30   1
 -13   0   5    1.80    4.90   1
 -14   0   5  632.14   22.40   1
 -14   0   5  568.14   21.60   1
  14   0   5  595.94   21.70   1
 -14   0   5  567.04   23.20   1
  15   0   5    0.90    4.50   1
 -15   0   5   -1.60    6.50   1
   0  -1   5  165.08    6.70   1
   0  -1  -5  165.48    7.20   1
   0  -1   5  164.38    7.70   1
   0  -1   5  169.58    7.20   1
   0   1   5  165.08    6.60   1
   0  -1   5  165.38    6.70   1
   0   1   5  169.68    6.80   1
   0   1  -5  170.98    7.70   1
   0   1   5  168.98    7.60   1
   1  -1   5  491.35   16.30   1
  -1   1   5  525.35   16.60   1
  -1   1   5  505.05   17.60   1
   1  -1   5  534.25   17.50   1
   1  -1   5  493.15   17.00   1
   1  -1   5  520.25   16.10   1
   1   1  -5  503.45   17.50   1
  -1  -1  -5  508.45   16.80   1
  -1   1   5  511.35   16.40   1
   1   1   5  499.25   16.10   1
  -1  -1   5  507.45   16.50   1
  -1  -1   5  508.15   17.60   1
   1   1   5  498.05   16.30   1
   1  -1  -5  508.05   17.30   1
  -1  -1   5  508.25   16.50   1
  -1  -1   5  513.85   16.10   1
   1   1   5  503.85   17.00   1
  -1   1  -5  517.25   17.40   1
   2   1  -5    3.00    2.60   1
  -2   1   5    7.90    2.20   1
   2  -1   5    2.60    2.10   1
  -2   1   5    2.20    1.80   1
  -2   1   5    3.50    1.40   1
   2  -1   5    2.10    1.90   1
  -2   1   5    0.30    2.40   1
   2  -1   5   14.00    2.90   1
  -2   1   5    3.20    1.30   1
  -2  -1  -5    2.30    1.70   1
   2  -1   5    2.60    1.50   1
  -2  -1   5    4.70    1.90   1
  -2  -1   5    3.10    2.20   1
   2   1   5    3.60    2.00   1
   2   1   5    3.10    1.50   1
  -2   1  -5    2.70    1.90   1
  -2  -1   5    3.20    1.30   1
  -2  -1   5    9.30    2.20   1
   2   1   5    0.90    1.60   1
  -2  -1   5    3.10    1.70   1
  -3   1   5  148.09    5.80   1
   3   1  -5  155.88    8.00   1
  -3   1   5  140.79    6.30   1
   3  -1   5  145.89    7.30   1
  -3   1   5  152.98    5.90   1
  -3  -1  -5  151.28    6.50   1
   3  -1   5  148.99    6.50   1
  -3   1   5  138.59    6.70   1
  -3   1  -5  148.99    7.00   1
  -3  -1   5  154.08    6.20   1
  -3  -1   5  152.78    6.80   1
   3   1   5  152.58    6.30   1
   3   1   5  150.08    6.80   1
  -3  -1   5  147.69    6.30   1
   3   1   5  153.18    5.70   1
  -3  -1   5  156.28    8.00   1
  -3  -1   5  147.29    5.90   1
  -4   1   5   18.40    2.50   1
  -4   1   5   24.40    2.40   1
   4  -1   5   16.00    2.60   1
   4  -1   5   23.20    3.60   1
  -4   1   5   19.90    2.80   1
  -4   1   5   16.90    2.60   1
  -4  -1   5   12.70    2.90   1
   4   1   5   12.50    2.20   1
  -4  -1   5   20.70    2.70   1
   4   1   5   13.50    3.40   1
  -4  -1   5   14.10    2.30   1
  -4  -1   5   13.60    2.30   1
  -5   1   5  352.26   12.00   1
  -5   1   5  371.36   12.60   1
  -5   1   5  329.77   12.90   1
   5  -1   5  366.06   13.80   1
  -5   1   5  372.56   12.50   1
   5  -1   5  359.66   12.50   1
  -5  -1   5  365.26   12.40   1
  -5  -1   5  337.37   13.00   1
   5   1   5  344.57   13.70   1
  -5  -1   5  358.26   12.50   1
   5   1   5  352.86   12.10   1
  -6   1   5   71.69    4.90   1
  -6   1   5   80.49    5.70   1
   6  -1   5   75.89    5.00   1
   6  -1   5   75.89    5.50   1
   6   1   5   80.09    6.10   1
  -6  -1   5   84.89    5.80   1
  -6  -1   5   80.29    5.10   1
  -6  -1   5   71.89    5.20   1
   6   1   5   77.99    4.70   1
   7  -1   5  318.77   12.10   1
  -7   1   5  307.97   12.80   1
   7  -1   5  340.67   13.60   1
  -7   1   5  338.37   12.50   1
  -7  -1   5  316.67   12.40   1
  -7  -1   5  332.07   12.30   1
  -7  -1   5  332.67   13.00   1
   7   1   5  329.07   13.50   1
   7   1   5  325.47   11.70   1
  -8   1   5    1.10    3.00   1
   8  -1   5    1.70    3.50   1
  -8   1   5    1.90    3.30   1
   8  -1   5    5.00    2.90   1
  -8  -1   5   -2.50    2.70   1
   8   1   5   11.80    4.00   1
  -8  -1   5    5.40    3.50   1
   8   1   5    2.00    2.40   1
  -8  -1   5    0.90    2.80   1
  -9   1   5   87.79    6.70   1
   9  -1   5   98.59    8.10   1
  -9   1   5   83.49    6.80   1
   9  -1   5   90.59    6.40   1
   9   1   5   96.99    7.30   1
  -9  -1   5   84.69    6.60   1
  -9  -1   5   82.89    6.60   1
  -9  -1   5   80.59    7.00   1
   9   1   5   85.59    5.80   1
 -10   1   5   20.30    4.50   1
 -10   1   5   27.70    4.60   1
 -10   1   5   17.20    4.50   1
  10  -1   5   17.20    4.00   1
  10  -1   5   20.90    5.10   1
  10   1   5   17.60    3.60   1
 -10  -1   5   15.30    4.30   1
 -10  -1   5   27.20    5.00   1
  10   1   5   17.60    4.80   1
 -10  -1   5   20.00    4.80   1
  11  -1   5  140.99    8.70   1
 -11   1   5  140.09    9.30   1
 -11   1   5  142.49    9.20   1
  11  -1   5  146.99   10.10   1
 -11   1   5  157.38    8.90   1
 -11  -1   5  140.59    8.70   1
 -11  -1   5  150.58    9.30   1
 -11  -1   5  148.39    9.80   1
  11   1   5  142.29    9.20   1
  11   1   5  149.19    8.30   1
 -12   1   5   13.20    4.90   1
 -12   1   5   18.60    5.40   1
  12  -1   5   17.00    5.60   1
  12  -1   5   11.50    4.60   1
 -12   1   5    9.00    4.70   1
 -12  -1   5   15.40    5.10   1
  12   1   5   15.30    5.20   1
 -12  -1   5   15.80    4.80   1
  12   1   5   10.50    4.00   1
 -12  -1   5   19.00    5.50   1
 -13   1   5  117.89    9.20   1
 -13   1   5  112.69    9.90   1
  13  -1   5  136.19    9.30   1
 -13   1   5  116.09    8.20   1
 -13  -1   5  127.69   10.10   1
 -13  -1   5  122.79    9.50   1
 -13  -1   5  119.39    8.50   1
  13   1   5  119.39    8.60   1
 -14   1   5    0.60    6.00   1
 -14   1   5   13.80    4.80   1
 -14   1   5    3.20    4.80   1
  14  -1   5    3.20    4.60   1
 -14  -1   5    6.60    5.10   1
 -14  -1   5    7.50    5.80   1
 -14  -1   5   12.40    5.20   1
  14   1   5   -0.70    4.20   1
  15  -1   5   42.40    6.20   1
 -15   1   5   62.49    8.50   1
 -15  -1   5   40.30    8.30   1
  15   1   5   42.00    5.80   1
   0  -2   5  343.37   11.70   1
   0   2   5  351.76   11.60   1
   0  -2   5  341.57   12.80   1
   0  -2   5  329.67   11.90   1
   0   2  -5  336.87   12.70   1
   0   2   5  326.67   12.30   1
   0  -2   5  344.07   11.60   1
   0   2   5  332.07   11.60   1
  -1   2   5  157.98    6.60   1
   1  -2   5  148.39    7.60   1
  -1   2   5  160.78    7.70   1
   1  -2   5  156.68    7.10   1
   1  -2   5  173.48    6.50   1
   1   2  -5  174.98    8.00   1
  -1   2   5  162.08    6.70   1
   1  -2   5  153.98    6.60   1
  -1  -2  -5  169.48    6.80   1
   1   2   5  167.08    6.60   1
  -1  -2   5  165.28    6.60   1
  -1   2  -5  175.68    8.00   1
  -1  -2   5  171.58    6.80   1
   1   2   5  171.28    7.30   1
  -1  -2   5  164.28    7.90   1
   1   2   5  151.08    6.40   1
  -1  -2   5  171.98    6.90   1
  -1  -2   5  158.58    6.90   1
  -2   2   5  325.77   15.10   1
   2   2  -5  370.96   13.60   1
   2  -2   5  366.86   11.60   1
   2  -2   5  355.86   12.20   1
  -2  -2  -5  369.86   12.20   1
  -2   2   5  348.97   12.30   1
  -2   2   5  347.87   12.10   1
   2  -2   5  358.56   12.90   1
  -2   2   5  361.56   11.30   1
   2  -2   5  393.26   15.60   1
   2   2   5  333.17   11.70   1
   2   2   5  354.66   12.40   1
   2   2   5  343.47   11.70   1
  -2  -2   5  338.37   12.30   1
  -2  -2   5  349.57   13.50   1
  -2  -2   5  356.36   12.00   1
  -2  -2   5  350.06   11.90   1
  -2  -2   5  353.86   12.10   1
  -2   2  -5  358.36   13.00   1
  -3   2   5   81.69    3.70   1
   3  -2   5   86.39    5.10   1
  -3   2   5   72.99    4.90   1
   3  -2   5   77.79    4.70   1
  -3  -2  -5   84.69    4.30   1
  -3   2   5   87.09    4.80   1
   3   2  -5   86.89    5.70   1
  -3   2   5   80.89    4.10   1
  -3  -2   5   82.89    4.60   1
  -3  -2   5   78.79    4.10   1
  -3  -2   5   75.39    4.00   1
   3   2   5   90.29    4.30   1
   3   2   5   78.09    4.70   1
  -3  -2   5   79.89    4.90   1
   3   2   5   78.39    4.00   1
  -3  -2   5   77.09    4.40   1
   4  -2   5  271.87   11.30   1
  -4   2   5  277.07   10.80   1
  -4   2   5  294.07   10.60   1
   4  -2   5  287.17   10.50   1
  -4   2   5  286.17   10.10   1
   4   2  -5  289.87   12.10   1
  -4   2   5  284.87    9.50   1
  -4  -2   5  285.67    9.60   1
  -4  -2   5  304.67   11.00   1
  -4  -2   5  279.17   10.10   1
   4   2   5  275.47    9.90   1
  -4  -2   5  293.97   10.40   1
   5  -2   5   62.19    5.30   1
  -5   2   5   52.59    4.30   1
  -5   2   5   45.40    3.90   1
  -5   2   5   55.69    4.70   1
   5  -2   5   56.29    4.40   1
  -5  -2   5   51.09    4.20   1
   5   2   5   49.10    3.60   1
   5   2   5   53.59    5.20   1
  -5  -2   5   52.99    4.30   1
  -5  -2   5   49.50    4.50   1
  -6   2   5  225.38    9.80   1
   6  -2   5  224.38    9.20   1
   6  -2   5  221.08   10.40   1
  -6   2   5  251.47    9.40   1
   6   2   5  247.18   10.60   1
  -6  -2   5  230.88    9.40   1
  -6  -2   5  224.18    9.40   1
   6   2   5  215.38    8.40   1
  -6  -2   5  219.78    9.80   1
  -7   2   5  197.68    8.60   1
   7  -2   5  200.78    8.60   1
   7  -2   5  161.38    9.30   1
  -7   2   5  182.78    9.00   1
  -7  -2   5  176.48    9.00   1
  -7  -2   5  175.68    8.40   1
   7   2   5  179.08    9.30   1
  -7  -2   5  209.98    8.80   1
  -7  -2   5  186.88    8.70   1
   7   2   5  171.78    7.40   1
   8  -2   5  172.98    9.70   1
  -8   2   5  180.68    9.00   1
   8  -2   5  178.58    8.50   1
  -8   2   5  192.18    8.90   1
  -8  -2   5  162.38    8.50   1
  -8  -2   5  163.18    9.00   1
   8   2   5  157.08    7.40   1
  -8  -2   5  170.18    8.50   1
   8   2   5  186.28    9.40   1
  -8  -2   5  167.38    8.50   1
  -9   2   5    3.00    3.40   1
   9  -2   5    8.00    3.40   1
  -9   2   5    3.00    3.60   1
   9  -2   5    3.20    4.00   1
  -9  -2   5    5.70    4.00   1
  -9  -2   5   15.40    3.90   1
  -9  -2   5   10.30    4.20   1
   9   2   5    8.20    2.70   1
   9   2   5    6.40    4.00   1
  10  -2   5  113.19    7.80   1
 -10   2   5  133.89    8.30   1
  10  -2   5  123.19    8.70   1
 -10   2   5  118.59    8.10   1
 -10  -2   5  112.79    7.80   1
  10   2   5  105.39    7.90   1
  10   2   5  106.39    6.70   1
 -10  -2   5  125.69    8.40   1
 -10  -2   5  115.09    7.90   1
 -11   2   5   23.70    5.30   1
  11  -2   5   35.70    5.20   1
 -11   2   5   33.90    5.60   1
  11  -2   5   34.50    5.80   1
 -11   2   5   37.90    5.10   1
 -11  -2   5   30.80    5.60   1
 -11  -2   5   35.20    5.40   1
 -11  -2   5   30.00    5.40   1
  11   2   5   29.00    4.20   1
  11   2   5   31.00    5.80   1
  12  -2   5  100.39    8.30   1
  12  -2   5   99.99    8.80   1
 -12   2   5   88.59    7.30   1
 -12   2   5   98.79    8.60   1
 -12   2   5   98.89    8.30   1
 -12  -2   5  108.39    9.10   1
  12   2   5   85.29    7.10   1
 -12  -2   5  100.09    7.90   1
 -12  -2   5   78.39    7.80   1
 -13   2   5   80.99    8.80   1
 -13   2   5   82.29    7.60   1
 -13   2   5   93.19    7.70   1
  13  -2   5   75.19    8.60   1
  13  -2   5  101.99    8.50   1
 -13  -2   5   93.49    8.80   1
 -13  -2   5   75.39    7.50   1
 -13  -2   5   85.69    8.00   1
  13   2   5   89.19    7.40   1
  14  -2   5   53.49    6.80   1
 -14   2   5   42.00    7.60   1
 -14  -2   5   54.39    7.30   1
 -14  -2   5   58.69    8.00   1
  14   2   5   49.50    5.90   1
 -14  -2   5   56.09    6.70   1
 -15   2   5   -3.00    6.70   1
  15  -2   5   -2.70    4.60   1
  15   2   5    2.70    4.30   1
 -15  -2   5   -3.10    6.30   1
   0  -3   5  187.68    7.30   1
   0   3   5  185.78    7.30   1
   0  -3   5  183.08    8.50   1
   0  -3   5  181.18    7.20   1
   0   3   5  172.78    7.00   1
   0   3   5  173.98    7.80   1
   0  -3   5  167.98    7.30   1
   0   3  -5  179.38    8.40   1
  -1   3   5 2537.35   74.19   1
  -1   3   5 2556.84   74.59   1
   1  -3   5 2631.84   74.49   1
   1   3  -5 2495.55   75.79   1
  -1   3   5 2485.45   75.49   1
   1  -3   5 2599.34   74.19   1
   1  -3   5 2498.55   75.69   1
   1  -3   5 2563.74   74.89   1
  -1   3  -5 2555.64   75.59   1
   1   3   5 2420.06   73.99   1
  -1  -3   5 2491.35   74.49   1
  -1  -3   5 2591.14   75.89   1
  -1  -3   5 2576.14   74.39   1
   1   3   5 2491.35   74.79   1
  -1  -3   5 2511.55   74.29   1
  -1  -3   5 2699.63   74.39   1
   1   3   5 2570.74   74.29   1
   2  -3   5   47.60    3.20   1
   2  -3   5   51.89    3.70   1
   2  -3   5   44.90    2.80   1
   2   3  -5   46.40    4.80   1
  -2   3   5   55.59    4.00   1
  -2   3   5   43.70    2.50   1
  -2   3   5   49.30    3.50   1
   2  -3   5   52.09    4.30   1
   2   3   5   49.00    3.20   1
  -2  -3   5   44.90    3.50   1
  -2  -3   5   49.20    5.50   1
   2   3   5   46.60    3.70   1
  -2  -3   5   45.00    3.40   1
   2   3   5   48.20    3.30   1
  -2  -3   5   39.80    3.70   1
  -2   3  -5   43.60    4.30   1
  -2  -3   5   46.20    3.80   1
   3  -3   5  199.38    8.00   1
  -3   3   5  202.78    7.80   1
   3  -3   5  215.38    8.90   1
  -3   3   5  189.38    8.10   1
  -3   3   5  189.68    6.50   1
   3   3  -5  194.38    9.30   1
  -3   3  -5  181.08    9.40   1
   3   3   5  177.08    7.20   1
  -3  -3   5  199.38    8.00   1
  -3  -3   5  192.28    7.70   1
  -3  -3   5  193.38    7.30   1
  -3  -3   5  189.98    8.20   1
   3   3   5  195.48    7.30   1
   3   3   5  196.28    7.70   1
  -3  -3   5  200.58    7.30   1
   4   3  -5    4.00    3.20   1
  -4   3   5    4.70    2.50   1
   4  -3   5   -0.40    2.00   1
   4  -3   5    2.10    2.70   1
  -4   3   5    2.40    2.00   1
  -4  -3   5   -0.90    2.30   1
   4   3   5    1.30    1.90   1
  -4  -3   5    2.70    1.80   1
  -4  -3   5    2.50    2.10   1
  -4  -3   5    3.60    2.30   1
   4   3   5    1.50    1.60   1
   5   3  -5 1931.61   58.89   1
   5  -3   5 1886.91   58.09   1
   5  -3   5 1955.20   57.09   1
  -5   3   5 2023.50   56.99   1
  -5   3   5 1884.11   57.49   1
  -5   3   5 1884.01   56.89   1
  -5  -3   5 1827.42   56.79   1
   5   3   5 1901.31   56.09   1
  -5  -3   5 1942.91   57.19   1
  -5  -3   5 1950.90   57.09   1
  -5  -3   5 1894.31   57.59   1
  -6   3   5   51.89    4.90   1
  -6   3   5   51.49    4.30   1
  -6   3   5   49.99    4.40   1
   6  -3   5   54.59    5.50   1
   6  -3   5   67.99    4.80   1
   6   3   5   51.99    5.30   1
  -6  -3   5   43.80    4.70   1
  -6  -3   5   47.40    4.30   1
  -6  -3   5   55.39    4.70   1
   6   3   5   52.29    3.60   1
  -6  -3   5   48.30    4.50   1
  -7   3   5 1517.35   46.60   1
   7  -3   5 1573.34   46.30   1
  -7   3   5 1638.54   46.50   1
   7  -3   5 1488.15   47.30   1
   7   3   5 1495.15   47.10   1
  -7  -3   5 1465.15   46.10   1
   7   3   5 1488.25   44.80   1
  -7  -3   5 1487.45   46.30   1
  -7  -3   5 1526.45   46.40   1
  -7  -3   5 1446.66   46.60   1
  -8   3   5   25.70    4.50   1
   8  -3   5   25.10    4.90   1
  -8   3   5   27.60    4.20   1
   8  -3   5   23.30    4.00   1
  -8  -3   5   24.30    4.10   1
  -8  -3   5   31.10    4.70   1
  -8  -3   5   31.40    4.50   1
   8   3   5   30.70    3.10   1
   8   3   5   33.30    4.80   1
  -8  -3   5   25.90    4.10   1
  -9   3   5   81.39    6.70   1
  -9   3   5   77.09    6.80   1
   9  -3   5   90.49    7.60   1
   9  -3   5   84.79    6.70   1
   9   3   5   91.89    7.10   1
  -9  -3   5   81.79    8.90   1
  -9  -3   5   79.89    6.50   1
   9   3   5   80.99    5.20   1
  -9  -3   5   85.49    6.80   1
  -9  -3   5   80.99    7.00   1
  10  -3   5    2.60    4.50   1
 -10   3   5    3.40    4.00   1
 -10   3   5    7.20    4.20   1
  10  -3   5    1.70    3.70   1
  10   3   5    5.60    2.80   1
 -10  -3   5   -3.30    3.70   1
  10   3   5   -0.10    4.00   1
 -10  -3   5    5.00    3.80   1
 -10  -3   5   -1.70    4.30   1
  11  -3   5  771.12   26.80   1
 -11   3   5  768.52   26.80   1
 -11   3   5  796.52   27.50   1
  11  -3   5  797.12   28.10   1
  11   3   5  769.22   25.30   1
 -11  -3   5  754.32   26.90   1
  11   3   5  760.72   26.90   1
 -11  -3   5  792.72   27.30   1
 -11  -3   5  822.32   27.80   1
 -12   3   5    0.40    4.20   1
  12  -3   5    4.30    4.40   1
 -12   3   5    3.50    4.80   1
  12  -3   5    6.20    5.50   1
 -12   3   5    3.60    4.90   1
 -12  -3   5   -1.70    4.30   1
 -12  -3   5    1.60    4.40   1
  12   3   5    7.40    3.60   1
 -12  -3   5    3.00    4.50   1
 -13   3   5  579.94   20.80   1
 -13   3   5  540.35   22.70   1
  13  -3   5  607.34   21.70   1
  13  -3   5  532.35   22.00   1
 -13  -3   5  580.24   22.30   1
 -13  -3   5  581.64   22.00   1
  13   3   5  569.34   20.10   1
 -13  -3   5  559.34   21.40   1
 -14   3   5    8.30    6.20   1
  14  -3   5    0.90    4.70   1
 -14  -3   5    6.10    5.90   1
  14   3   5   -2.90    3.90   1
 -14  -3   5   -1.30    5.00   1
 -14  -3   5   -0.30    5.00   1
  15  -3   5   22.00    5.80   1
 -15   3   5   20.00    6.90   1
  15   3   5   23.80    5.00   1
 -15  -3   5   21.30    6.70   1
   0  -4   5   23.00    2.90   1
   0   4   5   21.80    3.30   1
   0  -4   5   18.70    3.60   1
   0  -4   5   19.30    2.80   1
   0  -4   5   16.00    2.50   1
   0   4  -5   20.90    3.60   1
   0  -4   5   22.40    2.50   1
   0   4   5   19.20    2.40   1
   0  -4   5   21.20    2.70   1
   0   4   5   26.60    2.90   1
   1  -4   5  149.88    5.80   1
   1  -4   5  150.38    6.50   1
  -1   4   5  146.19    6.10   1
   1  -4   5  139.99    6.20   1
  -1   4   5  139.79    6.50   1
   1   4  -5  143.49    7.60   1
   1  -4   5  142.39    6.80   1
  -1  -4   5  155.08    8.80   1
  -1   4  -5  147.49    7.50   1
   1   4   5  143.29    6.40   1
  -1  -4   5  139.19    6.20   1
  -1  -4   5  135.29    6.40   1
  -1  -4   5  139.19    6.10   1
  -1  -4   5  150.78    6.30   1
  -1  -4   5  141.59    6.30   1
   1   4   5  140.49    5.80   1
   1   4   5  141.69    6.40   1
   2  -4   5  915.21   27.00   1
  -2   4   5  878.71   27.60   1
  -2   4   5  882.01   28.10   1
   2  -4   5  865.31   27.20   1
   2   4  -5  910.01   29.40   1
   2  -4   5  850.31   28.30   1
   2  -4   5  887.61   27.80   1
  -2  -4   5  934.31   27.90   1
   2   4   5  896.91   27.10   1
   2   4   5  893.51   27.70   1
  -2   4  -5  907.21   29.10   1
  -2  -4   5  932.71   28.20   1
  -2  -4   5  932.51   27.80   1
   2   4   5  902.81   27.60   1
  -2  -4   5  909.71   27.60   1
  -2  -4   5  903.61   27.40   1
   3   4  -5   97.99    6.60   1
   3  -4   5   93.79    5.90   1
  -3   4   5   99.89    5.20   1
  -3   4   5   93.89    5.60   1
   3  -4   5   98.89    5.30   1
  -3  -4   5  111.39    5.80   1
  -3  -4   5   87.89    4.60   1
   3   4   5   92.79    4.50   1
  -3  -4   5  103.79    5.40   1
   3   4   5   93.99    4.90   1
  -3  -4   5   99.39    4.50   1
  -3  -4   5   98.19    5.30   1
   3   4   5  103.89    4.80   1
   4  -4   5  845.72   27.20   1
   4   4  -5  858.01   28.00   1
  -4   4   5  839.72   26.20   1
  -4   4   5  801.52   26.60   1
   4  -4   5  816.02   26.30   1
  -4  -4   5  806.92   26.70   1
  -4  -4   5  885.71   26.00   1
   4   4   5  831.52   25.70   1
   4   4   5  810.82   25.20   1
   4   4   5  831.52   25.50   1
  -4  -4   5  852.31   26.40   1
  -4  -4   5  849.81   26.40   1
  -5   4   5  167.68    7.50   1
   5  -4   5  166.78    7.70   1
   5   4  -5  167.08    9.10   1
  -5   4   5  159.88    7.90   1
   5  -4   5  175.48    8.70   1
  -5  -4   5  170.98    7.90   1
  -5  -4   5  165.38    7.40   1
   5   4   5  157.28    6.30   1
  -5  -4   5  161.38    7.40   1
  -5  -4   5  165.28    8.10   1
  -6   4   5   15.30    3.50   1
  -6   4   5   13.30    3.00   1
  -6   4   5   16.10    3.00   1
   6  -4   5   16.50    3.20   1
   6  -4   5   21.40    4.10   1
  -6  -4   5   23.70    3.50   1
  -6  -4   5   15.70    3.40   1
   6   4   5   12.80    2.10   1
  -6  -4   5   15.50    3.60   1
  -6  -4   5   25.70    3.60   1
   7  -4   5   20.90    4.50   1
  -7   4   5   23.50    4.10   1
   7  -4   5   29.00    4.10   1
  -7   4   5   24.30    3.80   1
  -7  -4   5   21.30    3.90   1
  -7  -4   5   21.20    3.80   1
   7   4   5   22.10    2.50   1
  -7  -4   5   24.20    4.10   1
   7   4   5   17.80    4.30   1
  -7  -4   5   22.90    4.20   1
  -8   4   5  476.65   17.40   1
  -8   4   5  483.75   17.30   1
   8  -4   5  483.55   17.20   1
   8  -4   5  496.85   18.40   1
  -8  -4   5  450.95   17.50   1
  -8  -4   5  459.05   17.10   1
  -8  -4   5  454.35   16.90   1
   8   4   5  457.65   15.20   1
   8   4   5  477.15   17.60   1
  -8  -4   5  449.76   17.30   1
  -9   4   5   91.89    7.10   1
   9  -4   5   98.39    7.40   1
   9  -4   5   92.79    8.00   1
  -9   4   5   96.29    7.10   1
   9   4   5   96.29    7.10   1
  -9  -4   5   86.69    6.70   1
   9   4   5   91.89    5.30   1
  -9  -4   5   91.09    7.30   1
  -9  -4   5   83.39    7.00   1
  -9  -4   5   91.39    7.40   1
  10  -4   5  394.26   15.60   1
 -10   4   5  403.76   15.90   1
 -10   4   5  385.86   15.50   1
  10  -4   5  401.76   16.70   1
  10   4   5  359.36   15.30   1
 -10  -4   5  391.86   15.50   1
 -10  -4   5  367.56   15.80   1
 -10  -4   5  380.06   15.50   1
  10   4   5  368.76   13.50   1
 -11   4   5   44.70    6.30   1
  11  -4   5   48.40    6.90   1
 -11   4   5   55.89    6.40   1
  11  -4   5   43.80    6.00   1
 -11  -4   5   56.89    6.50   1
 -11  -4   5   41.60    5.90   1
  11   4   5   50.89    6.20   1
  11   4   5   49.80    4.60   1
 -11  -4   5   63.59    6.90   1
 -12   4   5   14.50    4.50   1
 -12   4   5   11.70    5.60   1
  12  -4   5   14.60    5.20   1
 -12   4   5    7.10    4.60   1
  12  -4   5   12.20    5.30   1
 -12  -4   5   13.90    5.10   1
  12   4   5   16.00    3.70   1
 -12  -4   5   19.00    5.30   1
 -12  -4   5   12.80    5.30   1
 -13   4   5   -0.10    3.90   1
 -13   4   5    5.40    4.80   1
 -13   4   5    2.00    5.60   1
  13  -4   5    4.10    6.50   1
  13  -4   5    5.50    4.80   1
 -13  -4   5    5.10    5.30   1
  13   4   5    6.10    3.70   1
 -13  -4   5    8.70    5.50   1
 -13  -4   5    0.90    5.30   1
 -14   4   5  161.08   12.70   1
  14  -4   5  190.18   11.30   1
  14   4   5  172.48    9.60   1
 -14  -4   5  173.28   10.80   1
 -14  -4   5  183.38   11.80   1
   0  -5   5    7.70    2.20   1
   0  -5   5    2.60    1.90   1
   0  -5   5    5.40    2.30   1
   0   5  -5    4.50    2.80   1
   0  -5   5    0.80    2.00   1
   0   5   5    1.70    2.00   1
   0  -5   5    5.10    2.20   1
   0   5   5    1.80    1.70   1
   1  -5   5  247.18    9.20   1
   1   5  -5  237.68   10.60   1
   1  -5   5  232.98    8.90   1
   1  -5   5  243.38    9.50   1
   1  -5   5  242.18    8.60   1
  -1   5   5  253.47    9.60   1
  -1   5   5  225.78    8.80   1
   1   5   5  233.28    8.50   1
  -1  -5   5  250.67    9.10   1
   1   5   5  244.08    9.20   1
  -1  -5   5  237.68    9.00   1
  -1  -5   5  233.68    8.90   1
   1   5   5  227.88    9.20   1
  -1  -5   5  251.97    9.60   1
  -1   5  -5  240.18   10.50   1
  -1  -5   5  239.98    9.30   1
   2  -5   5   19.60    2.20   1
   2  -5   5   22.90    3.40   1
   2   5  -5   20.20    3.80   1
  -2   5   5   21.50    2.70   1
   2  -5   5   25.40    2.60   1
  -2   5   5   25.30    3.40   1
   2  -5   5   18.90    2.80   1
  -2   5  -5   25.90    3.90   1
  -2  -5   5   24.10    3.30   1
   2   5   5   22.90    2.70   1
  -2  -5   5   22.40    3.00   1
   2   5   5   20.20    2.70   1
  -2  -5   5   22.80    2.60   1
  -2  -5   5   27.70    3.10   1
   2   5   5   18.90    2.20   1
  -3   5   5  418.76   14.20   1
   3  -5   5  416.96   14.40   1
  -3   5   5  405.76   14.60   1
   3   5  -5  415.66   15.80   1
   3  -5   5  374.46   14.80   1
   3   5   5  418.26   14.00   1
  -3  -5   5  428.56   14.40   1
  -3  -5   5  414.96   14.70   1
   3   5   5  400.56   13.50   1
  -3  -5   5  429.06   14.50   1
  -3  -5   5  433.26   13.40   1
  -3  -5   5  407.66   13.50   1
   3   5   5  407.76   13.10   1
   4  -5   5   10.50    3.20   1
  -4   5   5    6.20    2.30   1
  -4   5   5    8.80    2.50   1
   4  -5   5    8.60    2.80   1
   4   5  -5    5.50    3.20   1
   4   5   5    3.20    1.40   1
  -4  -5   5    4.70    2.40   1
   4   5   5    7.10    1.90   1
  -4  -5   5    4.90    2.20   1
   4   5   5    7.50    2.10   1
  -4  -5   5    9.70    2.80   1
  -4  -5   5    4.00    2.70   1
   5   5  -5  187.08    9.70   1
  -5   5   5  180.18    8.10   1
   5  -5   5  168.98    8.90   1
  -5   5   5  182.08    8.60   1
   5  -5   5  180.38    8.30   1
  -5  -5   5  214.38    9.10   1
  -5  -5   5  187.78    8.50   1
  -5  -5   5  181.78    8.40   1
   5   5   5  183.98    7.90   1
  -5  -5   5  191.28    8.00   1
   5   5   5  182.48    6.70   1
  -6   5   5    4.60    3.10   1
   6   5  -5    6.50    3.50   1
   6  -5   5    5.20    3.40   1
   6  -5   5    5.60    3.00   1
  -6   5   5    2.20    2.60   1
   6   5   5    4.40    1.60   1
  -6  -5   5    7.30    3.10   1
  -6  -5   5    4.10    2.50   1
  -6  -5   5    6.70    3.30   1
  -6  -5   5    5.70    3.20   1
   7  -5   5  131.59    8.30   1
   7  -5   5  131.19    7.60   1
  -7   5   5  126.39    7.50   1
  -7   5   5  108.09    6.80   1
   7   5   5  130.99    8.10   1
  -7  -5   5  115.89    7.60   1
  -7  -5   5  118.09    7.20   1
  -7  -5   5  122.39    7.80   1
   7   5   5  117.29    5.10   1
  -7  -5   5  114.19    7.10   1
  -8   5   5    5.20    3.80   1
   8  -5   5   11.60    3.80   1
   8  -5   5   10.30    4.50   1
  -8   5   5   13.50    4.00   1
  -8  -5   5   13.30    3.80   1
   8   5   5   10.90    3.90   1
  -8  -5   5   13.50    3.70   1
  -8  -5   5   18.00    4.50   1
   8   5   5   12.80    2.20   1
  -8  -5   5    9.00    3.80   1
   9  -5   5  181.18   10.00   1
   9  -5   5  186.88   11.00   1
  -9   5   5  193.28   10.00   1
  -9   5   5  192.08    9.90   1
  -9  -5   5  185.98   10.30   1
   9   5   5  214.08   10.40   1
   9   5   5  194.28    7.70   1
  -9  -5   5  192.18   10.30   1
  -9  -5   5  183.48    9.80   1
  -9  -5   5  189.78    9.70   1
  10  -5   5    5.20    4.70   1
 -10   5   5    5.10    4.30   1
 -10   5   5    3.30    3.90   1
  10  -5   5   -4.60    3.70   1
  10   5   5    1.10    2.30   1
 -10  -5   5    1.40    3.80   1
  10   5   5    0.70    4.00   1
 -10  -5   5    2.00    3.90   1
 -10  -5   5    1.80    4.10   1
 -10  -5   5    2.90    4.30   1
 -11   5   5   55.49    6.80   1
  11  -5   5   66.79    7.00   1
  11  -5   5   71.69    8.00   1
 -11   5   5   67.49    6.70   1
 -11  -5   5   59.29    6.90   1
 -11  -5   5   76.29    7.70   1
  11   5   5   59.89    5.20   1
 -11  -5   5   71.59    7.10   1
  12  -5   5    3.30    4.50   1
  12  -5   5    1.40    5.20   1
 -12   5   5   10.80    5.50   1
 -12   5   5    7.10    4.80   1
 -12  -5   5    2.00    4.70   1
  12   5   5    5.80    3.20   1
 -12  -5   5    8.00    5.40   1
 -12  -5   5   11.80    5.00   1
 -13   5   5   52.89    6.80   1
 -13   5   5   48.60    5.80   1
 -13   5   5   46.80    7.90   1
  13  -5   5   47.40    6.70   1
  13  -5   5   52.19    8.20   1
 -13  -5   5   38.10    7.40   1
 -13  -5   5   45.00    6.90   1
 -13  -5   5   52.49    7.10   1
  13   5   5   53.89    5.20   1
 -14   5   5   -3.70    5.90   1
  14  -5   5   -1.50    5.20   1
 -14  -5   5    9.30    6.60   1
 -14  -5   5    5.60    5.00   1
  14   5   5    4.80    3.80   1
   0  -6   5   75.79    4.40   1
   0  -6   5   69.79    4.60   1
   0   6   5   76.09    4.90   1
   0  -6   5   68.09    4.70   1
   0   6   5   71.89    4.10   1
   0   6  -5   68.59    5.80   1
   0  -6   5   76.09    4.90   1
   1  -6   5   40.20    3.60   1
  -1   6   5   31.30    3.60   1
   1   6  -5   39.60    4.70   1
  -1   6   5   38.70    3.30   1
   1  -6   5   38.90    3.50   1
   1  -6   5   46.30    3.30   1
   1  -6   5   41.10    3.90   1
  -1  -6   5   40.90    3.50   1
   1   6   5   37.40    3.70   1
  -1   6  -5   43.00    4.60   1
  -1  -6   5   34.30    3.60   1
  -1  -6   5   38.20    3.80   1
   1   6   5   33.70    2.80   1
  -1  -6   5   38.70    3.40   1
   2  -6   5 1508.95   46.80   1
   2   6  -5 1541.45   48.40   1
  -2   6   5 1515.05   46.50   1
  -2   6   5 1542.95   47.30   1
   2  -6   5 1600.14   46.90   1
   2  -6   5 1551.64   47.30   1
  -2   6  -5 1600.14   48.60   1
   2   6   5 1592.64   47.00   1
  -2  -6   5 1607.74   47.10   1
  -2  -6   5 1562.24   47.30   1
  -2  -6   5 1606.64   46.90   1
  -2  -6   5 1617.84   46.30   1
   2   6   5 1506.65   45.70   1
   2   6   5 1492.65   46.30   1
  -3   6   5  136.09    6.40   1
   3   6  -5  118.39    7.60   1
   3  -6   5  126.39    7.00   1
   3  -6   5  133.99    6.60   1
  -3   6   5  115.69    6.70   1
   3   6   5  129.29    6.40   1
  -3  -6   5  131.59    6.70   1
   3   6   5  127.99    5.10   1
  -3  -6   5  134.79    5.50   1
   3   6   5  130.59    5.50   1
  -3  -6   5  115.19    6.70   1
  -3  -6   5  130.19    5.80   1
  -3  -6   5  133.39    6.50   1
  -4   6   5 1416.36   44.80   1
   4  -6   5 1497.95   44.70   1
  -4  -6  -5 1567.44   45.40   1
   4   6  -5 1447.26   46.00   1
  -4   6   5 1442.56   44.30   1
   4  -6   5 1445.86   45.30   1
   4   6   5 1500.85   42.90   1
   4   6   5 1441.86   43.20   1
   4   6   5 1484.85   44.10   1
  -4  -6   5 1472.55   44.60   1
  -4  -6   5 1477.25   44.80   1
  -4  -6   5 1453.15   45.10   1
  -4  -6   5 1421.56   44.00   1
  -5   6   5   38.50    4.50   1
   5  -6   5   33.00    4.00   1
   5  -6   5   38.80    5.00   1
   5   6  -5   37.60    5.10   1
  -5   6   5   39.30    3.90   1
  -5  -6   5   41.20    4.70   1
   5   6   5   39.60    2.70   1
   5   6   5   37.90    2.80   1
  -5  -6   5   40.80    4.40   1
  -5  -6   5   37.50    3.90   1
  -5  -6   5   36.00    4.30   1
   6  -6   5   33.10    5.00   1
   6   6  -5   38.10    5.30   1
   6  -6   5   39.30    4.50   1
  -6   6   5   38.70    4.30   1
  -6   6   5   41.90    4.80   1
  -6  -6   5   34.60    4.50   1
  -6  -6   5   41.60    4.70   1
  -6  -6   5   35.80    4.20   1
   6   6   5   35.90    2.70   1
  -6  -6   5   34.80    4.80   1
  -7   6   5   16.10    4.00   1
   7  -6   5   16.40    3.80   1
   7  -6   5   14.30    4.50   1
  -7  -6   5   13.70    4.00   1
  -7  -6   5   14.80    3.60   1
   7   6   5   15.40    2.00   1
  -7  -6   5   13.40    3.70   1
  -7  -6   5   13.80    4.20   1
   8  -6   5  798.72   28.50   1
  -8   6   5  821.02   27.40   1
   8  -6   5  831.32   27.40   1
  -8   6   5  852.71   27.50   1
   8   6   5  798.42   27.50   1
  -8  -6   5  817.12   27.30   1
  -8  -6   5  808.02   27.70   1
  -8  -6   5  798.92   27.00   1
   8   6   5  815.22   24.70   1
  -8  -6   5  826.02   27.90   1
   9  -6   5   65.09    6.50   1
  -9   6   5   75.89    6.60   1
  -9   6   5   76.19    6.70   1
   9  -6   5   69.79    7.80   1
  -9  -6   5   69.09    6.40   1
  -9  -6   5   72.49    7.20   1
  -9  -6   5   80.59    6.90   1
   9   6   5   68.49    4.20   1
   9   6   5   70.59    6.40   1
  -9  -6   5   57.49    6.00   1
 -10   6   5  695.93   24.60   1
  10  -6   5  745.43   26.40   1
  10  -6   5  711.93   24.70   1
 -10   6   5  675.73   24.10   1
 -10  -6   5  667.13   24.30   1
 -10  -6   5  663.63   24.20   1
  10   6   5  706.13   21.80   1
 -10  -6   5  657.43   24.90   1
 -11   6   5   10.70    5.00   1
  11  -6   5   14.70    5.10   1
  11  -6   5   14.20    5.80   1
 -11   6   5    6.40    4.70   1
 -11  -6   5   12.40    4.90   1
  11   6   5   12.40    2.90   1
 -11  -6   5   10.90    4.70   1
 -11  -6   5   16.30    5.30   1
  12  -6   5    8.30    5.00   1
  12  -6   5    3.60    6.30   1
 -12   6   5    5.60    5.20   1
 -12   6   5    1.70    4.40   1
 -12  -6   5    5.20    4.80   1
 -12  -6   5    1.90    4.80   1
  12   6   5    5.30    3.10   1
 -12  -6   5    8.90    5.10   1
  13  -6   5    4.60    7.20   1
 -13   6   5    6.40    6.40   1
 -13   6   5    7.80    4.90   1
 -13  -6   5   10.30    5.50   1
 -13  -6   5   11.60    5.80   1
  13   6   5    3.90    3.40   1
  14   6   5  319.67   13.30   1
 -14  -6   5  348.47   15.10   1
 -14  -6   5  347.17   16.10   1
   0  -7   5    3.00    2.20   1
   0   7  -5    2.40    3.10   1
   0  -7   5    3.70    2.30   1
   0   7   5    1.20    2.40   1
   0  -7   5    1.90    2.30   1
   0   7   5    1.50    1.80   1
   0  -7   5    6.60    2.30   1
  -1   7   5 1582.04   47.80   1
  -1   7   5 1540.65   46.80   1
   1  -7   5 1543.65   47.50   1
   1  -7   5 1560.14   46.60   1
   1  -7   5 1630.14   47.70   1
   1   7  -5 1539.05   48.80   1
   1   7   5 1585.84   47.70   1
  -1   7  -5 1553.74   48.90   1
  -1  -7   5 1572.24   47.50   1
   1   7   5 1550.24   46.30   1
  -1  -7   5 1568.44   47.60   1
  -1  -7   5 1564.54   47.10   1
  -1  -7   5 1645.04   47.10   1
   2   7  -5  157.78    8.70   1
   2  -7   5  151.58    7.60   1
  -2   7   5  158.28    7.70   1
  -2   7   5  148.79    6.90   1
  -2   7  -5  154.08    8.60   1
   2   7   5  152.68    6.00   1
  -2  -7   5  156.58    7.70   1
  -2  -7   5  156.18    7.50   1
   2   7   5  156.08    7.40   1
  -2  -7   5  161.08    6.70   1
  -2  -7   5  167.48    7.30   1
   3  -7   5   44.70    4.20   1
  -3   7   5   41.00    4.60   1
   3   7  -5   42.60    5.20   1
   3  -7   5   46.90    4.70   1
  -3   7   5   34.30    3.60   1
  -3  -7   5   39.90    4.10   1
   3   7   5   41.10    4.10   1
  -3  -7   5   40.60    4.40   1
  -3  -7   5   31.00    3.80   1
   3   7   5   42.30    2.90   1
   3   7   5   46.90    3.20   1
  -3  -7   5   46.90    3.60   1
   4  -7   5   67.49    5.90   1
   4   7  -5   67.79    6.40   1
  -4   7   5   79.39    5.80   1
  -4  -7  -5   64.59    4.10   1
  -4   7   5   66.19    4.90   1
   4  -7   5   78.89    5.50   1
  -4  -7   5   79.99    5.60   1
  -4  -7   5   67.19    4.50   1
  -4  -7   5   71.89    5.50   1
  -4  -7   5   70.49    5.80   1
   4   7   5   68.19    4.90   1
   4   7   5   73.39    3.40   1
   4   7   5   75.59    3.70   1
  -5   7   5 1269.07   38.70   1
   5  -7   5 1283.37   38.30   1
   5   7  -5 1234.68   39.70   1
  -5   7   5 1271.07   38.10   1
   5  -7   5 1198.08   39.10   1
  -5  -7  -5 1221.18   37.10   1
   5   7   5 1200.18   36.00   1
  -5  -7   5 1237.98   37.80   1
  -5  -7   5 1201.68   38.70   1
   5   7   5 1244.48   35.90   1
  -5  -7   5 1176.18   38.20   1
   5   7   5 1217.18   37.50   1
  -5  -7   5 1215.88   38.50   1
   6  -7   5    4.00    3.80   1
   6  -7   5    0.10    2.80   1
  -6   7   5    1.90    3.20   1
   6   7  -5    2.30    3.50   1
  -6   7   5   -1.80    2.60   1
   6   7   5    2.30    1.20   1
  -6  -7   5    2.40    3.40   1
  -6  -7   5   -0.40    3.10   1
  -6  -7   5    5.10    3.40   1
  -6  -7   5    2.20    2.80   1
   6   7   5    2.90    1.10   1
   7  -7   5  952.30   30.30   1
   7  -7   5  929.61   31.40   1
  -7   7   5  941.51   30.00   1
   7   7  -5  942.91   31.50   1
  -7   7   5  917.81   30.20   1
  -7  -7   5  894.51   29.80   1
  -7  -7   5  899.51   30.60   1
  -7  -7   5  886.01   30.10   1
   7   7   5  920.71   27.30   1
  -7  -7   5  947.01   30.80   1
   8  -7   5   86.79    7.40   1
   8  -7   5   76.59    7.70   1
  -8   7   5   81.89    7.00   1
  -8  -7   5   90.49    7.10   1
  -8  -7   5   84.49    7.10   1
   8   7   5   81.89    6.70   1
   8   7   5   81.39    3.90   1
  -8  -7   5   69.79    7.00   1
  -8  -7   5   69.39    6.70   1
  -9   7   5   34.80    5.20   1
  -9   7   5   15.50    4.60   1
   9  -7   5   30.30    6.20   1
   9  -7   5   17.40    4.70   1
   9   7   5   20.40    2.40   1
  -9  -7   5   26.60    4.80   1
   9   7   5   28.60    4.70   1
  -9  -7   5   21.60    4.80   1
  -9  -7   5   25.50    5.40   1
  -9  -7   5   25.20    5.10   1
  10  -7   5   15.60    5.80   1
 -10   7   5   17.30    5.10   1
  10  -7   5   19.70    5.30   1
 -10   7   5   20.40    5.20   1
  10   7   5   15.20    2.50   1
 -10  -7   5   22.80    5.30   1
 -10  -7   5   20.90    5.20   1
 -10  -7   5   23.40    5.40   1
  10   7   5   13.40    4.40   1
  11  -7   5  516.15   21.60   1
 -11   7   5  498.55   19.60   1
 -11   7   5  551.84   20.70   1
 -11  -7   5  518.45   20.80   1
 -11  -7   5  537.95   20.50   1
 -11  -7   5  548.05   20.30   1
  11   7   5  521.65   17.20   1
 -12   7   5   -0.70    4.40   1
  12  -7   5    5.70    6.50   1
 -12   7   5    2.20    5.70   1
 -12  -7   5    2.30    4.70   1
 -12  -7   5    3.90    5.60   1
  12   7   5    5.60    3.00   1
 -13   7   5  371.86   18.00   1
 -13   7   5  359.46   16.00   1
  13  -7   5  410.16   18.40   1
 -13  -7   5  392.16   16.90   1
  13   7   5  372.06   14.00   1
 -13  -7   5  404.76   17.20   1
 -14   7   5   18.70    7.20   1
  14  -7   5   22.50    7.50   1
 -14  -7   5    9.00    6.00   1
 -14  -7   5   22.10    6.10   1
  14   7   5   22.80    4.20   1
   0  -8   5  536.35   17.10   1
   0   8  -5  488.55   18.50   1
   0  -8   5  516.55   16.70   1
   0  -8   5  461.35   17.10   1
   0   8   5  504.15   17.60   1
   0   8   5  481.95   16.20   1
   1  -8   5    2.90    2.10   1
   1  -8   5    6.10    2.70   1
  -1   8   5    5.90    2.20   1
   1  -8   5    0.30    2.40   1
  -1   8   5    4.90    2.90   1
   1   8  -5   -0.30    3.00   1
   1   8   5    2.50    1.80   1
  -1  -8   5    3.70    2.40   1
   1   8   5    4.80    2.80   1
  -1  -8   5    4.60    2.40   1
  -1  -8   5    4.90    2.60   1
  -1   8  -5    8.50    3.40   1
  -2   8   5   54.39    5.00   1
   2   8  -5   47.70    5.50   1
  -2   8   5   49.40    4.20   1
   2  -8   5   38.20    4.20   1
   2  -8   5   60.79    5.20   1
  -2  -8   5   53.29    4.50   1
   2   8   5   59.69    5.10   1
  -2  -8   5   55.89    4.80   1
  -2  -8   5   49.99    4.70   1
  -2  -8   5   50.59    3.90   1
  -2  -8   5   51.89    3.90   1
   2   8   5   54.49    3.40   1
  -3   8   5    0.90    2.40   1
   3   8  -5    5.90    3.40   1
  -3   8   5   -0.10    2.70   1
   3  -8   5    0.70    2.90   1
   3   8   5    3.40    2.60   1
  -3  -8   5   -0.20    2.50   1
   3   8   5   -0.90    1.30   1
  -3  -8   5   -1.10    2.00   1
  -3  -8   5    2.60    2.90   1
  -3  -8   5    1.40    2.60   1
  -4   8   5   50.79    5.20   1
  -4   8   5   46.00    4.40   1
   4  -8   5   45.60    5.30   1
   4   8  -5   47.70    5.60   1
  -4  -8   5   43.00    4.60   1
   4   8   5   51.29    2.90   1
   4   8   5   47.20    2.70   1
  -4  -8   5   48.20    4.80   1
   4   8   5   53.09    4.80   1
  -4  -8   5   56.59    4.60   1
  -4  -8   5   47.10    5.10   1
  -5  -8  -5    4.00    2.30   1
  -5   8   5   10.00    3.10   1
   5  -8   5   -1.40    3.50   1
   5   8  -5    2.00    3.40   1
  -5   8   5   -0.20    3.30   1
  -5  -8   5    1.70    2.80   1
   5   8   5    2.70    0.90   1
   5   8   5   -0.50    2.60   1
  -5  -8   5    1.60    3.10   1
  -5  -8   5    5.10    3.60   1
  -5  -8   5    8.80    3.40   1
   5   8   5    3.50    1.20   1
  -6   8   5  346.07   14.10   1
  -6  -8  -5  357.96   13.60   1
  -6   8   5  356.16   13.70   1
   6  -8   5  344.27   15.00   1
  -6  -8  -5  368.06   13.20   1
   6   8  -5  351.46   15.20   1
  -6  -8   5  333.57   13.40   1
   6   8   5  358.76   10.90   1
  -6  -8   5  332.27   14.30   1
  -6  -8   5  356.86   14.40   1
  -6  -8   5  369.26   14.10   1
  -7   8   5   25.70    4.20   1
  -7   8   5   23.50    4.70   1
   7   8  -5   35.20    5.20   1
  -7  -8  -5   33.50    4.20   1
   7  -8   5   30.90    5.80   1
  -7  -8   5   31.10    4.80   1
  -7  -8   5   23.30    4.70   1
   7   8   5   28.20    2.20   1
  -7  -8   5   25.80    5.00   1
  -7  -8   5   27.20    4.80   1
  -8   8   5   29.20    4.90   1
   8  -8   5   31.50    6.10   1
  -8  -8   5   20.40    4.40   1
  -8  -8   5   27.80    5.00   1
   8   8   5   25.90    4.60   1
  -8  -8   5   25.30    5.10   1
   8   8   5   23.50    2.10   1
  -8  -8   5   31.30    5.40   1
   9  -8   5   -0.10    4.90   1
  -9   8   5    8.60    4.30   1
  -9   8   5    8.30    4.10   1
   9   8   5    8.10    4.00   1
   9   8   5    8.50    1.80   1
  -9  -8   5    8.40    4.60   1
  -9  -8   5   11.80    4.70   1
  -9  -8   5    4.90    4.10   1
  -9  -8   5    9.50    4.20   1
 -10   8   5   28.60    5.50   1
  10  -8   5   29.50    6.70   1
 -10   8   5   27.20    5.50   1
  10   8   5   25.80    2.70   1
 -10  -8   5   34.00    6.00   1
 -10  -8   5   29.20    5.20   1
 -10  -8   5   32.60    5.70   1
  11  -8   5    7.80    5.90   1
 -11   8   5   -1.70    4.50   1
 -11   8   5   -0.80    4.50   1
  11   8   5    0.70    2.20   1
 -11  -8   5    3.80    4.80   1
 -11  -8   5    1.40    4.30   1
 -12   8   5  160.48   11.30   1
 -12   8   5  162.18   10.40   1
  12  -8   5  182.18   12.70   1
 -12  -8   5  187.78   11.50   1
  12   8   5  182.48    8.00   1
 -12  -8   5  183.78   11.60   1
  13  -8   5   24.40    8.00   1
 -13   8   5   24.20    6.70   1
 -13  -8   5   18.40    6.60   1
  13   8   5   19.20    3.60   1
 -13  -8   5   18.20    6.10   1
   0   9  -5  257.07   11.90   1
   0  -9   5  269.37   10.90   1
   0  -9   5  252.27   10.10   1
   0  -9   5  265.27   10.40   1
   0   9   5  249.88    9.60   1
   0   9   5  266.37   11.10   1
   1  -9   5  876.01   27.70   1
   1  -9   5  860.31   27.50   1
   1   9  -5  858.01   28.90   1
   1  -9   5  844.42   26.50   1
  -1   9   5  848.42   27.90   1
  -1   9   5  822.82   26.60   1
   1   9   5  809.02   26.00   1
   1   9   5  871.91   27.90   1
  -1  -9   5  878.51   27.20   1
  -1  -9   5  832.22   27.50   1
  -1   9  -5  850.61   29.00   1
  -1  -9   5  876.81   27.00   1
   2  -9   5   28.30    3.90   1
   2  -9   5   31.00    4.30   1
   2   9  -5   32.30    5.00   1
  -2   9   5   30.10    3.50   1
  -2   9   5   33.80    4.50   1
  -2  -9   5   30.70    3.30   1
   2   9   5   23.70    2.50   1
  -2  -9   5   27.20    3.70   1
   2   9   5   26.80    4.00   1
  -2  -9   5   27.90    3.70   1
  -2  -9   5   24.20    3.80   1
   3   9  -5    0.50    3.40   1
  -3   9   5    1.10    3.10   1
   3  -9   5    3.70    2.90   1
  -3   9   5    0.60    2.70   1
   3  -9   5    0.80    3.20   1
  -3  -9   5    3.50    3.20   1
  -3  -9   5    8.70    3.30   1
   3   9   5    1.20    2.80   1
   3   9   5    2.60    1.50   1
  -3  -9   5    3.90    2.10   1
  -4   9   5   70.89    6.20   1
   4  -9   5   71.09    6.50   1
  -4   9   5   86.29    5.90   1
   4   9  -5   74.09    6.70   1
   4   9   5   76.89    3.50   1
   4   9   5   75.69    5.70   1
  -4  -9   5   75.99    5.10   1
  -4  -9   5   78.69    6.00   1
  -4  -9   5   72.09    6.30   1
   4   9   5   82.79    3.30   1
  -4  -9   5   74.99    6.30   1
  -5   9   5  704.03   22.30   1
  -5  -9  -5  673.83   21.40   1
   5   9  -5  671.63   23.60   1
   5  -9   5  610.04   23.20   1
  -5   9   5  627.94   22.70   1
  -5  -9  -5  686.33   22.30   1
  -5  -9   5  654.53   22.90   1
  -5  -9   5  657.23   22.90   1
   5   9   5  641.64   19.40   1
   5   9   5  589.44   21.80   1
  -5  -9   5  656.53   22.40   1
  -5  -9   5  694.13   22.10   1
   6  -9   5  123.99    8.90   1
  -6  -9  -5  124.29    7.50   1
   6   9  -5  121.69    8.50   1
  -6   9   5  148.29    8.00   1
  -6   9   5  122.19    8.10   1
  -6  -9  -5  136.79    6.60   1
  -6  -9   5  136.49    8.90   1
   6   9   5  130.49    4.50   1
  -6  -9   5  121.69    7.30   1
  -6  -9   5  135.09    8.40   1
  -6  -9   5  118.39    7.80   1
  -7  -9  -5  566.54   19.30   1
   7  -9   5  592.84   21.60   1
  -7   9   5  516.65   20.00   1
  -7   9   5  577.94   19.90   1
  -7  -9   5  527.55   20.40   1
  -7  -9   5  576.94   19.80   1
  -7  -9   5  519.75   19.90   1
   7   9   5  546.95   16.50   1
  -7  -9   5  555.44   20.80   1
   8  -9   5    6.40    5.50   1
  -8   9   5   14.10    4.70   1
  -8  -9   5   16.70    4.70   1
   8   9   5   17.50    1.70   1
  -8  -9   5    6.50    4.20   1
  -8  -9   5   14.90    4.80   1
  -9   9   5    0.70    3.90   1
   9  -9   5    0.30    5.10   1
   9   9   5    1.90    1.50   1
  -9  -9   5    5.10    4.80   1
   9   9   5   -0.20    3.80   1
  -9  -9   5   -0.40    3.70   1
 -10   9   5   77.39    7.60   1
  10  -9   5   66.99    8.60   1
 -10   9   5   65.39    7.00   1
 -10  -9   5   67.09    7.20   1
 -10  -9   5   69.99    7.00   1
  10   9   5   75.69    4.10   1
 -11   9   5  326.87   15.10   1
 -11   9   5  278.37   13.80   1
  11  -9   5  296.07   15.90   1
 -11  -9   5  308.37   14.20   1
  11   9   5  323.67   10.80   1
 -11  -9   5  316.57   14.40   1
 -12   9   5   19.30    6.50   1
  12  -9   5   26.00    7.50   1
 -12   9   5   29.00    5.80   1
 -12  -9   5   15.20    6.10   1
 -12  -9   5   20.50    5.90   1
  12   9   5   30.80    3.50   1
 -13  -9   5  235.78   12.80   1
  13   9   5  233.18    9.60   1
   0 -10   5  173.68    8.80   1
   0 -10   5  188.78    8.40   1
   0  10  -5  181.78   10.00   1
   0  10   5  177.58    7.70   1
   0  10   5  174.98    9.30   1
   0 -10   5  202.48    8.90   1
  -1  10   5   50.59    5.50   1
   1 -10   5   54.59    4.30   1
   1 -10   5   54.79    5.30   1
   1 -10   5   46.80    4.90   1
  -1  10   5   53.39    4.60   1
   1  10  -5   56.89    6.10   1
   1  10   5   54.59    5.40   1
  -1 -10   5   55.09    4.80   1
  -1 -10   5   48.00    5.00   1
   1  10   5   47.80    3.90   1
  -1 -10   5   56.69    4.80   1
   2 -10   5 1595.24   48.30   1
   2  10  -5 1536.35   49.30   1
   2 -10   5 1574.74   48.10   1
  -2  10   5 1584.94   48.60   1
  -2  10   5 1512.65   47.20   1
   2  10   5 1555.84   48.30   1
   2  10   5 1518.65   46.10   1
  -2 -10   5 1586.44   47.70   1
  -2 -10   5 1601.24   48.30   1
  -3  10   5  148.89    7.60   1
   3 -10   5  146.59    8.10   1
  -3  10   5  140.19    8.40   1
   3 -10   5  142.19    8.50   1
   3  10  -5  154.18    9.10   1
  -3 -10   5  145.19    7.80   1
  -3 -10   5  157.18    8.40   1
   3  10   5  148.79    5.80   1
  -3 -10   5  149.69    6.80   1
   3  10   5  145.59    8.10   1
  -4  10   5 1373.26   42.40   1
   4 -10   5 1392.36   43.00   1
  -4  10   5 1358.96   43.30   1
   4  10  -5 1368.66   44.20   1
   4 -10   5 1372.96   43.70   1
  -4 -10  -5 1376.76   42.70   1
  -4 -10   5 1378.86   42.10   1
   4  10   5 1324.67   42.80   1
  -4 -10   5 1392.46   42.90   1
   4  10   5 1376.06   39.50   1
   4  10   5 1436.86   39.50   1
  -4 -10   5 1379.76   43.30   1
   4  10   5 1330.57   40.10   1
  -5  10   5   29.90    5.10   1
  -5 -10  -5   17.40    3.20   1
   5  10  -5   17.80    4.40   1
  -5 -10  -5   15.20    4.00   1
   5 -10   5   27.30    5.20   1
  -5  10   5   26.70    4.10   1
   5  10   5   19.80    1.60   1
  -5 -10   5   19.20    4.30   1
  -5 -10   5   22.00    4.40   1
   5  10   5   13.80    3.80   1
  -5 -10   5   13.40    3.50   1
  -6  10   5  131.59    8.50   1
  -6  10   5  146.49    8.30   1
  -6 -10  -5  127.69    7.20   1
   6 -10   5  135.09    9.40   1
  -6 -10  -5  140.99    7.90   1
  -6 -10   5  141.59    8.90   1
   6  10   5  132.69    4.60   1
  -6 -10   5  135.09    8.40   1
  -6 -10   5  133.49    8.00   1
  -7 -10  -5   66.49    6.20   1
  -7 -10  -5   83.09    6.40   1
   7 -10   5   73.39    8.00   1
  -7  10   5   76.09    6.40   1
  -7  10   5   72.99    6.80   1
  -7 -10   5   74.79    6.70   1
  -7 -10   5   66.79    6.70   1
   7  10   5   72.89    2.90   1
  -7 -10   5   60.09    6.70   1
   8 -10   5  833.22   31.60   1
  -8  10   5  928.81   30.40   1
  -8 -10   5  931.31   30.10   1
  -8 -10   5  936.81   30.50   1
   8  10   5  872.21   26.30   1
  -9  10   5   42.90    6.20   1
   9 -10   5   58.99    8.00   1
  -9 -10   5   50.49    6.50   1
   9  10   5   48.00    2.80   1
  -9 -10   5   41.30    6.00   1
 -10  10   5  681.23   24.50   1
  10 -10   5  705.73   26.70   1
 -10  10   5  692.93   25.10   1
 -10 -10   5  672.23   24.50   1
 -10 -10   5  672.63   24.80   1
  10  10   5  699.83   20.90   1
 -11  10   5   12.00    6.40   1
  11 -10   5   11.10    6.80   1
 -11  10   5   15.00    5.00   1
 -11 -10   5   12.80    5.70   1
 -11 -10   5   20.00    6.20   1
  11  10   5   16.70    2.60   1
 -12  10   5   45.10    6.50   1
  12 -10   5   67.29    9.70   1
 -12  10   5   56.09    7.90   1
 -12 -10   5   72.99    7.90   1
 -12 -10   5   70.19    7.90   1
  12  10   5   63.39    4.80   1
  13 -10   5   43.60    8.60   1
 -13  10   5   52.49    8.00   1
 -13 -10   5   46.10    7.20   1
 -13 -10   5   37.10    7.10   1
  13  10   5   40.80    4.00   1
   0  11   5   59.09    4.70   1
   0 -11   5   66.29    5.20   1
   0  11  -5   52.19    6.20   1
   0 -11   5   59.79    5.10   1
   0 -11   5   59.59    5.60   1
   0  11   5   48.60    5.70   1
   1 -11   5   89.69    6.70   1
  -1  11   5   80.09    5.60   1
  -1  11   5   85.39    7.00   1
   1 -11   5   86.99    5.60   1
   1 -11   5   75.49    6.30   1
   1  11  -5   92.69    7.50   1
  -1 -11   5   76.39    6.10   1
   1  11   5   80.79    6.00   1
  -1 -11   5   89.69    5.80   1
  -1 -11   5   87.79    6.50   1
   1  11   5   86.59    5.10   1
   1  11   5   83.89    6.80   1
   2  11  -5   27.30    5.20   1
   2 -11   5   21.70    4.40   1
   2 -11   5   24.60    4.20   1
  -2  11   5   22.30    4.60   1
  -2  11   5   19.60    3.60   1
   2  11   5   22.90    2.70   1
  -2 -11   5   26.60    4.20   1
   2  11   5   29.40    4.60   1
  -2 -11   5   25.50    4.30   1
   3 -11   5  183.28    9.60   1
   3 -11   5  210.98   10.40   1
  -3  11   5  202.18   10.30   1
  -3  11   5  198.88    9.30   1
   3  11  -5  210.48   11.20   1
  -3 -11   5  197.98    9.90   1
  -3 -11   5  193.88    9.50   1
   3  11   5  198.48    7.40   1
  -3 -11   5  193.28    8.50   1
   3  11   5  194.78    9.90   1
   4 -11   5   12.00    3.70   1
   4  11  -5   21.00    4.70   1
  -4  11   5   14.30    3.70   1
  -4 -11  -5   17.20    4.20   1
  -4  11   5   11.30    4.00   1
   4 -11   5   15.00    4.50   1
  -4 -11   5   11.90    3.90   1
   4  11   5    9.40    3.70   1
  -4 -11   5   15.00    3.60   1
  -4 -11   5   11.60    3.90   1
  -5  11   5   58.59    5.70   1
  -5 -11  -5   55.69    6.10   1
  -5  11   5   53.99    6.20   1
   5 -11   5   61.59    6.90   1
   5 -11   5   52.79    5.60   1
  -5 -11   5   62.59    5.50   1
   5  11   5   67.49    6.20   1
  -5 -11   5   53.19    6.20   1
  -5 -11   5   50.89    5.90   1
   6 -11   5   51.29    6.90   1
  -6 -11  -5   47.40    5.10   1
  -6  11   5   44.20    5.90   1
  -6 -11  -5   47.80    5.50   1
  -6  11   5   53.89    5.70   1
  -6 -11   5   41.40    5.80   1
   6  11   5   50.69    5.50   1
  -6 -11   5   51.29    6.00   1
   6  11   5   46.50    2.20   1
  -6 -11   5   49.50    5.60   1
   7 -11   5   71.09    8.00   1
  -7 -11  -5   58.69    6.20   1
  -7  11   5   65.79    6.80   1
  -7 -11  -5   59.39    5.70   1
  -7  11   5   70.39    6.50   1
  -7 -11   5   61.89    6.10   1
   7  11   5   67.39    2.60   1
  -7 -11   5   65.69    7.00   1
  -8  11   5   17.40    5.20   1
  -8 -11  -5   12.80    4.10   1
   8 -11   5   17.70    6.30   1
  -8 -11   5   10.60    4.80   1
   8  11   5   15.90    1.40   1
  -8 -11   5   19.90    4.70   1
  -9  11   5  136.89    9.10   1
   9 -11   5  136.29   10.70   1
  -9 -11   5  117.69    9.10   1
  -9 -11   5  135.69    9.50   1
   9  11   5  137.29    4.80   1
  10 -11   5    2.10    6.60   1
 -10  11   5    3.70    4.40   1
  10  11   5    2.50    1.60   1
 -10 -11   5    2.50    4.60   1
 -10 -11   5    1.20    5.10   1
 -11  11   5   21.70    6.50   1
  11 -11   5   26.00    7.70   1
 -11  11   5   30.50    5.70   1
 -11 -11   5   20.70    6.40   1
  11  11   5   34.30    2.90   1
 -11 -11   5   33.10    6.70   1
 -12  11   5   30.80    7.50   1
  12 -11   5   32.70    8.90   1
 -12 -11   5   35.40    6.70   1
 -12 -11   5   29.00    6.70   1
  12  11   5   36.00    3.40   1
   0 -12   5   16.90    3.70   1
   0  12   5   16.20    4.80   1
   0 -12   5   12.60    3.90   1
   0 -12   5   21.60    4.00   1
   0  12   5   17.70    3.20   1
  -1  12   5  128.69    8.70   1
   1 -12   5  131.29    7.70   1
   1  12  -5  141.99    9.10   1
  -1  12   5  129.39    7.20   1
   1 -12   5  136.09    8.50   1
  -1 -12   5  130.69    7.70   1
   1  12   5  141.19    8.60   1
  -1 -12   5  129.79    8.10   1
   1  12   5  130.49    6.60   1
  -1 -12   5  142.09    7.50   1
  -2  12   5  394.36   14.90   1
   2 -12   5  417.26   15.90   1
   2 -12   5  416.66   16.00   1
  -2  12   5  404.56   16.40   1
   2  12  -5  406.76   16.80   1
  -2 -12   5  377.26   15.70   1
   2  12   5  422.26   16.20   1
   2  12   5  385.26   13.60   1
  -2 -12   5  413.56   15.60   1
  -3  12   5   32.50    5.40   1
  -3  12   5   39.40    4.80   1
   3 -12   5   47.70    5.70   1
   3 -12   5   41.50    5.20   1
  -3 -12   5   43.00    5.20   1
   3  12   5   45.30    5.60   1
  -3 -12   5   40.20    5.50   1
  -3 -12   5   49.60    4.80   1
   4 -12   5  351.46   14.90   1
  -4 -12  -5  345.87   14.20   1
  -4  12   5  354.86   13.90   1
   4 -12   5  319.77   13.90   1
  -4  12   5  340.07   14.60   1
  -4 -12   5  347.67   14.10   1
  -4 -12   5  334.07   13.40   1
  -4 -12   5  319.37   14.40   1
   4  12   5  356.16   14.40   1
  -5 -12  -5   98.79    7.80   1
   5 -12   5   91.59    7.20   1
   5 -12   5   92.69    8.10   1
  -5  12   5  107.69    7.40   1
  -5  12   5   84.19    7.60   1
  -5 -12   5   91.39    6.60   1
  -5 -12   5   93.19    8.00   1
  -5 -12   5   83.49    7.30   1
   5  12   5   94.09    7.00   1
  -6  12   5   15.20    4.80   1
   6 -12   5   10.40    5.10   1
  -6 -12  -5   11.50    3.90   1
  -6  12   5   19.30    4.40   1
  -6 -12  -5    8.00    4.30   1
   6 -12   5    4.10    3.80   1
  -6 -12   5   15.10    4.20   1
   6  12   5    8.70    3.80   1
  -6 -12   5   12.60    4.60   1
  -7 -12  -5  112.79    8.30   1
  -7 -12  -5  115.29    7.30   1
  -7  12   5  113.09    8.50   1
   7 -12   5  112.39    9.60   1
  -7  12   5  123.89    8.80   1
  -7 -12   5  109.49    8.60   1
  -7 -12   5  125.29    8.10   1
   7  12   5  117.19    3.90   1
  -8  12   5  243.68   12.60   1
  -8 -12  -5  244.08   11.50   1
   8 -12   5  248.88   13.80   1
  -8 -12   5  249.68   11.80   1
  -8 -12   5  226.88   12.10   1
   8  12   5  240.48    7.40   1
  -9  12   5    3.40    4.50   1
   9 -12   5   11.80    6.30   1
  -9 -12   5   11.20    5.00   1
   9  12   5   15.10    1.30   1
  -9 -12   5   17.00    5.60   1
 -10  12   5  168.88   10.40   1
  10 -12   5  157.88   13.40   1
  10  12   5  187.08    6.20   1
 -10 -12   5  185.48   10.80   1
 -10 -12   5  170.28   11.70   1
 -11  12   5   64.49    6.90   1
 -11  12   5   54.09    8.40   1
  11 -12   5   52.49    9.20   1
 -11 -12   5   43.50    7.00   1
  11  12   5   64.49    3.80   1
 -11 -12   5   50.39    7.60   1
  12 -12   5    4.20    8.00   1
 -12  12   5   16.40    6.80   1
 -12 -12   5   10.10    5.70   1
 -12 -12   5    8.80    6.00   1
   0  13   5   16.10    4.70   1
   0  13   5   18.30    3.40   1
   0 -13   5   25.10    4.50   1
   0 -13   5   22.30    4.10   1
   0 -13   5   17.70    4.60   1
   1 -13   5 1138.49   35.00   1
   1 -13   5 1081.99   35.30   1
  -1  13   5 1033.30   35.60   1
  -1  13   5 1068.19   33.80   1
   1  13   5 1038.10   33.10   1
  -1 -13   5 1086.29   34.40   1
  -1 -13   5 1098.09   35.40   1
   1  13   5 1069.29   35.60   1
   2 -13   5   15.70    4.40   1
  -2  13   5   16.50    4.90   1
  -2  13   5   20.20    4.00   1
   2 -13   5   12.10    4.20   1
   2  13   5   17.00    2.90   1
  -2 -13   5   19.00    4.30   1
   2  13   5   18.20    4.60   1
  -2 -13   5   19.20    4.50   1
  -3  13   5  125.59    7.90   1
   3 -13   5  121.49    8.40   1
  -3  13   5  121.49    8.70   1
   3 -13   5  107.59    8.40   1
  -3 -13   5  122.09    7.00   1
  -3 -13   5  127.19    9.10   1
  -3 -13   5  108.29    8.10   1
   3  13   5  124.99    8.50   1
  -4  13   5    6.60    4.00   1
   4 -13   5   -0.40    3.90   1
  -4 -13  -5    4.80    4.20   1
   4 -13   5    2.70    4.30   1
  -4  13   5    8.40    4.60   1
  -4 -13   5    4.20    4.80   1
   4  13   5    3.70    3.80   1
  -4 -13   5   -0.60    3.30   1
  -4 -13   5    3.60    4.10   1
  -5  13   5  866.21   29.10   1
  -5  13   5  877.71   30.10   1
  -5 -13  -5  888.91   29.50   1
   5 -13   5  870.31   30.50   1
  -5 -13   5  854.01   29.50   1
  -5 -13   5  866.81   28.80   1
  -6 -13  -5    4.90    4.60   1
   6 -13   5    1.00    5.30   1
  -6  13   5    5.90    5.10   1
  -6  13   5    5.30    4.10   1
  -6 -13   5    5.90    3.80   1
   6  13   5    5.20    3.90   1
  -6 -13   5    1.30    4.30   1
   7 -13   5  752.82   28.20   1
  -7 -13  -5  776.52   25.90   1
  -7 -13  -5  800.12   26.40   1
  -7  13   5  720.83   27.00   1
   7  13   5  748.93   22.30   1
  -7 -13   5  775.82   27.00   1
  -7 -13   5  771.92   26.40   1
  -8  13   5   20.90    5.30   1
  -8 -13  -5   10.10    4.80   1
   8 -13   5   11.50    6.60   1
  -8 -13   5   15.10    5.50   1
  -8 -13   5   17.30    4.80   1
  -9  13   5   53.59    6.90   1
   9 -13   5   54.79    8.60   1
  -9 -13   5   56.19    7.30   1
  -9 -13   5   58.69    7.50   1
 -10  13   5    0.30    4.40   1
  10 -13   5    1.70    6.90   1
 -10 -13   5    1.00    5.40   1
 -10 -13   5    1.20    5.40   1
 -11  13   5  428.06   19.50   1
 -11 -13   5  460.75   19.10   1
   0  14   5   42.50    4.50   1
   0 -14   5   49.50    5.60   1
   0 -14   5   45.80    4.90   1
   0  14   5   48.20    6.40   1
   0 -14   5   46.30    5.80   1
   1 -14   5   58.29    6.10   1
  -1  14   5   40.60    4.80   1
  -1  14   5   52.79    6.70   1
   1 -14   5   44.90    6.00   1
   1  14   5   44.60    6.20   1
   1  14   5   51.79    4.50   1
  -1 -14   5   49.20    5.30   1
  -1 -14   5   36.70    5.70   1
   2 -14   5  215.98   11.30   1
  -2  14   5  216.58   11.70   1
   2 -14   5  210.28   11.10   1
  -2  14   5  201.18   10.10   1
   2  14   5  198.88    8.60   1
  -2 -14   5  195.08   10.20   1
   2  14   5  217.78   11.70   1
  -3  14   5   29.70    6.00   1
  -3  14   5   25.20    4.70   1
   3 -14   5   14.00    5.00   1
   3  14   5   18.40    4.90   1
  -3 -14   5   22.20    4.70   1
   4 -14   5  182.28   10.90   1
  -4  14   5  196.38   10.30   1
  -4  14   5  167.48   10.70   1
  -4 -14   5  187.98    9.60   1
  -4 -14   5  195.28   10.40   1
   4  14   5  187.68   10.40   1
   5 -14   5   79.69    8.30   1
  -5  14   5   65.89    7.40   1
  -5 -14  -5   85.69    7.90   1
  -5  14   5   76.89    7.10   1
   5  14   5   79.09    7.50   1
  -5 -14   5   59.79    6.80   1
  -5 -14   5   79.29    6.90   1
  -6  14   5   39.10    5.90   1
  -6  14   5   43.10    6.70   1
  -6 -14  -5   42.40    6.00   1
   6 -14   5   38.80    6.90   1
  -6 -14   5   46.40    6.70   1
  -6 -14   5   41.10    5.90   1
   6  14   5   47.60    6.00   1
  -7  14   5   10.10    5.40   1
  -7  14   5    8.30    5.10   1
  -7 -14  -5    0.90    4.70   1
   7 -14   5    3.30    5.70   1
  -7 -14   5   14.80    4.70   1
   7  14   5    7.50    1.30   1
  -7 -14   5   11.10    5.20   1
  -8  14   5  134.29    9.90   1
  -8 -14  -5  117.69    8.20   1
   8 -14   5  117.99   10.80   1
  -8 -14   5   99.59    8.50   1
  -8 -14   5  114.29    9.50   1
   9 -14   5   35.80    8.00   1
  -9  14   5   39.70    6.20   1
  -9 -14   5   37.80    7.00   1
  -9 -14   5   35.70    7.30   1
 -10  14   5   89.99    8.60   1
  10 -14   5  109.29   11.20   1
 -10 -14   5   96.59    9.50   1
 -10 -14   5  121.59    9.80   1
   0 -15   5   -0.50    4.00   1
   0  15   5   -0.40    3.00   1
   0  15   5    5.20    5.20   1
  -1  15   5  113.89    9.40   1
   1 -15   5  122.29    8.80   1
  -1  15   5  122.19    7.80   1
   1  15   5  113.99    9.70   1
   1  15   5  127.89    7.10   1
  -2  15   5    7.10    5.50   1
  -2  15   5   10.20    3.90   1
   2 -15   5   18.10    5.40   1
  -2 -15   5   10.90    4.30   1
   2  15   5    7.80    2.90   1
   2  15   5    2.70    4.40   1
  -3  15   5   70.89    6.50   1
  -3  15   5   86.79    8.60   1
   3 -15   5   76.49    7.70   1
  -3 -15   5   83.69    7.20   1
   3  15   5   73.19    7.70   1
  -4  15   5    2.50    4.10   1
   4 -15   5   -1.20    4.70   1
  -4  15   5    7.20    5.00   1
   4  15   5    4.20    4.70   1
  -4 -15   5    3.30    4.30   1
   5 -15   5  114.59    9.60   1
  -5  15   5  110.69    9.20   1
  -5  15   5  110.69    8.70   1
  -5 -15  -5   90.59    8.10   1
   5  15   5   99.49    8.20   1
  -5 -15   5   97.79    8.00   1
  -5 -15   5  116.89    8.70   1
  -6 -15  -5    0.60    4.90   1
   6 -15   5    4.60    5.70   1
  -6  15   5   -0.70    4.90   1
  -6  15   5    7.20    4.60   1
  -6 -15   5   -2.60    4.50   1
   6  15   5    3.40    4.10   1
  -6 -15   5    4.30    5.00   1
  -7  15   5   85.69    8.50   1
   7 -15   5  105.29   10.50   1
  -7 -15  -5   92.89    8.20   1
  -7 -15   5  106.59    8.40   1
   7  15   5   88.79    3.90   1
  -7 -15   5   74.79    8.30   1
   8 -15   5    3.60    6.40   1
  -8  15   5   14.50    5.50   1
  -8 -15  -5    3.20    4.70   1
  -8 -15   5    9.80    5.30   1
  -8 -15   5    3.20    5.60   1
  -9  15   5   46.70    7.20   1
   9 -15   5   58.49    9.50   1
  -9 -15   5   57.59    7.60   1
  -9 -15   5   40.70    7.10   1
 -10  15   5    6.10    5.30   1
  10 -15   5   10.30    7.50   1
 -10 -15   5   10.60    5.90   1
 -10 -15   5    0.80    5.70   1
   0  16   5   64.09    5.70   1
   0  16   5   88.69    8.70   1
  -1  16   5   -8.20    4.50   1
   1 -16   5    0.30    4.00   1
  -1  16   5    3.70    3.60   1
   1  16   5   -3.40    2.80   1
  -1 -16   5    2.40    4.00   1
   1  16   5   -4.30    4.70   1
  -2  16   5  727.23   24.50   1
   2 -16   5  724.33   25.70   1
  -2  16   5  691.43   26.30   1
   2  16   5  673.13   22.90   1
   2  16   5  721.73   26.20   1
  -3  16   5   41.30    6.90   1
  -3  16   5   57.59    6.30   1
   3 -16   5   43.60    6.60   1
  -3 -16   5   51.29    6.20   1
   3  16   5   47.10    4.10   1
   3  16   5   45.20    6.40   1
  -4  16   5  652.83   25.80   1
  -4  16   5  721.83   25.00   1
   4 -16   5  702.23   26.00   1
  -4 -16   5  722.43   25.10   1
  -5  16   5   -2.80    5.00   1
  -5  16   5    3.00    4.70   1
   5 -16   5    0.60    5.70   1
  -5 -16   5    3.60    4.90   1
   5  16   5   -0.50    4.40   1
  -6  16   5   61.59    7.90   1
  -6  16   5   51.49    6.50   1
   6 -16   5   64.49    8.80   1
  -6 -16   5   57.99    7.50   1
   6  16   5   55.89    3.90   1
   6  16   5   71.49    7.80   1
  -7  16   5   -3.70    4.90   1
   7 -16   5    3.40    6.20   1
   7  16   5    2.80    1.70   1
  -7 -16   5    0.10    5.40   1
  -7 -16   5    9.30    5.60   1
  -8  16   5  482.85   19.80   1
   8 -16   5  468.85   21.30   1
  -8 -16   5  477.45   19.50   1
  -8 -16   5  519.95   20.10   1
   9 -16   5   16.60    7.40   1
  -9  16   5   13.90    5.90   1
  -9 -16   5   23.70    7.00   1
  -9 -16   5   17.70    6.20   1
   0  17   5    7.10    5.70   1
   0  17   5    2.50    3.70   1
  -1  17   5  332.37   13.90   1
   1 -17   5  364.26   15.20   1
  -1  17   5  322.47   16.00   1
   1  17   5  324.77   15.80   1
   1  17   5  315.27   13.10   1
  -2  17   5   18.00    4.80   1
  -2  17   5   29.80    7.30   1
   2 -17   5   35.30    6.40   1
   2  17   5   27.10    4.10   1
  -2 -17   5   27.30    5.60   1
   2  17   5   31.60    6.30   1
  -3  17   5   -2.00    4.20   1
  -3  17   5    1.20    5.60   1
   3 -17   5    6.90    5.00   1
  -3 -17   5    2.10    5.10   1
   3  17   5    7.70    3.20   1
   3  17   5    0.60    5.20   1
  -4  17   5   34.80    5.90   1
   4 -17   5   25.20    6.30   1
  -4  17   5   31.30    6.80   1
   4  17   5   24.80    6.30   1
  -4 -17   5   22.40    5.90   1
   4  17   5   30.00    3.60   1
  -5  17   5  256.37   14.90   1
   5 -17   5  289.57   15.30   1
  -5 -17   5  282.47   14.40   1
   5  17   5  294.17   14.10   1
   5  17   5  290.67   10.40   1
  -6  17   5   -3.50    5.30   1
  -6  17   5    7.20    5.00   1
   6 -17   5    9.30    6.00   1
  -6 -17   5    6.40    5.40   1
   6  17   5    1.70    2.10   1
   6  17   5    0.90    5.20   1
   7 -17   5  239.98   14.90   1
  -7  17   5  238.18   13.10   1
  -7 -17   5  251.27   13.80   1
   7  17   5  241.18    8.30   1
  -8  17   5   17.50    6.30   1
   8 -17   5    3.90    6.70   1
  -8 -17   5   20.30    6.90   1
   0  18   5   91.79   10.00   1
   0  18   5  103.29    7.90   1
  -1  18   5    5.30    4.40   1
  -1  18   5    2.70    5.90   1
   1  18   5    1.10    3.80   1
   1  18   5   -2.70    5.70   1
  -2  18   5   19.90    6.80   1
  -2  18   5   29.80    5.50   1
   2 -18   5   30.00    6.30   1
  -2 -18   5   29.10    6.10   1
   2  18   5   28.20    7.10   1
   2  18   5   23.80    4.30   1
  -3  18   5   15.50    5.10   1
  -3  18   5    0.80    6.00   1
   3 -18   5   12.70    5.40   1
   3  18   5    6.70    3.40   1
  -3 -18   5    8.30    5.80   1
   3  18   5   13.50    5.90   1
  -4  18   5   30.00    7.00   1
   4 -18   5   26.80    6.40   1
  -4  18   5   20.40    5.50   1
   4  18   5   33.60    3.90   1
   4  18   5   25.10    6.80   1
  -4 -18   5   28.40    6.60   1
   5 -18   5    5.90    5.70   1
  -5  18   5   -0.40    5.60   1
  -5  18   5   15.20    5.40   1
   5  18   5    2.50    2.60   1
  -5 -18   5    9.10    6.10   1
   5  18   5   10.80    5.60   1
  -6  18   5   83.59    9.00   1
   6 -18   5   84.39    9.40   1
   6  18   5   92.79    5.10   1
  -6 -18   5   80.99    8.70   1
   0  19   5   36.80    7.90   1
   0  19   5   22.90    5.00   1
  -1  19   5  429.46   19.70   1
   1  19   5  447.36   19.70   1
   1  19   5  454.35   16.70   1
  -2  19   5    4.40    6.30   1
  -2  19   5    2.40    4.50   1
   2  19   5    2.20    3.70   1
   2  19   5   -1.00    6.30   1
  -3  19   5   33.80    7.40   1
   3 -19   5   47.90    7.10   1
  -3  19   5   40.90    6.10   1
   3  19   5   35.00    4.50   1
  -3 -19   5   42.10    7.00   1
   3  19   5   42.40    7.70   1
  -4  19   5    9.10    5.20   1
   4 -19   5    6.90    6.10   1
  -4  19   5    3.10    5.80   1
   4  19   5    6.20    3.20   1
   4  19   5   15.00    6.30   1
  -4 -19   5   17.10    6.10   1
   0  20   5    4.80    6.60   1
   0  20   5   13.50    4.60   1
  -1  20   5   13.90    7.00   1
  -1  20   5    7.30    4.60   1
   1  20   5   14.00    4.40   1
   1  20   5    4.00    6.50   1
   0   0   6 1116.29   33.90   1
   0   0   6 1106.19   34.10   1
   1   0   6    0.90    2.60   1
   1   0   6   -1.10    2.00   1
  -1   0   6    2.30    2.20   1
   1   0   6   -0.20    1.90   1
  -1   0   6    6.50    2.30   1
  -1   0   6    6.30    2.00   1
  -2   0   6   -1.10    1.70   1
   2   0   6   -0.70    2.10   1
  -2   0   6    2.40    2.40   1
  -2   0   6    2.70    2.20   1
   2   0   6    0.30    2.90   1
   2   0   6   -0.50    1.80   1
   3   0   6    5.40    3.20   1
  -3   0   6    4.90    2.00   1
   3   0   6   -1.70    2.00   1
  -3   0   6    2.00    2.60   1
  -3   0   6    2.40    2.20   1
   4   0   6   19.70    4.10   1
  -4   0   6   29.60    3.90   1
   4   0   6   23.50    3.30   1
  -4   0   6   29.10    3.50   1
  -4   0   6   26.30    2.90   1
  -5   0   6   -0.40    1.90   1
   5   0   6    1.20    2.60   1
   5   0   6    1.60    2.40   1
  -5   0   6   -0.50    2.80   1
  -6   0   6  662.93   21.00   1
  -6   0   6  632.84   21.70   1
   6   0   6  635.74   22.70   1
   6   0   6  601.74   20.80   1
   7   0   6    5.20    4.00   1
  -7   0   6    5.40    2.90   1
  -7   0   6    4.30    3.60   1
   7   0   6    4.30    2.80   1
  -8   0   6    6.90    3.50   1
  -8   0   6   -1.40    3.50   1
   8   0   6    9.70    4.50   1
   8   0   6    7.40    3.20   1
  -9   0   6   -1.50    3.70   1
  -9   0   6    0.20    4.40   1
   9   0   6    1.20    3.20   1
   9   0   6    5.10    4.50   1
  -9   0   6   -0.90    3.70   1
 -10   0   6   32.60    5.40   1
 -10   0   6   40.00    6.40   1
  10   0   6   34.90    4.80   1
  10   0   6   37.20    6.30   1
 -10   0   6   29.20    5.50   1
  11   0   6   -3.10    5.10   1
 -11   0   6   -0.30    4.60   1
 -11   0   6   -0.30    4.40   1
 -11   0   6    1.60    4.60   1
  11   0   6    0.90    3.80   1
 -12   0   6  176.08   10.50   1
  12   0   6  182.08   12.00   1
 -12   0   6  175.78   11.50   1
  12   0   6  182.38   10.30   1
 -12   0   6  204.58   11.90   1
 -13   0   6    0.00    5.40   1
 -13   0   6    5.40    5.60   1
 -13   0   6    5.70    4.90   1
  13   0   6   -2.30    4.20   1
  14   0   6    7.70    4.70   1
 -14   0   6    5.10    5.80   1
 -14   0   6    5.50    5.30   1
 -14   0   6    5.70    5.40   1
   0  -1   6  308.87   12.00   1
   0   1   6  307.87   11.50   1
   0  -1   6  338.37   11.70   1
   0  -1   6  308.17   11.30   1
   0   1   6  311.97   11.30   1
   1  -1   6  229.78    8.50   1
   1  -1   6  217.98    8.90   1
   1  -1   6  206.18    9.40   1
  -1   1   6  223.48    8.00   1
  -1   1   6  217.58    8.80   1
  -1   1   6  221.58    8.90   1
   1   1   6  214.88    8.80   1
  -1  -1   6  217.98    8.70   1
  -1  -1   6  224.38    8.90   1
   1   1   6  207.68    8.40   1
  -1  -1   6  218.78    9.20   1
  -1  -1   6  214.98    8.30   1
  -2   1   6  344.17   12.30   1
  -2   1   6  330.27   11.20   1
   2  -1   6  316.77   12.90   1
  -2   1   6  327.07   12.10   1
   2  -1   6  320.67   12.00   1
   2  -1   6  338.27   11.40   1
   2   1   6  321.57   12.00   1
  -2  -1   6  328.97   12.20   1
  -2  -1   6  346.87   12.20   1
   2   1   6  339.57   11.50   1
  -2  -1   6  334.67   11.60   1
  -2  -1   6  341.17   12.10   1
  -3   1   6 1159.48   36.00   1
   3  -1   6 1186.58   36.80   1
  -3   1   6 1103.29   35.50   1
   3  -1   6 1163.78   35.60   1
   3   1   6 1147.49   36.90   1
  -3  -1   6 1147.49   35.90   1
  -3  -1   6 1159.58   35.00   1
   3   1   6 1205.38   35.50   1
  -3  -1   6 1178.68   35.40   1
  -3  -1   6 1136.19   35.50   1
   4  -1   6  248.58   10.30   1
  -4   1   6  254.07   10.70   1
  -4   1   6  271.07   10.40   1
   4  -1   6  253.77   11.30   1
  -4  -1   6  253.17   10.60   1
  -4  -1   6  256.77    9.60   1
   4   1   6  260.87   10.00   1
  -4  -1   6  260.17    9.80   1
   4   1   6  280.17   11.80   1
  -5   1   6  206.28    9.80   1
   5  -1   6  210.58   10.10   1
  -5   1   6  216.28    8.90   1
   5  -1   6  235.08    9.50   1
   5   1   6  228.18    9.10   1
  -5  -1   6  232.18    9.00   1
   5   1   6  237.88   10.90   1
  -5  -1   6  215.38    8.90   1
  -5  -1   6  223.08   10.00   1
  -6   1   6  211.58   10.10   1
   6  -1   6  219.78    9.50   1
   6  -1   6  224.68   11.00   1
  -6   1   6  225.88    9.40   1
  -6  -1   6  212.08   10.10   1
   6   1   6  203.98   10.70   1
   6   1   6  218.28    9.10   1
  -6  -1   6  217.78    9.10   1
  -7   1   6   59.49    5.10   1
   7  -1   6   58.79    5.10   1
  -7   1   6   58.09    5.90   1
   7  -1   6   54.49    6.40   1
  -7  -1   6   59.19    5.10   1
   7   1   6   51.49    4.60   1
  -7  -1   6   65.99    6.20   1
   7   1   6   57.99    6.40   1
   8  -1   6  189.08   10.70   1
   8  -1   6  178.78    9.10   1
  -8   1   6  187.28   10.00   1
  -8   1   6  187.98    9.50   1
   8   1   6  190.78    8.60   1
  -8  -1   6  177.78    9.50   1
   8   1   6  185.48   11.00   1
  -8  -1   6  174.48    9.90   1
  -8  -1   6  189.98    9.40   1
  -9   1   6  742.73   24.90   1
  -9   1   6  685.33   25.00   1
   9  -1   6  715.23   24.20   1
   9  -1   6  743.23   26.20   1
  -9  -1   6  713.53   24.80   1
   9   1   6  710.83   25.70   1
   9   1   6  690.63   23.60   1
  -9  -1   6  711.73   24.50   1
  -9  -1   6  716.03   25.40   1
  10  -1   6  102.99    7.60   1
 -10   1   6  115.59    8.10   1
  10  -1   6  116.99    9.20   1
 -10   1   6  110.79    8.10   1
 -10   1   6  124.09    9.40   1
 -10  -1   6  102.29    8.60   1
 -10  -1   6   99.09    8.00   1
  10   1   6  104.89    8.70   1
 -10  -1   6  100.09    7.80   1
  10   1   6  119.19    7.50   1
  11  -1   6   72.29    7.80   1
  11  -1   6   70.59    6.70   1
 -11   1   6   65.69    6.90   1
 -11   1   6   78.89    7.60   1
 -11   1   6   69.99    7.60   1
 -11  -1   6   79.59    7.50   1
 -11  -1   6   66.49    7.60   1
  11   1   6   80.19    8.00   1
 -11  -1   6   76.99    7.50   1
  11   1   6   80.09    6.80   1
 -12   1   6   96.59    9.00   1
  12  -1   6  108.29    8.50   1
 -12   1   6  104.19    9.10   1
  12  -1   6   99.59    9.60   1
 -12   1   6   89.29    7.70   1
 -12  -1   6  114.99    9.10   1
  12   1   6   92.59    8.00   1
  12   1   6   97.29    8.70   1
 -12  -1   6   95.89    9.10   1
 -12  -1   6  118.99    9.20   1
 -13   1   6   10.50    5.60   1
 -13   1   6   12.40    5.70   1
  13  -1   6   15.20    6.80   1
 -13   1   6   26.00    6.50   1
  13  -1   6   14.40    5.10   1
 -13  -1   6    9.90    5.90   1
 -13  -1   6   15.90    5.80   1
 -13  -1   6   21.00    5.80   1
  13   1   6   21.80    5.10   1
 -14   1   6   65.19    7.40   1
 -14   1   6   68.49    7.10   1
 -14   1   6   76.39    8.80   1
  14  -1   6   74.59    7.40   1
 -14  -1   6   59.59    7.30   1
 -14  -1   6   67.69    7.60   1
 -14  -1   6   72.49    9.00   1
  14   1   6   64.29    6.60   1
   0   2   6 2075.79   59.69   1
   0  -2   6 2047.30   59.69   1
   0   2   6 2017.30   59.59   1
   0  -2   6 1961.60   59.99   1
   0  -2   6 1947.31   59.39   1
  -1   2   6  122.99    5.10   1
   1  -2   6  120.59    6.20   1
  -1   2   6  128.89    6.20   1
   1  -2   6  121.29    6.60   1
  -1   2   6  120.39    6.30   1
   1  -2   6  114.79    5.60   1
   1   2   6  122.69    6.10   1
  -1  -2   6  121.69    6.30   1
  -1  -2   6  120.79    5.70   1
  -1  -2   6  118.89    6.00   1
  -1  -2   6  119.49    6.10   1
   1   2   6  116.69    5.70   1
   2  -2   6  122.19    6.90   1
  -2   2   6  113.59    6.30   1
   2  -2   6  114.89    6.30   1
   2  -2   6  122.49    5.70   1
  -2   2   6  122.29    6.20   1
  -2   2   6  122.39    5.10   1
   2   2   6  123.19    6.00   1
  -2  -2   6  116.09    5.90   1
  -2  -2   6  116.69    6.30   1
  -2  -2   6  112.19    5.90   1
  -2  -2   6  128.59    6.20   1
   2   2   6  117.99    5.70   1
   3  -2   6   56.89    5.30   1
   3  -2   6   61.99    4.90   1
  -3   2   6   62.29    4.80   1
  -3   2   6   51.39    4.70   1
  -3  -2   6   47.30    3.90   1
   3   2   6   62.09    4.70   1
   3   2   6   53.49    4.30   1
  -3  -2   6   56.59    4.80   1
  -3  -2   6   57.39    4.50   1
  -3  -2   6   56.29    4.40   1
   4  -2   6  127.89    7.90   1
  -4   2   6  131.69    7.30   1
  -4   2   6  144.29    6.30   1
   4  -2   6  153.58    7.20   1
  -4   2   6  155.78    7.20   1
  -4  -2   6  135.69    6.50   1
   4   2   6  143.59    8.40   1
  -4  -2   6  138.99    6.70   1
  -4  -2   6  143.89    7.50   1
   4   2   6  129.29    6.50   1
   5  -2   6  102.19    7.40   1
   5  -2   6   98.29    6.40   1
  -5   2   6  106.29    5.90   1
  -5   2   6  100.79    6.80   1
  -5   2   6  110.79    6.40   1
  -5  -2   6  112.59    6.20   1
  -5  -2   6  114.29    6.90   1
   5   2   6  113.29    7.70   1
   5   2   6  107.19    5.80   1
  -5  -2   6  119.59    6.10   1
   6  -2   6 1337.27   41.40   1
   6  -2   6 1310.97   39.80   1
  -6   2   6 1238.08   40.30   1
  -6   2   6 1341.37   39.60   1
   6   2   6 1309.37   41.40   1
   6   2   6 1235.98   39.00   1
  -6  -2   6 1287.57   40.00   1
  -6  -2   6 1324.87   39.70   1
  -6  -2   6 1208.98   39.30   1
  -6  -2   6 1274.67   40.50   1
   7  -2   6   46.40    6.10   1
  -7   2   6   44.80    5.50   1
  -7   2   6   51.49    4.90   1
   7  -2   6   45.90    5.00   1
  -7  -2   6   57.59    5.10   1
  -7  -2   6   41.50    5.10   1
  -7  -2   6   49.30    5.70   1
   7   2   6   42.40    4.10   1
   7   2   6   48.60    6.00   1
  -8   2   6   60.89    5.70   1
   8  -2   6   56.69    5.50   1
   8  -2   6   42.60    6.20   1
  -8   2   6   45.20    5.70   1
  -8  -2   6   54.59    5.80   1
  -8  -2   6   50.89    6.20   1
  -8  -2   6   63.59    5.80   1
   8   2   6   52.19    4.50   1
   8   2   6   47.50    6.30   1
   9  -2   6   41.10    5.20   1
  -9   2   6   47.20    6.00   1
  -9   2   6   46.10    5.70   1
   9  -2   6   41.70    6.50   1
   9   2   6   32.50    4.20   1
   9   2   6   37.40    6.00   1
  -9  -2   6   30.40    4.80   1
  -9  -2   6   38.30    5.70   1
  -9  -2   6   34.90    5.70   1
  10  -2   6   87.79    7.40   1
  10  -2   6   76.09    7.90   1
 -10   2   6   80.69    7.70   1
 -10   2   6   72.09    7.00   1
  10   2   6   73.99    7.60   1
 -10  -2   6   74.89    6.90   1
  10   2   6   82.99    6.30   1
 -10  -2   6   78.49    7.50   1
 -10  -2   6   59.29    7.10   1
 -11   2   6   39.80    6.10   1
  11  -2   6   38.00    5.70   1
 -11   2   6   35.90    6.10   1
 -11   2   6   42.20    6.30   1
  11  -2   6   37.50    6.70   1
  11   2   6   52.79    5.40   1
 -11  -2   6   38.40    6.50   1
  11   2   6   42.80    6.70   1
 -11  -2   6   34.90    6.00   1
 -11  -2   6   48.40    6.20   1
 -12   2   6  517.25   19.00   1
  12  -2   6  492.25   19.10   1
 -12   2   6  477.05   20.10   1
 -12   2   6  494.85   19.60   1
 -12  -2   6  467.15   19.70   1
 -12  -2   6  481.35   20.10   1
  12   2   6  486.75   18.20   1
  12   2   6  499.45   19.60   1
 -12  -2   6  488.35   19.50   1
 -13   2   6   25.00    5.80   1
 -13   2   6   20.20    6.90   1
 -13   2   6   17.00    5.70   1
  13  -2   6    8.20    6.10   1
  13  -2   6   11.00    5.20   1
 -13  -2   6   22.10    6.10   1
  13   2   6   14.60    4.70   1
 -13  -2   6   18.20    5.60   1
 -13  -2   6   14.70    6.70   1
 -14   2   6   17.00    7.00   1
 -14   2   6   21.60    5.90   1
 -14   2   6   34.10    5.80   1
  14  -2   6   28.60    5.90   1
  14   2   6   23.40    5.00   1
 -14  -2   6   28.10    6.30   1
 -14  -2   6   19.50    6.00   1
 -14  -2   6   24.90    7.20   1
   0  -3   6  134.79    6.60   1
   0   3   6  132.89    6.30   1
   0  -3   6  131.99    6.60   1
   0  -3   6  131.59    6.50   1
   0  -3   6  123.79    6.20   1
   0   3   6  130.49    6.30   1
  -1   3   6    2.40    1.40   1
  -1   3   6   -0.50    2.20   1
  -1   3   6    0.60    2.10   1
   1  -3   6    0.80    1.80   1
   1  -3   6    7.70    2.70   1
   1  -3   6    5.30    2.40   1
   1  -3   6    2.70    2.10   1
  -1  -3   6   -0.50    2.40   1
  -1  -3   6    1.20    2.10   1
   1   3   6    1.40    2.10   1
  -1  -3   6    1.10    2.40   1
   1   3   6    4.80    2.40   1
  -1  -3   6    0.70    2.10   1
   2  -3   6   84.79    5.70   1
   2  -3   6   80.99    5.30   1
   2  -3   6   69.79    5.60   1
   2  -3   6   69.99    4.40   1
  -2   3   6   68.99    5.10   1
  -2   3   6   71.09    5.10   1
  -2  -3   6   69.89    4.90   1
  -2  -3   6   77.89    4.90   1
   2   3   6   72.69    4.70   1
  -2  -3   6   78.49    4.80   1
   2   3   6   68.99    4.50   1
  -2  -3   6   73.49    5.10   1
   3  -3   6 1153.78   34.50   1
   3  -3   6 1074.19   35.20   1
  -3   3   6 1069.49   34.20   1
  -3   3   6 1116.19   34.70   1
   3   3   6 1130.69   33.60   1
   3   3   6 1022.90   33.60   1
  -3  -3   6 1139.69   34.80   1
  -3  -3   6 1142.09   33.70   1
  -3  -3   6 1122.69   34.10   1
   4  -3   6   96.09    6.10   1
  -4   3   6  101.29    5.30   1
   4  -3   6   98.19    6.90   1
  -4   3   6   92.29    6.30   1
  -4   3   6   98.59    5.90   1
  -4  -3   6   91.39    5.50   1
  -4  -3   6   93.99    6.30   1
   4   3   6   95.79    5.30   1
  -4  -3   6  100.89    6.00   1
  -5   3   6    1.10    2.90   1
   5  -3   6    1.80    2.80   1
  -5   3   6    2.40    2.60   1
  -5   3   6   -0.50    2.40   1
   5  -3   6   -1.50    3.20   1
  -5  -3   6    0.50    2.70   1
  -5  -3   6    3.40    3.00   1
   5   3   6   -0.20    3.40   1
  -5  -3   6    1.20    3.10   1
   5   3   6    2.10    2.30   1
   6  -3   6   79.49    6.00   1
  -6   3   6   70.49    5.20   1
  -6   3   6   65.99    6.00   1
   6  -3   6   68.29    6.40   1
  -6  -3   6   74.29    5.50   1
   6   3   6   72.19    6.90   1
   6   3   6   66.09    4.70   1
  -6  -3   6   77.79    6.00   1
  -6  -3   6   71.69    6.30   1
  -6  -3   6   75.49    6.10   1
   7  -3   6   -0.20    3.70   1
   7  -3   6   -5.30    3.00   1
  -7   3   6    1.80    3.60   1
  -7   3   6    2.80    3.20   1
  -7  -3   6    0.00    3.30   1
  -7  -3   6    5.70    3.20   1
  -7  -3   6    2.40    3.20   1
  -7  -3   6    4.40    3.70   1
   7   3   6   -0.30    2.30   1
   7   3   6    0.30    3.80   1
   8  -3   6   41.10    5.10   1
  -8   3   6   38.10    5.70   1
  -8   3   6   33.10    5.00   1
   8  -3   6   37.70    6.20   1
  -8  -3   6   28.20    4.40   1
   8   3   6   31.10    3.60   1
  -8  -3   6   38.20    5.60   1
   8   3   6   38.10    5.50   1
  -8  -3   6   32.70    5.00   1
   9  -3   6  558.44   20.30   1
  -9   3   6  577.94   20.50   1
  -9   3   6  573.84   20.90   1
   9  -3   6  550.04   21.70   1
  -9  -3   6  549.05   20.20   1
   9   3   6  555.64   18.70   1
   9   3   6  579.74   21.20   1
  -9  -3   6  561.24   20.60   1
  -9  -3   6  516.85   20.80   1
  10  -3   6   63.49    7.60   1
  10  -3   6   58.49    6.30   1
 -10   3   6   72.79    7.50   1
 -10   3   6   74.39    7.00   1
 -10  -3   6   66.19    6.80   1
  10   3   6   73.69    5.90   1
 -10  -3   6   73.59    7.20   1
 -10  -3   6   66.69    7.60   1
  10   3   6   57.09    6.70   1
 -11   3   6    1.20    4.90   1
  11  -3   6    4.40    4.40   1
 -11   3   6   -4.60    4.50   1
 -11   3   6    0.20    4.10   1
  11  -3   6   -3.20    5.40   1
 -11  -3   6    1.30    5.20   1
  11   3   6    0.90    4.90   1
  11   3   6   -2.60    3.00   1
 -11  -3   6    0.00    4.60   1
 -11  -3   6    1.50    4.70   1
 -12   3   6   19.80    5.70   1
  12  -3   6   21.90    5.50   1
 -12   3   6   23.90    6.60   1
  12  -3   6   27.50    7.10   1
 -12   3   6   16.80    6.00   1
 -12  -3   6   16.70    5.50   1
  12   3   6   21.60    4.40   1
 -12  -3   6   23.00    6.40   1
 -12  -3   6   38.30    6.50   1
  13  -3   6   -9.70    6.10   1
 -13   3   6   -0.40    4.90   1
 -13   3   6    3.50    6.30   1
 -13   3   6    3.70    4.60   1
  13  -3   6   -1.50    4.70   1
  13   3   6    1.70    4.00   1
 -13  -3   6   -0.10    5.00   1
 -13  -3   6    0.10    5.10   1
 -13  -3   6    5.00    5.70   1
  14  -3   6   18.30    5.60   1
 -14   3   6   18.80    5.90   1
 -14   3   6   30.30    7.10   1
 -14   3   6   30.90    5.70   1
 -14  -3   6   29.10    6.60   1
 -14  -3   6   25.30    6.70   1
  14   3   6   19.10    4.70   1
 -14  -3   6   19.10    6.10   1
   0   4   6 1437.36   44.40   1
   0  -4   6 1452.85   44.30   1
   0  -4   6 1458.05   43.80   1
   0   4   6 1410.66   44.00   1
   0  -4   6 1493.85   44.60   1
   0  -4   6 1541.85   44.50   1
   0  -4   6 1474.55   44.30   1
  -1   4   6  367.56   12.90   1
   1  -4   6  358.96   13.50   1
   1  -4   6  355.16   12.60   1
   1  -4   6  353.96   12.90   1
   1  -4   6  369.16   12.20   1
  -1   4   6  337.07   13.00   1
  -1  -4   6  358.86   12.80   1
  -1  -4   6  358.06   12.60   1
  -1  -4   6  358.96   12.80   1
   1   4   6  347.97   12.60   1
  -1  -4   6  353.16   12.70   1
   1   4   6  367.76   12.90   1
  -1  -4   6  359.56   13.10   1
  -2   4   6   30.60    3.80   1
   2  -4   6   34.70    3.90   1
  -2   4   6   38.50    3.80   1
   2  -4   6   35.00    4.10   1
   2   4   6   26.80    3.30   1
  -2  -4   6   30.60    3.50   1
   2   4   6   29.70    3.20   1
  -2  -4   6   35.60    3.40   1
  -2  -4   6   41.60    4.10   1
  -2  -4   6   30.10    3.60   1
   3  -4   6  397.16   15.60   1
   3  -4   6  413.86   14.90   1
  -3   4   6  421.46   15.30   1
  -3   4   6  417.16   14.80   1
  -3  -4   6  429.86   14.10   1
  -3  -4   6  445.76   14.90   1
   3   4   6  414.56   14.20   1
   3   4   6  410.46   14.20   1
  -3  -4   6  424.96   14.80   1
  -3  -4   6  428.46   15.30   1
   4  -4   6    7.80    3.60   1
  -4   4   6    6.80    2.80   1
  -4   4   6    4.70    3.10   1
   4  -4   6    5.50    2.80   1
   4   4   6    2.70    2.10   1
  -4  -4   6    1.40    2.90   1
  -4  -4   6    6.00    2.60   1
  -4  -4   6    0.90    2.70   1
   5  -4   6  256.67   10.60   1
  -5   4   6  241.58   10.80   1
  -5   4   6  244.48   10.30   1
   5  -4   6  239.98   11.40   1
  -5   4   6  253.67   10.00   1
  -5  -4   6  244.08   10.40   1
  -5  -4   6  236.98   10.30   1
   5   4   6  230.58    9.20   1
  -5  -4   6  249.68   10.80   1
  -6   4   6 1092.39   35.60   1
   6  -4   6 1172.58   35.40   1
  -6   4   6 1162.68   34.90   1
   6  -4   6 1072.69   36.20   1
  -6   4   6 1191.28   35.60   1
  -6  -4   6 1117.39   35.70   1
  -6  -4   6 1097.19   35.10   1
   6   4   6 1049.40   33.60   1
   6   4   6 1084.99   36.30   1
  -6  -4   6 1111.99   35.20   1
  -6  -4   6 1075.69   34.50   1
  -7   4   6  257.27   11.00   1
   7  -4   6  238.98   12.20   1
  -7   4   6  238.88   11.40   1
   7  -4   6  271.97   11.50   1
  -7  -4   6  267.07   11.50   1
   7   4   6  251.27    9.50   1
  -7  -4   6  233.98   10.40   1
  -7  -4   6  226.48   11.40   1
  -7  -4   6  249.68   11.30   1
   7   4   6  250.47   12.00   1
  -8   4   6   28.10    4.80   1
  -8   4   6   15.60    4.30   1
   8  -4   6   15.50    5.10   1
   8  -4   6   16.90    4.30   1
   8   4   6   20.40    4.90   1
  -8  -4   6   21.50    4.10   1
  -8  -4   6   14.80    4.50   1
  -8  -4   6   16.70    4.80   1
   8   4   6   19.60    3.00   1
  -9   4   6  181.08   10.30   1
   9  -4   6  172.58   11.10   1
   9  -4   6  181.38   10.20   1
  -9   4   6  180.18   10.30   1
  -9  -4   6  197.38    9.80   1
  -9  -4   6  177.48   10.00   1
   9   4   6  191.78   10.40   1
   9   4   6  178.88    8.10   1
  -9  -4   6  179.38   10.60   1
 -10   4   6    5.00    4.60   1
  10  -4   6   -5.20    4.80   1
  10  -4   6    1.90    4.20   1
 -10   4   6   -5.20    3.90   1
 -10  -4   6    8.20    4.60   1
 -10  -4   6    9.80    5.10   1
 -10  -4   6    1.20    4.50   1
  10   4   6   -2.20    4.20   1
  10   4   6    2.40    2.80   1
 -11   4   6  139.39    9.30   1
  11  -4   6  103.49   10.00   1
  11  -4   6  115.69    9.20   1
 -11   4   6  126.29    9.00   1
 -11  -4   6  114.99    9.40   1
  11   4   6  116.79    9.20   1
 -11  -4   6  134.29    9.30   1
  11   4   6  101.69    6.90   1
 -11  -4   6  124.69    9.20   1
 -12   4   6  568.44   22.40   1
  12  -4   6  588.24   22.10   1
 -12   4   6  566.24   21.80   1
  12   4   6  579.24   20.10   1
 -12  -4   6  581.64   22.00   1
 -12  -4   6  591.64   22.40   1
 -12  -4   6  568.44   22.70   1
 -13   4   6  123.29    8.60   1
 -13   4   6  109.29    9.80   1
  13  -4   6   86.99    8.20   1
 -13   4   6  107.39    9.40   1
  13  -4   6  121.79   11.40   1
 -13  -4   6  117.09    9.80   1
 -13  -4   6  117.79    9.70   1
 -13  -4   6  114.39    9.60   1
  13   4   6  121.99    8.20   1
 -14   4   6    3.00    5.10   1
 -14   4   6   -4.60    6.30   1
  14  -4   6    5.00    5.10   1
 -14  -4   6    0.20    5.50   1
 -14  -4   6   -1.40    5.60   1
  14   4   6   -0.10    3.80   1
 -14  -4   6    0.90    5.50   1
   0   5   6  106.99    5.80   1
   0   5   6  109.19    6.40   1
   0  -5   6  108.29    5.70   1
   0  -5   6  109.19    5.90   1
   0  -5   6  107.79    6.00   1
   0  -5   6  102.49    5.90   1
   0  -5   6  116.09    6.20   1
  -1   5   6   77.79    5.30   1
  -1   5   6  104.29    5.90   1
   1  -5   6   95.59    4.90   1
   1  -5   6   82.19    5.30   1
   1  -5   6   94.39    5.90   1
   1  -5   6   95.89    5.60   1
  -1  -5   6   84.69    5.10   1
  -1  -5   6   93.89    6.00   1
   1   5   6   79.69    5.10   1
   1   5   6   86.19    5.40   1
  -1  -5   6   90.79    5.60   1
  -1  -5   6   83.89    5.40   1
  -2   5   6   69.79    5.20   1
   2  -5   6   77.59    5.50   1
  -2   5   6   82.59    5.70   1
   2  -5   6   81.79    5.90   1
  -2  -5   6   72.59    5.10   1
  -2  -5   6   83.19    5.00   1
   2   5   6   72.19    4.90   1
  -2  -5   6   78.89    5.30   1
  -2  -5   6   88.59    5.70   1
   2   5   6   74.59    4.80   1
   3  -5   6 2316.37   71.79   1
  -3   5   6 2339.17   71.39   1
   3  -5   6 2398.26   71.09   1
  -3   5   6 2398.36   70.89   1
  -3  -5   6 2461.35   71.09   1
  -3  -5   6 2385.16   70.89   1
   3   5   6 2415.36   70.59   1
  -3  -5   6 2454.15   71.49   1
   3   5   6 2366.36   70.09   1
   4  -5   6   72.99    6.30   1
  -4   5   6   79.79    6.10   1
  -4   5   6   74.69    5.50   1
   4  -5   6   82.39    6.10   1
  -4  -5   6   72.99    6.00   1
   4   5   6   75.39    4.60   1
  -4  -5   6   79.99    5.60   1
  -4  -5   6   75.39    5.60   1
  -5   5   6   36.30    4.80   1
   5  -5   6   43.00    4.80   1
   5  -5   6   51.19    5.70   1
  -5   5   6   37.80    4.30   1
  -5  -5   6   37.70    4.60   1
  -5  -5   6   32.80    4.80   1
   5   5   6   38.20    3.40   1
  -5  -5   6   36.00    4.60   1
  -6   5   6   65.69    5.60   1
  -6   5   6   70.59    5.70   1
  -6   5   6   66.49    6.20   1
   6  -5   6   69.39    5.90   1
   6  -5   6   67.19    6.00   1
  -6  -5   6   53.89    5.60   1
   6   5   6   57.39    4.30   1
  -6  -5   6   58.19    6.00   1
  -6  -5   6   71.39    6.10   1
  -6  -5   6   62.89    5.10   1
   7  -5   6  100.29    7.50   1
  -7   5   6  107.09    6.90   1
   7  -5   6   97.89    8.30   1
  -7   5   6  103.79    7.50   1
  -7  -5   6   90.39    7.60   1
  -7  -5   6  101.99    7.40   1
   7   5   6   96.69    5.30   1
   7   5   6  108.89    7.90   1
  -7  -5   6   92.29    7.40   1
  -7  -5   6  102.29    6.50   1
  -8   5   6   44.50    5.90   1
  -8   5   6   39.40    5.10   1
   8  -5   6   35.30    5.30   1
   8  -5   6   42.80    6.50   1
  -8  -5   6   49.90    5.30   1
  -8  -5   6   41.20    5.30   1
  -8  -5   6   49.00    5.80   1
   8   5   6   49.60    6.40   1
   8   5   6   41.90    3.70   1
  -8  -5   6   38.70    6.10   1
   9  -5   6 1033.10   36.20   1
  -9   5   6 1046.00   35.10   1
   9  -5   6 1125.69   35.00   1
  -9   5   6 1060.79   34.90   1
  -9  -5   6 1034.90   34.80   1
   9   5   6 1045.90   32.40   1
  -9  -5   6 1051.99   35.40   1
  -9  -5   6 1072.39   34.50   1
   9   5   6 1043.10   35.20   1
 -10   5   6   51.49    6.40   1
  10  -5   6   35.90    7.00   1
 -10   5   6   48.30    6.70   1
  10  -5   6   38.00    5.90   1
 -10  -5   6   44.50    6.00   1
 -10  -5   6   39.30    6.50   1
  10   5   6   49.30    4.30   1
  10   5   6   58.29    6.70   1
 -10  -5   6   50.49    7.10   1
  11  -5   6   23.50    6.60   1
 -11   5   6   23.90    5.60   1
 -11   5   6   20.80    5.90   1
  11  -5   6   18.70    5.60   1
 -11  -5   6   22.00    5.70   1
  11   5   6   23.00    3.70   1
  11   5   6   24.50    5.60   1
 -11  -5   6   19.10    5.90   1
 -11  -5   6   15.80    4.70   1
 -12   5   6   19.80    6.80   1
 -12   5   6   21.00    5.10   1
  12  -5   6   17.90    5.60   1
 -12   5   6   31.90    6.00   1
  12  -5   6   22.00    7.20   1
 -12  -5   6   25.30    6.10   1
 -12  -5   6   28.40    6.40   1
  12   5   6   19.70    4.00   1
 -12  -5   6   24.30    6.00   1
  13  -5   6   34.40    7.90   1
 -13   5   6   41.30    6.90   1
 -13   5   6   38.20    7.30   1
 -13   5   6   33.90    5.80   1
 -13  -5   6   23.30    6.50   1
 -13  -5   6   25.60    6.50   1
 -13  -5   6   45.60    7.50   1
  13   5   6   40.70    5.00   1
   0   6   6 1306.37   39.60   1
   0  -6   6 1269.97   38.70   1
   0   6   6 1253.47   38.70   1
   0  -6   6 1279.67   39.20   1
   0  -6   6 1292.67   39.30   1
   0  -6   6 1261.17   39.30   1
   1  -6   6  172.08    8.20   1
   1  -6   6  173.98    7.70   1
   1  -6   6  160.98    7.10   1
   1  -6   6  181.28    8.10   1
  -1   6   6  168.38    7.60   1
  -1   6   6  164.98    8.20   1
  -1  -6   6  166.88    8.00   1
  -1  -6   6  175.48    8.10   1
   1   6   6  167.08    7.30   1
  -1  -6   6  172.08    7.70   1
   1   6   6  163.18    8.10   1
  -1  -6   6  162.28    7.50   1
   2  -6   6  101.09    6.00   1
  -2   6   6   84.69    5.60   1
   2  -6   6   87.09    6.20   1
  -2   6   6   95.99    6.30   1
  -2  -6   6   83.99    6.00   1
  -2  -6   6   79.09    5.50   1
   2   6   6   93.09    5.60   1
  -2  -6   6   97.49    5.30   1
  -2  -6   6   93.49    5.90   1
   2   6   6   91.99    5.10   1
   3  -6   6  157.98    8.60   1
  -3   6   6  154.18    8.40   1
  -3   6   6  169.08    8.00   1
   3  -6   6  171.38    8.30   1
   3   6   6  157.68    7.00   1
   3   6   6  177.78    7.90   1
  -3  -6   6  175.48    8.10   1
  -3  -6   6  165.18    8.50   1
  -3  -6   6  182.78    8.30   1
  -4   6   6   22.50    4.20   1
   4  -6   6   21.00    4.40   1
  -4   6   6   22.00    3.60   1
   4  -6   6   24.70    3.90   1
   4   6   6   21.10    3.80   1
   4   6   6   19.00    2.70   1
  -4  -6   6   18.90    3.90   1
  -4  -6   6   22.80    3.90   1
  -4  -6   6   18.50    3.70   1
  -5   6   6  128.79    7.40   1
   5  -6   6  123.09    7.60   1
   5  -6   6  109.39    8.00   1
  -5   6   6  120.09    7.70   1
   5   6   6  130.49    5.80   1
  -5  -6   6  123.89    7.80   1
  -5  -6   6  123.39    7.80   1
  -5  -6   6  125.09    7.50   1
  -6   6   6 1002.00   33.00   1
   6  -6   6  976.30   33.50   1
   6  -6   6 1040.50   32.90   1
  -6   6   6 1013.40   32.40   1
  -6  -6   6 1012.10   33.30   1
   6   6   6  972.70   30.60   1
  -6  -6   6 1051.49   32.30   1
  -6  -6   6 1020.40   32.80   1
  -6  -6   6 1008.50   32.70   1
  -7   6   6  109.19    7.60   1
   7  -6   6  120.29    7.90   1
  -7   6   6  104.49    7.80   1
   7  -6   6  101.79    8.50   1
   7   6   6  101.69    5.30   1
  -7  -6   6  112.19    6.90   1
  -7  -6   6   84.09    7.70   1
  -7  -6   6  113.29    7.80   1
   7   6   6  116.79    8.10   1
  -7  -6   6  103.59    8.00   1
  -8   6   6   52.19    5.80   1
   8  -6   6   69.79    6.70   1
  -8   6   6   50.79    6.10   1
   8  -6   6   47.90    6.90   1
   8   6   6   48.90    6.10   1
  -8  -6   6   51.19    6.00   1
  -8  -6   6   49.80    6.00   1
  -8  -6   6   61.29    6.20   1
  -8  -6   6   71.09    7.20   1
   8   6   6   52.69    4.20   1
  -9   6   6   92.99    7.50   1
  -9   6   6   82.49    7.60   1
   9  -6   6   89.49    7.80   1
   9  -6   6   62.39    8.20   1
  -9  -6   6  105.29    8.20   1
   9   6   6   83.69    7.70   1
   9   6   6   84.09    5.20   1
  -9  -6   6   84.59    8.10   1
  -9  -6   6   96.29    7.30   1
 -10   6   6    3.30    4.60   1
  10  -6   6    2.30    5.50   1
  10  -6   6    3.30    4.90   1
 -10   6   6   -1.90    4.10   1
  10   6   6    4.20    4.10   1
 -10  -6   6    3.40    4.50   1
 -10  -6   6    1.80    5.00   1
 -10  -6   6    6.50    5.00   1
  10   6   6    0.70    2.40   1
  11  -6   6   68.79    8.70   1
 -11   6   6   65.09    7.40   1
  11  -6   6   61.09    7.20   1
 -11   6   6   53.09    7.00   1
 -11  -6   6   50.39    7.50   1
  11   6   6   66.69    5.50   1
 -11  -6   6   53.59    7.00   1
 -11  -6   6   48.20    6.50   1
 -12   6   6  569.24   22.10   1
  12  -6   6  576.64   24.60   1
 -12  -6   6  638.34   22.90   1
  12   6   6  583.34   20.00   1
 -12  -6   6  601.04   23.20   1
 -12  -6   6  608.14   22.80   1
 -13   6   6   40.10    6.30   1
 -13   6   6   50.49    7.90   1
 -13   6   6   56.29    7.40   1
  13  -6   6   62.39    9.50   1
 -13  -6   6   46.00    7.30   1
  13   6   6   47.50    5.10   1
 -13  -6   6   39.20    6.80   1
 -13  -6   6   41.00    7.10   1
   0  -7   6  432.26   14.90   1
   0   7   6  431.06   14.90   1
   0  -7   6  403.26   15.30   1
   0   7   6  433.86   15.80   1
   0  -7   6  423.76   15.30   1
   0  -7   6  457.45   15.80   1
  -1   7   6    6.50    3.20   1
   1  -7   6   11.50    2.50   1
   1  -7   6    6.00    2.90   1
   1  -7   6    6.20    2.90   1
  -1   7   6    5.90    2.60   1
  -1  -7   6    8.70    2.70   1
  -1  -7   6   10.60    3.40   1
  -1  -7   6    4.20    2.80   1
   1   7   6    5.50    2.80   1
  -1  -7   6    3.90    2.60   1
   1   7   6    8.40    2.50   1
  -2   7   6  376.76   14.60   1
   2  -7   6  385.16   14.50   1
   2  -7   6  376.16   14.50   1
  -2   7   6  377.06   13.90   1
  -2  -7   6  370.56   13.90   1
  -2  -7   6  393.36   14.70   1
   2   7   6  376.26   13.10   1
   2   7   6  378.26   14.10   1
  -2  -7   6  397.76   13.50   1
  -2  -7   6  386.26   14.30   1
  -3   7   6 1124.19   34.40   1
   3  -7   6 1098.79   35.20   1
  -3   7   6 1068.99   34.90   1
  -3  -7   6 1100.79   35.00   1
  -3  -7   6 1090.69   34.40   1
  -3  -7   6 1072.99   34.60   1
   3   7   6 1097.89   34.20   1
   3   7   6 1101.99   33.10   1
   4  -7   6  358.26   14.90   1
   4  -7   6  385.96   14.20   1
  -4   7   6  376.06   14.20   1
  -4   7   6  372.16   14.70   1
   4   7   6  369.46   13.60   1
  -4  -7   6  399.46   14.40   1
  -4  -7   6  367.76   14.30   1
   4   7   6  356.86   12.50   1
  -4  -7   6  359.06   14.60   1
  -5   7   6    0.70    3.30   1
   5  -7   6   -0.80    3.30   1
  -5   7   6   -4.10    2.90   1
   5  -7   6    6.90    4.20   1
  -5  -7   6    4.90    3.50   1
  -5  -7   6   -0.90    3.10   1
  -5  -7   6   -0.20    3.60   1
   5   7   6    1.80    2.00   1
   6  -7   6  286.57   13.40   1
  -6   7   6  289.07   12.30   1
  -6   7   6  290.07   12.80   1
   6  -7   6  308.37   12.70   1
  -6  -7   6  292.97   12.80   1
  -6  -7   6  263.47   12.70   1
   6   7   6  292.77   10.20   1
  -6  -7   6  280.77   12.50   1
  -7   7   6   15.40    4.60   1
   7  -7   6   17.00    5.10   1
   7  -7   6   14.10    4.30   1
  -7  -7   6   14.50    3.80   1
   7   7   6   20.80    2.50   1
  -7  -7   6   15.30    4.60   1
  -7  -7   6    8.20    4.60   1
  -7  -7   6   15.50    4.20   1
  -8   7   6  182.98   10.70   1
   8  -7   6  235.28   11.50   1
   8  -7   6  197.78   12.00   1
  -8   7   6  208.68   11.00   1
   8   7   6  210.98    8.00   1
   8   7   6  222.68   11.10   1
  -8  -7   6  213.38   11.50   1
  -8  -7   6  209.08   10.10   1
  -8  -7   6  217.48   11.60   1
  -8  -7   6  193.18   10.70   1
  -9   7   6  490.45   19.30   1
   9  -7   6  511.65   19.80   1
  -9   7   6  497.85   19.20   1
   9  -7   6  484.55   20.70   1
   9   7   6  497.15   16.20   1
   9   7   6  489.65   19.30   1
  -9  -7   6  489.35   19.20   1
  -9  -7   6  503.85   18.90   1
  -9  -7   6  510.25   20.00   1
 -10   7   6  210.78   11.40   1
  10  -7   6  214.68   13.20   1
 -10   7   6  226.78   11.60   1
  10   7   6  208.08    8.40   1
 -10  -7   6  190.78   11.40   1
  10   7   6  209.88   10.90   1
 -10  -7   6  201.78   10.70   1
 -10  -7   6  207.08   12.50   1
 -11   7   6   -0.70    5.60   1
  11  -7   6    2.70    6.40   1
 -11   7   6    3.80    5.10   1
 -11  -7   6   -1.80    4.50   1
  11   7   6   -0.60    2.70   1
 -11  -7   6    1.40    5.60   1
 -11  -7   6   -3.90    4.90   1
  12  -7   6  122.49   11.90   1
 -12   7   6  131.69    9.30   1
 -12   7   6  108.49    9.70   1
 -12  -7   6  123.79    9.70   1
  12   7   6  119.19    7.10   1
 -12  -7   6  132.69   10.10   1
 -12  -7   6  121.59   10.00   1
 -13   7   6   11.70    6.30   1
 -13   7   6    8.60    5.30   1
  13  -7   6    7.00    7.00   1
 -13   7   6   -2.00    4.40   1
 -13  -7   6    7.20    5.60   1
 -13  -7   6    0.50    5.70   1
  13   7   6    6.00    3.40   1
   0  -8   6 1006.70   32.90   1
   0   8   6  995.90   32.00   1
   0   8   6 1036.60   33.20   1
   0  -8   6 1099.89   32.90   1
   0  -8   6 1032.00   32.10   1
  -1   8   6    0.00    2.50   1
   1  -8   6    2.50    3.00   1
   1  -8   6   -0.30    2.90   1
  -1   8   6    3.60    3.20   1
   1   8   6    1.50    2.90   1
   1   8   6    2.20    2.30   1
  -1  -8   6    1.30    2.80   1
  -1  -8   6    2.00    2.90   1
  -1  -8   6   -0.40    2.40   1
  -1  -8   6    6.90    3.20   1
   2  -8   6  111.19    7.40   1
  -2   8   6  111.19    6.80   1
  -2   8   6  107.69    7.40   1
   2  -8   6  127.99    7.50   1
  -2  -8   6  119.69    6.40   1
  -2  -8   6  131.69    7.30   1
   2   8   6  109.99    5.90   1
  -2  -8   6  113.69    7.50   1
  -2  -8   6  124.59    7.20   1
   2   8   6  129.59    7.50   1
  -3   8   6    1.60    2.90   1
   3  -8   6    0.80    3.30   1
  -3   8   6    4.70    3.60   1
  -3  -8   6    4.10    3.30   1
  -3  -8   6    2.20    3.50   1
  -3  -8   6    3.30    3.10   1
   3   8   6   -0.50    3.10   1
   3   8   6   -0.30    2.00   1
   4  -8   6   73.89    6.90   1
  -4   8   6   82.69    6.40   1
  -4   8   6   70.79    6.60   1
   4   8   6   85.89    4.60   1
  -4  -8   6   85.49    6.30   1
  -4  -8   6   65.19    6.40   1
  -4  -8   6   71.79    6.20   1
   4   8   6   80.69    5.70   1
   5  -8   6    2.90    4.20   1
  -5   8   6    7.30    3.90   1
  -5   8   6    6.20    3.40   1
   5   8   6    6.20    2.00   1
  -5  -8   6    5.80    3.60   1
  -5  -8   6    3.00    3.50   1
  -5  -8   6    0.50    4.10   1
   6  -8   6  735.33   26.70   1
  -6   8   6  782.02   25.40   1
  -6   8   6  697.83   25.70   1
  -6  -8   6  725.93   26.00   1
  -6  -8   6  738.03   25.90   1
  -6  -8   6  765.72   25.70   1
   6   8   6  774.32   22.90   1
  -7   8   6    2.10    4.10   1
   7  -8   6   -1.20    4.60   1
  -7  -8   6    4.40    3.60   1
   7   8   6    1.10    1.80   1
  -7  -8   6   -0.50    3.60   1
  -7  -8   6   -1.60    4.00   1
  -7  -8   6   -0.50    4.20   1
  -8   8   6   69.49    6.70   1
   8  -8   6   52.79    7.40   1
  -8   8   6   77.49    7.30   1
   8   8   6   67.09    7.10   1
   8   8   6   70.59    4.10   1
  -8  -8   6   70.39    7.50   1
  -8  -8   6   74.19    7.10   1
  -8  -8   6   72.19    6.60   1
  -8  -8   6   56.99    6.90   1
  -9   8   6    4.20    4.50   1
  -9   8   6   -2.40    4.10   1
   9  -8   6   -1.10    5.70   1
   9   8   6    5.00    4.50   1
  -9  -8   6    4.20    4.70   1
   9   8   6    0.50    1.90   1
  -9  -8   6    5.50    4.50   1
  -9  -8   6    2.80    5.30   1
 -10   8   6   26.30    5.50   1
 -10   8   6   14.30    5.00   1
  10  -8   6   20.00    6.90   1
 -10  -8   6   29.00    5.40   1
  10   8   6   33.10    3.20   1
  10   8   6   25.20    5.70   1
 -10  -8   6   21.70    6.10   1
 -10  -8   6   31.40    6.10   1
 -11   8   6    6.50    5.20   1
 -11   8   6    5.00    6.10   1
  11  -8   6   -8.20    6.40   1
  11   8   6    0.00    2.60   1
 -11  -8   6    2.50    4.90   1
 -11  -8   6   -0.90    5.20   1
  12   8   6  399.66   13.90   1
 -12  -8   6  385.76   17.20   1
 -12  -8   6  362.26   17.20   1
 -13   8   6    4.70    4.90   1
 -13   8   6    0.90    5.90   1
  13  -8   6    2.60    7.00   1
  13   8   6    0.60    3.10   1
 -13  -8   6   -3.30    5.80   1
 -13  -8   6    6.10    5.60   1
   0  -9   6  253.17   10.70   1
   0  -9   6  221.18    9.80   1
   0   9   6  244.78   11.00   1
   0   9   6  239.58    9.80   1
   0  -9   6  233.48   10.70   1
   1  -9   6   55.89    5.40   1
  -1   9   6   64.89    5.30   1
  -1   9   6   54.19    5.70   1
   1  -9   6   67.69    5.80   1
  -1  -9   6   59.99    5.50   1
  -1  -9   6   61.39    4.90   1
   1   9   6   60.19    5.70   1
   1   9   6   53.69    4.70   1
  -1  -9   6   59.49    5.10   1
  -2   9   6  293.07   12.80   1
   2  -9   6  297.77   12.50   1
  -2   9   6  290.37   11.90   1
   2  -9   6  311.37   12.80   1
  -2  -9   6  315.77   12.80   1
   2   9   6  308.17   12.60   1
   2   9   6  266.77   10.70   1
  -2  -9   6  310.27   12.20   1
  -3   9   6  670.43   22.40   1
  -3   9   6  634.44   23.10   1
   3  -9   6  671.23   23.30   1
   3  -9   6  670.53   22.80   1
  -3  -9   6  645.74   22.80   1
   3   9   6  669.33   22.80   1
   3   9   6  650.83   20.80   1
  -3  -9   6  647.84   22.30   1
  -4   9   6  219.38   10.50   1
  -4   9   6  210.38   11.00   1
   4  -9   6  217.98   11.30   1
  -4  -9   6  237.58   11.10   1
  -4  -9   6  248.18   11.40   1
   4   9   6  236.48    8.60   1
   4   9   6  215.18   10.40   1
  -4  -9   6  228.48   10.50   1
  -5   9   6   59.79    6.30   1
   5  -9   6   47.60    6.50   1
  -5   9   6   62.39    5.80   1
   5   9   6   55.79    3.80   1
  -5  -9   6   52.39    5.90   1
  -5  -9   6   58.99    6.00   1
  -5  -9   6   51.49    6.20   1
  -6   9   6  190.38   10.10   1
  -6   9   6  186.28   10.40   1
   6  -9   6  177.98   11.00   1
  -6  -9   6  187.48   10.50   1
  -6  -9   6  188.98   10.10   1
   6   9   6  202.28    7.30   1
  -6  -9   6  181.18   10.30   1
   7  -9   6   30.40    6.30   1
  -7   9   6   29.00    5.70   1
   7   9   6   29.70    2.70   1
  -7  -9   6   17.20    5.20   1
  -7  -9   6   36.60    5.90   1
  -7  -9   6   29.40    5.50   1
  -8   9   6  199.18   10.90   1
   8  -9   6  193.58   12.10   1
   8   9   6  191.18    7.10   1
  -8  -9   6  197.48    9.90   1
  -8  -9   6  175.68   10.90   1
   8   9   6  185.28   10.40   1
  -8  -9   6  175.98   10.50   1
   9  -9   6  384.26   18.00   1
  -9   9   6  344.27   16.20   1
  -9   9   6  405.26   16.30   1
   9   9   6  389.76   12.60   1
   9   9   6  387.56   16.20   1
  -9  -9   6  369.66   15.40   1
  -9  -9   6  375.86   16.50   1
  10  -9   6   77.89    9.70   1
 -10   9   6  100.29    8.80   1
 -10   9   6   97.09    8.90   1
  10   9   6   97.89    5.10   1
 -10  -9   6   95.69    7.90   1
 -10  -9   6   91.19    8.60   1
  11  -9   6   13.60    7.40   1
 -11   9   6   17.20    6.20   1
 -11   9   6   17.00    5.60   1
  11   9   6   24.40    3.10   1
 -11  -9   6   20.80    5.80   1
 -11  -9   6   17.70    6.10   1
 -12   9   6  102.79    9.60   1
  12  -9   6  122.29   11.30   1
 -12   9   6  112.99    9.30   1
  12   9   6  110.09    6.20   1
 -12  -9   6  108.39   10.00   1
   0  10   6  677.03   23.20   1
   0 -10   6  752.72   24.10   1
   0  10   6  726.83   24.90   1
   0 -10   6  712.33   24.50   1
   0 -10   6  709.93   23.50   1
   1 -10   6   47.40    5.30   1
   1 -10   6   46.90    5.30   1
  -1  10   6   43.00    4.50   1
  -1  10   6   52.49    5.80   1
   1  10   6   45.40    5.40   1
  -1 -10   6   62.89    5.20   1
  -1 -10   6   53.29    5.80   1
   1  10   6   48.40    4.30   1
  -1 -10   6   56.09    5.20   1
   2 -10   6   20.90    4.20   1
  -2  10   6   18.80    3.80   1
   2 -10   6   22.20    4.50   1
  -2  10   6   16.00    4.50   1
   2  10   6   22.60    3.10   1
  -2 -10   6   17.60    4.10   1
   2  10   6   17.80    4.30   1
  -2 -10   6   12.10    3.90   1
   3 -10   6   29.60    5.10   1
  -3  10   6   31.40    5.20   1
  -3  10   6   33.10    4.50   1
   3 -10   6   21.10    4.30   1
   3  10   6   21.10    4.80   1
  -3 -10   6   28.90    4.90   1
   3  10   6   24.60    3.00   1
  -3 -10   6   24.60    4.30   1
   4 -10   6   41.50    5.50   1
  -4  10   6   49.20    5.30   1
   4 -10   6   44.90    6.10   1
  -4  10   6   35.10    5.40   1
   4  10   6   35.50    4.90   1
   4  10   6   37.90    3.20   1
  -4 -10   6   46.50    5.60   1
  -4 -10   6   37.50    5.10   1
   5 -10   6   47.10    6.50   1
  -5  10   6   54.89    6.50   1
  -5  10   6   52.89    5.70   1
   5  10   6   51.89    3.70   1
  -5 -10   6   44.40    5.60   1
  -5 -10   6   40.30    5.60   1
  -6  10   6  459.55   18.50   1
   6 -10   6  456.85   19.20   1
  -6  10   6  471.75   18.00   1
  -6 -10   6  457.55   18.30   1
   6  10   6  473.55   14.90   1
  -6 -10   6  496.35   20.80   1
   7 -10   6   22.20    6.20   1
  -7  10   6   27.50    5.60   1
   7  10   6   20.70    2.30   1
  -7 -10   6   34.50    5.80   1
  -8  10   6    2.20    4.60   1
   8 -10   6   10.20    5.80   1
   8  10   6    7.50    1.80   1
  -8 -10   6   15.60    5.10   1
  -8 -10   6    3.60    5.90   1
  -9  10   6   16.90    5.40   1
   9 -10   6   18.30    6.80   1
  -9  10   6   20.30    5.70   1
   9  10   6   20.90    5.20   1
  -9 -10   6   21.20    5.90   1
   9  10   6   20.00    2.30   1
  -9 -10   6   19.40    4.80   1
 -10  10   6   31.50    6.00   1
 -10  10   6   38.10    7.20   1
  10 -10   6   22.00    8.20   1
 -10 -10   6   43.80    7.40   1
 -10 -10   6   32.00    6.10   1
  10  10   6   35.40    3.10   1
  11 -10   6   25.50    7.90   1
 -11  10   6   15.50    6.50   1
 -11  10   6   14.50    5.80   1
 -11 -10   6   12.30    6.70   1
  11  10   6   24.00    3.00   1
 -11 -10   6   32.30    6.20   1
  12 -10   6  162.88   13.10   1
 -12  10   6  154.08   12.20   1
 -12  10   6  150.08   10.80   1
 -12 -10   6  169.18   10.60   1
 -12 -10   6  183.28   12.00   1
  12  10   6  186.98    7.60   1
   0  11   6  134.79    8.80   1
   0 -11   6  116.89    7.30   1
   0 -11   6  132.99    8.30   1
   0  11   6  124.99    7.20   1
   0 -11   6  140.89    7.80   1
  -1  11   6  144.49    8.10   1
  -1  11   6  151.88    9.40   1
   1 -11   6  155.78    8.70   1
   1 -11   6  149.59    8.80   1
   1  11   6  146.39    7.50   1
  -1 -11   6  147.59    8.00   1
  -1 -11   6  156.58    9.00   1
   1  11   6  154.38    9.30   1
   2 -11   6  116.79    7.90   1
   2 -11   6   97.39    7.50   1
  -2  11   6  107.39    7.20   1
  -2  11   6  101.89    8.10   1
  -2 -11   6  113.39    7.60   1
   2  11   6   98.19    5.90   1
   2  11   6  100.59    8.30   1
  -2 -11   6  101.19    7.60   1
  -3  11   6  751.02   24.40   1
   3 -11   6  689.93   24.70   1
  -3  11   6  706.23   25.20   1
   3 -11   6  684.43   25.00   1
  -3 -11   6  731.53   24.50   1
  -3 -11   6  709.53   24.90   1
   3  11   6  684.83   24.90   1
   3  11   6  714.23   22.40   1
  -4  11   6  113.79    8.00   1
   4 -11   6  102.69    8.40   1
  -4  11   6   92.89    8.00   1
   4 -11   6   90.99    7.50   1
  -4 -11   6  107.69    8.10   1
  -4 -11   6  107.79    7.60   1
   4  11   6  102.79    5.20   1
   4  11   6  100.19    7.40   1
  -5  11   6  162.78   10.10   1
  -5  11   6  170.48    9.90   1
   5 -11   6  171.88   10.70   1
  -5 -11   6  176.28    9.70   1
   5  11   6  166.38   12.30   1
   5  11   6  172.98    6.80   1
   6 -11   6   85.49    8.70   1
  -6  11   6   89.69    8.20   1
  -6  11   6  118.99    8.60   1
   6  11   6  101.49    4.60   1
  -6 -11   6   89.89    8.20   1
  -7  11   6   65.49    7.30   1
   7 -11   6   50.19    7.50   1
   7  11   6   56.29    3.60   1
  -7 -11   6   64.69    7.20   1
   8 -11   6   74.89    9.00   1
  -8  11   6   62.69    7.10   1
  -8 -11   6   63.89    7.60   1
   8  11   6   58.99    3.60   1
   9 -11   6  546.45   23.20   1
  -9  11   6  543.35   20.90   1
   9  11   6  516.05   16.50   1
  -9 -11   6  548.15   21.40   1
  10 -11   6   63.99    9.40   1
 -10  11   6   47.90    7.50   1
 -10  11   6   49.00    7.00   1
 -10 -11   6   60.29    7.90   1
  10  11   6   61.39    3.90   1
 -11  11   6   71.19    8.00   1
 -11  11   6   52.99    7.60   1
  11 -11   6   69.99    9.90   1
 -11 -11   6   58.69    8.00   1
  11  11   6   66.49    4.30   1
   0 -12   6  993.70   30.90   1
   0  12   6  925.61   31.80   1
   0  12   6  907.41   29.90   1
   0 -12   6  918.71   31.40   1
  -1  12   6  174.88   10.20   1
   1 -12   6  176.58    9.80   1
  -1  12   6  151.08    8.60   1
   1 -12   6  172.98    9.20   1
  -1 -12   6  158.78    9.50   1
  -1 -12   6  148.19    8.70   1
   1  12   6  172.28   10.00   1
   1  12   6  157.48    8.00   1
   2 -12   6   12.00    4.80   1
  -2  12   6   12.50    4.70   1
   2 -12   6    7.30    4.00   1
  -2  12   6    7.60    3.70   1
  -2 -12   6   20.80    5.00   1
  -2 -12   6   15.40    4.10   1
   2  12   6   15.30    3.20   1
   2  12   6   10.50    4.60   1
  -3  12   6  135.69    8.50   1
   3 -12   6  121.29   10.00   1
  -3  12   6  122.89    9.70   1
   3 -12   6  138.09    9.60   1
  -3 -12   6  145.29    8.50   1
   3  12   6  130.29    9.20   1
   3  12   6  131.49    6.50   1
  -4  12   6   32.90    6.30   1
   4 -12   6   35.70    6.10   1
  -4  12   6   38.20    5.30   1
  -4 -12   6   41.60    5.90   1
   4  12   6   43.30    5.70   1
   4  12   6   35.80    3.20   1
   5 -12   6  136.99    9.90   1
  -5  12   6  151.28    9.60   1
  -5  12   6  147.89    9.90   1
  -5 -12   6  146.29    9.20   1
   5  12   6  140.99    8.70   1
   5  12   6  142.69    6.10   1
   6 -12   6  660.43   25.00   1
  -6  12   6  623.74   23.90   1
  -6  12   6  663.13   23.60   1
  -6 -12   6  661.83   23.90   1
   6  12   6  643.34   19.90   1
   7 -12   6  107.89   10.10   1
  -7  12   6  110.59    9.20   1
   7  12   6  115.59    4.90   1
  -7 -12   6  111.59    8.90   1
   8 -12   6    0.50    5.70   1
  -8  12   6    6.60    5.00   1
  -8 -12   6    6.60    5.40   1
   8  12   6    7.90    1.80   1
  -9  12   6   82.39    8.20   1
   9 -12   6   81.49    9.80   1
  -9 -12   6   86.29    8.60   1
   9  12   6   85.39    4.00   1
  10 -12   6   29.20    8.10   1
 -10  12   6   28.60    6.10   1
 -10  12   6   37.50    7.10   1
 -10 -12   6   26.10    7.20   1
  10  12   6   38.00    3.20   1
 -11  12   6   85.89    8.40   1
 -11  12   6   56.19    7.90   1
  11 -12   6   69.29    9.90   1
 -11 -12   6   58.59    7.90   1
  11  12   6   79.59    4.20   1
   0  13   6    2.50    3.20   1
   0 -13   6    3.30    3.80   1
   0  13   6    0.50    4.30   1
   1 -13   6   16.80    4.80   1
  -1  13   6    9.70    3.80   1
  -1  13   6    5.60    4.70   1
  -1 -13   6    9.40    4.20   1
   1  13   6    6.00    3.10   1
   1  13   6    6.50    4.80   1
  -2  13   6    2.50    3.70   1
  -2  13   6    7.60    4.80   1
   2 -13   6   -4.30    3.80   1
   2  13   6    3.20    4.80   1
   2  13   6   -1.10    2.60   1
  -2 -13   6    2.10    4.00   1
  -3  13   6  520.25   19.30   1
  -3  13   6  506.75   20.40   1
   3 -13   6  526.75   20.10   1
   3  13   6  518.95   20.20   1
   3  13   6  511.05   17.20   1
  -3 -13   6  527.45   19.40   1
   4 -13   6    8.90    4.80   1
  -4  13   6    7.20    4.80   1
  -4  13   6    2.70    4.10   1
   4  13   6   -1.10    2.10   1
  -4 -13   6   -0.70    4.00   1
   4  13   6   -0.90    4.50   1
  -5  13   6   21.60    5.10   1
  -5  13   6   22.30    5.80   1
   5 -13   6   21.30    5.80   1
   5  13   6   18.20    5.20   1
  -5 -13   6   16.50    5.00   1
   5  13   6   16.50    2.40   1
  -6  13   6   -1.50    4.20   1
  -6  13   6   -3.10    5.30   1
   6 -13   6    3.20    5.30   1
  -6 -13   6   10.50    5.40   1
   6  13   6   -1.70    1.70   1
  -7  13   6    5.00    5.10   1
   7 -13   6    4.90    6.30   1
  -7 -13   6    1.60    5.80   1
   7  13   6    0.10    1.70   1
   8 -13   6    7.20    6.20   1
  -8  13   6    6.90    5.30   1
   8  13   6    1.60    1.70   1
  -8 -13   6    4.10    5.70   1
  -9  13   6  382.06   16.90   1
   9 -13   6  351.66   18.30   1
  -9 -13   6  405.06   17.30   1
   9  13   6  383.56   11.90   1
 -10  13   6   -0.90    5.40   1
 -10  13   6   -3.50    6.10   1
  10 -13   6    1.10    6.90   1
 -10 -13   6    0.90    5.70   1
   0  14   6  881.11   30.50   1
   0  14   6  835.22   28.00   1
  -1  14   6  144.89    8.90   1
   1 -14   6  164.88    9.80   1
  -1  14   6  152.58   11.00   1
   1  14   6  152.28   10.30   1
   1  14   6  147.29    8.10   1
  -2  14   6   25.40    4.80   1
   2 -14   6   18.60    5.40   1
  -2  14   6   24.40    6.00   1
   2  14   6   28.10    3.90   1
  -2 -14   6   31.00    5.30   1
   2  14   6   23.20    5.50   1
  -3  14   6  193.18   10.60   1
  -3  14   6  193.48   12.20   1
   3 -14   6  218.28   11.50   1
  -3 -14   6  178.08   10.70   1
   3  14   6  190.68    8.40   1
   3  14   6  206.18   11.30   1
  -4  14   6   22.00    5.10   1
  -4  14   6   22.40    6.30   1
   4 -14   6   22.50    6.20   1
   4  14   6   28.00    5.90   1
  -4 -14   6   28.50    5.40   1
   4  14   6   20.30    3.00   1
  -5  14   6  112.59    9.10   1
  -5  14   6  119.09   10.10   1
   5 -14   6  109.89    9.50   1
  -5 -14   6  119.19    8.90   1
   5  14   6  131.79    9.40   1
   5  14   6  109.79    5.50   1
  -6  14   6  667.23   25.40   1
  -6  14   6  696.93   24.90   1
   6 -14   6  651.93   26.20   1
  -6 -14   6  693.73   25.20   1
   6  14   6  689.23   20.90   1
  -7  14   6  140.89   11.00   1
   7 -14   6  114.09   10.70   1
   7  14   6  131.39    5.30   1
  -7 -14   6  132.69   10.10   1
   8 -14   6   14.20    7.00   1
  -8  14   6   22.40    6.60   1
  -8 -14   6   23.40    6.90   1
   8  14   6   16.60    2.00   1
   9 -14   6  101.19   11.50   1
  -9  14   6  106.89    9.70   1
  -9 -14   6  118.79   10.00   1
   0  15   6  142.39    8.40   1
   0  15   6  138.99   10.90   1
  -1  15   6   19.90    4.50   1
  -1  15   6   23.70    6.70   1
   1 -15   6   31.20    5.80   1
   1  15   6   18.20    4.00   1
   1  15   6   14.90    5.70   1
  -2  15   6   72.29    8.40   1
  -2  15   6  107.89    8.20   1
   2 -15   6  104.89    9.10   1
  -2 -15   6   99.99    7.60   1
   2  15   6   94.99    6.50   1
   2  15   6  101.09    9.10   1
  -3  15   6  717.73   25.00   1
   3 -15   6  702.23   25.80   1
  -3  15   6  712.63   26.70   1
   3  15   6  709.33   22.80   1
  -3 -15   6  679.03   24.90   1
   3  15   6  703.63   26.00   1
  -4  15   6  121.59    9.20   1
   4 -15   6  131.09   10.30   1
  -4  15   6   88.19    9.10   1
   4  15   6  104.69    6.00   1
   4  15   6  117.39    9.70   1
  -4 -15   6  103.79    8.50   1
  -5  15   6   19.10    5.20   1
  -5  15   6   22.60    6.90   1
   5 -15   6    9.90    5.70   1
   5  15   6   14.00    5.80   1
  -5 -15   6   12.40    5.60   1
   5  15   6   14.10    2.70   1
  -6  15   6  113.29    9.80   1
  -6  15   6  116.79    9.30   1
   6 -15   6  120.19   10.20   1
   6  15   6  105.19    5.20   1
  -6 -15   6   92.39    8.70   1
  -7  15   6    4.40    6.10   1
   7 -15   6   22.70    6.90   1
  -7 -15   6    6.40    5.90   1
   7  15   6   18.20    2.30   1
   8 -15   6   58.99    8.90   1
  -8 -15   6   61.59    8.20   1
   0  16   6  380.16   15.00   1
   0  16   6  365.36   17.20   1
  -1  16   6   12.30    4.50   1
  -1  16   6    9.20    5.90   1
   1  16   6   14.20    6.10   1
   1  16   6   13.00    4.00   1
   2 -16   6   14.30    5.10   1
  -2  16   6   16.80    4.80   1
  -2  16   6    9.90    6.10   1
   2  16   6   12.90    5.90   1
   2  16   6   16.30    3.80   1
  -3  16   6    5.20    4.70   1
   3 -16   6    8.30    5.60   1
  -3  16   6    6.20    6.50   1
  -3 -16   6    4.40    5.20   1
   3  16   6   14.30    5.90   1
   3  16   6    7.90    3.40   1
  -4  16   6    1.80    6.20   1
   4 -16   6    3.80    5.80   1
  -4  16   6    3.40    4.50   1
  -4 -16   6    2.30    5.00   1
   4  16   6   -1.40    5.50   1
   4  16   6    4.40    2.90   1
  -5  16   6   12.90    6.80   1
  -5  16   6   12.50    5.20   1
   5 -16   6   16.00    6.30   1
   5  16   6   13.60    2.80   1
   5  16   6   18.90    6.20   1
  -5 -16   6   20.60    5.90   1
  -6  16   6  376.36   16.30   1
   6 -16   6  351.96   17.10   1
  -6  16   6  327.07   16.30   1
   6  16   6  352.76   11.80   1
  -6 -16   6  353.76   16.00   1
  -7  16   6   10.40    6.30   1
   7 -16   6   10.00    7.20   1
   7  16   6    9.20    2.00   1
  -7 -16   6    5.50    5.70   1
   0  17   6   99.79    8.00   1
   0  17   6  103.99    9.70   1
  -1  17   6   31.80    7.40   1
  -1  17   6   30.90    5.40   1
   1  17   6   26.80    7.50   1
   1  17   6   37.00    5.00   1
   2 -17   6   94.89    9.20   1
  -2  17   6  133.09   11.10   1
  -2  17   6  123.09    8.90   1
   2  17   6  103.99   10.10   1
   3 -17   6  568.04   22.10   1
  -3  17   6  558.44   22.70   1
  -3  17   6  569.54   21.10   1
   3  17   6  529.15   22.20   1
   3  17   6  540.45   18.70   1
  -3 -17   6  546.25   20.80   1
   4 -17   6  114.99   10.20   1
  -4  17   6   85.99    9.90   1
  -4  17   6  111.09    9.20   1
  -4 -17   6   86.39    8.20   1
   4  17   6  111.19    9.60   1
   4  17   6  106.19    6.30   1
  -5  17   6   16.50    5.30   1
  -5  17   6    7.60    6.30   1
   5 -17   6   20.20    6.40   1
   5  17   6   15.80    7.50   1
  -5 -17   6   23.70    6.40   1
   5  17   6   15.10    3.00   1
  -6  17   6   82.79    9.10   1
   6 -17   6  103.89    9.80   1
  -6  17   6   75.99    7.90   1
  -6 -17   6   96.69    8.70   1
   6  17   6   78.39    4.80   1
   0  18   6  366.76   17.50   1
  -1  18   6    3.20    4.40   1
  -1  18   6    3.50    6.40   1
   1  18   6    8.60    4.10   1
   1  18   6   -1.20    6.50   1
  -2  18   6  106.49    8.80   1
  -2  18   6  102.49   10.20   1
   2  18   6   94.69    9.30   1
  -3  18   6    7.40    7.00   1
   3 -18   6    7.30    5.60   1
  -3  18   6    8.70    4.90   1
   3  18   6    6.30    3.50   1
   3  18   6    7.60    6.40   1
   4 -18   6   78.69    8.90   1
  -4  18   6   41.30    7.90   1
  -4  18   6   62.79    7.10   1
   4  18   6   71.29    8.40   1
   4  18   6   54.19    4.70   1
  -4 -18   6   56.49    7.30   1
   0  19   6   17.10    7.10   1
   0  19   6   21.30    4.80   1
   0   0   7  995.60   30.90   1
   0   0   7  988.80   31.10   1
   0   0   7  957.60   31.80   1
  -1   0   7    5.90    2.30   1
  -1   0   7    0.70    2.80   1
  -1   0   7   -2.00    3.00   1
  -1   0   7    2.40    2.70   1
   1   0   7   -1.40    2.70   1
   1   0   7    3.90    2.60   1
   1   0   7   -1.70    3.00   1
  -2   0   7   29.20    4.00   1
   2   0   7   31.60    4.70   1
  -2   0   7   19.20    3.00   1
   2   0   7   25.60    3.80   1
  -2   0   7   19.90    3.70   1
   3   0   7    2.80    3.70   1
   3   0   7    0.50    2.70   1
  -3   0   7    2.70    3.00   1
  -3   0   7    2.00    2.60   1
   4   0   7    6.10    3.20   1
  -4   0   7    0.90    3.30   1
   4   0   7   -0.70    3.50   1
   5   0   7    0.00    3.80   1
  -5   0   7    2.50    3.40   1
   5   0   7    1.60    3.10   1
   6   0   7  557.04   21.70   1
  -6   0   7  558.64   20.70   1
   6   0   7  596.14   20.00   1
  -7   0   7    3.70    4.00   1
   7   0   7    2.50    3.30   1
   7   0   7   -3.40    4.60   1
   8   0   7    9.40    5.80   1
  -8   0   7    6.90    4.70   1
   8   0   7   17.40    4.10   1
  -9   0   7    2.70    4.50   1
   9   0   7   -1.70    3.60   1
   9   0   7    0.60    4.90   1
  -9   0   7   -4.40    4.30   1
 -10   0   7   -3.30    4.40   1
  10   0   7   -1.20    5.00   1
  10   0   7    2.30    4.00   1
 -10   0   7   -4.00    4.70   1
 -10   0   7    5.50    5.10   1
  11   0   7   -0.60    6.10   1
 -11   0   7    5.30    5.30   1
  11   0   7   -0.90    4.00   1
 -11   0   7   -1.30    4.30   1
 -11   0   7   -0.70    4.80   1
 -12   0   7  210.68   12.70   1
 -12   0   7  226.78   13.40   1
  12   0   7  244.68   13.70   1
 -12   0   7  243.88   12.80   1
  12   0   7  214.58   11.80   1
 -13   0   7    6.30    5.70   1
 -13   0   7    4.00    5.90   1
 -13   0   7   -2.10    6.50   1
  13   0   7   -5.40    6.10   1
  13   0   7    3.80    4.70   1
   0  -1   7   25.00    3.80   1
   0   1   7   19.10    3.30   1
   0  -1   7   18.60    3.00   1
   0  -1   7   25.80    4.40   1
   0   1   7   19.30    3.60   1
   0  -1   7   18.00    3.20   1
  -1   1   7 1026.60   31.20   1
  -1   1   7 1067.89   32.40   1
   1  -1   7 1024.30   32.20   1
   1  -1   7 1038.00   33.10   1
   1  -1   7 1034.20   31.80   1
  -1   1   7 1012.30   32.20   1
  -1  -1   7  995.40   32.10   1
  -1  -1   7 1012.80   32.60   1
   1   1   7 1022.70   32.20   1
   1   1   7 1000.20   31.80   1
  -1  -1   7 1028.80   31.60   1
  -1  -1   7  989.80   32.10   1
   2  -1   7    3.80    2.90   1
   2  -1   7    4.20    3.50   1
  -2   1   7   18.80    3.80   1
  -2   1   7    4.90    3.00   1
   2   1   7   -0.30    2.70   1
  -2  -1   7    9.10    3.00   1
  -2  -1   7    5.80    2.80   1
  -2  -1   7    3.50    2.40   1
   2   1   7    4.10    2.90   1
  -2  -1   7    3.50    2.80   1
   2   1   7    0.80    2.60   1
  -3   1   7   44.60    4.60   1
   3  -1   7   44.60    4.60   1
  -3   1   7   45.40    5.00   1
   3  -1   7   45.70    5.60   1
  -3  -1   7   46.70    4.60   1
   3   1   7   42.70    5.70   1
  -3  -1   7   41.70    4.30   1
   3   1   7   50.59    4.80   1
  -3  -1   7   41.00    4.60   1
  -3  -1   7   33.90    3.70   1
  -4   1   7    1.40    3.30   1
   4  -1   7   -3.20    3.50   1
  -4   1   7    0.30    3.00   1
   4  -1   7    3.10    3.20   1
  -4  -1   7    3.10    3.30   1
   4   1   7    1.40    2.90   1
   4   1   7    1.00    3.90   1
  -5   1   7  692.03   23.20   1
   5  -1   7  635.44   23.90   1
   5  -1   7  650.93   22.40   1
  -5  -1   7  681.93   23.10   1
   5   1   7  655.43   22.10   1
   5   1   7  649.04   24.00   1
   6  -1   7   12.40    5.10   1
   6  -1   7    6.00    3.40   1
  -6   1   7    9.10    4.10   1
   6   1   7    6.00    3.30   1
   6   1   7    7.30    4.50   1
  -6  -1   7   11.90    4.30   1
   7  -1   7  777.72   27.80   1
   7  -1   7  787.72   25.90   1
  -7   1   7  764.32   26.80   1
  -7  -1   7  750.72   26.20   1
  -7  -1   7  781.62   27.00   1
   7   1   7  795.42   27.90   1
   7   1   7  749.53   25.30   1
   8  -1   7    0.50    3.60   1
   8  -1   7   -0.40    5.20   1
  -8   1   7    4.70    4.80   1
   8   1   7    3.90    3.40   1
   8   1   7   -0.90    4.70   1
  -8  -1   7    4.40    4.30   1
  -8  -1   7   -1.80    4.30   1
  -9   1   7    9.40    4.90   1
   9  -1   7    9.10    4.10   1
  -9   1   7    8.50    4.50   1
   9  -1   7    2.70    5.20   1
  -9  -1   7    9.80    4.80   1
  -9  -1   7    0.10    5.00   1
   9   1   7    9.70    3.80   1
   9   1   7    2.00    5.40   1
  10  -1   7   -9.10    4.80   1
 -10   1   7   -1.70    4.30   1
  10  -1   7    1.90    4.00   1
 -10   1   7    2.40    5.00   1
 -10   1   7    1.60    5.00   1
 -10  -1   7    0.30    5.00   1
  10   1   7   -2.30    4.70   1
  10   1   7   -1.40    3.60   1
 -10  -1   7   -5.00    4.40   1
 -11   1   7  353.16   15.40   1
  11  -1   7  320.17   14.50   1
 -11   1   7  339.47   15.00   1
 -11   1   7  320.87   16.00   1
  11  -1   7  340.57   16.40   1
 -11  -1   7  320.27   15.60   1
 -11  -1   7  327.57   16.80   1
  11   1   7  308.67   15.70   1
  11   1   7  339.87   14.10   1
 -11  -1   7  329.27   15.50   1
 -12   1   7    3.00    5.30   1
 -12   1   7    4.30    5.30   1
  12  -1   7    0.40    6.60   1
  12  -1   7    1.60    4.60   1
 -12   1   7   -0.90    5.20   1
 -12  -1   7   -0.40    5.20   1
  12   1   7    0.40    5.70   1
  12   1   7    7.00    4.40   1
 -12  -1   7   -6.30    7.60   1
 -12  -1   7   -2.40    5.70   1
  13  -1   7  380.76   17.60   1
 -13   1   7  370.46   16.30   1
 -13   1   7  383.46   17.30   1
  13  -1   7  374.56   16.30   1
 -13  -1   7  390.56   17.00   1
  13   1   7  358.26   15.70   1
 -13  -1   7  398.16   17.30   1
   0  -2   7  156.98    7.60   1
   0   2   7  155.58    7.60   1
   0  -2   7  180.08    8.20   1
   0  -2   7  163.48    8.60   1
   0  -2   7  161.78    7.60   1
   0   2   7  160.78    8.10   1
   1  -2   7   -0.30    3.00   1
   1  -2   7   -2.50    2.40   1
  -1   2   7   -0.10    2.70   1
  -1   2   7    2.00    2.60   1
   1  -2   7   -1.60    2.70   1
  -1  -2   7   -1.40    2.50   1
  -1  -2   7    2.10    2.90   1
   1   2   7   -0.30    2.60   1
   1   2   7    2.80    2.50   1
  -1  -2   7    1.70    2.70   1
  -1  -2   7    1.00    2.80   1
   2  -2   7 1860.61   55.49   1
   2  -2   7 1798.12   56.29   1
  -2   2   7 1904.11   55.59   1
  -2   2   7 1781.22   55.49   1
   2   2   7 1786.42   55.19   1
   2   2   7 1907.21   54.79   1
  -2  -2   7 1824.22   55.19   1
  -2  -2   7 1830.72   55.19   1
  -2  -2   7 1841.32   54.89   1
  -2  -2   7 1802.02   55.49   1
  -3   2   7   12.60    3.40   1
   3  -2   7   14.80    3.60   1
  -3   2   7   13.20    3.60   1
   3  -2   7   17.70    4.50   1
  -3  -2   7   14.80    3.10   1
  -3  -2   7   16.60    3.70   1
  -3  -2   7   11.30    2.90   1
   3   2   7   10.80    3.70   1
   3   2   7   12.50    3.30   1
  -4   2   7 1523.65   46.20   1
   4  -2   7 1528.85   45.80   1
  -4   2   7 1547.85   45.90   1
   4  -2   7 1461.05   47.00   1
  -4  -2   7 1476.35   46.20   1
  -4  -2   7 1425.06   45.00   1
   4   2   7 1458.45   47.20   1
   4   2   7 1448.26   45.20   1
   5  -2   7    2.70    3.30   1
   5  -2   7   -2.40    3.90   1
  -5   2   7   10.90    4.10   1
   5   2   7    0.70    2.80   1
  -5  -2   7    0.00    3.80   1
   5   2   7    0.70    4.10   1
  -6   2   7  107.09    8.00   1
   6  -2   7  125.19    8.90   1
   6  -2   7  112.49    7.70   1
   6   2   7  107.09    7.00   1
  -6  -2   7  127.49    8.30   1
   6   2   7  143.89    9.30   1
  -6  -2   7  116.09    7.70   1
   7  -2   7    5.80    3.70   1
  -7   2   7    5.80    4.10   1
   7  -2   7    3.80    4.60   1
  -7  -2   7    6.40    4.70   1
  -7  -2   7    6.60    4.10   1
   7   2   7   10.30    3.30   1
   7   2   7    5.60    4.70   1
   8  -2   7 1102.69   34.50   1
  -8   2   7 1053.99   35.20   1
   8  -2   7 1050.59   36.30   1
  -8  -2   7 1029.60   35.40   1
   8   2   7 1057.99   33.40   1
   8   2   7 1073.69   36.00   1
  -8  -2   7 1014.90   34.60   1
   9  -2   7   14.20    4.60   1
  -9   2   7   24.30    4.70   1
  -9   2   7   23.00    5.60   1
   9  -2   7   15.60    6.10   1
   9   2   7   26.40    4.20   1
   9   2   7   11.40    5.50   1
  -9  -2   7   23.90    5.70   1
  -9  -2   7   17.40    5.10   1
 -10   2   7  705.93   25.00   1
 -10   2   7  686.03   25.90   1
  10  -2   7  729.53   27.10   1
  10  -2   7  729.63   24.90   1
  10   2   7  688.53   23.70   1
 -10  -2   7  686.63   25.80   1
 -10  -2   7  671.73   25.10   1
 -11   2   7    4.70    5.30   1
  11  -2   7    1.00    4.40   1
 -11   2   7    5.20    5.50   1
  11  -2   7   -4.50    6.20   1
 -11   2   7    0.60    4.70   1
  11   2   7   -0.30    5.50   1
 -11  -2   7    8.80    5.40   1
 -11  -2   7   -5.50    5.10   1
  11   2   7   -0.20    3.70   1
  12  -2   7   55.49    9.00   1
 -12   2   7   54.09    7.90   1
  12  -2   7   69.89    7.40   1
 -12   2   7   74.39    8.20   1
 -12   2   7   63.69    7.70   1
 -12  -2   7   58.49    7.80   1
  12   2   7   52.89    6.00   1
  12   2   7   68.69    8.70   1
 -12  -2   7   65.49    8.00   1
 -13   2   7    6.20    6.20   1
 -13   2   7    2.70    5.10   1
 -13   2   7    2.70    5.90   1
  13  -2   7    5.20    6.80   1
  13  -2   7    6.20    5.10   1
  13   2   7    0.30    4.30   1
 -13  -2   7    8.20    6.10   1
 -13  -2   7    3.20    5.70   1
   0  -3   7   12.60    3.40   1
   0  -3   7   12.70    3.20   1
   0   3   7    9.40    3.00   1
   0  -3   7   11.10    3.10   1
   0   3   7   10.80    3.20   1
   0  -3   7   13.50    3.00   1
   0  -3   7    9.00    2.80   1
  -1   3   7  108.29    6.70   1
   1  -3   7  107.29    5.80   1
   1  -3   7  103.89    6.20   1
  -1   3   7  118.39    6.70   1
   1  -3   7  105.19    6.70   1
   1  -3   7  109.39    7.00   1
   1   3   7  122.39    6.90   1
  -1  -3   7  116.49    6.40   1
  -1  -3   7  118.29    6.70   1
  -1  -3   7  112.89    6.60   1
  -1  -3   7  116.69    6.70   1
  -1  -3   7  122.19    6.90   1
   1   3   7  113.79    6.30   1
   2  -3   7   48.50    5.40   1
  -2   3   7   54.19    5.10   1
  -2   3   7   40.30    4.70   1
   2  -3   7   48.60    4.80   1
   2   3   7   52.49    4.70   1
  -2  -3   7   54.39    4.70   1
  -2  -3   7   53.39    4.50   1
  -2  -3   7   49.50    4.70   1
  -2  -3   7   49.90    5.00   1
   2   3   7   54.29    4.60   1
  -3   3   7  248.08   11.10   1
   3  -3   7  256.47   11.90   1
  -3   3   7  274.97   11.30   1
   3  -3   7  271.47   11.30   1
  -3  -3   7  248.88   10.60   1
   3   3   7  261.17   10.70   1
  -3  -3   7  255.97   10.60   1
  -3  -3   7  259.37   11.20   1
  -3  -3   7  264.07   10.20   1
  -4   3   7   23.20    4.00   1
   4  -3   7   23.70    4.30   1
  -4   3   7   22.70    4.60   1
   4  -3   7   24.80    4.90   1
  -4  -3   7   18.10    4.20   1
  -4  -3   7   26.20    3.60   1
   4   3   7   22.90    3.60   1
  -4  -3   7   19.60    4.00   1
   4   3   7   14.20    4.60   1
  -5   3   7   81.19    6.80   1
  -5   3   7   86.39    7.00   1
   5  -3   7   96.09    7.80   1
   5  -3   7   91.99    6.80   1
  -5  -3   7   85.69    6.50   1
  -5  -3   7   74.89    6.70   1
   5   3   7   79.29    5.70   1
   5   3   7   90.89    8.00   1
   6  -3   7    1.70    3.50   1
  -6   3   7   -0.30    3.80   1
   6  -3   7    1.60    4.50   1
   6   3   7    6.90    3.00   1
  -6  -3   7    0.60    3.80   1
  -6  -3   7    3.80    3.80   1
   6   3   7   -2.30    4.10   1
   7  -3   7   74.29    6.50   1
   7  -3   7   64.69    7.70   1
  -7   3   7   58.49    6.60   1
   7   3   7   58.49    7.20   1
  -7  -3   7   66.09    6.80   1
  -7  -3   7   73.59    6.80   1
   7   3   7   59.29    5.10   1
   8  -3   7   29.50    5.20   1
  -8   3   7   26.70    5.80   1
   8  -3   7   31.20    6.50   1
   8   3   7   31.10    4.10   1
   8   3   7   19.80    5.50   1
  -8  -3   7   33.10    5.60   1
  -8  -3   7   29.90    5.80   1
  -9   3   7  156.18   10.60   1
   9  -3   7  158.88    9.80   1
  -9   3   7  147.49    9.30   1
   9  -3   7  156.48   11.10   1
  -9  -3   7  141.99   10.00   1
   9   3   7  134.89    7.90   1
   9   3   7  153.68   10.90   1
  -9  -3   7  129.29    9.30   1
 -10   3   7    9.10    4.60   1
  10  -3   7    1.70    4.50   1
  10  -3   7    4.70    6.20   1
 -10   3   7    8.90    5.10   1
 -10  -3   7    1.50    4.90   1
  10   3   7    4.20    3.40   1
 -10  -3   7    2.20    5.60   1
  10   3   7    6.20    5.10   1
  11  -3   7   36.90    7.70   1
 -11   3   7   39.10    7.10   1
 -11   3   7   35.30    6.30   1
 -11   3   7   34.70    6.90   1
  11  -3   7   39.50    6.30   1
  11   3   7   37.60    7.00   1
 -11  -3   7   32.10    6.80   1
  11   3   7   35.30    5.10   1
 -11  -3   7   35.50    6.50   1
  12  -3   7    0.60    6.40   1
 -12   3   7   -0.80    5.50   1
 -12   3   7   -1.80    5.20   1
 -12   3   7   -6.00    5.40   1
  12  -3   7   -3.10    4.90   1
 -12  -3   7    0.70    6.00   1
  12   3   7    1.10    5.60   1
  12   3   7    0.70    3.90   1
 -12  -3   7   -3.50    5.50   1
  13  -3   7   21.00    5.90   1
 -13   3   7   32.90    6.70   1
  13  -3   7   23.20    7.80   1
 -13   3   7   21.10    5.70   1
 -13   3   7   28.40    6.80   1
 -13  -3   7   23.50    6.30   1
 -13  -3   7   24.50    7.00   1
  13   3   7   27.90    5.20   1
   0  -4   7    8.40    3.20   1
   0  -4   7    5.40    2.80   1
   0  -4   7    7.90    2.80   1
   0   4   7    6.40    3.00   1
   0   4   7    6.60    3.10   1
   0  -4   7    5.40    3.10   1
   0  -4   7    6.80    3.10   1
   1  -4   7    3.00    3.00   1
   1  -4   7    3.70    2.80   1
   1  -4   7    3.30    2.90   1
  -1   4   7   -0.10    2.80   1
  -1   4   7    4.20    2.90   1
   1  -4   7   -2.10    2.50   1
   1  -4   7    8.10    3.00   1
  -1  -4   7   -0.60    2.50   1
  -1  -4   7    1.80    3.10   1
  -1  -4   7    3.10    2.80   1
   1   4   7    3.80    3.00   1
  -1  -4   7    2.40    3.00   1
   1   4   7    0.30    2.70   1
   2  -4   7  402.46   15.50   1
   2  -4   7  387.96   14.80   1
  -2   4   7  403.96   15.00   1
  -2   4   7  389.56   14.70   1
  -2  -4   7  386.26   14.80   1
  -2  -4   7  392.26   14.20   1
   2   4   7  398.56   14.40   1
  -2  -4   7  395.86   14.60   1
  -2  -4   7  382.76   14.20   1
   2   4   7  390.86   14.20   1
  -3   4   7    6.10    3.20   1
   3  -4   7   14.40    4.20   1
  -3   4   7    4.30    3.40   1
   3  -4   7    7.00    3.50   1
   3   4   7    6.60    2.90   1
  -3  -4   7    8.70    3.80   1
  -3  -4   7    2.10    3.00   1
  -3  -4   7    4.00    3.10   1
  -4   4   7  428.16   16.70   1
   4  -4   7  424.36   17.50   1
  -4   4   7  462.95   16.30   1
   4  -4   7  450.65   16.50   1
   4   4   7  433.96   15.60   1
  -4  -4   7  439.56   16.70   1
  -4  -4   7  434.36   15.90   1
  -4  -4   7  439.86   16.30   1
  -5   4   7    8.30    3.70   1
   5  -4   7    9.80    4.30   1
  -5   4   7    8.70    4.20   1
   5  -4   7    2.90    3.70   1
  -5  -4   7    8.10    4.00   1
   5   4   7   13.90    3.10   1
   5   4   7   10.10    4.60   1
  -5  -4   7    9.50    3.50   1
  -5  -4   7    4.20    3.50   1
   6  -4   7    9.20    3.90   1
  -6   4   7    4.20    4.10   1
   6  -4   7   10.90    5.10   1
   6   4   7    8.20    2.90   1
  -6  -4   7   10.10    4.50   1
   6   4   7    4.30    4.60   1
  -6  -4   7   11.30    4.10   1
  -7   4   7   -4.00    3.90   1
   7  -4   7   -3.10    4.50   1
   7  -4   7   -3.50    3.70   1
  -7  -4   7   -2.60    3.90   1
   7   4   7    1.90    2.70   1
  -7  -4   7    6.90    4.60   1
   7   4   7   -1.30    4.30   1
  -8   4   7  232.58   12.10   1
   8  -4   7  245.68   11.90   1
   8  -4   7  219.58   12.90   1
  -8   4   7  227.38   11.20   1
   8   4   7  229.18    9.80   1
   8   4   7  228.98   12.30   1
  -8  -4   7  228.48   11.70   1
  -8  -4   7  225.98   12.10   1
  -9   4   7   11.70    5.30   1
   9  -4   7   15.20    6.00   1
   9  -4   7   12.10    4.70   1
  -9   4   7   12.00    4.40   1
   9   4   7   14.70    3.40   1
  -9  -4   7   14.30    5.90   1
  -9  -4   7   21.20    5.50   1
   9   4   7   11.90    5.10   1
  10  -4   7  271.57   14.70   1
  10  -4   7  246.58   12.90   1
 -10   4   7  241.58   13.50   1
 -10   4   7  251.87   12.80   1
 -10  -4   7  247.28   13.50   1
  10   4   7  273.27   13.50   1
 -10  -4   7  261.87   13.60   1
  10   4   7  252.07   10.90   1
 -11   4   7    9.80    5.80   1
  11  -4   7    5.50    6.60   1
 -11   4   7    3.20    5.30   1
  11  -4   7   -5.00    4.60   1
  11   4   7    5.00    5.40   1
 -11  -4   7    5.90    5.70   1
 -11  -4   7    7.20    5.50   1
  11   4   7    2.40    3.60   1
 -12   4   7   15.00    6.00   1
  12  -4   7   17.00    7.90   1
 -12   4   7   13.60    5.90   1
 -12   4   7   12.00    6.80   1
  12  -4   7   22.40    5.90   1
  12   4   7   13.50    4.30   1
 -12  -4   7   23.60    6.50   1
 -12  -4   7   17.50    6.40   1
 -13   4   7    1.40    6.40   1
  13  -4   7    0.40    7.00   1
 -13   4   7   -5.70    5.30   1
 -13   4   7   -6.60    4.70   1
  13  -4   7   -5.10    4.80   1
  13   4   7   -2.50    3.80   1
 -13  -4   7    2.00    5.90   1
 -13  -4   7    5.60    6.20   1
   0  -5   7    1.30    2.80   1
   0  -5   7    0.20    2.60   1
   0   5   7   -1.60    2.70   1
   0  -5   7    2.30    3.00   1
   0  -5   7   -3.60    2.50   1
   0   5   7    0.40    2.70   1
   1  -5   7 1544.25   47.60   1
   1  -5   7 1566.54   48.10   1
  -1   5   7 1549.54   47.90   1
   1  -5   7 1572.44   48.10   1
  -1   5   7 1547.35   47.60   1
   1   5   7 1509.45   47.30   1
   1   5   7 1582.54   47.60   1
  -1  -5   7 1489.25   47.70   1
  -1  -5   7 1591.94   47.50   1
  -1  -5   7 1627.94   47.80   1
  -1  -5   7 1525.15   47.10   1
   2  -5   7   -2.90    3.00   1
  -2   5   7    2.60    3.20   1
  -2   5   7    3.90    3.30   1
   2  -5   7   -0.20    3.00   1
  -2  -5   7   -0.10    2.80   1
  -2  -5   7    2.70    2.60   1
  -2  -5   7   -1.50    2.60   1
   2   5   7    7.90    3.10   1
  -2  -5   7    3.20    3.20   1
   2   5   7    1.10    2.60   1
  -3   5   7  109.29    7.40   1
   3  -5   7  100.39    7.60   1
   3  -5   7  111.49    7.20   1
  -3   5   7  105.49    6.90   1
  -3  -5   7  125.99    7.50   1
   3   5   7   99.89    6.40   1
  -3  -5   7   99.39    6.60   1
  -3  -5   7  113.29    6.80   1
  -4   5   7    0.40    3.20   1
  -4   5   7    1.30    3.60   1
   4  -5   7    2.20    3.40   1
   4  -5   7   -1.70    3.70   1
  -4  -5   7   -2.60    3.20   1
  -4  -5   7    3.30    3.00   1
  -4  -5   7    9.30    3.90   1
   4   5   7   -1.10    2.40   1
   5  -5   7 1376.66   42.80   1
  -5   5   7 1336.37   43.10   1
   5  -5   7 1327.77   43.80   1
  -5   5   7 1462.45   42.90   1
  -5  -5   7 1387.76   42.60   1
  -5  -5   7 1294.47   42.90   1
  -5  -5   7 1314.97   42.30   1
   5   5   7 1344.67   41.30   1
   6  -5   7    0.70    3.80   1
  -6   5   7   -2.00    3.80   1
   6  -5   7    3.20    4.20   1
  -6  -5   7    0.10    3.60   1
   6   5   7   -2.20    2.50   1
  -6  -5   7    0.80    4.00   1
   6   5   7   -0.20    4.30   1
  -6  -5   7    2.60    3.90   1
  -7   5   7  816.52   28.60   1
   7  -5   7  823.02   29.60   1
   7  -5   7  868.81   28.50   1
   7   5   7  829.82   29.20   1
  -7  -5   7  839.62   28.40   1
  -7  -5   7  784.02   28.60   1
   7   5   7  816.72   26.20   1
   8  -5   7    3.10    5.20   1
  -8   5   7    1.40    3.50   1
  -8   5   7    2.30    4.70   1
   8  -5   7    0.00    4.40   1
   8   5   7   -3.80    4.60   1
   8   5   7    1.50    2.60   1
  -8  -5   7    1.40    4.40   1
  -8  -5   7    0.50    4.60   1
  -9   5   7   95.49    7.70   1
   9  -5   7   75.39    7.60   1
   9  -5   7   76.69    8.90   1
  -9   5   7   93.09    8.40   1
  -9  -5   7   78.99    7.80   1
   9   5   7   79.79    5.90   1
  -9  -5   7   85.19    8.50   1
   9   5   7   75.69    7.80   1
  10  -5   7   -1.10    4.80   1
 -10   5   7    2.80    4.30   1
  10  -5   7   -1.00    6.00   1
 -10   5   7   -0.20    5.00   1
  10   5   7    1.60    5.00   1
  10   5   7    1.50    3.10   1
 -10  -5   7   -1.80    5.20   1
 -10  -5   7   -2.10    4.90   1
 -11   5   7  585.94   23.00   1
  11  -5   7  630.44   23.30   1
  11  -5   7  571.14   25.10   1
 -11   5   7  651.03   23.40   1
 -11  -5   7  595.24   24.10   1
  11   5   7  585.84   22.90   1
  11   5   7  595.34   20.60   1
 -11  -5   7  617.44   23.30   1
 -12   5   7   -0.70    5.10   1
 -12   5   7   -3.10    5.20   1
 -12   5   7    1.40    5.60   1
  12  -5   7    0.20    6.60   1
  12  -5   7    6.90    5.20   1
 -12  -5   7   -0.80    5.60   1
 -12  -5   7    3.10    5.80   1
  12   5   7   -2.10    3.50   1
   0   6   7   58.69    5.40   1
   0  -6   7   45.40    4.80   1
   0  -6   7   51.09    4.90   1
   0  -6   7   56.19    4.80   1
   0  -6   7   50.59    5.20   1
   0   6   7   44.30    4.70   1
  -1   6   7    1.70    3.00   1
   1  -6   7    0.30    2.70   1
   1  -6   7    0.00    3.10   1
  -1   6   7    1.50    3.20   1
   1   6   7    6.50    3.10   1
  -1  -6   7   -1.00    2.90   1
  -1  -6   7    3.10    3.00   1
   1   6   7    0.80    2.80   1
  -1  -6   7    0.40    2.90   1
  -1  -6   7   -0.90    3.00   1
   2  -6   7  123.09    7.50   1
  -2   6   7  116.79    7.60   1
  -2   6   7  134.39    7.60   1
   2  -6   7  125.29    7.80   1
  -2  -6   7  125.69    7.60   1
  -2  -6   7  120.19    6.90   1
  -2  -6   7  106.39    7.10   1
   2   6   7  113.09    6.90   1
   2   6   7  112.99    7.10   1
  -2  -6   7  128.39    6.70   1
  -3   6   7   11.80    3.70   1
  -3   6   7   16.80    4.20   1
   3  -6   7   10.30    4.10   1
   3  -6   7    9.30    3.60   1
  -3  -6   7   12.90    3.60   1
   3   6   7   18.60    3.60   1
  -3  -6   7   15.20    4.00   1
  -3  -6   7   14.50    3.60   1
   3   6   7   14.60    3.10   1
   4  -6   7  193.18   10.50   1
   4  -6   7  190.08    9.80   1
  -4   6   7  182.88   10.00   1
  -4   6   7  191.58    9.80   1
   4   6   7  196.18    8.60   1
  -4  -6   7  188.38    9.70   1
  -4  -6   7  199.28   10.10   1
  -4  -6   7  184.98    9.40   1
  -5   6   7    2.00    3.50   1
   5  -6   7   -3.10    3.80   1
   5  -6   7    0.60    3.80   1
  -5   6   7   -0.90    3.90   1
   5   6   7    1.20    2.60   1
  -5  -6   7    5.50    4.00   1
  -5  -6   7   -1.90    3.50   1
  -5  -6   7   -2.10    3.30   1
   6  -6   7   64.59    7.30   1
  -6   6   7   54.49    6.50   1
   6  -6   7   56.49    6.40   1
  -6  -6   7   68.69    6.50   1
   6   6   7   62.39    7.20   1
  -6  -6   7   60.29    6.80   1
   6   6   7   55.69    4.60   1
  -6  -6   7   66.19    6.60   1
  -7   6   7   -2.00    4.20   1
   7  -6   7    0.70    4.20   1
   7  -6   7    2.00    4.80   1
  -7   6   7   -1.60    3.20   1
  -7  -6   7    3.10    4.10   1
  -7  -6   7    0.00    4.40   1
   7   6   7    3.00    2.50   1
   7   6   7    8.00    4.80   1
   8  -6   7   60.19    6.80   1
  -8   6   7   69.29    6.50   1
   8  -6   7   69.99    8.20   1
  -8   6   7   55.89    7.10   1
   8   6   7   60.79    5.10   1
  -8  -6   7   54.79    7.20   1
   8   6   7   70.89    7.80   1
  -8  -6   7   59.09    6.90   1
  -9   6   7    4.60    5.60   1
  -9   6   7   10.40    4.40   1
   9  -6   7   11.70    5.10   1
   9  -6   7   10.80    6.20   1
  -9  -6   7    8.90    5.10   1
   9   6   7    4.30    4.70   1
   9   6   7    5.40    2.90   1
  -9  -6   7    8.60    5.90   1
 -10   6   7  149.88   10.40   1
  10  -6   7  143.29   11.90   1
  10  -6   7  146.69   10.60   1
  10   6   7  156.78   10.20   1
 -10  -6   7  143.39   11.50   1
  10   6   7  134.39    7.40   1
 -10  -6   7  120.49   10.00   1
  11  -6   7   -2.30    7.30   1
 -11   6   7    4.70    6.20   1
 -11   6   7    5.40    5.30   1
 -11  -6   7   -2.40    6.00   1
 -11  -6   7    9.40    6.20   1
  11   6   7    0.00    3.30   1
  11   6   7    1.30    5.90   1
 -12   6   7   76.59    7.50   1
 -12   6   7   88.29    9.40   1
 -12   6   7   66.59    7.90   1
  12  -6   7   80.29   10.20   1
 -12  -6   7   66.89    8.30   1
 -12  -6   7   71.89    8.40   1
  12   6   7   78.69    6.70   1
   0   7   7   21.00    4.20   1
   0   7   7   24.50    4.00   1
   0  -7   7   17.50    3.90   1
   0  -7   7   26.40    4.00   1
   0  -7   7   33.10    4.10   1
   0  -7   7   22.70    4.10   1
  -1   7   7  195.98    9.40   1
   1  -7   7  188.48    9.50   1
  -1   7   7  193.68   10.10   1
   1  -7   7  190.08    9.50   1
  -1  -7   7  182.98    9.40   1
  -1  -7   7  211.48    9.30   1
   1   7   7  194.08    9.00   1
  -1  -7   7  197.78    8.90   1
   1   7   7  198.48    9.60   1
  -1  -7   7  192.78    9.50   1
  -2   7   7   11.80    3.70   1
   2  -7   7   12.80    3.60   1
  -2   7   7   16.10    4.10   1
   2  -7   7   14.50    4.10   1
   2   7   7    7.80    3.50   1
  -2  -7   7   13.90    4.00   1
  -2  -7   7    8.50    3.50   1
  -2  -7   7   14.90    3.90   1
   2   7   7   15.10    3.30   1
  -3   7   7  152.58    9.10   1
  -3   7   7  171.28    8.90   1
   3  -7   7  179.88    9.50   1
  -3  -7   7  151.58    9.30   1
   3   7   7  156.68    7.80   1
  -3  -7   7  156.38    8.60   1
  -3  -7   7  148.49    8.60   1
   3   7   7  149.09    8.20   1
  -4   7   7    5.40    3.70   1
  -4   7   7    3.60    4.10   1
   4  -7   7    0.70    4.00   1
  -4  -7   7    0.80    3.80   1
   4   7   7    4.40    2.70   1
  -4  -7   7    7.30    3.60   1
  -4  -7   7    8.70    3.70   1
   5  -7   7  203.98   11.10   1
  -5   7   7  192.08   10.10   1
  -5   7   7  183.98   10.50   1
  -5  -7   7  201.58   10.40   1
  -5  -7   7  184.78   10.10   1
   5   7   7  191.58    8.50   1
  -5  -7   7  205.08   10.80   1
  -6   7   7    9.80    4.50   1
  -6   7   7   10.80    4.30   1
   6  -7   7   17.40    5.50   1
  -6  -7   7   16.00    4.80   1
  -6  -7   7   11.60    4.50   1
   6   7   7   14.30    3.00   1
  -6  -7   7    6.00    4.70   1
  -7   7   7   88.29    6.90   1
  -7   7   7   77.69    7.70   1
   7  -7   7   78.09    8.60   1
   7   7   7   79.69    5.40   1
  -7  -7   7   76.49    7.40   1
  -7  -7   7   95.49    8.00   1
  -7  -7   7   89.49    8.20   1
   7   7   7   66.49    7.40   1
  -8   7   7    1.80    4.30   1
   8  -7   7    7.40    5.80   1
  -8   7   7    4.50    4.90   1
  -8  -7   7    3.70    4.90   1
  -8  -7   7   13.60    5.40   1
   8   7   7   11.00    2.70   1
   8   7   7    3.40    4.60   1
  -9   7   7   57.99    7.10   1
   9  -7   7   48.90    8.80   1
  -9   7   7   61.19    7.60   1
   9   7   7   78.69    5.40   1
   9   7   7   74.39    8.00   1
  -9  -7   7   61.19    7.80   1
  -9  -7   7   56.89    7.20   1
 -10   7   7    2.00    5.00   1
  10  -7   7    7.70    6.80   1
 -10   7   7    7.30    5.40   1
 -10  -7   7   -0.30    5.60   1
  10   7   7    8.10    5.70   1
 -10  -7   7   -3.60    5.40   1
  10   7   7    2.90    3.00   1
  11  -7   7   82.39   10.20   1
 -11   7   7   81.69    8.30   1
 -11  -7   7   74.99    9.00   1
  11   7   7   85.69    6.30   1
 -11  -7   7   74.79    8.80   1
  12  -7   7   -0.50    7.70   1
 -12   7   7    7.90    6.60   1
 -12   7   7    4.50    5.70   1
 -12  -7   7    6.20    5.80   1
  12   7   7    0.70    3.20   1
   0  -8   7  250.37   11.50   1
   0   8   7  253.57   11.00   1
   0   8   7  265.27   12.10   1
   0  -8   7  268.67   11.30   1
  -1   8   7   -2.50    3.40   1
   1  -8   7   -1.40    3.10   1
   1  -8   7    3.80    3.50   1
  -1   8   7   -0.50    3.20   1
   1   8   7    3.00    3.80   1
   1   8   7    0.40    2.80   1
  -1  -8   7    3.20    2.90   1
  -1  -8   7   -0.90    3.20   1
  -1  -8   7    2.20    3.30   1
  -1  -8   7   -2.60    2.90   1
   2  -8   7 1347.27   42.60   1
  -2   8   7 1359.06   42.00   1
   2  -8   7 1315.87   42.40   1
  -2   8   7 1338.27   42.80   1
  -2  -8   7 1368.56   42.60   1
   2   8   7 1280.57   41.00   1
  -2  -8   7 1374.36   41.90   1
  -2  -8   7 1312.57   42.30   1
   2   8   7 1388.66   42.50   1
  -3   8   7   11.30    3.80   1
   3  -8   7    7.30    4.00   1
   3  -8   7    9.90    4.30   1
  -3   8   7   14.00    4.40   1
   3   8   7    8.70    3.00   1
  -3  -8   7    8.40    3.70   1
   3   8   7    5.90    3.70   1
  -3  -8   7   12.60    4.30   1
  -3  -8   7   10.30    3.70   1
   4  -8   7 1226.98   41.70   1
  -4   8   7 1323.77   40.90   1
  -4   8   7 1230.78   41.30   1
  -4  -8   7 1326.07   40.80   1
   4   8   7 1276.57   39.20   1
  -4  -8   7 1321.77   41.50   1
  -4  -8   7 1287.67   41.00   1
  -5   8   7    4.90    4.10   1
  -5   8   7    1.90    4.20   1
   5  -8   7    4.70    5.00   1
  -5  -8   7    0.60    3.80   1
  -5  -8   7    6.00    4.00   1
   5   8   7    1.20    2.40   1
  -5  -8   7   -5.20    3.90   1
  -6   8   7  157.48   10.10   1
   6  -8   7  168.48   11.10   1
  -6   8   7  167.68    9.90   1
   6   8   7  177.68    7.60   1
  -6  -8   7  159.98   10.20   1
  -6  -8   7  173.58    9.80   1
  -6  -8   7  142.89   10.30   1
  -7   8   7    1.00    4.50   1
   7  -8   7    4.30    5.80   1
  -7   8   7    7.00    4.40   1
   7   8   7    1.30    2.30   1
  -7  -8   7   -0.90    5.20   1
  -7  -8   7    8.70    4.70   1
   7   8   7    0.60    4.80   1
   8  -8   7  763.52   29.90   1
  -8   8   7  811.82   28.70   1
  -8   8   7  832.52   27.90   1
   8   8   7  797.42   28.50   1
   8   8   7  812.32   25.10   1
  -8  -8   7  801.82   28.20   1
  -8  -8   7  797.82   28.80   1
   9  -8   7   22.70    7.20   1
  -9   8   7   15.30    5.50   1
  -9   8   7   14.50    5.50   1
  -9  -8   7    4.70    5.50   1
   9   8   7   22.80    5.80   1
   9   8   7   16.10    3.00   1
  -9  -8   7   18.30    6.00   1
  10  -8   7  762.92   29.50   1
 -10   8   7  736.23   27.70   1
 -10   8   7  767.72   27.30   1
  10   8   7  752.52   24.00   1
 -10  -8   7  768.82   27.80   1
 -10  -8   7  749.03   27.90   1
 -11   8   7   -0.70    5.70   1
  11  -8   7   -3.50    7.10   1
 -11   8   7   -2.50    6.00   1
 -11  -8   7    0.10    5.50   1
  11   8   7   -1.90    2.90   1
 -12   8   7   69.49    8.00   1
   0  -9   7    0.30    3.80   1
   0  -9   7    4.10    3.50   1
   0   9   7    2.60    4.30   1
   0   9   7    0.00    3.10   1
  -1   9   7  412.76   16.50   1
   1  -9   7  402.16   16.10   1
  -1   9   7  422.36   15.70   1
   1  -9   7  423.46   16.10   1
   1   9   7  389.86   14.90   1
   1   9   7  410.96   16.20   1
  -1  -9   7  390.16   15.90   1
  -1  -9   7  389.76   15.20   1
  -1  -9   7  431.96   15.60   1
   2  -9   7    7.50    3.90   1
  -2   9   7   18.70    4.70   1
  -2   9   7   13.80    4.00   1
   2  -9   7   14.60    4.80   1
  -2  -9   7   20.60    4.40   1
   2   9   7   13.60    3.30   1
  -2  -9   7   13.10    4.20   1
   2   9   7   16.40    4.70   1
  -3   9   7    5.70    3.80   1
   3  -9   7    4.10    4.00   1
   3  -9   7    4.00    3.80   1
  -3   9   7    5.10    4.60   1
  -3  -9   7    6.70    3.80   1
   3   9   7    6.60    2.90   1
   3   9   7    3.60    3.50   1
  -3  -9   7    7.10    3.90   1
  -4   9   7    0.90    4.30   1
   4  -9   7    7.40    4.60   1
   4  -9   7    2.90    4.40   1
  -4   9   7    4.70    3.90   1
  -4  -9   7    4.60    3.90   1
  -4  -9   7    3.90    4.60   1
  -4  -9   7   -1.50    3.80   1
   4   9   7    3.00    2.60   1
   5  -9   7  304.77   15.10   1
  -5   9   7  328.57   13.80   1
  -5   9   7  292.07   14.10   1
   5   9   7  286.67   11.30   1
  -5  -9   7  317.77   14.20   1
  -5  -9   7  328.67   13.70   1
  -6   9   7   -1.60    4.10   1
   6  -9   7   -7.70    4.60   1
  -6   9   7   -8.00    4.20   1
   6   9   7    0.40    2.40   1
  -6  -9   7    3.80    4.40   1
  -6  -9   7    1.40    4.50   1
   7  -9   7  279.87   14.90   1
  -7   9   7  284.07   14.10   1
  -7   9   7  295.67   13.00   1
  -7  -9   7  290.67   14.00   1
   7   9   7  276.87   10.50   1
  -7  -9   7  302.57   13.60   1
  -8   9   7   10.50    5.00   1
   8  -9   7   11.70    6.40   1
  -8   9   7   10.80    5.90   1
   8   9   7    9.10    2.50   1
  -8  -9   7   17.20    5.70   1
   8   9   7   12.40    5.20   1
  -8  -9   7    6.40    5.60   1
  -9   9   7   14.20    5.80   1
  -9   9   7    9.90    5.60   1
   9  -9   7    9.60    6.90   1
  -9  -9   7    6.70    5.60   1
   9   9   7    9.70    2.70   1
   9   9   7   11.00    5.80   1
 -10   9   7   -0.70    5.20   1
  10  -9   7   -5.90    7.50   1
 -10   9   7   -1.70    5.40   1
  10   9   7   -0.90    2.50   1
  10   9   7    8.70    6.30   1
 -10  -9   7   -1.30    5.70   1
 -11   9   7  163.08   12.00   1
 -11   9   7  152.18   10.90   1
  11  -9   7  160.78   13.40   1
 -11  -9   7  163.68   11.50   1
  11   9   7  184.88    7.90   1
   0 -10   7  247.48   11.30   1
   0  10   7  233.28   10.70   1
   0 -10   7  219.48   11.30   1
   0  10   7  243.38   11.90   1
  -1  10   7    8.60    3.70   1
   1 -10   7    3.50    3.80   1
  -1  10   7    8.00    4.50   1
   1 -10   7    0.90    3.70   1
   1  10   7    5.90    3.30   1
   1  10   7   10.10    4.80   1
  -1 -10   7   -0.70    3.40   1
  -1 -10   7    4.60    3.60   1
  -2  10   7   99.79    8.30   1
  -2  10   7  108.19    7.70   1
   2 -10   7   93.29    8.10   1
   2 -10   7  106.39    8.00   1
  -2 -10   7  113.29    7.60   1
   2  10   7   99.39    6.60   1
  -2 -10   7  103.09    7.70   1
   2  10   7   99.99    8.30   1
   3 -10   7   -0.40    4.10   1
  -3  10   7    1.80    3.80   1
  -3  10   7    4.50    4.50   1
  -3 -10   7    0.30    4.00   1
  -3 -10   7    1.70    4.20   1
   3  10   7   -0.10    2.60   1
   3  10   7   -1.30    3.60   1
   4 -10   7   72.69    7.60   1
  -4  10   7   61.39    6.40   1
  -4  10   7   72.29    7.30   1
  -4 -10   7   63.49    6.70   1
   4  10   7   55.29    4.60   1
  -5  10   7   14.00    4.80   1
  -5  10   7    8.70    5.00   1
   5 -10   7    8.00    5.60   1
  -5 -10   7    9.90    4.40   1
   5  10   7    6.90    2.70   1
   6 -10   7  177.48   12.00   1
  -6  10   7  168.88   11.20   1
  -6 -10   7  155.78    9.80   1
   6  10   7  158.38    7.20   1
  -7  10   7    3.80    4.90   1
   7 -10   7    0.70    5.50   1
  -7 -10   7   -1.10    4.50   1
   7  10   7    1.70    2.30   1
  -8  10   7   55.49    7.50   1
  -8  10   7   59.99    7.10   1
   8 -10   7   71.29    9.40   1
   8  10   7   68.29    4.60   1
  -8 -10   7   67.59    8.20   1
   8  10   7   64.99    8.00   1
   9 -10   7    2.60    7.20   1
  -9  10   7    0.70    5.80   1
  -9  10   7   -1.90    5.00   1
   9  10   7   -8.50    5.20   1
   9  10   7    2.00    2.40   1
  -9 -10   7    0.80    5.60   1
 -10  10   7   24.90    6.60   1
  10 -10   7   26.10    8.60   1
 -10  10   7   21.20    6.90   1
 -10 -10   7   19.60    7.00   1
  10  10   7   21.00    3.10   1
  11 -10   7   15.10    7.70   1
 -11  10   7    4.40    5.40   1
 -11  10   7    0.70    5.80   1
 -11 -10   7    2.20    6.00   1
  11  10   7    8.60    2.70   1
   0  11   7    9.50    3.80   1
   0 -11   7    7.40    4.10   1
   0  11   7   -4.10    4.50   1
   1 -11   7  833.32   27.40   1
  -1  11   7  733.33   26.50   1
  -1  11   7  783.02   28.20   1
   1  11   7  786.22   26.10   1
   1  11   7  831.42   28.00   1
  -2  11   7    8.00    4.00   1
  -2  11   7    1.70    5.10   1
   2 -11   7   -3.60    3.90   1
  -2 -11   7   10.30    4.00   1
   2  11   7   -0.80    2.90   1
   2  11   7   -1.20    4.00   1
  -3  11   7   95.09    8.50   1
  -3  11   7   93.79    7.90   1
   3 -11   7   87.99    8.10   1
   3  11   7   92.99    6.10   1
   3  11   7   98.99    8.30   1
  -3 -11   7   80.69    7.10   1
  -4  11   7    1.20    4.60   1
  -4  11   7    6.40    4.30   1
   4 -11   7    3.40    4.80   1
  -4 -11   7    2.70    4.20   1
   4  11   7    4.50    2.70   1
   5 -11   7  565.74   22.60   1
  -5  11   7  574.54   21.30   1
  -5  11   7  547.45   21.80   1
   5  11   7  574.64   18.50   1
  -5 -11   7  545.95   21.10   1
  -6  11   7    3.80    4.60   1
  -6  11   7   11.40    5.40   1
   6 -11   7    1.50    5.40   1
  -6 -11   7    9.00    4.80   1
   6  11   7    5.60    2.40   1
  -7  11   7  658.53   25.60   1
   7 -11   7  700.83   26.90   1
   7  11   7  687.43   21.40   1
  -7 -11   7  661.53   25.00   1
  -8  11   7   -2.90    5.20   1
  -8  11   7   -2.80    5.50   1
   8 -11   7   -2.20    6.20   1
   8  11   7    2.50    2.30   1
  -8 -11   7   12.00    6.00   1
   8  11   7    3.90    5.30   1
  -9  11   7   26.00    6.30   1
  -9  11   7    7.80    6.40   1
   9 -11   7   43.00    8.40   1
   9  11   7   39.10    6.80   1
  -9 -11   7   33.20    7.40   1
   9  11   7   28.00    3.10   1
 -10  11   7   -5.20    5.10   1
 -10  11   7   -0.10    5.70   1
  10 -11   7    5.50    7.00   1
 -10 -11   7   -0.40    5.80   1
  10  11   7    5.30    2.40   1
   0  12   7   11.90    4.00   1
   0  12   7   18.20    5.40   1
  -1  12   7   -1.10    3.70   1
  -1  12   7    3.80    5.30   1
   1 -12   7    6.80    4.60   1
   1  12   7    2.20    4.50   1
   1  12   7    2.00    3.30   1
  -2  12   7  413.86   18.60   1
   2 -12   7  467.05   18.20   1
  -2  12   7  427.86   17.30   1
  -2 -12   7  452.15   17.20   1
   2  12   7  438.46   17.90   1
   2  12   7  440.66   16.00   1
   3 -12   7   11.30    5.60   1
  -3  12   7   13.60    5.50   1
  -3  12   7   10.40    4.60   1
  -3 -12   7    6.70    4.70   1
   3  12   7    9.80    3.20   1
   3  12   7    9.00    5.00   1
   4 -12   7  318.37   15.10   1
  -4  12   7  298.37   15.30   1
  -4  12   7  324.37   14.50   1
   4  12   7  322.27   11.80   1
  -4 -12   7  318.97   14.30   1
  -5  12   7    4.80    4.50   1
   5 -12   7   -3.40    5.50   1
  -5  12   7    4.30    5.20   1
   5  12   7   -0.70    2.40   1
  -5 -12   7   -2.70    4.80   1
  -6  12   7   -0.50    5.10   1
   6 -12   7    3.40    5.60   1
  -6  12   7    8.90    5.10   1
   6  12   7    3.10    2.50   1
  -6 -12   7    0.60    5.00   1
   7 -12   7   -0.60    5.90   1
  -7  12   7    0.10    5.90   1
  -7 -12   7    4.30    6.00   1
   7  12   7    4.40    2.50   1
   8 -12   7  305.67   16.80   1
  -8  12   7  296.17   15.10   1
  -8 -12   7  305.67   15.00   1
   8  12   7  301.87   15.20   1
   8  12   7  307.07   10.60   1
  -9  12   7    8.00    6.30   1
   9 -12   7   10.50    7.20   1
  -9  12   7   10.10    5.70   1
  -9 -12   7   19.30    6.70   1
   9  12   7   18.90    2.60   1
   0  13   7    5.50    3.80   1
   0  13   7    5.90    5.10   1
  -1  13   7   64.49    6.40   1
  -1  13   7   54.79    7.30   1
   1 -13   7   58.39    6.80   1
   1  13   7   68.39    7.80   1
   1  13   7   52.19    5.40   1
  -2  13   7    6.30    5.50   1
  -2  13   7    1.60    4.10   1
   2 -13   7    8.00    5.00   1
  -2 -13   7   10.50    4.80   1
   2  13   7    4.20    3.30   1
   2  13   7    7.70    5.20   1
  -3  13   7   58.09    7.70   1
  -3  13   7   68.69    7.10   1
   3 -13   7   83.89    8.00   1
   3  13   7   65.89    5.30   1
  -3 -13   7   57.49    6.40   1
   3  13   7   83.09    7.70   1
   4 -13   7    5.20    5.40   1
  -4  13   7    4.20    5.40   1
  -4  13   7    3.10    4.70   1
   4  13   7    2.20    2.70   1
  -4 -13   7    7.00    5.20   1
  -5  13   7   37.50    7.50   1
  -5  13   7   32.00    6.10   1
   5 -13   7   41.70    7.30   1
  -5 -13   7   37.00    6.70   1
   5  13   7   34.10    3.70   1
   6 -13   7    2.00    5.60   1
  -6  13   7    1.50    6.10   1
  -6  13   7   -0.70    4.90   1
  -6 -13   7    0.30    5.30   1
   6  13   7    4.60    2.60   1
  -7  13   7   62.79    8.30   1
   7 -13   7   73.29    9.10   1
  -7 -13   7   69.39    8.00   1
   7  13   7   69.69    4.80   1
   8 -13   7    7.40    6.70   1
  -8  13   7    5.00    6.10   1
   8  13   7    7.90    2.40   1
   8  13   7    5.10    5.90   1
  -8 -13   7    8.40    6.60   1
  -9  13   7   58.09    7.60   1
   9 -13   7   81.89   10.50   1
  -9 -13   7   73.19    9.00   1
   9  13   7   74.49    4.20   1
   0  14   7   45.20    7.50   1
   0  14   7   35.00    5.20   1
  -1  14   7    8.70    6.10   1
  -1  14   7    3.50    4.10   1
   1  14   7   -1.90    4.90   1
   1  14   7    2.60    3.60   1
  -2  14   7  586.24   24.00   1
   2 -14   7  620.44   22.90   1
  -2  14   7  614.14   22.30   1
   2  14   7  585.94   23.20   1
   2  14   7  607.14   20.70   1
   3 -14   7   -1.40    4.50   1
  -3  14   7    6.20    5.90   1
  -3  14   7    1.40    4.50   1
  -3 -14   7    8.70    5.00   1
   3  14   7   -0.20    3.20   1
   3  14   7   -1.10    5.40   1
   4 -14   7  531.05   22.00   1
  -4  14   7  530.35   22.10   1
  -4  14   7  537.85   21.20   1
   4  14   7  571.94   18.50   1
  -4 -14   7  559.14   21.20   1
  -5  14   7    4.70    4.90   1
   5 -14   7    5.40    6.00   1
  -5  14   7    1.10    5.80   1
  -5 -14   7    6.60    5.80   1
   5  14   7   -0.30    2.60   1
  -6  14   7   31.30    7.10   1
   6 -14   7   37.30    7.70   1
  -6  14   7   44.10    6.60   1
  -6 -14   7   36.70    6.80   1
   6  14   7   36.10    3.60   1
  -7  14   7    1.30    6.20   1
   7 -14   7    1.80    6.50   1
  -7 -14   7    2.30    5.80   1
   7  14   7   -0.60    2.30   1
  -8  14   7  428.76   18.60   1
   8 -14   7  402.86   19.90   1
  -8 -14   7  420.36   18.50   1
   8  14   7  417.46   13.40   1
   0  15   7    0.90    6.40   1
   0  15   7    2.40    4.10   1
  -1  15   7  478.15   20.60   1
  -1  15   7  504.35   18.90   1
   1  15   7  474.65   17.90   1
   1  15   7  487.25   20.30   1
  -2  15   7    6.40    4.70   1
  -2  15   7    0.50    6.10   1
   2 -15   7   12.70    5.50   1
   2  15   7    8.20    5.80   1
   2  15   7   10.60    4.00   1
  -3  15   7   33.40    5.90   1
  -3  15   7   35.10    8.10   1
   3 -15   7   36.70    6.90   1
  -3 -15   7   38.20    8.60   1
   3  15   7   38.40    7.40   1
   3  15   7   29.10    4.40   1
   4 -15   7   -4.30    5.60   1
  -4  15   7   -1.40    5.90   1
  -4  15   7    4.10    5.00   1
   4  15   7   -1.80    2.90   1
  -4 -15   7    5.80    5.80   1
  -5  15   7  429.26   19.60   1
   5 -15   7  464.05   20.10   1
  -5  15   7  464.95   18.90   1
   5  15   7  456.65   15.40   1
  -5 -15   7  453.05   18.90   1
   6 -15   7   11.70    7.00   1
  -6  15   7    9.10    5.30   1
  -6  15   7    4.20    6.20   1
   6  15   7    8.60    2.70   1
  -6 -15   7   -1.60    5.30   1
  -7  15   7  318.77   16.40   1
   7 -15   7  365.86   17.50   1
   7  15   7  358.76   11.90   1
  -7 -15   7  351.36   16.10   1
   0  16   7   93.19    7.50   1
   0  16   7   97.29   10.00   1
  -1  16   7    6.80    6.80   1
  -1  16   7   11.00    4.80   1
   1  16   7    8.70    4.20   1
   1  16   7   17.50    6.90   1
  -2  16   7    5.80    4.80   1
  -2  16   7    7.40    7.10   1
   2  16   7    1.20    6.30   1
   2  16   7   10.70    4.00   1
  -3  16   7    0.00    6.90   1
  -3  16   7    0.10    4.80   1
   3 -16   7    3.30    5.50   1
   3  16   7    2.20    3.40   1
   3  16   7   -5.70    5.80   1
  -4  16   7   16.20    6.80   1
   4 -16   7   18.90    6.40   1
  -4  16   7   16.70    5.70   1
   4  16   7   17.50    3.60   1
  -4 -16   7   16.10    5.80   1
  -5  16   7    5.60    6.40   1
   5 -16   7   11.20    6.40   1
  -5  16   7    8.50    5.30   1
   5  16   7   10.90    3.00   1
  -5 -16   7    6.60    5.90   1
   0  17   7   12.70    4.70   1
   0  17   7    3.50    6.40   1
  -1  17   7  228.78   11.80   1
  -1  17   7  201.08   14.10   1
   1  17   7  228.48   10.90   1
   1  17   7  215.68   13.70   1
  -2  17   7    6.10    7.10   1
  -2  17   7    2.20    4.70   1
   2  17   7   -1.10    6.00   1
   2  17   7    7.10    4.00   1
  -3  17   7   -1.00    6.30   1
  -3  17   7    2.40    5.00   1
   3  17   7    4.80    6.00   1
   3  17   7    6.30    3.70   1
   0   0   8 1077.39   35.50   1
   0   0   8 1098.49   34.90   1
   0   0   8 1078.59   34.50   1
   1   0   8    0.80    4.10   1
   1   0   8    1.30    3.50   1
  -1   0   8   -1.40    3.40   1
  -1   0   8    4.10    3.40   1
  -1   0   8    2.00    3.40   1
   2   0   8    4.90    3.80   1
  -2   0   8    6.70    3.80   1
  -2   0   8    7.40    3.60   1
   2   0   8   10.30    4.50   1
  -2   0   8    5.30    3.60   1
   3   0   8    1.00    4.30   1
  -3   0   8    2.00    3.60   1
  -3   0   8    0.40    3.00   1
   3   0   8    0.10    3.50   1
   4   0   8   13.00    4.90   1
   4   0   8    5.80    3.80   1
  -4   0   8    4.40    3.80   1
  -5   0   8   -2.20    3.90   1
   5   0   8    1.10    3.70   1
   5   0   8   -2.50    4.60   1
   6   0   8  802.62   26.50   1
  -6   0   8  755.92   27.50   1
   6   0   8  781.02   28.70   1
  -7   0   8   -0.60    4.50   1
   7   0   8    2.10    5.30   1
   7   0   8   -1.40    3.60   1
  -8   0   8    0.70    4.40   1
   8   0   8    3.90    5.70   1
   8   0   8    3.20    4.00   1
  -8   0   8   10.50    5.70   1
   9   0   8    1.00    6.50   1
   9   0   8    2.50    4.10   1
  -9   0   8   -0.10    5.20   1
  -9   0   8    1.70    5.10   1
  10   0   8    6.10    6.50   1
 -10   0   8   -4.70    6.00   1
 -10   0   8   -2.40    5.20   1
  10   0   8    1.30    4.40   1
  11   0   8    4.30    6.80   1
 -11   0   8    5.20    5.90   1
  11   0   8   -1.00    4.40   1
 -11   0   8   -2.80    6.00   1
 -12   0   8  416.56   17.70   1
  12   0   8  409.56   19.20   1
 -12   0   8  375.26   18.50   1
  12   0   8  422.96   16.90   1
   0   1   8  218.98   10.30   1
   0  -1   8  253.17   11.60   1
   0   1   8  220.08   11.30   1
   0  -1   8  222.68    9.60   1
   0   1   8  216.98   10.70   1
   0  -1   8  226.08   10.60   1
   0  -1   8  228.98   10.40   1
   1  -1   8   33.70    5.50   1
   1  -1   8   31.10    4.70   1
  -1   1   8   28.40    4.50   1
  -1   1   8   19.10    4.20   1
  -1   1   8   30.30    5.00   1
   1   1   8   29.00    4.10   1
  -1  -1   8   27.40    4.60   1
  -1  -1   8   30.40    4.70   1
   1   1   8   37.90    5.70   1
  -1  -1   8   26.00    4.40   1
   1   1   8   20.70    4.30   1
   2  -1   8  305.67   14.10   1
  -2   1   8  315.57   13.60   1
  -2   1   8  304.07   13.30   1
   2  -1   8  337.07   13.50   1
  -2   1   8  337.57   13.40   1
   2   1   8  307.37   14.40   1
  -2  -1   8  318.37   13.10   1
  -2  -1   8  323.67   13.20   1
   2   1   8  317.87   13.20   1
  -2  -1   8  316.97   13.10   1
   3  -1   8 1107.39   34.40   1
  -3   1   8 1069.19   34.40   1
  -3   1   8 1031.00   34.00   1
   3  -1   8 1054.19   35.50   1
  -3   1   8 1063.09   34.20   1
   3   1   8 1056.19   34.00   1
  -3  -1   8 1031.10   34.30   1
   3   1   8 1046.70   35.70   1
  -3  -1   8 1045.70   33.60   1
   4  -1   8  206.48   11.70   1
  -4   1   8  229.88   11.00   1
   4  -1   8  220.78   10.80   1
  -4   1   8  191.38    9.90   1
   4   1   8  211.18   12.10   1
   4   1   8  211.38   10.40   1
  -4  -1   8  213.18   10.70   1
   5  -1   8   17.10    5.60   1
   5  -1   8   21.80    4.60   1
  -5   1   8   25.30    5.40   1
  -5  -1   8   19.50    4.90   1
   5   1   8   16.00    5.70   1
   5   1   8   26.60    4.60   1
  -6   1   8  182.58   10.60   1
   6  -1   8  198.28   10.40   1
   6  -1   8  172.18   11.60   1
  -6  -1   8  183.48   10.10   1
  -6  -1   8  189.98   10.80   1
   6   1   8  190.98    9.80   1
   6   1   8  173.18   11.60   1
   7  -1   8   16.40    5.90   1
  -7   1   8    8.70    5.00   1
   7  -1   8    8.90    4.30   1
   7   1   8    7.60    4.00   1
   7   1   8    0.60    5.30   1
  -7  -1   8    9.40    5.00   1
  -7  -1   8   11.60    4.90   1
   8  -1   8  201.08   10.70   1
   8  -1   8  171.98   12.20   1
  -8   1   8  192.88   12.00   1
  -8  -1   8  173.98   10.60   1
   8   1   8  197.58   10.10   1
  -8  -1   8  190.58   12.10   1
   8   1   8  174.38   11.90   1
   9  -1   8  585.24   24.10   1
  -9   1   8  616.74   23.40   1
  -9   1   8  572.34   22.50   1
   9  -1   8  617.14   22.00   1
   9   1   8  600.64   21.40   1
  -9  -1   8  586.64   23.10   1
   9   1   8  552.64   23.50   1
  -9  -1   8  602.74   22.60   1
  10  -1   8   84.49    9.70   1
 -10   1   8   90.79    9.10   1
 -10   1   8   80.89    9.20   1
  10  -1   8   77.29    7.40   1
 -10  -1   8   92.39    8.90   1
  10   1   8   94.99    8.10   1
 -10  -1   8   93.29    9.30   1
  10   1   8   97.59   10.20   1
  11  -1   8    6.60    4.90   1
 -11   1   8    8.40    6.00   1
 -11   1   8   10.70    5.70   1
  11  -1   8   18.70    7.60   1
  11   1   8    5.20    6.40   1
 -11  -1   8    1.00    5.80   1
 -11  -1   8    9.70    6.40   1
  11   1   8   14.40    4.80   1
 -12   1   8  134.09   10.60   1
  12  -1   8  113.29   11.20   1
  12  -1   8  129.69    9.80   1
 -12   1   8  115.89   10.10   1
  12   1   8  124.39   11.10   1
 -12  -1   8  111.79    9.70   1
 -12  -1   8  105.79   10.00   1
  12   1   8  125.09    9.20   1
   0  -2   8 1354.86   41.50   1
   0   2   8 1326.57   41.60   1
   0  -2   8 1322.87   41.20   1
   0  -2   8 1288.87   40.80   1
   0   2   8 1294.67   41.20   1
   0  -2   8 1329.37   41.80   1
   1  -2   8  127.99    7.40   1
  -1   2   8  130.59    7.80   1
   1  -2   8  135.79    8.30   1
  -1   2   8  139.99    8.50   1
   1  -2   8  121.59    8.30   1
   1   2   8  144.29    9.50   1
   1   2   8  136.29    7.40   1
  -1  -2   8  132.09    8.20   1
  -1  -2   8  136.79    7.60   1
  -1  -2   8  133.99    7.80   1
   1   2   8  129.69    8.20   1
  -1  -2   8  142.59    8.30   1
   2  -2   8  103.09    7.60   1
  -2   2   8  103.69    7.60   1
  -2   2   8  110.69    7.80   1
   2  -2   8  113.89    8.20   1
   2   2   8  109.79    7.60   1
  -2  -2   8   93.29    7.50   1
   2   2   8  103.39    8.70   1
  -2  -2   8  100.39    6.90   1
  -3   2   8   53.49    5.80   1
   3  -2   8   34.00    5.80   1
   3  -2   8   39.00    5.20   1
  -3   2   8   44.30    5.50   1
   3   2   8   34.40    4.80   1
   3   2   8   42.70    6.80   1
  -3  -2   8   42.40    5.30   1
  -4   2   8   83.19    7.30   1
   4  -2   8   90.29    8.20   1
   4  -2   8   89.19    7.40   1
  -4  -2   8  102.29    8.10   1
   4   2   8   72.39    8.00   1
   4   2   8   88.79    7.00   1
  -4  -2   8   87.99    6.80   1
   5  -2   8  159.58    9.20   1
   5  -2   8  148.09   10.30   1
  -5   2   8  146.09    9.40   1
  -5  -2   8  149.88    8.90   1
  -5  -2   8  159.28    9.50   1
   5   2   8  134.89   10.30   1
   5   2   8  153.48    8.80   1
   6  -2   8  967.40   31.70   1
   6  -2   8  947.61   33.50   1
  -6   2   8  954.60   32.50   1
   6   2   8  936.01   31.00   1
  -6  -2   8  953.20   32.60   1
  -6  -2   8  976.10   31.90   1
   6   2   8  946.31   33.60   1
   7  -2   8   33.10    6.90   1
   7  -2   8   46.70    6.00   1
  -7   2   8   45.40    6.40   1
   7   2   8   30.60    6.60   1
   7   2   8   37.80    5.10   1
  -7  -2   8   41.40    6.60   1
  -7  -2   8   45.10    6.10   1
   8  -2   8   50.89    8.00   1
  -8   2   8   53.89    7.20   1
   8  -2   8   59.09    6.50   1
   8   2   8   63.29    6.00   1
  -8  -2   8   59.59    7.30   1
   8   2   8   77.39    8.80   1
  -8  -2   8   60.49    7.40   1
  -9   2   8   50.29    7.40   1
   9  -2   8   60.69    6.90   1
   9  -2   8   60.29    8.70   1
   9   2   8   60.99    8.20   1
  -9  -2   8   46.80    7.10   1
  -9  -2   8   68.09    8.20   1
   9   2   8   54.29    5.90   1
  10  -2   8   46.10    6.40   1
 -10   2   8   48.50    7.60   1
  10  -2   8   40.60    8.00   1
 -10   2   8   34.50    6.60   1
 -10  -2   8   41.70    7.10   1
  10   2   8   33.70    5.40   1
  10   2   8   42.90    7.70   1
 -10  -2   8   26.80    7.00   1
  11  -2   8   66.49    9.40   1
  11  -2   8   70.09    7.40   1
 -11   2   8   51.09    8.20   1
 -11   2   8   65.99    8.10   1
 -11  -2   8   63.49    8.60   1
  11   2   8   55.09    8.50   1
 -11  -2   8   58.79    8.30   1
  11   2   8   66.49    6.50   1
 -12   2   8  455.65   20.00   1
  12  -2   8  475.95   20.90   1
  12  -2   8  475.05   19.00   1
  12   2   8  420.66   19.80   1
 -12  -2   8  497.15   20.70   1
  12   2   8  448.66   17.70   1
 -12  -2   8  477.25   19.40   1
   0   3   8   87.89    7.20   1
   0   3   8   92.49    6.60   1
   0  -3   8   88.39    7.40   1
   0  -3   8   98.49    6.90   1
   0  -3   8   99.99    7.00   1
   0  -3   8   94.59    6.40   1
   0  -3   8   93.79    6.40   1
   1  -3   8    6.30    3.20   1
  -1   3   8   11.80    4.20   1
  -1   3   8   13.60    3.90   1
   1  -3   8   10.10    3.70   1
   1  -3   8   11.60    4.20   1
  -1  -3   8    4.30    3.40   1
   1   3   8    6.60    3.70   1
   1   3   8    9.40    3.70   1
  -1  -3   8   15.30    3.80   1
  -1  -3   8    9.80    3.60   1
  -1  -3   8   12.40    4.00   1
   2  -3   8   25.70    4.70   1
  -2   3   8   16.00    4.20   1
  -2   3   8   11.10    4.20   1
   2  -3   8   17.10    4.60   1
  -2  -3   8   17.80    3.90   1
  -2  -3   8   21.40    4.30   1
  -2  -3   8   19.50    3.80   1
  -2  -3   8   13.90    4.10   1
   2   3   8   12.30    4.00   1
  -3   3   8  544.95   20.00   1
   3  -3   8  594.44   20.20   1
   3  -3   8  554.94   21.00   1
  -3   3   8  549.65   20.00   1
  -3  -3   8  508.45   19.10   1
   3   3   8  508.15   21.50   1
  -3  -3   8  540.05   20.00   1
   3   3   8  542.25   19.40   1
  -4   3   8   53.79    6.20   1
  -4   3   8   54.99    5.90   1
   4  -3   8   56.29    5.90   1
   4  -3   8   54.79    6.80   1
  -4  -3   8   48.90    5.80   1
  -4  -3   8   54.79    6.10   1
   4   3   8   54.39    7.40   1
   4   3   8   45.50    5.30   1
   5  -3   8    3.80    4.10   1
  -5   3   8    6.20    4.50   1
   5  -3   8    2.70    4.80   1
   5   3   8    2.50    3.40   1
   5   3   8    5.10    5.10   1
  -5  -3   8    8.60    4.40   1
  -5  -3   8    5.60    4.50   1
   6  -3   8   44.70    6.90   1
   6  -3   8   62.59    6.50   1
  -6   3   8   39.70    6.20   1
   6   3   8   39.80    5.00   1
   6   3   8   38.50    6.80   1
  -6  -3   8   40.90    5.90   1
  -6  -3   8   45.20    6.40   1
   7  -3   8    4.10    5.60   1
   7  -3   8    4.10    4.50   1
  -7   3   8   11.10    5.70   1
  -7  -3   8   10.90    5.50   1
   7   3   8   -2.70    5.00   1
  -7  -3   8    4.30    4.50   1
   7   3   8    5.90    3.60   1
   8  -3   8    9.50    4.90   1
  -8   3   8    7.30    5.30   1
   8  -3   8    7.80    5.80   1
   8   3   8    8.20    3.70   1
  -8  -3   8    0.70    4.70   1
   8   3   8    7.70    5.90   1
  -8  -3   8    1.20    5.10   1
   9  -3   8  322.17   14.80   1
   9  -3   8  319.77   16.50   1
  -9   3   8  305.87   15.10   1
  -9  -3   8  318.07   14.90   1
  -9  -3   8  306.97   15.40   1
   9   3   8  307.27   13.10   1
   9   3   8  310.17   16.30   1
  10  -3   8   60.99    9.20   1
  10  -3   8   51.29    6.90   1
 -10   3   8   50.49    7.20   1
 -10   3   8   53.09    7.90   1
 -10  -3   8   57.89    8.10   1
 -10  -3   8   63.09    8.20   1
  10   3   8   59.49    6.10   1
  10   3   8   54.39    8.60   1
  11  -3   8   -1.30    4.90   1
 -11   3   8    7.10    6.00   1
  11  -3   8    0.50    7.40   1
 -11   3   8    6.20    6.00   1
 -11  -3   8    0.00    6.10   1
 -11  -3   8    2.80    6.50   1
  11   3   8    0.90    4.00   1
  11   3   8    1.80    6.00   1
   0   4   8  517.05   18.90   1
   0   4   8  527.95   19.30   1
   0  -4   8  528.05   19.00   1
   0  -4   8  527.25   18.90   1
   0  -4   8  539.55   19.40   1
   1  -4   8  138.79    8.30   1
   1  -4   8  133.29    8.30   1
   1  -4   8  146.19    8.50   1
  -1   4   8  136.79    8.50   1
  -1   4   8  139.29    8.70   1
  -1  -4   8  135.99    8.00   1
   1   4   8  136.09    8.20   1
  -1  -4   8  132.99    8.10   1
  -1  -4   8  129.49    7.30   1
  -1  -4   8  123.19    7.80   1
   1   4   8  133.19    7.90   1
   2  -4   8   23.50    5.10   1
  -2   4   8   21.40    4.80   1
  -2   4   8   19.40    4.60   1
   2  -4   8   16.70    4.00   1
   2  -4   8   21.40    4.50   1
  -2  -4   8   24.60    4.10   1
   2   4   8   17.50    4.20   1
  -2  -4   8   28.70    5.00   1
  -2  -4   8   17.50    4.20   1
  -2  -4   8   18.30    3.90   1
  -3   4   8  259.07   11.90   1
   3  -4   8  229.48   12.30   1
  -3   4   8  257.97   11.70   1
   3  -4   8  247.28   11.60   1
  -3  -4   8  228.58   10.70   1
   3   4   8  224.58   10.80   1
  -3  -4   8  240.98   11.40   1
  -3  -4   8  223.88   10.50   1
  -4   4   8   15.30    4.60   1
   4  -4   8   17.60    4.50   1
  -4   4   8   17.60    4.70   1
   4  -4   8   26.00    5.70   1
  -4  -4   8   16.40    4.60   1
   4   4   8   17.00    4.00   1
  -4  -4   8   15.40    4.50   1
   4   4   8   23.90    5.80   1
   5  -4   8   61.09    7.60   1
  -5   4   8   67.29    7.00   1
   5  -4   8   73.79    7.00   1
  -5  -4   8   69.79    6.90   1
   5   4   8   77.09    8.40   1
   5   4   8   75.39    6.40   1
  -5  -4   8   72.89    7.20   1
  -6   4   8  355.86   16.00   1
   6  -4   8  376.76   15.90   1
   6  -4   8  386.06   17.30   1
  -6  -4   8  366.26   15.40   1
  -6  -4   8  357.56   15.90   1
   6   4   8  395.96   14.50   1
   6   4   8  358.86   16.90   1
  -7   4   8  142.69   10.10   1
   7  -4   8  155.08   10.10   1
   7  -4   8  164.58   11.30   1
  -7  -4   8  141.59    9.50   1
   7   4   8  133.19    8.10   1
   7   4   8  151.78   11.50   1
  -7  -4   8  149.59   10.20   1
  -8   4   8   15.00    6.00   1
   8  -4   8    9.00    5.20   1
   8  -4   8   13.60    6.30   1
  -8  -4   8   18.70    5.50   1
  -8  -4   8   12.70    6.10   1
   8   4   8   13.80    3.80   1
   8   4   8    6.80    5.40   1
   9  -4   8   79.89    9.70   1
  -9   4   8   85.39    8.80   1
   9  -4   8   99.89    8.70   1
   9   4   8   87.59    7.10   1
   9   4   8   93.79    9.70   1
  -9  -4   8   87.79    9.00   1
  -9  -4   8   96.49    8.80   1
 -10   4   8   10.10    6.50   1
  10  -4   8    8.00    7.30   1
  10  -4   8   10.10    5.20   1
  10   4   8    9.90    6.70   1
 -10  -4   8   20.60    6.80   1
  10   4   8   10.80    4.20   1
 -10  -4   8    8.60    6.00   1
 -11   4   8   47.00    7.20   1
 -11   4   8   38.20    7.40   1
  11  -4   8   47.50    9.00   1
  11  -4   8   50.09    7.20   1
 -11  -4   8   38.20    8.00   1
  11   4   8   46.40    5.60   1
 -11  -4   8   30.60    7.00   1
  11   4   8   43.20    7.90   1
   0   5   8   45.60    5.40   1
   0  -5   8   44.80    5.50   1
   0  -5   8   40.00    5.40   1
   0   5   8   45.50    5.50   1
   0  -5   8   32.60    4.70   1
  -1   5   8  218.78   10.60   1
   1  -5   8  205.08   10.70   1
  -1   5   8  202.18   10.20   1
   1  -5   8  197.88    9.90   1
  -1  -5   8  200.08    9.30   1
   1   5   8  195.38   10.20   1
   1   5   8  193.78   10.00   1
  -1  -5   8  213.08   10.00   1
  -1  -5   8  188.98    9.80   1
  -1  -5   8  219.48   10.40   1
  -2   5   8   12.00    4.20   1
  -2   5   8   11.00    4.20   1
   2  -5   8   11.90    3.90   1
   2  -5   8   14.70    4.50   1
   2   5   8    5.50    3.70   1
  -2  -5   8   12.90    4.10   1
  -2  -5   8    6.90    3.80   1
  -2  -5   8   12.00    3.80   1
   3  -5   8  929.01   31.10   1
  -3   5   8  915.71   30.60   1
  -3   5   8  889.71   30.20   1
   3  -5   8  928.21   30.20   1
  -3  -5   8  910.11   30.40   1
  -3  -5   8  923.11   30.00   1
   3   5   8  862.41   29.40   1
  -3  -5   8  886.41   29.80   1
   4  -5   8   22.70    4.80   1
   4  -5   8   26.20    5.70   1
  -4   5   8   23.10    5.00   1
  -4   5   8   19.00    5.40   1
   4   5   8   20.70    4.20   1
  -4  -5   8   14.20    4.80   1
  -4  -5   8   17.40    4.50   1
  -5   5   8  170.48   11.20   1
  -5   5   8  149.88   10.30   1
   5  -5   8  147.69   10.90   1
   5  -5   8  163.08    9.90   1
  -5  -5   8  166.28    9.80   1
   5   5   8  145.29   10.80   1
  -5  -5   8  144.19    9.70   1
   5   5   8  148.09    8.30   1
   6  -5   8   19.30    6.00   1
  -6   5   8   17.50    5.50   1
   6  -5   8   30.10    5.70   1
   6   5   8   29.80    6.50   1
   6   5   8   23.00    4.00   1
  -6  -5   8   22.80    5.60   1
  -6  -5   8   34.10    5.90   1
  -7   5   8  115.29    9.50   1
   7  -5   8  131.59    9.70   1
   7  -5   8  126.99   11.20   1
  -7  -5   8  130.99    9.20   1
  -7  -5   8  142.79   10.50   1
   7   5   8  127.39    7.60   1
   7   5   8  123.29   10.80   1
   8  -5   8   14.70    6.60   1
   8  -5   8    4.20    5.00   1
  -8   5   8   15.20    5.90   1
  -8  -5   8   13.00    6.00   1
   8   5   8    7.80    3.50   1
  -8  -5   8   10.80    5.90   1
   8   5   8    5.00    5.40   1
   9  -5   8  546.85   21.10   1
   9  -5   8  528.35   23.40   1
  -9   5   8  542.95   21.60   1
  -9  -5   8  529.45   22.20   1
   9   5   8  510.25   21.90   1
   9   5   8  526.15   18.70   1
  -9  -5   8  535.25   21.50   1
 -10   5   8   11.80    6.50   1
  10  -5   8   15.40    5.70   1
  10  -5   8   16.50    8.40   1
  10   5   8   14.70    6.50   1
  10   5   8   17.00    4.20   1
 -10  -5   8   15.20    7.10   1
 -10  -5   8   29.40    7.20   1
  11  -5   8   82.79   10.60   1
 -11   5   8   79.09    8.70   1
  11   5   8   62.59    6.00   1
 -11  -5   8   73.99    8.60   1
  11   5   8   74.49    9.00   1
 -11  -5   8   67.09    9.40   1
   0   6   8  610.84   21.90   1
   0  -6   8  580.14   21.40   1
   0   6   8  621.24   21.60   1
   0  -6   8  621.44   21.70   1
  -1   6   8  110.69    8.00   1
   1  -6   8  113.79    7.70   1
   1  -6   8   97.99    7.30   1
  -1   6   8  123.89    8.00   1
  -1  -6   8   94.89    7.00   1
  -1  -6   8   99.89    7.20   1
   1   6   8  101.09    7.60   1
  -1  -6   8   96.09    7.30   1
  -1  -6   8  110.69    7.90   1
   1   6   8  103.09    7.20   1
  -2   6   8   51.99    5.90   1
   2  -6   8   46.60    5.60   1
   2  -6   8   46.30    5.90   1
  -2   6   8   43.20    6.10   1
  -2  -6   8   48.10    5.80   1
  -2  -6   8   51.49    5.40   1
   2   6   8   44.70    5.20   1
   2   6   8   56.99    7.80   1
  -2  -6   8   57.49    6.20   1
  -3   6   8  122.09    8.50   1
   3  -6   8  104.99    7.90   1
  -3   6   8  125.99    8.70   1
   3  -6   8  126.09    8.80   1
   3   6   8  115.19    7.60   1
  -3  -6   8  115.39    7.80   1
  -3  -6   8  113.89    7.70   1
  -3  -6   8  116.89    8.70   1
  -4   6   8   54.09    6.50   1
  -4   6   8   35.30    5.70   1
   4  -6   8   42.30    6.40   1
  -4  -6   8   31.80    5.60   1
  -4  -6   8   44.20    5.50   1
   4   6   8   44.80    5.00   1
  -4  -6   8   36.40    5.30   1
  -5   6   8   93.09    7.70   1
  -5   6   8   77.79    7.80   1
   5  -6   8   83.09    8.40   1
  -5  -6   8   82.99    7.90   1
   5   6   8   88.09    8.80   1
  -5  -6   8   79.29    7.40   1
   5   6   8   78.69    6.50   1
   6  -6   8  424.66   18.90   1
  -6   6   8  429.36   18.50   1
  -6  -6   8  416.26   17.30   1
   6   6   8  450.35   16.00   1
   6   6   8  441.76   19.00   1
  -6  -6   8  459.05   18.60   1
   7  -6   8   68.39    8.80   1
  -7   6   8   67.49    7.70   1
   7   6   8   76.59    8.80   1
  -7  -6   8   80.99    8.20   1
  -7  -6   8   93.79    8.50   1
   7   6   8   73.39    6.10   1
  -8   6   8   18.20    6.40   1
   8  -6   8   14.80    6.80   1
   8   6   8   20.70    6.80   1
  -8  -6   8   17.30    6.00   1
   8   6   8   28.80    4.10   1
  -8  -6   8   21.70    6.30   1
  -9   6   8   48.60    7.70   1
   9  -6   8   60.69    9.40   1
  -9  -6   8   59.19    8.40   1
   9   6   8   74.99    8.50   1
   9   6   8   63.49    5.60   1
  -9  -6   8   63.89    8.10   1
 -10   6   8   17.90    7.00   1
  10  -6   8    8.30    8.30   1
  10   6   8   16.70    4.00   1
 -10  -6   8   19.50    6.60   1
  10   6   8    9.50    6.60   1
 -10  -6   8   16.10    7.40   1
  11  -6   8   47.40    9.80   1
 -11   6   8   50.99    7.70   1
  11   6   8   37.60    7.20   1
 -11  -6   8   48.30    8.10   1
  11   6   8   48.60    5.30   1
 -11  -6   8   54.59    7.80   1
   0  -7   8  192.38   10.50   1
   0   7   8  190.28   10.40   1
   0   7   8  195.18   10.10   1
   0  -7   8  186.28   10.00   1
  -1   7   8   31.10    5.10   1
   1  -7   8   20.90    4.60   1
   1  -7   8   16.50    4.40   1
  -1   7   8   28.70    5.20   1
   1   7   8   27.50    4.70   1
  -1  -7   8   23.20    4.90   1
  -1  -7   8   28.50    5.00   1
   1   7   8   27.60    4.70   1
  -1  -7   8   27.60    4.60   1
  -1  -7   8   26.00    5.20   1
  -2   7   8  114.99    8.50   1
  -2   7   8  132.39    8.90   1
   2  -7   8  118.59    8.40   1
   2  -7   8  115.19    8.10   1
   2   7   8  126.89    8.10   1
  -2  -7   8  129.69    9.00   1
  -2  -7   8  115.09    8.40   1
  -2  -7   8  117.89    8.00   1
   2   7   8  114.39    7.80   1
  -3   7   8  621.34   23.10   1
  -3   7   8  629.14   22.80   1
   3  -7   8  649.14   23.30   1
   3   7   8  598.84   21.60   1
  -3  -7   8  628.44   22.90   1
  -3  -7   8  638.14   22.60   1
  -3  -7   8  633.84   22.20   1
   4  -7   8  160.48   10.50   1
  -4   7   8  166.78   10.20   1
  -4   7   8  147.69   10.00   1
   4   7   8  175.18    8.70   1
  -4  -7   8  150.28    9.50   1
  -4  -7   8  150.48    9.80   1
  -4  -7   8  176.08    9.90   1
   5  -7   8   26.30    6.20   1
  -5   7   8   17.60    5.00   1
  -5   7   8   19.60    5.60   1
  -5  -7   8   29.00    5.50   1
   5   7   8   29.20    4.30   1
  -5  -7   8   23.10    5.60   1
   6  -7   8  131.99   11.00   1
  -6   7   8  121.39   10.20   1
   6   7   8  130.89   10.40   1
  -6  -7   8  131.39    8.90   1
  -6  -7   8  103.09    9.10   1
   6   7   8  119.79    7.20   1
   7  -7   8   11.80    6.20   1
  -7   7   8   20.40    6.00   1
  -7  -7   8   23.20    6.20   1
   7   7   8   21.50    6.20   1
  -7  -7   8   19.30    5.50   1
   7   7   8   17.90    3.60   1
  -8   7   8   68.89    8.30   1
   8  -7   8   65.29    9.70   1
  -8  -7   8   75.69    8.70   1
  -8  -7   8   64.39    8.40   1
   8   7   8   71.29    5.60   1
   8   7   8   74.09    8.60   1
  -9   7   8  376.66   17.60   1
   9  -7   8  395.26   19.30   1
   9   7   8  393.56   14.40   1
  -9  -7   8  387.16   18.00   1
  -9  -7   8  398.06   17.50   1
  10  -7   8  116.29   12.30   1
 -10   7   8  111.99   10.40   1
  10   7   8  125.39   10.20   1
 -10  -7   8  124.49   10.30   1
  10   7   8  118.29    7.40   1
 -10  -7   8  110.99   10.50   1
 -11   7   8    5.50    6.30   1
 -11  -7   8   14.20    6.60   1
   0  -8   8  747.03   25.70   1
   0   8   8  738.73   25.60   1
   0   8   8  758.72   26.40   1
  -1   8   8   15.00    4.50   1
   1  -8   8   17.90    5.00   1
  -1   8   8   14.20    5.10   1
  -1  -8   8   15.80    5.20   1
   1   8   8   23.40    5.10   1
   1   8   8   17.60    4.40   1
  -2   8   8   12.70    4.90   1
  -2   8   8   27.20    5.20   1
   2  -8   8   25.80    5.20   1
   2   8   8   16.50    4.70   1
   2   8   8   20.70    4.30   1
  -2  -8   8   25.60    5.10   1
  -2  -8   8   25.10    5.00   1
   3  -8   8    7.50    5.00   1
  -3   8   8    6.00    4.70   1
  -3   8   8    1.00    4.10   1
   3   8   8    1.80    3.30   1
  -3  -8   8   -0.60    4.50   1
  -3  -8   8   -0.80    4.00   1
  -4   8   8   11.90    4.70   1
   4  -8   8   10.10    5.20   1
  -4   8   8   19.00    5.50   1
   4   8   8   17.50    4.00   1
  -4  -8   8   12.60    5.30   1
  -4  -8   8   18.40    4.70   1
  -5   8   8   37.30    6.40   1
  -5   8   8   43.50    6.50   1
   5  -8   8   34.10    6.70   1
  -5  -8   8   28.40    5.40   1
  -5  -8   8   31.30    6.10   1
   5   8   8   31.70    4.30   1
  -6   8   8  562.84   22.30   1
   6  -8   8  572.24   23.10   1
  -6  -8   8  556.04   22.10   1
   6   8   8  573.64   19.50   1
  -6  -8   8  589.74   21.60   1
   6   8   8  580.04   22.90   1
  -7   8   8    4.70    5.80   1
   7  -8   8    1.70    6.00   1
  -7  -8   8    4.00    5.20   1
  -7  -8   8   -2.40    5.80   1
   7   8   8   -0.40    2.90   1
   7   8   8    0.10    5.40   1
   8  -8   8   13.40    7.00   1
  -8   8   8   12.20    6.60   1
  -8  -8   8    8.90    6.60   1
   8   8   8    7.80    6.60   1
   8   8   8   14.30    3.50   1
  -8  -8   8    2.10    5.80   1
  -9   8   8   -2.20    6.10   1
   9  -8   8    3.20    7.10   1
   9   8   8    7.20    3.30   1
  -9  -8   8    7.40    6.60   1
  -9  -8   8    8.20    6.70   1
   9   8   8    4.50    5.80   1
 -10   8   8   -2.10    5.70   1
  10  -8   8   13.50    8.30   1
  10   8   8    8.90    3.40   1
  10   8   8   16.00    6.60   1
 -10  -8   8    5.80    6.40   1
 -10  -8   8    2.10    6.00   1
   0   9   8  126.49    9.40   1
   0  -9   8  120.69    8.50   1
   0   9   8  126.39    8.60   1
   1  -9   8   17.10    5.30   1
  -1   9   8   14.20    4.50   1
  -1   9   8   18.50    5.50   1
   1   9   8   16.50    4.30   1
   1   9   8   19.00    5.20   1
  -2   9   8  247.18   12.30   1
  -2   9   8  252.97   12.90   1
   2  -9   8  256.57   12.60   1
   2   9   8  262.47   12.50   1
   2   9   8  239.18   11.50   1
  -2  -9   8  281.87   12.10   1
  -3   9   8  751.92   26.30   1
   3  -9   8  700.73   26.60   1
  -3   9   8  755.42   26.90   1
   3   9   8  733.93   24.70   1
  -3  -9   8  767.62   25.60   1
   4  -9   8  173.28   10.90   1
  -4   9   8  155.68   10.60   1
  -4   9   8  157.18   10.20   1
  -4  -9   8  150.68    9.30   1
   4   9   8  152.78    8.40   1
  -5   9   8   18.00    6.20   1
  -5   9   8   10.00    5.10   1
   5  -9   8   15.80    5.90   1
   5   9   8   16.70    3.70   1
  -5  -9   8   16.60    4.90   1
  -5  -9   8    3.40    5.00   1
   6  -9   8  133.29   10.80   1
  -6   9   8  125.49   10.30   1
   6   9   8  135.19    7.50   1
  -6  -9   8  130.99   10.20   1
  -6  -9   8  149.09    9.80   1
  -7   9   8   -1.30    5.50   1
   7  -9   8    3.30    6.20   1
   7   9   8    7.30    3.30   1
   7   9   8   19.60    6.50   1
  -7  -9   8    8.10    5.90   1
  -7  -9   8    2.70    5.90   1
   8  -9   8  177.48   13.30   1
  -8   9   8  215.18   12.80   1
   8   9   8  183.38   12.20   1
  -8  -9   8  210.18   12.90   1
   8   9   8  197.18    8.90   1
   9  -9   8  488.95   22.10   1
   9   9   8  477.95   20.50   1
  -9  -9   8  494.05   20.20   1
   9   9   8  485.05   16.60   1
 -10   9   8   63.19    8.30   1
  10  -9   8   71.99   10.90   1
  10   9   8   66.99    5.10   1
  10   9   8   58.39    8.20   1
 -10  -9   8   64.89    8.70   1
   0  10   8  750.32   26.20   1
   0  10   8  783.42   27.60   1
  -1  10   8   50.59    6.10   1
   1 -10   8   41.20    6.00   1
  -1  10   8   44.10    6.60   1
   1  10   8   42.10    5.30   1
   1  10   8   35.30    6.30   1
   2 -10   8   25.80    5.90   1
  -2  10   8   23.40    5.10   1
  -2  10   8   17.70    5.90   1
   2  10   8   24.40    5.50   1
  -2 -10   8   24.90    7.40   1
   2  10   8   24.60    4.40   1
  -3  10   8   16.40    5.90   1
   3 -10   8    8.10    5.00   1
  -3  10   8   10.80    4.90   1
   3  10   8   12.00    3.80   1
  -3 -10   8   22.80    5.10   1
  -4  10   8   16.70    6.30   1
  -4  10   8   17.20    5.40   1
   4 -10   8   24.30    6.00   1
  -4 -10   8   16.40    5.20   1
   4  10   8   27.20    4.20   1
   5 -10   8   55.89    8.20   1
  -5  10   8   60.89    7.20   1
  -5  10   8   66.79    8.40   1
  -5 -10   8   59.79    7.00   1
   5  10   8   67.39    5.40   1
  -6  10   8  638.64   25.20   1
   6 -10   8  665.63   26.20   1
  -6 -10   8  668.23   24.40   1
   6  10   8  675.23   21.90   1
   7 -10   8    9.80    6.70   1
  -7  10   8    9.30    6.50   1
   7  10   8   14.50    6.40   1
  -7 -10   8   28.60    6.90   1
   7  10   8   11.10    3.30   1
  -8  10   8    7.70    6.50   1
   8 -10   8   26.30    8.40   1
   8  10   8   17.80    3.30   1
  -8 -10   8    7.00    5.90   1
   8  10   8    9.10    6.10   1
   9 -10   8   15.30    8.30   1
  -9  10   8   25.10    6.80   1
  -9 -10   8   16.30    7.10   1
   9  10   8   22.60    3.50   1
   9  10   8   18.80    6.40   1
   0  11   8   53.99    6.20   1
   0  11   8   53.99    7.30   1
  -1  11   8   26.40    6.40   1
   1 -11   8   31.70    5.60   1
  -1  11   8   17.70    4.90   1
   1  11   8   24.10    6.00   1
   1  11   8   28.00    5.00   1
  -2  11   8   28.00    5.40   1
  -2  11   8   25.80    6.10   1
   2 -11   8   25.90    6.00   1
   2  11   8   29.00    4.60   1
   2  11   8   25.40    5.80   1
   3 -11   8  626.34   23.70   1
  -3  11   8  624.54   23.40   1
  -3  11   8  614.34   24.10   1
  -3 -11   8  632.44   22.60   1
   3  11   8  639.04   21.70   1
  -4  11   8   33.40    7.30   1
   4 -11   8   32.30    6.40   1
  -4  11   8   39.10    6.40   1
  -4 -11   8   29.70    6.10   1
   4  11   8   27.60    4.30   1
  -5  11   8   26.90    5.90   1
   5 -11   8   20.70    7.00   1
  -5  11   8   24.80    6.80   1
   5  11   8   19.60    4.00   1
  -5 -11   8   27.70    6.00   1
  -6  11   8   43.80    8.10   1
   6 -11   8   40.30    7.90   1
  -6 -11   8   49.20    7.20   1
   6  11   8   39.40    4.40   1
  -7  11   8   13.20    6.90   1
   7 -11   8    8.60    7.20   1
   7  11   8   13.40    6.30   1
  -7 -11   8   -2.50    5.60   1
   7  11   8   16.30    3.30   1
   8 -11   8   15.50    7.30   1
  -8  11   8   13.50    6.90   1
   8  11   8   20.60    3.30   1
  -8 -11   8   23.10    6.70   1
   8  11   8   22.40    7.10   1
   0  12   8  573.84   22.70   1
   0  12   8  567.94   21.00   1
  -1  12   8  125.19    9.00   1
  -1  12   8  109.09   10.00   1
   1  12   8  107.99    8.30   1
   1  12   8  108.69    9.50   1
   2 -12   8   37.70    6.50   1
  -2  12   8   35.80    5.90   1
  -2  12   8   41.20    7.20   1
   2  12   8   38.10    7.00   1
   2  12   8   35.20    4.90   1
  -3  12   8   77.49    7.90   1
   3 -12   8   86.89    8.90   1
  -3  12   8   89.29    9.20   1
   3  12   8   90.89    7.10   1
  -4  12   8   43.80    6.80   1
  -4  12   8   29.40    7.60   1
   4 -12   8   35.60    7.00   1
   4  12   8   35.90    4.60   1
  -4 -12   8   38.10    6.50   1
   5 -12   8  105.49   10.30   1
  -5  12   8  120.49   10.60   1
  -5  12   8  103.99    9.10   1
   5  12   8  111.49    7.00   1
  -5 -12   8  100.99    8.70   1
   6 -12   8  473.25   20.50   1
  -6  12   8  443.06   20.50   1
   6  12   8  483.05   16.30   1
  -6 -12   8  466.45   19.10   1
  -7  12   8   67.79    9.30   1
   7 -12   8   87.29    9.70   1
  -7 -12   8   76.79    8.50   1
   7  12   8   84.99    9.50   1
   7  12   8   78.59    5.60   1
  -8  12   8   32.80    7.20   1
   8 -12   8   21.80    7.90   1
   8  12   8   34.20    7.20   1
   8  12   8   24.80    3.30   1
  -8 -12   8   27.80    7.30   1
   0  13   8   -0.10    6.30   1
   0  13   8    2.10    4.30   1
  -1  13   8   12.50    6.40   1
  -1  13   8   13.70    5.00   1
   1  13   8    9.50    6.60   1
   1  13   8    9.30    4.40   1
  -2  13   8    9.80    5.10   1
   2 -13   8   19.30    5.70   1
  -2  13   8   19.20    7.30   1
   2  13   8   17.90    4.50   1
   2  13   8    9.00    6.10   1
   3 -13   8  255.27   13.70   1
  -3  13   8  262.57   15.50   1
  -3  13   8  285.97   13.80   1
   3  13   8  259.07   11.40   1
  -4  13   8   -7.20    5.80   1
  -4  13   8    7.80    5.40   1
   4 -13   8    2.40    5.70   1
   4  13   8    2.00    3.50   1
  -4 -13   8    2.90    5.70   1
  -5  13   8    9.20    6.30   1
  -5  13   8   12.00    5.70   1
   5 -13   8    7.80    6.10   1
  -5 -13   8    7.10    6.00   1
   5  13   8   10.00    3.50   1
   6 -13   8    5.30    5.90   1
  -6  13   8    9.80    6.60   1
  -6 -13   8   11.50    5.90   1
   6  13   8    6.60    3.20   1
   7 -13   8   13.20    7.00   1
  -7  13   8   -1.00    6.10   1
  -7 -13   8    3.00    5.70   1
   7  13   8    4.50    5.80   1
   7  13   8    5.40    2.90   1
   0  14   8  393.06   16.20   1
   0  14   8  392.16   18.10   1
  -1  14   8   44.80    8.40   1
  -1  14   8   46.10    6.40   1
   1  14   8   55.89    6.10   1
   1  14   8   40.70    7.60   1
  -2  14   8   69.19    7.50   1
  -2  14   8   48.40    8.30   1
   2  14   8   66.49    6.20   1
   2  14   8   62.89    8.60   1
  -3  14   8  107.89    9.20   1
  -3  14   8  120.59   10.90   1
   3 -14   8  111.49    9.70   1
   3  14   8  111.39    7.70   1
  -4  14   8   62.29    7.50   1
   4 -14   8   69.69    8.60   1
  -4  14   8   54.19    8.50   1
   4  14   8   66.89    5.60   1
  -5  14   8   32.30    7.40   1
  -5  14   8   32.40    6.50   1
   5 -14   8   35.80    7.50   1
  -5 -14   8   20.80    6.60   1
   5  14   8   25.00    3.80   1
  -6  14   8  319.57   17.00   1
   6 -14   8  316.67   16.50   1
  -6 -14   8  323.67   15.40   1
   0  15   8  111.29   10.40   1
   0  15   8  112.79    8.80   1
  -1  15   8   35.80    6.00   1
  -1  15   8   41.50    7.70   1
   1  15   8   54.89    8.40   1
   1  15   8   51.39    6.00   1
  -2  15   8   36.20    6.30   1
  -2  15   8   41.90    8.00   1
   2  15   8   39.20    5.30   1
   2  15   8   38.30    7.60   1
  -3  15   8  267.67   15.30   1
   3  15   8  289.57   12.10   1
   4 -15   8   66.09    8.50   1
  -4  15   8   77.89    9.50   1
  -4  15   8   90.49    8.60   1
   4  15   8   64.09    5.50   1
   0  16   8  239.88   11.90   1
   0  16   8  221.38   13.60   1
  -1  16   8   16.30    7.10   1
  -1  16   8   16.40    5.20   1
   1  16   8   11.00    4.60   1
   1  16   8   14.70    6.80   1
   0   0   9  130.89    9.30   1
   0   0   9  145.19    9.40   1
  -1   0   9   -1.60    3.70   1
  -1   0   9    2.90    4.00   1
  -1   0   9    0.00    3.70   1
   1   0   9   -0.80    4.30   1
   1   0   9    4.10    4.30   1
   2   0   9  707.13   26.30   1
  -2   0   9  706.33   25.20   1
   2   0   9  752.32   25.50   1
  -2   0   9  683.33   24.90   1
   3   0   9    2.20    5.00   1
  -3   0   9    2.60    4.70   1
   3   0   9   10.00    4.80   1
   4   0   9  791.22   29.30   1
  -4   0   9  785.42   27.90   1
   4   0   9  802.72   27.60   1
  -5   0   9   -3.20    4.60   1
   5   0   9   -3.50    4.10   1
   5   0   9    1.50    5.50   1
   6   0   9   73.39    9.40   1
   6   0   9   57.99    6.50   1
  -6   0   9   70.19    7.40   1
  -6   0   9   80.59    8.10   1
   7   0   9   -5.10    5.60   1
   7   0   9   -3.80    4.20   1
  -7   0   9   -0.20    5.60   1
  -7   0   9    4.40    5.40   1
  -8   0   9  452.75   19.40   1
   8   0   9  441.96   20.30   1
   8   0   9  448.36   17.80   1
  -8   0   9  406.96   18.30   1
  -9   0   9   -4.30    5.90   1
   9   0   9    3.40    7.60   1
  -9   0   9    1.00    5.80   1
   9   0   9    0.60    4.60   1
  10   0   9  531.95   22.30   1
 -10   0   9  469.95   20.70   1
  10   0   9  499.65   19.60   1
   0   1   9   15.10    4.90   1
   0   1   9   -0.40    4.40   1
   0   1   9   -0.10    4.10   1
   0  -1   9    4.70    4.70   1
   0  -1   9   10.50    4.40   1
  -1   1   9  314.77   13.30   1
   1  -1   9  287.97   14.40   1
  -1   1   9  310.07   13.70   1
  -1   1   9  310.37   14.40   1
   1  -1   9  299.27   13.70   1
  -1  -1   9  273.27   13.50   1
   1   1   9  308.67   13.80   1
  -1  -1   9  298.17   13.40   1
   1   1   9  324.97   14.80   1
   2  -1   9   11.90    4.90   1
  -2   1   9   11.10    4.50   1
  -2   1   9   10.20    4.70   1
  -2   1   9   10.20    4.40   1
   2  -1   9   14.00    5.20   1
   2   1   9   10.10    4.70   1
   2   1   9    7.40    5.20   1
  -2  -1   9    3.70    4.20   1
  -2  -1   9   15.80    5.00   1
   3  -1   9   25.40    5.50   1
  -3   1   9   26.00    5.10   1
  -3   1   9   27.50    5.40   1
   3  -1   9   31.30    6.40   1
   3   1   9   30.40    6.40   1
   3   1   9   23.40    5.20   1
  -3  -1   9   23.70    5.20   1
   4  -1   9   24.10    6.60   1
   4  -1   9   18.40    5.00   1
  -4   1   9   23.60    5.20   1
   4   1   9   20.80    5.20   1
  -4  -1   9   21.60    5.70   1
  -4  -1   9   27.40    5.10   1
   4   1   9   17.50    6.20   1
   5  -1   9  269.27   15.10   1
   5  -1   9  290.17   13.70   1
  -5   1   9  274.07   13.80   1
  -5  -1   9  304.37   13.80   1
   5   1   9  304.27   15.60   1
  -5  -1   9  295.67   14.10   1
   5   1   9  314.47   13.80   1
  -6   1   9   -3.10    4.80   1
   6  -1   9    1.10    4.40   1
   6  -1   9   -2.90    5.90   1
   6   1   9   13.30    6.20   1
  -6  -1   9    4.80    5.60   1
  -6  -1   9    0.30    4.70   1
   6   1   9   -0.60    4.10   1
   7  -1   9  154.48   10.20   1
  -7   1   9  158.38   11.20   1
   7  -1   9  137.99   11.90   1
  -7  -1   9  145.59   10.40   1
   7   1   9  151.58    9.60   1
  -7  -1   9  154.28   11.10   1
   7   1   9  172.28   12.40   1
   8  -1   9   10.30    5.00   1
   8  -1   9   17.10    7.40   1
  -8   1   9    7.80    6.20   1
  -8   1   9    6.00    6.30   1
  -8  -1   9    9.30    6.70   1
  -8  -1   9    2.10    5.80   1
   8   1   9    7.40    4.60   1
   8   1   9   15.10    7.20   1
  -9   1   9    9.60    6.00   1
   9  -1   9    4.20    7.20   1
  -9   1   9   17.40    6.90   1
   9  -1   9    4.00    4.90   1
  -9  -1   9    3.70    6.40   1
  -9  -1   9   14.10    7.10   1
   9   1   9    8.60    7.00   1
   9   1   9    4.50    4.60   1
  10  -1   9   13.20    5.20   1
 -10   1   9   14.70    6.40   1
 -10   1   9   16.00    6.80   1
  10  -1   9   11.40    7.80   1
 -10  -1   9   13.70    6.40   1
 -10  -1   9    4.30    6.60   1
  10   1   9    5.00    6.90   1
  10   1   9    7.50    4.80   1
   0   2   9   62.89    6.80   1
   0   2   9   65.29    7.50   1
   0  -2   9   65.39    6.80   1
   0   2   9   60.39    6.40   1
   1  -2   9    7.60    4.40   1
  -1   2   9   10.60    4.50   1
   1  -2   9    9.30    4.70   1
  -1   2   9    9.20    4.90   1
  -1   2   9   15.70    4.50   1
  -1  -2   9   16.70    4.70   1
  -1  -2   9   12.20    4.00   1
   1   2   9   10.70    4.50   1
  -1  -2   9   12.90    4.60   1
   1   2   9   11.40    5.50   1
   2  -2   9  103.69    8.80   1
  -2   2   9  104.89    8.10   1
  -2   2   9   93.49    8.30   1
   2  -2   9  115.99    8.80   1
  -2   2   9  118.59    8.70   1
  -2  -2   9  110.59    8.60   1
  -2  -2   9   92.89    7.60   1
   2   2   9   98.39    9.40   1
  -2  -2   9  100.89    7.70   1
   2   2   9   99.89    8.40   1
  -3   2   9   98.99    8.30   1
   3  -2   9  107.09    8.80   1
  -3   2   9   91.29    8.20   1
   3  -2   9   87.19    8.60   1
  -3  -2   9  104.19    8.20   1
   3   2   9   93.29    9.40   1
   3   2   9   99.09    7.90   1
  -3  -2   9   94.49    7.40   1
  -4   2   9  117.09    9.40   1
   4  -2   9  113.19    9.20   1
   4  -2   9   98.49    9.40   1
   4   2   9  118.09    8.80   1
  -4  -2   9  116.29    8.70   1
  -4  -2   9  111.59    8.10   1
   4   2   9  129.39   10.60   1
   5  -2   9    0.50    5.40   1
  -5   2   9    0.60    4.50   1
   5  -2   9    0.40    4.40   1
   5   2   9    1.10    4.20   1
   5   2   9   -2.20    5.80   1
  -5  -2   9    4.70    4.70   1
  -5  -2   9    0.40    4.30   1
   6  -2   9   61.79    8.80   1
   6  -2   9   61.89    6.80   1
  -6   2   9   52.59    7.10   1
   6   2   9   60.19    6.40   1
   6   2   9   51.29    8.10   1
  -6  -2   9   64.89    7.10   1
  -6  -2   9   54.49    7.20   1
   7  -2   9   11.80    5.10   1
   7  -2   9   18.50    7.20   1
  -7   2   9   17.40    6.30   1
  -7  -2   9   17.80    6.30   1
   7   2   9    9.10    6.60   1
  -7  -2   9   11.90    5.80   1
   7   2   9    9.40    4.50   1
  -8   2   9   39.10    7.60   1
   8  -2   9   61.29    9.70   1
   8  -2   9   69.19    7.40   1
  -8  -2   9   48.00    8.30   1
   8   2   9   55.29    6.20   1
  -8  -2   9   42.90    7.30   1
   8   2   9   55.49    9.30   1
   9  -2   9   39.70    6.50   1
   9  -2   9   41.90    9.20   1
  -9   2   9   37.40    7.20   1
  -9   2   9   36.30    7.60   1
  -9  -2   9   45.50    8.00   1
  -9  -2   9   43.80    8.30   1
   9   2   9   38.00    5.60   1
   9   2   9   49.70    8.70   1
  10  -2   9   74.49   10.10   1
 -10   2   9   70.19    9.40   1
  10  -2   9   81.99    8.10   1
 -10   2   9   86.69    9.00   1
 -10  -2   9   77.09    8.80   1
  10   2   9   85.19    9.80   1
  10   2   9   58.69    6.60   1
 -10  -2   9   66.59    9.30   1
   0   3   9    3.90    5.00   1
   0   3   9    1.40    4.20   1
   0   3   9    5.30    4.10   1
   0  -3   9    9.90    4.30   1
   1  -3   9  899.01   31.20   1
   1  -3   9  822.02   31.90   1
  -1   3   9  920.31   30.80   1
  -1   3   9  941.01   31.20   1
  -1  -3   9  883.91   30.40   1
  -1  -3   9  889.01   29.80   1
   1   3   9  954.70   31.00   1
   1   3   9  932.31   32.60   1
  -1  -3   9  963.70   30.70   1
   2  -3   9   -0.30    4.10   1
  -2   3   9   -2.60    4.30   1
   2  -3   9    9.20    4.80   1
   2  -3   9   -0.40    3.70   1
  -2   3   9    3.30    4.50   1
   2   3   9    1.30    5.30   1
   2   3   9    0.50    4.20   1
  -2  -3   9    2.80    4.30   1
  -2  -3   9    0.20    3.70   1
   3  -3   9   66.89    7.80   1
  -3   3   9   89.89    7.80   1
  -3   3   9   82.99    7.90   1
   3  -3   9   95.99    8.10   1
   3   3   9   76.89    7.00   1
   3   3   9   87.99    9.40   1
  -3  -3   9   89.59    7.30   1
  -3  -3   9  101.39    8.00   1
   4  -3   9   -2.30    4.80   1
  -4   3   9   -5.00    4.80   1
   4  -3   9    7.80    4.70   1
  -4  -3   9   -0.70    4.50   1
  -4  -3   9    3.10    4.40   1
   4   3   9   -3.80    5.20   1
   4   3   9    1.20    4.00   1
   5  -3   9  736.63   27.90   1
   5  -3   9  725.83   26.00   1
  -5   3   9  725.73   26.30   1
  -5  -3   9  722.53   25.60   1
  -5  -3   9  704.83   26.20   1
   5   3   9  707.73   25.10   1
   5   3   9  718.53   27.70   1
  -6   3   9    5.60    5.80   1
   6  -3   9   11.60    5.20   1
   6  -3   9   20.90    7.30   1
   6   3   9   15.20    6.40   1
   6   3   9   -2.30    4.00   1
  -6  -3   9    5.60    5.20   1
  -6  -3   9    3.70    4.70   1
   7  -3   9  672.03   26.00   1
  -7   3   9  584.14   24.40   1
   7  -3   9  640.24   23.70   1
  -7  -3   9  643.04   23.70   1
  -7  -3   9  619.14   24.30   1
   7   3   9  618.54   22.40   1
   7   3   9  640.14   25.50   1
   8  -3   9   -5.70    7.00   1
  -8   3   9    2.80    6.10   1
   8  -3   9   -1.30    4.80   1
   8   3   9    2.00    4.10   1
  -8  -3   9   -2.00    5.80   1
   8   3   9   -1.00    7.10   1
  -8  -3   9   -1.20    5.90   1
  -9   3   9   41.70    8.20   1
   9  -3   9   43.70    6.60   1
   9  -3   9   40.20    8.50   1
  -9  -3   9   52.99    7.80   1
   9   3   9   44.70    5.70   1
  -9  -3   9   32.00    8.20   1
   9   3   9   46.10    8.50   1
 -10   3   9    2.50    6.30   1
  10  -3   9   -2.20    7.70   1
  10  -3   9    1.80    5.10   1
 -10   3   9   -2.50    5.50   1
 -10  -3   9    9.70    7.20   1
  10   3   9    6.30    6.80   1
  10   3   9    5.50    4.40   1
 -10  -3   9    2.90    6.40   1
   0   4   9    7.40    4.80   1
   0  -4   9    7.00    4.90   1
   0   4   9    5.70    4.30   1
   0  -4   9    7.00    4.60   1
  -1   4   9   59.19    6.50   1
   1  -4   9   43.50    7.90   1
  -1   4   9   66.49    7.00   1
   1  -4   9   58.79    7.10   1
  -1  -4   9   55.39    6.50   1
   1   4   9   66.99    6.90   1
  -1  -4   9   61.19    6.20   1
  -2   4   9  455.65   17.50   1
   2  -4   9  417.76   17.50   1
  -2   4   9  388.96   17.10   1
   2   4   9  383.86   18.40   1
   2   4   9  405.66   16.70   1
  -2  -4   9  443.66   17.00   1
  -2  -4   9  410.26   16.30   1
  -3   4   9    1.70    4.90   1
  -3   4   9    9.90    4.80   1
   3  -4   9   10.00    5.30   1
  -3  -4   9    8.70    4.30   1
  -3  -4   9    8.20    4.60   1
   3   4   9   10.30    6.30   1
   3   4   9    9.40    4.40   1
   4  -4   9  318.37   15.70   1
   4  -4   9  357.16   15.30   1
  -4   4   9  328.47   15.10   1
   4   4   9  320.77   14.10   1
  -4  -4   9  331.27   14.50   1
   4   4   9  312.57   16.40   1
  -4  -4   9  333.17   14.90   1
  -5   4   9   53.69    7.20   1
   5  -4   9   59.29    8.10   1
   5  -4   9   52.39    6.90   1
  -5  -4   9   55.99    6.50   1
   5   4   9   59.29    8.30   1
   5   4   9   49.90    5.90   1
  -5  -4   9   57.59    7.10   1
   6  -4   9   -1.40    5.60   1
   6  -4   9    6.70    5.20   1
  -6   4   9   -3.80    5.10   1
   6   4   9   -0.40    4.00   1
   6   4   9   11.00    6.20   1
  -6  -4   9    1.70    4.80   1
  -6  -4   9    5.40    5.90   1
   7  -4   9   22.60    6.00   1
  -7   4   9   28.20    6.90   1
   7  -4   9   32.30    7.70   1
  -7  -4   9   20.10    6.60   1
   7   4   9   26.10    7.50   1
  -7  -4   9   23.10    7.20   1
   7   4   9   24.00    4.70   1
   8  -4   9  281.77   14.30   1
   8  -4   9  241.08   15.50   1
  -8   4   9  267.67   15.40   1
  -8  -4   9  304.47   15.30   1
   8   4   9  279.77   16.20   1
  -8  -4   9  256.77   14.00   1
   8   4   9  299.77   12.70   1
   9  -4   9   12.70    7.50   1
   9  -4   9    9.00    5.40   1
  -9   4   9    5.50    6.40   1
   9   4   9   10.80    4.40   1
   9   4   9   16.20    7.10   1
  -9  -4   9   10.10    7.20   1
  -9  -4   9    9.50    6.20   1
 -10   4   9  171.48   12.20   1
  10  -4   9  180.58   12.50   1
 -10   4   9  163.18   11.20   1
  10  -4   9  162.48   13.50   1
 -10  -4   9  163.78   13.10   1
  10   4   9  166.38   12.20   1
  10   4   9  161.08    9.80   1
 -10  -4   9  177.28   12.60   1
   0  -5   9   -3.10    3.70   1
   0   5   9    1.50    4.30   1
   0   5   9   -5.80    3.50   1
   1  -5   9   40.70    6.00   1
  -1   5   9   48.60    6.40   1
  -1   5   9   42.70    6.00   1
   1   5   9   45.60    6.10   1
  -1  -5   9   36.10    6.20   1
   2  -5   9    0.30    4.40   1
  -2   5   9    6.50    4.90   1
  -2   5   9    0.50    4.50   1
  -2  -5   9   -0.40    4.60   1
   2   5   9   -1.80    4.00   1
  -2  -5   9    4.30    3.90   1
   3  -5   9  125.79    9.60   1
  -3   5   9  146.19    9.90   1
  -3   5   9  131.59    9.30   1
   3   5   9  133.79   11.00   1
  -3  -5   9  123.09    8.90   1
   3   5   9  121.99    8.80   1
  -3  -5   9  129.69    9.50   1
   4  -5   9    0.70    5.00   1
  -4   5   9    5.20    6.90   1
  -4   5   9    5.50    5.00   1
   4   5   9   -2.80    5.30   1
   4   5   9   -3.50    3.80   1
  -4  -5   9    1.70    4.50   1
  -4  -5   9   -0.50    4.40   1
  -5   5   9   13.90    5.60   1
   5  -5   9   12.70    5.90   1
  -5  -5   9   19.30    5.60   1
  -5  -5   9   16.70    5.00   1
   5   5   9   19.70    6.90   1
   5   5   9   11.90    4.30   1
   6  -5   9    4.90    6.00   1
  -6   5   9    1.40    5.50   1
  -6  -5   9   -4.40    4.70   1
   6   5   9   -8.00    5.40   1
   6   5   9    2.70    3.90   1
  -6  -5   9    4.20    5.40   1
  -7   5   9   56.59    8.30   1
   7  -5   9   61.19    9.10   1
   7   5   9   54.79    5.90   1
  -7  -5   9   66.19    8.50   1
   7   5   9   63.69    9.10   1
  -7  -5   9   60.29    7.70   1
   8  -5   9    0.00    6.60   1
  -8   5   9    2.90    6.70   1
   8   5   9    5.20    7.10   1
   8   5   9    8.40    4.10   1
  -8  -5   9    4.10    6.50   1
  -8  -5   9    4.90    6.30   1
  -9   5   9  135.09   11.10   1
   9  -5   9  149.99   13.00   1
  -9  -5   9  130.79   11.60   1
   9   5   9  126.29   11.40   1
  -9  -5   9  124.69   10.80   1
   9   5   9  132.79    8.70   1
   0  -6   9   49.60    6.20   1
   0   6   9   58.69    6.60   1
   0   6   9   53.99    6.40   1
   1  -6   9   38.30    6.00   1
  -1   6   9   38.80    6.20   1
  -1   6   9   34.30    6.00   1
   1   6   9   36.40    5.80   1
  -2   6   9 1005.20   32.80   1
   2  -6   9  916.61   32.30   1
  -2   6   9  945.71   32.40   1
   2   6   9  928.81   31.70   1
  -2  -6   9  948.91   31.40   1
  -2  -6   9  950.30   32.30   1
  -3   6   9    3.70    4.60   1
  -3   6   9    7.00    5.20   1
   3  -6   9    3.90    4.90   1
  -3  -6   9    5.90    4.40   1
   3   6   9    4.20    4.20   1
  -3  -6   9    1.40    4.90   1
   4  -6   9  685.93   27.10   1
  -4   6   9  757.12   26.80   1
  -4   6   9  715.83   26.70   1
  -4  -6   9  783.22   26.10   1
   4   6   9  688.73   27.90   1
   4   6   9  749.73   25.30   1
  -4  -6   9  733.63   26.70   1
  -5   6   9   20.60    6.90   1
   5  -6   9   32.80    6.80   1
   5   6   9   31.40    7.10   1
  -5  -6   9   28.60    5.70   1
   5   6   9   32.30    5.10   1
  -5  -6   9   26.60    6.60   1
   6  -6   9   44.00    8.40   1
  -6   6   9   52.59    8.40   1
  -6  -6   9   53.39    7.70   1
   6   6   9   39.80    7.90   1
   6   6   9   45.90    5.50   1
  -6  -6   9   50.19    7.40   1
  -7   6   9   33.30    7.50   1
   7  -6   9   12.10    7.00   1
  -7  -6   9   23.10    7.10   1
  -7  -6   9   33.40    7.90   1
   7   6   9   31.10    4.90   1
   7   6   9   20.40    7.20   1
  -8   6   9  607.84   25.40   1
   8  -6   9  672.33   27.10   1
  -8  -6   9  624.74   25.60   1
   8   6   9  656.53   22.30   1
  -8  -6   9  665.33   24.70   1
   8   6   9  644.34   25.60   1
   9  -6   9    0.00    7.10   1
  -9   6   9   11.10    6.50   1
   9   6   9    3.30    3.80   1
   9   6   9    2.50    6.20   1
  -9  -6   9   -2.30    6.30   1
  -9  -6   9    5.90    6.70   1
   0  -7   9   21.00    5.20   1
   0   7   9   17.70    5.40   1
   0   7   9   23.50    5.40   1
  -1   7   9  519.35   19.40   1
  -1   7   9  477.15   19.00   1
   1  -7   9  444.96   18.60   1
   1   7   9  459.25   18.60   1
   2  -7   9    2.90    5.10   1
  -2   7   9   10.10    4.80   1
  -2   7   9    8.80    5.10   1
  -2  -7   9    6.50    4.40   1
   2   7   9    5.50    4.40   1
  -3   7   9   14.10    5.40   1
  -3   7   9   20.00    5.70   1
   3  -7   9   26.40    5.80   1
  -3  -7   9   19.90    4.90   1
  -3  -7   9   19.90    5.80   1
   3   7   9   16.10    4.60   1
  -4   7   9   -3.90    4.70   1
  -4   7   9   -2.70    5.50   1
   4  -7   9    4.10    5.80   1
   4   7   9    0.90    3.90   1
  -4  -7   9    3.50    5.30   1
  -4  -7   9    2.60    4.90   1
   4   7   9    4.00    5.90   1
   5  -7   9  361.86   17.20   1
  -5   7   9  322.77   16.70   1
  -5  -7   9  341.27   15.40   1
  -5  -7   9  331.47   16.20   1
   5   7   9  350.26   14.10   1
   5   7   9  322.47   17.00   1
  -6   7   9   15.50    7.00   1
   6  -7   9   25.10    7.20   1
   6   7   9   25.20    7.30   1
   6   7   9   19.30    4.50   1
  -6  -7   9   26.70    6.20   1
  -6  -7   9   34.50    7.60   1
   7  -7   9  365.76   19.50   1
  -7   7   9  402.36   18.60   1
  -7  -7   9  409.76   18.40   1
   7   7   9  416.16   15.60   1
   7   7   9  414.26   19.60   1
  -7  -7   9  400.76   17.50   1
  -8   7   9    1.00    6.60   1
   8  -7   9    3.90    7.60   1
  -8  -7   9    0.90    5.90   1
   8   7   9    3.20    6.80   1
   8   7   9    3.40    3.70   1
  -8  -7   9    4.30    6.40   1
  -9   7   9    3.40    6.80   1
   9  -7   9   -1.50    7.00   1
  -9  -7   9   -5.00    5.80   1
  -9  -7   9    4.00    6.40   1
   9   7   9    3.70    3.70   1
   9   7   9    3.90    6.60   1
   0   8   9  182.18   10.80   1
   0   8   9  193.78   11.20   1
  -1   8   9   -2.50    4.80   1
   1  -8   9    1.80    4.70   1
  -1   8   9    2.80    4.60   1
   1   8   9    6.50    6.50   1
   1   8   9    2.70    4.50   1
  -2   8   9   28.90    6.50   1
  -2   8   9   36.20    6.20   1
   2  -8   9   33.40    6.30   1
   2   8   9   35.80    5.60   1
  -3   8   9   22.70    5.70   1
   3  -8   9    8.20    5.40   1
  -3   8   9   18.30    6.00   1
  -3  -8   9   31.80    6.30   1
  -3  -8   9   26.60    5.60   1
   3   8   9   18.20    4.90   1
  -4   8   9   27.80    6.30   1
   4  -8   9   26.00    6.30   1
  -4   8   9   23.80    6.60   1
  -4  -8   9   29.70    6.70   1
   4   8   9   25.50    4.90   1
  -4  -8   9   36.20    6.00   1
   5  -8   9    5.10    5.80   1
  -5   8   9    7.40    6.00   1
   5   8   9    4.30    6.80   1
  -5  -8   9    9.10    5.70   1
   5   8   9    8.30    4.10   1
  -5  -8   9    1.70    5.60   1
  -6   8   9  151.08   11.50   1
   6  -8   9  137.79   12.00   1
   6   8   9  127.59    8.30   1
   6   8   9  102.29   10.80   1
  -6  -8   9  126.69   10.00   1
  -6  -8   9  142.09   10.90   1
   7  -8   9   10.70    7.00   1
  -7   8   9    5.60    6.90   1
  -7  -8   9    7.80    6.90   1
  -7  -8   9   11.60    6.50   1
   7   8   9   -0.90    3.50   1
   7   8   9   -7.20    6.10   1
  -8   8   9   17.30    6.90   1
   8  -8   9   19.70    7.70   1
  -8  -8   9   31.50    7.70   1
  -8  -8   9   18.40    6.80   1
   8   8   9   34.70    7.50   1
   8   8   9   35.40    4.70   1
   0   9   9   24.30    5.80   1
   0   9   9   15.10    5.00   1
  -1   9   9  420.56   17.00   1
  -1   9   9  366.76   16.90   1
   1  -9   9  384.16   16.50   1
   1   9   9  377.56   16.20   1
   1   9   9  396.26   17.10   1
   2  -9   9   12.70    5.20   1
  -2   9   9   15.50    6.00   1
  -2   9   9   16.20    5.50   1
   2   9   9    9.20    4.70   1
  -3   9   9    7.10    5.20   1
  -3   9   9    1.90    6.20   1
   3  -9   9   16.70    5.60   1
   3   9   9    5.50    4.30   1
  -4   9   9   21.00    6.80   1
  -4   9   9   28.20    6.20   1
   4  -9   9   15.50    6.00   1
   4   9   9   27.10    5.00   1
  -4  -9   9   33.00    6.10   1
  -5   9   9  344.47   16.90   1
   5  -9   9  359.26   17.00   1
  -5  -9   9  357.86   16.10   1
   5   9   9  338.97   14.10   1
   5   9   9  326.67   17.20   1
  -6   9   9   14.50    7.30   1
   6  -9   9    5.60    6.40   1
   6   9   9   17.90    4.20   1
   6   9   9   13.40    7.40   1
  -6  -9   9   11.50    6.00   1
  -7   9   9  282.87   15.30   1
   7  -9   9  260.77   16.00   1
   7   9   9  284.67   11.70   1
   7   9   9  268.87   15.20   1
  -8   9   9   13.80    7.20   1
   8  -9   9   11.50    7.20   1
  -8  -9   9    0.20    6.20   1
   8   9   9    8.60    3.70   1
   8   9   9    8.80    6.40   1
   0  10   9  116.99   10.10   1
   0  10   9  129.89    9.70   1
  -1  10   9   14.20    6.30   1
  -1  10   9   13.10    5.20   1
   1  10   9   17.90    5.80   1
   1  10   9   18.20    5.10   1
  -2  10   9  572.04   23.40   1
  -2  10   9  570.54   22.30   1
   2 -10   9  557.14   22.20   1
   2  10   9  605.24   21.40   1
  -3  10   9   23.00    5.90   1
   3 -10   9   29.60    6.30   1
  -3  10   9   15.20    6.70   1
   3  10   9   24.80    5.20   1
  -4  10   9  615.74   23.50   1
  -4  10   9  581.04   24.00   1
   4 -10   9  613.64   23.80   1
   4  10   9  608.34   21.40   1
   5 -10   9   12.20    6.70   1
  -5  10   9    4.40    6.30   1
  -5 -10   9   10.60    6.00   1
   5  10   9    6.50    4.00   1
  -6  10   9   68.59    8.90   1
   6 -10   9   78.29    9.80   1
   6  10   9   72.39    6.00   1
  -6 -10   9   65.59    8.30   1
   6  10   9   67.29    9.70   1
   7 -10   9   24.30    7.60   1
  -7  10   9   23.90    7.80   1
   7  10   9   24.70    4.20   1
  -7 -10   9   41.90    7.10   1
   7  10   9   22.90    7.10   1
   0  11   9    2.90    5.80   1
   0  11   9   -2.20    4.60   1
  -1  11   9   71.39    7.70   1
  -1  11   9   84.79    9.30   1
   1  11   9   85.59    7.50   1
   1  11   9   73.99    8.90   1
   2 -11   9   23.60    5.70   1
  -2  11   9   17.50    5.80   1
  -2  11   9    8.50    6.40   1
   2  11   9   10.70    4.70   1
  -3  11   9   86.49    9.80   1
   3 -11   9   67.09    8.10   1
   3  11   9   65.49    6.50   1
  -4  11   9   11.50    5.70   1
   4 -11   9   14.40    6.30   1
  -4  11   9    9.00    7.20   1
   4  11   9    9.80    4.20   1
  -5  11   9   93.99   10.40   1
   5 -11   9   97.29   10.30   1
  -5 -11   9  100.69    9.30   1
   5  11   9   91.59    7.40   1
   6 -11   9   -0.20    6.50   1
  -6  11   9   -1.60    6.30   1
  -6 -11   9   -1.30    6.20   1
   6  11   9    3.20    6.70   1
   6  11   9    0.40    3.50   1
   0  12   9    3.30    4.90   1
   0  12   9   -0.40    5.90   1
  -1  12   9   14.70    6.70   1
  -1  12   9   18.80    5.70   1
   1  12   9    6.10    6.70   1
   1  12   9   12.30    4.90   1
  -2  12   9   81.89    8.50   1
  -2  12   9   77.19    9.10   1
   2  12   9   98.59    8.20   1
   3 -12   9   74.89    8.60   1
  -3  12   9   58.99    8.80   1
  -3  12   9   67.59    8.10   1
   3  12   9   80.89    6.90   1
   4 -12   9  130.99   10.80   1
  -4  12   9  123.19   10.20   1
  -4  12   9  118.79   11.30   1
   4  12   9  107.39    8.10   1
  -5  12   9   22.70    7.30   1
   5 -12   9   12.80    6.80   1
  -5 -12   9   18.20    6.50   1
   5  12   9   12.50    4.20   1
   0  13   9   -0.50    6.20   1
   0  13   9    1.80    4.90   1
  -1  13   9  672.43   24.90   1
  -1  13   9  675.13   26.10   1
   1  13   9  632.74   26.60   1
   1  13   9  715.13   24.40   1
  -2  13   9    0.20    5.20   1
  -2  13   9   -2.60    6.80   1
   2  13   9   -1.10    4.10   1
  -3  13   9   66.89    8.10   1
  -3  13   9   96.99   10.10   1
   3  13   9   95.19    7.30   1
  -4  13   9   -3.10    6.40   1
   4 -13   9    8.90    6.00   1
   0  14   9    3.80    6.90   1
   0  14   9   22.00    5.60   1
   0   0  10  520.15   21.10   1
  -1   0  10    6.00    5.20   1
   1   0  10    0.20    5.40   1
   1   0  10   -1.60    4.70   1
  -2   0  10  198.18   11.70   1
   2   0  10  228.08   12.50   1
   2   0  10  177.08   12.80   1
   3   0  10    3.80    5.80   1
  -3   0  10   -0.40    4.60   1
  -3   0  10   -5.20    5.20   1
   3   0  10    1.80    5.20   1
  -4   0  10  109.09    9.80   1
  -4   0  10  119.59    9.30   1
   4   0  10  137.99   10.30   1
   4   0  10  114.79   11.30   1
  -5   0  10  -12.20    5.40   1
   5   0  10   -3.90    6.50   1
  -5   0  10   -7.60    6.00   1
   5   0  10   -5.30    4.60   1
  -6   0  10  466.25   20.50   1
  -6   0  10  469.45   19.30   1
   6   0  10  462.15   18.90   1
   6   0  10  444.26   21.00   1
   7   0  10   -2.30    7.30   1
   7   0  10   -2.40    4.80   1
  -7   0  10    4.20    6.20   1
  -7   0  10    6.60    6.50   1
   8   0  10  161.48   13.10   1
  -8   0  10  145.89   12.30   1
  -8   0  10  130.99   10.80   1
   8   0  10  142.19   10.50   1
   0   1  10   89.89    8.90   1
   0   1  10   81.39    8.10   1
   0  -1  10   91.69    8.60   1
   1  -1  10    4.70    5.00   1
  -1   1  10    8.60    5.10   1
   1   1  10    7.30    5.50   1
  -1  -1  10    3.80    4.90   1
   1   1  10    7.00    5.30   1
  -2   1  10   90.19    8.50   1
  -2   1  10  111.69    8.60   1
   2  -1  10   98.69    8.50   1
   2  -1  10  106.39    9.80   1
  -2  -1  10  111.19    9.20   1
  -2  -1  10   97.79    8.10   1
   2   1  10   96.09    8.70   1
   2   1  10   95.69   10.00   1
  -3   1  10  359.96   16.80   1
   3  -1  10  386.66   17.80   1
   3  -1  10  380.66   16.80   1
  -3  -1  10  342.47   16.00   1
   3   1  10  408.06   18.30   1
  -3  -1  10  331.67   15.60   1
   3   1  10  379.26   16.70   1
   4  -1  10   78.29    7.90   1
  -4   1  10   92.39    9.20   1
   4  -1  10   80.29    9.70   1
   4   1  10   82.39    8.10   1
  -4  -1  10   72.99    8.20   1
  -4  -1  10   73.89    8.00   1
   4   1  10   83.19    9.80   1
   5  -1  10    7.40    7.00   1
  -5   1  10   -1.10    6.40   1
   5  -1  10   -1.50    4.70   1
  -5  -1  10   -1.00    6.00   1
   5   1  10    7.60    5.20   1
  -5  -1  10   -2.30    5.80   1
   5   1  10   -2.30    6.30   1
  -6   1  10   93.69    9.90   1
   6  -1  10  107.09   11.40   1
  -6   1  10   81.29    8.60   1
   6  -1  10   76.29    7.90   1
   6   1  10   67.59    7.40   1
  -6  -1  10   87.09    9.80   1
  -6  -1  10   81.19    8.60   1
   6   1  10   68.09    9.90   1
   7  -1  10   15.50    7.70   1
  -7   1  10   15.50    6.90   1
   7  -1  10   22.20    6.00   1
  -7   1  10   12.80    6.50   1
  -7  -1  10   10.20    6.80   1
   7   1  10   19.50    5.40   1
  -7  -1  10   11.20    6.50   1
   7   1  10   -1.20    7.10   1
  -8   1  10   58.59    8.20   1
   8  -1  10   84.29   11.00   1
   8  -1  10   80.19    8.10   1
  -8   1  10   69.09    9.30   1
   8   1  10   61.69    9.80   1
  -8  -1  10   78.79    9.20   1
   8   1  10   69.69    7.50   1
  -8  -1  10   65.79    9.30   1
   0   2  10  324.97   16.40   1
   0   2  10  353.56   15.70   1
   0  -2  10  338.67   15.30   1
  -1   2  10   78.29    8.50   1
  -1   2  10   92.49    8.30   1
   1  -2  10   75.19    8.10   1
   1   2  10   66.19    8.30   1
  -1  -2  10   69.49    7.20   1
   1   2  10   69.49    7.50   1
  -2   2  10   18.20    5.40   1
   2  -2  10   11.80    5.60   1
  -2   2  10   20.00    6.00   1
   2   2  10   20.50    7.00   1
  -2  -2  10   23.50    6.10   1
  -2  -2  10   20.30    5.20   1
   2   2  10   18.40    5.60   1
  -3   2  10   38.40    6.50   1
   3  -2  10   51.19    7.10   1
   3  -2  10   23.70    6.40   1
  -3  -2  10   44.20    6.50   1
   3   2  10   28.70    6.10   1
  -3  -2  10   54.49    7.50   1
   3   2  10   40.80    7.70   1
   4  -2  10   16.10    5.50   1
   4  -2  10    7.60    6.50   1
  -4   2  10   14.20    6.30   1
  -4  -2  10   16.40    6.50   1
   4   2  10   12.90    5.50   1
   4   2  10   13.70    6.70   1
  -4  -2  10    5.90    5.50   1
  -5   2  10   75.79    9.10   1
   5  -2  10   72.99    9.30   1
  -5  -2  10   86.89    9.10   1
   5   2  10   78.69    7.90   1
   5   2  10   74.79   10.20   1
  -5  -2  10   82.49    8.60   1
   6  -2  10  297.17   17.30   1
  -6   2  10  308.37   15.70   1
  -6  -2  10  288.57   15.80   1
   6   2  10  295.67   16.90   1
   6   2  10  300.37   14.20   1
  -7   2  10   44.90    8.80   1
   7  -2  10   44.50    9.50   1
   7  -2  10   57.89    7.60   1
  -7   2  10   58.89    8.80   1
  -7  -2  10   40.50    7.90   1
  -7  -2  10   59.39    8.90   1
   7   2  10   47.10    6.50   1
   7   2  10   53.89    9.10   1
   8  -2  10    9.30    5.60   1
  -8   2  10   13.90    6.60   1
   8  -2  10   10.20    7.30   1
  -8   2  10    9.20    7.60   1
   8   2  10    9.80    4.90   1
  -8  -2  10   -3.10    6.20   1
   8   2  10   11.60    7.40   1
  -8  -2  10    3.80    6.50   1
   0   3  10   12.00    5.40   1
   0  -3  10   14.10    4.90   1
   0   3  10   11.80    6.30   1
   1  -3  10  152.88   10.30   1
  -1   3  10  164.98   11.20   1
  -1   3  10  162.08   11.60   1
   1   3  10  161.88   12.30   1
   1   3  10  148.89   10.70   1
  -2   3  10   -0.10    4.60   1
  -2   3  10    6.00    5.50   1
   2  -3  10    7.30    5.80   1
   2   3  10   -3.50    5.80   1
   2   3  10    1.80    5.00   1
   3  -3  10  941.81   34.10   1
   3   3  10  911.01   34.60   1
  -3  -3  10  950.80   32.10   1
  -3  -3  10 1013.60   33.50   1
   3   3  10  961.80   32.70   1
   4  -3  10   11.10    6.40   1
  -4   3  10   17.80    6.10   1
  -4  -3  10   21.80    6.30   1
  -4  -3  10    7.00    5.90   1
   4   3  10    7.00    5.10   1
   4   3  10   15.90    6.90   1
  -5   3  10  129.59   10.80   1
   5  -3  10  132.49   12.00   1
  -5  -3  10  117.69   10.30   1
  -5  -3  10  124.79    9.90   1
   5   3  10  150.98   12.40   1
   5   3  10  130.29   10.00   1
   6  -3  10    6.90    5.60   1
   6  -3  10    0.80    6.50   1
  -6   3  10    9.50    7.30   1
  -6  -3  10    6.50    5.80   1
  -6  -3  10    7.80    6.40   1
   6   3  10    0.50    6.60   1
   6   3  10    2.10    4.60   1
   7  -3  10  115.89   10.10   1
  -7   3  10   79.09    9.40   1
   7  -3  10   93.09   11.10   1
  -7  -3  10  104.39   10.20   1
  -7  -3  10  101.09   10.00   1
   7   3  10   96.29   11.30   1
   7   3  10  104.39    9.00   1
  -8   3  10    8.40    6.80   1
  -8   3  10   -5.40    6.30   1
   8  -3  10   -4.50    5.50   1
   8  -3  10    3.30    7.20   1
  -8  -3  10   14.20    6.80   1
  -8  -3  10    9.70    6.40   1
   8   3  10    9.20    4.70   1
   8   3  10   -1.00    6.80   1
   0  -4  10  668.43   24.90   1
   0   4  10  692.73   25.40   1
   0   4  10  700.83   26.70   1
  -1   4  10   87.99    9.10   1
   1  -4  10   74.19    7.80   1
  -1   4  10   64.69    7.60   1
  -1   4  10   82.99    8.10   1
   1   4  10   62.99    8.90   1
   1   4  10   72.69    7.80   1
   2  -4  10    0.70    5.40   1
  -2   4  10    3.40    5.20   1
  -2   4  10    1.80    5.00   1
  -2   4  10    0.20    5.50   1
   2   4  10    4.20    4.90   1
   2   4  10   12.90    7.00   1
  -3   4  10   96.59    9.00   1
   3  -4  10   96.99    9.50   1
  -3   4  10   92.09    9.30   1
  -3  -4  10   87.19    8.00   1
   3   4  10   95.19   10.70   1
  -3  -4  10  101.19    9.10   1
   3   4  10   93.19    8.30   1
  -4   4  10   20.20    6.80   1
   4  -4  10   11.90    6.30   1
  -4  -4  10   20.80    6.70   1
   4   4  10   13.90    7.20   1
   4   4  10    8.00    5.20   1
  -4  -4  10   11.70    5.60   1
   5  -4  10   52.09    8.70   1
  -5   4  10   43.70    8.20   1
   5   4  10   56.49    6.80   1
  -5  -4  10   60.39    8.10   1
   5   4  10   75.49    9.90   1
  -5  -4  10   54.39    8.40   1
  -6   4  10  507.85   21.20   1
   6  -4  10  525.65   22.30   1
  -6  -4  10  467.85   20.70   1
   6   4  10  502.45   19.30   1
  -6  -4  10  518.05   20.70   1
   6   4  10  474.35   22.00   1
  -7   4  10   68.59    9.10   1
   7  -4  10   60.39    9.80   1
  -7  -4  10   70.59    8.70   1
   7   4  10   76.59    7.20   1
   7   4  10   54.79    9.20   1
  -7  -4  10   70.29    9.00   1
  -8   4  10    0.90    6.50   1
  -8  -4  10    9.40    6.60   1
   0   5  10    7.90    6.50   1
   0   5  10    6.70    5.20   1
  -1   5  10    2.10    6.00   1
  -1   5  10   12.90    5.40   1
   1  -5  10    2.90    4.70   1
  -1   5  10    3.30    5.20   1
   1   5  10    3.10    4.90   1
   1   5  10   -0.70    5.60   1
  -2   5  10   -0.30    5.70   1
   2  -5  10    0.30    4.80   1
  -2   5  10   -0.40    5.10   1
   2   5  10   -2.70    4.80   1
   2   5  10    1.40    6.50   1
   3  -5  10  250.77   14.40   1
  -3   5  10  270.77   14.20   1
  -3  -5  10  282.07   14.00   1
   3   5  10  249.58   15.20   1
   3   5  10  277.17   13.50   1
  -4   5  10    0.00    5.80   1
   4  -5  10   -2.50    6.00   1
  -4  -5  10    4.80    5.30   1
  -4  -5  10   -0.80    6.10   1
   4   5  10   -1.80    4.60   1
   4   5  10    5.30    7.30   1
   5  -5  10    2.60    6.10   1
  -5   5  10    4.40    6.40   1
   5   5  10   -0.80    4.50   1
  -5  -5  10    1.50    5.80   1
  -5  -5  10    2.70    5.50   1
   5   5  10   -7.00    6.30   1
   6  -5  10    3.70    7.20   1
  -6   5  10    0.10    6.20   1
   6   5  10    4.80    7.10   1
  -6  -5  10    2.10    6.70   1
   6   5  10   -3.10    4.30   1
  -6  -5  10    6.20    5.80   1
  -7   5  10   33.70    7.70   1
   7  -5  10   13.80    7.80   1
   7   5  10   32.80    8.20   1
  -7  -5  10   15.50    6.40   1
  -7  -5  10   18.50    7.00   1
   7   5  10   17.60    5.00   1
   0   6  10  923.71   32.20   1
   1  -6  10   38.80    6.50   1
  -1   6  10   68.89    7.90   1
  -1   6  10   44.80    7.60   1
   1   6  10   54.09    7.00   1
   1   6  10   59.19    9.00   1
   2  -6  10   25.90    5.90   1
  -2   6  10   47.00    7.10   1
  -2   6  10   29.80    7.20   1
   2   6  10   37.30    6.30   1
   2   6  10   27.10    8.00   1
  -3   6  10   74.49    8.30   1
  -3   6  10   74.59    9.10   1
   3  -6  10   62.29    8.30   1
   3   6  10   61.49    9.60   1
   3   6  10   52.79    6.80   1
  -3  -6  10   70.29    8.20   1
  -4   6  10   56.39    8.60   1
   4  -6  10   47.60    7.70   1
  -4  -6  10   61.39    7.70   1
   4   6  10   67.99    9.40   1
   4   6  10   51.49    6.50   1
  -4  -6  10   62.19    8.00   1
  -5   6  10   38.30    7.60   1
   5  -6  10   40.80    7.70   1
   5   6  10   45.40    6.10   1
  -5  -6  10   52.19    7.40   1
   5   6  10   43.60    8.60   1
  -5  -6  10   55.49    8.40   1
  -6   6  10  703.33   26.60   1
   6  -6  10  664.23   27.20   1
  -6  -6  10  650.93   25.30   1
  -6  -6  10  700.73   26.10   1
   6   6  10  683.93   24.00   1
   6   6  10  665.23   27.10   1
  -7   6  10   42.50    8.20   1
   7  -6  10   45.30    9.30   1
  -7  -6  10   40.70    8.40   1
  -7  -6  10   36.40    7.50   1
   7   6  10   52.29    6.00   1
   7   6  10   28.50    8.20   1
   0   7  10   39.10    6.80   1
  -1   7  10   89.09    9.00   1
   1  -7  10   84.59   11.50   1
  -1   7  10   68.59    8.00   1
   1   7  10   86.09    8.30   1
   2  -7  10   22.10    5.70   1
  -2   7  10   27.60    6.70   1
  -2   7  10   32.20    7.60   1
   2   7  10   14.50    5.40   1
   2   7  10   28.80    8.00   1
  -3   7  10  514.95   22.10   1
   3  -7  10  510.75   21.50   1
  -3   7  10  549.95   21.60   1
   3   7  10  535.95   20.40   1
   3   7  10  510.35   22.80   1
  -4   7  10   35.90    7.90   1
   4  -7  10   26.50    6.80   1
  -4  -7  10   32.10    7.40   1
   4   7  10   39.70    8.50   1
  -4  -7  10   42.50    7.30   1
   4   7  10   33.40    5.80   1
   5  -7  10   88.59   10.10   1
  -5   7  10   83.09    9.70   1
   5   7  10   96.99   10.70   1
   5   7  10  101.09    8.00   1
  -5  -7  10   93.39    9.90   1
  -5  -7  10   93.79    9.20   1
   6  -7  10   29.80    7.70   1
  -6   7  10   20.10    7.20   1
   6   7  10   30.60    8.40   1
  -6  -7  10   27.90    7.60   1
  -6  -7  10   26.60    6.60   1
   6   7  10   19.10    5.00   1
   0   8  10  214.68   12.50   1
  -1   8  10   12.50    6.40   1
  -1   8  10    9.30    5.70   1
   1   8  10   10.20    5.50   1
  -2   8  10    2.90    6.70   1
  -2   8  10    7.30    5.80   1
   2  -8  10   -0.60    5.20   1
   2   8  10    1.80    4.80   1
   3  -8  10    3.60    5.30   1
  -3   8  10    2.40    5.50   1
  -3   8  10   -1.50    6.50   1
   3   8  10   -2.40    4.60   1
   3   8  10    1.60    6.50   1
  -4   8  10   -5.80    6.00   1
   4  -8  10    0.50    6.20   1
   4   8  10    4.20    6.60   1
   4   8  10   -0.20    4.50   1
   5  -8  10   17.30    7.10   1
  -5   8  10   13.20    7.50   1
   5   8  10   19.20    7.80   1
  -5  -8  10    7.80    6.50   1
   5   8  10    7.40    4.60   1
   6  -8  10  151.78   12.90   1
  -6   8  10  158.78   13.20   1
  -6  -8  10  148.29   11.30   1
   0   9  10   45.50    6.90   1
  -1   9  10   64.39    7.80   1
   1   9  10   69.49    7.60   1
  -2   9  10   79.09    8.80   1
  -2   9  10   78.39    9.30   1
   2   9  10   68.79    7.50   1
   3  -9  10  420.46   18.90   1
  -3   9  10  422.76   19.50   1
  -3   9  10  480.75   19.70   1
   3   9  10  451.55   20.60   1
   3   9  10  422.36   17.50   1
   4  -9  10   34.90    7.40   1
  -4   9  10   37.70    8.40   1
   4   9  10   62.39    6.60   1
   4   9  10   50.89    9.30   1
   5  -9  10   61.79    8.50   1
  -5   9  10   38.90    8.10   1
   5   9  10   53.99    6.00   1
   5   9  10   53.99    8.70   1
   0  10  10  464.25   19.30   1
  -1  10  10   19.10    6.30   1
  -1  10  10   28.20    7.70   1
   1  10  10   40.30    6.50   1
  -2  10  10  174.88   13.30   1
  -2  10  10  182.18   12.60   1
   2  10  10  192.48   11.10   1
  -3  10  10   18.40    7.60   1
   3 -10  10   24.00    6.50   1
  -3  10  10   19.10    6.70   1
   3  10  10   28.40    5.60   1
   0  11  10   11.30    5.60   1
  -1  11  10   -2.90    6.50   1
  -1  11  10    1.20    5.60   1
   1  11  10    2.50    5.00   1
   0   0  11   34.80    6.90   1
   1   0  11    0.40    6.20   1
   3   0  11    2.60    7.40   1
   3   0  11   14.10    7.30   1
  -3   0  11   -1.10    8.10   1
  -4   0  11   72.09    9.00   1
  -4   0  11   81.39    8.80   1
   4   0  11  122.69   11.40   1
   4   0  11  107.89    9.60   1
  -5   0  11   -5.40    5.70   1
  -5   0  11    1.10    6.60   1
   5   0  11    7.10    5.60   1
   5   0  11   -3.70    6.90   1
   0  -1  11   42.30    7.30   1
   0   1  11   55.89    7.80   1
   1  -1  11  351.06   17.00   1
  -1   1  11  366.56   19.30   1
   1   1  11  342.27   17.50   1
   2  -1  11   34.30    7.50   1
   2   1  11   56.79    7.70   1
   2   1  11   38.30    8.50   1
  -3   1  11    0.90    6.40   1
   3  -1  11    5.00    6.60   1
   3   1  11    0.00    6.80   1
   3   1  11   -0.30    5.30   1
  -4   1  11   55.39    7.90   1
   4  -1  11   63.19    9.40   1
  -4   1  11   72.69    9.00   1
   4   1  11   78.19    8.40   1
  -5   1  11  305.07   16.10   1
  -5  -1  11  298.57   14.70   1
  -5  -1  11  278.17   15.90   1
   5   1  11  318.37   15.30   1
   0   2  11   27.40    6.80   1
  -1   2  11   10.80    6.10   1
   1  -2  11    7.70    5.50   1
   1   2  11   12.10    6.00   1
   1   2  11    8.70    6.70   1
   2  -2  11  379.56   18.60   1
   2   2  11  412.56   19.10   1
   2   2  11  410.76   18.20   1
   3  -2  11   70.49    9.30   1
   3   2  11   85.89    8.70   1
   3   2  11   69.99    9.30   1
   4  -2  11  396.36   19.30   1
  -4   2  11  399.96   18.70   1
  -4  -2  11  330.67   16.90   1
  -4  -2  11  401.76   18.30   1
   4   2  11  394.66   19.40   1
  -5   2  11    5.50    6.60   1
  -5   2  11    3.10    6.60   1
   5  -2  11   -1.60    6.60   1
  -5  -2  11   -2.80    5.90   1
  -5  -2  11    4.90    6.70   1
   5   2  11    4.00    5.40   1
   5   2  11    4.90    7.20   1
   0   3  11   32.90    7.60   1
   0   3  11   43.10    9.20   1
  -1   3  11   73.89    8.70   1
   1  -3  11   67.09    8.70   1
   1   3  11   65.79    8.80   1
   1   3  11   67.89    8.00   1
   2  -3  11   32.20    7.30   1
   2   3  11   42.70    7.10   1
  -3   3  11   55.99    8.80   1
   3  -3  11   50.29    8.80   1
   3   3  11   54.99    7.50   1
   3   3  11   63.89    9.30   1
   4  -3  11   13.20    7.20   1
  -4   3  11   21.70    7.40   1
   4   3  11   11.80    7.70   1
   4   3  11    7.90    5.70   1
   0   4  11    1.60    5.70   1
   0   4  11    7.50    5.50   1
   1   4  11  114.29    9.70   1
   1   4  11  115.49   11.00   1
   2   4  11  175.78   11.90   1
   2   4  11  180.28   13.10   1
   3  -4  11   37.20    7.40   1
  -3   4  11   35.90    7.80   1
   3   4  11   50.79    9.10   1
   3   4  11   38.10    7.00   1
   4  -4  11  168.58   12.60   1
  -4   4  11  148.29   12.50   1
   4   4  11  126.19   12.40   1
   4   4  11  147.29   11.10   1
   0   5  11   -1.90    5.40   1
   0   5  11    1.50    6.50   1
   1   5  11  479.35   19.60   1
   1   5  11  435.16   21.00   1
  -2   5  11   11.40    6.40   1
   2  -5  11    3.10    5.20   1
   2   5  11   -0.10    6.40   1
   2   5  11    0.20    5.30   1
  -3   5  11   99.29   10.10   1
   3  -5  11   64.39    8.80   1
   3   5  11   62.69    9.80   1
   3   5  11   70.39    7.80   1
   0   6  11    7.70    5.80   1
   0   6  11   15.60    7.30   1
  -1   6  11   63.09    8.00   1
  -1   6  11   57.99    8.60   1
   1   6  11   46.70    7.10   1
   1   6  11   53.69    9.20   1
   2  -6  11  141.89   12.50   1
  -2   6  11  140.99   11.90   1
   2   6  11  148.09   11.00   1
   2   6  11  155.08   12.50   1
   0   7  11   35.70    6.80   1
   0   7  11   52.69    8.70   1
   0   0   0    0.00    0.00   0
;
_shelx_hkl_checksum              22470
_shelx_res_file
;
TITL BaH6As4O14
    last.res
    created by SHELXL-2017/1 at 15:54:10 on 15-Jan-2019
CELL 0.71073 8.4638 11.1799 5.8353 90 90 90
ZERR    2.000   0.0005   0.0007   0.0004    0.000    0.000    0.000
LATT 1
SYMM -x+1/2,-y+1/2,z
SYMM -x+1/2,y+1/2,-z
SYMM x,-y,-z
SFAC  O H As Ba
UNIT 28 12 8 2
TEMP -173
eqiv $1 -x+1/2, -y+1/2, z
htab OE22 OL11
htab OE1 OE21_$1
L.S. 10
acta
BOND $H
htab
FMAP 2
PLAN 20
dfix OE22 H1 0.85 0.001
dfix OE1 H2 0.85 0.001
WGHT    0.013200    0.174700
EXTI    0.007179
FVAR       0.34537
BA    4    0.500000    0.000000    0.000000    10.25000    0.00751    0.00420 =
         0.00322   -0.00032    0.00000    0.00000
AS1   3    0.166368    0.000000    0.500000    10.50000    0.00190    0.00349 =
         0.00268   -0.00003    0.00000    0.00000
AS2   3    0.000000    0.190716    0.785063    10.50000    0.00286    0.00294 =
         0.00290    0.00008    0.00000    0.00000
OL12  1    0.165127    0.103848    0.753485    11.00000    0.00409    0.00611 =
         0.00475   -0.00182   -0.00042    0.00150
OE21  1    0.000000    0.318030    0.642148    10.50000    0.00573    0.00451 =
         0.00611    0.00221    0.00000    0.00000
OE22  1    0.000000    0.240476    0.060561    10.50000    0.00927    0.00535 =
         0.00378   -0.00070    0.00000    0.00000
OL11  1    0.000000    0.085290    0.382022    10.50000    0.00283    0.00513 =
         0.00496    0.00137    0.00000    0.00000
OE1   1    0.303582    0.086395    0.344275    11.00000    0.00460    0.00716 =
         0.00545   -0.00025    0.00091   -0.00268
H1    2    0.000000    0.187550    0.165156    10.50000    0.02810
H2    2    0.352148    0.133799    0.433714    11.00000    0.03204
HKLF 4
REM  BaH6As4O14
REM R1 =  0.0149 for    2146 Fo > 4sig(Fo)  and  0.0190 for all    2384 data
REM     60 parameters refined using      2 restraints
END
WGHT      0.0132      0.1747
REM Instructions for potential hydrogen bonds
HTAB OE22 OL11
HTAB OE1 OE21_$1
REM Highest difference peak  1.112,  deepest hole -0.980,  1-sigma level  0.157
Q1    1   0.5000  0.0392 -0.0655  10.50000  0.05    0.96
Q2    1   0.5000  0.1096  0.2453  10.50000  0.05    0.74
Q3    1   0.0000  0.3963  0.7595  10.50000  0.05    0.66
Q4    1   0.5000  0.0390  0.0715  10.50000  0.05    0.65
Q5    1   0.3190  0.0427  0.2995  11.00000  0.05    0.60
Q6    1   0.1666  0.3163  0.6907  11.00000  0.05    0.59
Q7    1   0.0000  0.1131  0.3026  10.50000  0.05    0.58
Q8    1   0.0000  0.4513  0.7130  10.50000  0.05    0.57
Q9    1   0.0000  0.2198  0.3386  10.50000  0.05    0.55
Q10   1   0.1649  0.0000  1.0000  10.50000  0.05    0.55
Q11   1   0.0000  0.2573  0.7094  10.50000  0.05    0.54
Q12   1   0.0386  0.2408 -0.0668  11.00000  0.05    0.54
Q13   1   0.5000  0.0458  0.2119  10.50000  0.05    0.54
Q14   1   0.1418  0.0641  0.3460  11.00000  0.05    0.53
Q15   1   0.5000 -0.0034  0.4175  10.50000  0.05    0.53
Q16   1   0.1618  0.2790  0.0591  11.00000  0.05    0.52
Q17   1   0.0000  0.3212  0.8138  10.50000  0.05    0.52
Q18   1   0.3270  0.1926  0.2769  11.00000  0.05    0.52
Q19   1   0.0000  0.2889  0.5375  10.50000  0.05    0.51
Q20   1   0.5000  0.0683 -0.1451  10.50000  0.05    0.51
;
_shelx_res_checksum              74849
loop_
_space_group_symop_operation_xyz
'x, y, z'
'-x+1/2, -y+1/2, z'
'-x+1/2, y+1/2, -z'
'x, -y, -z'
'-x, -y, -z'
'x-1/2, y-1/2, -z'
'x-1/2, -y-1/2, z'
'-x, y, z'
loop_
_atom_site_type_symbol
_atom_site_label
_atom_site_fract_x
_atom_site_fract_y
_atom_site_fract_z
_atom_site_U_iso_or_equiv
_atom_site_adp_type
_atom_site_calc_flag
_atom_site_occupancy
Ba Ba 0.500000 0.000000 0.000000 0.00498(2) Uani d 1
As As1 0.16637(2) 0.000000 0.500000 0.00269(2) Uani d 1
As As2 0.000000 0.19072(2) 0.78506(2) 0.00290(2) Uani d 1
O OL12 0.16513(7) 0.10385(6) 0.75348(10) 0.00498(9) Uani d 1
O OE21 0.000000 0.31803(8) 0.64215(16) 0.00545(13) Uani d 1
O OE22 0.000000 0.24048(8) 0.06056(16) 0.00613(13) Uani d 1
O OL11 0.000000 0.08529(8) 0.38202(15) 0.00430(12) Uani d 1
O OE1 0.30358(7) 0.08639(6) 0.34427(11) 0.00573(9) Uani d 1
H H1 0.000000 0.1876(17) 0.165(3) 0.028(8) Uiso d 1
H H2 0.352(2) 0.1338(14) 0.434(3) 0.032(5) Uiso d 1
loop_
_atom_site_aniso_label
_atom_site_aniso_U_11
_atom_site_aniso_U_22
_atom_site_aniso_U_33
_atom_site_aniso_U_12
_atom_site_aniso_U_13
_atom_site_aniso_U_23
Ba 0.00751(4) 0.00420(4) 0.00322(4) 0.000 0.000 -0.00032(3)
As1 0.00190(4) 0.00349(4) 0.00268(4) 0.000 0.000 -0.00003(3)
As2 0.00286(4) 0.00294(4) 0.00290(4) 0.000 0.000 0.00008(3)
OL12 0.0041(2) 0.0061(2) 0.0047(2) 0.00150(17) -0.00042(15) -0.00182(16)
OE21 0.0057(3) 0.0045(3) 0.0061(3) 0.000 0.000 0.0022(3)
OE22 0.0093(4) 0.0054(3) 0.0038(3) 0.000 0.000 -0.0007(3)
OL11 0.0028(3) 0.0051(3) 0.0050(3) 0.000 0.000 0.0014(2)
OE1 0.0046(2) 0.0072(2) 0.0054(2) -0.00268(17) 0.00091(17) -0.00025(18)
loop_
_atom_type_symbol
_atom_type_description
_atom_type_scat_dispersion_real
_atom_type_scat_dispersion_imag
_atom_type_scat_source
O O 0.0106 0.0060 'International Tables Vol C Tables 4.2.6.8 and 6.1.1.4'
H H 0.0000 0.0000 'International Tables Vol C Tables 4.2.6.8 and 6.1.1.4'
As As 0.0499 2.0058 'International Tables Vol C Tables 4.2.6.8 and 6.1.1.4'
Ba Ba -0.3244 2.2819 'International Tables Vol C Tables 4.2.6.8 and 6.1.1.4'
loop_
_geom_angle_atom_site_label_1
_geom_angle_atom_site_label_2
_geom_angle_atom_site_label_3
_geom_angle_site_symmetry_1
_geom_angle_site_symmetry_3
_geom_angle
OE1 Ba OE1 . 8_655 73.43(3)
OE1 Ba OE1 . 4 106.57(3)
OE1 Ba OE1 8_655 4 180.000(18)
OE1 Ba OE1 . 5_655 180.0
OE1 Ba OE1 8_655 5_655 106.57(3)
OE1 Ba OE1 4 5_655 73.43(3)
OE1 Ba OE21 . 2_554 105.967(19)
OE1 Ba OE21 8_655 2_554 105.967(19)
OE1 Ba OE21 4 2_554 74.033(19)
OE1 Ba OE21 5_655 2_554 74.033(19)
OE1 Ba OE21 . 6_656 74.033(19)
OE1 Ba OE21 8_655 6_656 74.033(19)
OE1 Ba OE21 4 6_656 105.967(19)
OE1 Ba OE21 5_655 6_656 105.967(19)
OE21 Ba OE21 2_554 6_656 180.00(3)
OE1 Ba OE22 . 2 64.396(19)
OE1 Ba OE22 8_655 2 64.396(19)
OE1 Ba OE22 4 2 115.604(19)
OE1 Ba OE22 5_655 2 115.604(19)
OE21 Ba OE22 2_554 2 52.69(3)
OE21 Ba OE22 6_656 2 127.31(3)
OE1 Ba OE22 . 6_655 115.604(19)
OE1 Ba OE22 8_655 6_655 115.604(19)
OE1 Ba OE22 4 6_655 64.396(19)
OE1 Ba OE22 5_655 6_655 64.396(19)
OE21 Ba OE22 2_554 6_655 127.31(3)
OE21 Ba OE22 6_656 6_655 52.69(3)
OE22 Ba OE22 2 6_655 180.0
OE1 As1 OE1 4_556 . 97.58(4)
OE1 As1 OL11 4_556 . 169.69(3)
OE1 As1 OL11 . . 91.57(3)
OE1 As1 OL11 4_556 5_556 91.57(3)
OE1 As1 OL11 . 5_556 169.69(3)
OL11 As1 OL11 . 5_556 79.74(4)
OE1 As1 OL12 4_556 . 86.36(3)
OE1 As1 OL12 . . 94.06(3)
OL11 As1 OL12 . . 88.28(3)
OL11 As1 OL12 5_556 . 91.23(3)
OE1 As1 OL12 4_556 4_556 94.06(3)
OE1 As1 OL12 . 4_556 86.36(3)
OL11 As1 OL12 . 4_556 91.23(3)
OL11 As1 OL12 5_556 4_556 88.28(3)
OL12 As1 OL12 . 4_556 179.36(4)
OE21 As2 OE22 . 1_556 101.28(5)
OE21 As2 OL12 . . 115.79(3)
OE22 As2 OL12 1_556 . 106.69(3)
OE21 As2 OL12 . 8 115.79(3)
OE22 As2 OL12 1_556 8 106.69(3)
OL12 As2 OL12 . 8 109.46(4)
As2 OL12 As1 . . 116.07(3)
As2 OE21 Ba . 2_556 103.89(4)
As2 OE22 Ba 1_554 2 102.14(4)
As2 OE22 H1 1_554 . 116.8(17)
Ba OE22 H1 2 . 141.1(17)
As1 OL11 As1 5_556 . 100.26(4)
As1 OE1 Ba . . 125.17(3)
As1 OE1 H2 . . 110.1(14)
Ba OE1 H2 . . 111.8(14)
loop_
_geom_bond_atom_site_label_1
_geom_bond_atom_site_label_2
_geom_bond_site_symmetry_2
_geom_bond_distance
Ba OE1 . 2.7807(6)
Ba OE1 8_655 2.7808(6)
Ba OE1 4 2.7808(6)
Ba OE1 5_655 2.7808(6)
Ba OE21 2_554 2.9153(9)
Ba OE21 6_656 2.9153(9)
Ba OE22 2 2.9229(9)
Ba OE22 6_655 2.9229(9)
Ba As2 2_554 3.6782(2)
Ba As2 6_656 3.6782(2)
As1 OE1 4_556 1.7628(6)
As1 OE1 . 1.7628(6)
As1 OL11 . 1.8346(6)
As1 OL11 5_556 1.8346(6)
As1 OL12 . 1.8804(6)
As1 OL12 4_556 1.8804(6)
As2 OE21 . 1.6497(9)
As2 OE22 1_556 1.7012(9)
As2 OL12 . 1.7119(6)
As2 OL12 8 1.7119(6)
OE22 H1 . 0.8501(10)
OE1 H2 . 0.8498(10)
loop_
_geom_hbond_atom_site_label_D
_geom_hbond_atom_site_label_H
_geom_hbond_atom_site_label_A
_geom_hbond_site_symmetry_A
_geom_hbond_distance_DH
_geom_hbond_distance_HA
_geom_hbond_distance_DA
_geom_hbond_angle_DHA
_geom_hbond_publ_flag
OE22 H1 OL11 . 0.8501(10) 1.7054(18) 2.5552(13) 178(3) yes
OE1 H2 OE21 2 0.8498(10) 1.826(8) 2.6319(10) 158(2) yes

_cod_database_fobs_code 1550494
