#------------------------------------------------------------------------------
#$Date: 2018-11-23 06:15:33 +0200 (Fri, 23 Nov 2018) $
#$Revision: 212149 $
#$URL: file:///home/coder/svn-repositories/cod/cif/1/55/02/1550276.cif $
#------------------------------------------------------------------------------
#
# This file is available in the Crystallography Open Database (COD),
# http://www.crystallography.net/. The original data for this entry
# were provided by IUCr Journals, http://journals.iucr.org/.
#
# The file may be used within the scientific community so long as
# proper attribution is given to the journal article from which the
# data were obtained.
#
data_1550276
loop_
_publ_author_name
'Zouihri, Hafid'
'El Korchi, Khadija'
'Yamni, Khalid'
'Tijani, Najib'
_publ_section_title
;
 Dithiobis(formamidinium) bis(hydrogen sulfate)
;
_journal_coeditor_code           BT4077
_journal_issue                   11
_journal_name_full               IUCrData
_journal_page_first              x181540
_journal_paper_doi               10.1107/S2414314618015407
_journal_volume                  3
_journal_year                    2018
_chemical_formula_iupac          'C2 H8 N4 S2 2+, 2H O4 S -'
_chemical_formula_moiety         'C2 H8 N4 S2 2+, 2(H O4 S -)'
_chemical_formula_sum            'C2 H10 N4 O8 S4'
_chemical_formula_weight         346.38
_chemical_name_systematic
;
Dithiobis(formamidinium) bis(hydrogen sulfate)
;
_space_group_crystal_system      triclinic
_space_group_IT_number           2
_space_group_name_Hall           '-P 1'
_space_group_name_H-M_alt        'P -1'
_symmetry_space_group_name_Hall  '-P 1'
_symmetry_space_group_name_H-M   'P -1'
_atom_sites_solution_hydrogens   difmap
_audit_creation_method           SHELXL-2014/7
_cell_angle_alpha                106.521(2)
_cell_angle_beta                 96.067(2)
_cell_angle_gamma                95.618(2)
_cell_formula_units_Z            2
_cell_length_a                   5.1371(2)
_cell_length_b                   9.5237(4)
_cell_length_c                   12.9884(6)
_cell_measurement_reflns_used    278
_cell_measurement_temperature    293(2)
_cell_measurement_theta_max      31.2
_cell_measurement_theta_min      1.2
_cell_volume                     600.32(4)
_computing_cell_refinement
;
SAINT (Bruker, 2009)
;
_computing_data_collection
;
APEX2 (Bruker, 2009)
;
_computing_data_reduction
;
SAINT (Bruker, 2009)
;
_computing_molecular_graphics
;
PLATON (Spek, 2009)
;
_computing_publication_material
;
publCIF (Westrip, 2010)
;
_computing_structure_refinement
;
SHELXL2014 (Sheldrick, 2015b)
;
_computing_structure_solution
;
SHELXT (Sheldrick, 2015a)
;
_diffrn_ambient_temperature      293(2)
_diffrn_measured_fraction_theta_full 0.996
_diffrn_measured_fraction_theta_max 0.997
_diffrn_measurement_device       'Bruker X8 APEXII CCD area-detector'
_diffrn_measurement_method       '\w and \f'
_diffrn_radiation_monochromator  graphite
_diffrn_radiation_source         'fine-focus sealed tube'
_diffrn_radiation_type           MoK\a
_diffrn_radiation_wavelength     0.71073
_diffrn_reflns_av_R_equivalents  0.0314
_diffrn_reflns_av_unetI/netI     0.0208
_diffrn_reflns_limit_h_max       6
_diffrn_reflns_limit_h_min       -6
_diffrn_reflns_limit_k_max       12
_diffrn_reflns_limit_k_min       -12
_diffrn_reflns_limit_l_max       17
_diffrn_reflns_limit_l_min       -17
_diffrn_reflns_number            14082
_diffrn_reflns_theta_full        25.242
_diffrn_reflns_theta_max         28.000
_diffrn_reflns_theta_min         3.165
_exptl_absorpt_coefficient_mu    0.831
_exptl_absorpt_correction_T_max  0.905
_exptl_absorpt_correction_T_min  0.844
_exptl_absorpt_correction_type   multi-scan
_exptl_absorpt_process_details
;
(SADABS; Bruker, 2009)
;
_exptl_crystal_colour            colourless
_exptl_crystal_density_diffrn    1.916
_exptl_crystal_density_method    'not measured'
_exptl_crystal_description       prism
_exptl_crystal_F_000             356
_exptl_crystal_size_max          0.21
_exptl_crystal_size_mid          0.17
_exptl_crystal_size_min          0.12
_refine_diff_density_max         0.342
_refine_diff_density_min         -0.532
_refine_ls_extinction_method     none
_refine_ls_goodness_of_fit_ref   1.112
_refine_ls_hydrogen_treatment    refall
_refine_ls_matrix_type           full
_refine_ls_number_parameters     203
_refine_ls_number_reflns         2892
_refine_ls_number_restraints     10
_refine_ls_restrained_S_all      1.111
_refine_ls_R_factor_all          0.0394
_refine_ls_R_factor_gt           0.0357
_refine_ls_shift/su_max          0.000
_refine_ls_shift/su_mean         0.000
_refine_ls_structure_factor_coef Fsqd
_refine_ls_weighting_details
'w=1/[\s^2^(Fo^2^)+(0.0418P)^2^+0.7302P] where P=(Fo^2^+2Fc^2^)/3'
_refine_ls_weighting_scheme      calc
_refine_ls_wR_factor_gt          0.0984
_refine_ls_wR_factor_ref         0.1000
_reflns_number_gt                2625
_reflns_number_total             2892
_reflns_threshold_expression     'I > 2\s(I)'
_cod_data_source_file            bt4077sup1.cif
_cod_data_source_block           I
_cod_database_code               1550276
_shelx_space_group_comment
;
The symmetry employed for this shelxl refinement is uniquely defined
by the following loop, which should always be used as a source of
symmetry information in preference to the above space-group names.
They are only intended as comments.
;
_shelx_hkl_file
;
   1   0   0  506.38   17.50
   1   0   0  473.82   17.47
   1   0   0  487.74   17.50
   1   0   0  504.49   17.98
  -1   0   0  514.09   16.83
  -1   0   0  493.55   17.85
   1   0   0  501.15   16.79
   1   0   0  503.51   16.85
   1   0   0  470.45   18.72
   1   0   0  500.71   18.91
   1   0   0  528.37   17.87
   1   0   0  491.29   19.14
   1   0   0  471.29   20.47
   2   0   0 5089.50  168.01
   2   0   0 5335.87  173.98
   2   0   0 4826.60  167.79
  -2   0   0 5033.93  172.55
  -2   0   0 5045.14  198.62
   2   0   0 4976.09  165.19
   2   0   0 5268.11  164.46
   2   0   0 4753.33  174.92
   2   0   0 5098.34  174.63
   2   0   0 5330.33  187.00
   2   0   0 4943.21  198.52
   3   0   0 1052.51   38.58
  -3   0   0  968.44   41.76
   3   0   0  984.91   33.61
   3   0   0  994.36   35.17
   3   0   0 1040.64   33.58
   3   0   0 1014.77   41.85
   3   0   0  992.68   33.91
   3   0   0 1002.37   33.85
   3   0   0  990.58   35.13
   4   0   0    9.70    1.69
   4   0   0    6.90    1.69
   4   0   0   12.94    2.30
   4   0   0    5.98    1.73
   4   0   0    7.81    1.60
   4   0   0    9.98    1.64
   5   0   0  191.47    8.37
   5   0   0  189.81    8.24
   6   0   0  180.54    8.18
   6   0   0  177.05    8.46
   7   0   0   29.19    3.71
   7  -1   0   33.56    3.92
   6  -1   0   15.00    2.47
   6  -1   0   13.94    2.53
   5  -1   0  129.81    6.16
   5  -1   0  131.11    6.18
   4  -1   0   13.34    1.65
   4  -1   0   14.46    1.80
  -4   1   0   15.44    2.96
   4  -1   0   14.71    1.80
   4  -1   0   18.55    2.70
   4  -1   0   15.94    1.75
   4  -1   0   17.42    2.07
   3  -1   0   18.10    1.66
   3  -1   0   14.96    1.43
   3  -1   0   18.54    1.40
   3  -1   0   17.08    1.46
   3  -1   0   16.44    1.36
   3  -1   0   16.96    2.84
  -3   1   0   13.94    2.37
   2  -1   0 1271.06   42.56
   2  -1   0 1208.36   40.19
   2  -1   0 1214.52   40.09
   2  -1   0 1236.61   39.54
  -2   1   0 1209.03   39.65
   2  -1   0 1218.80   39.66
  -2   1   0 1162.04   42.55
   2  -1   0 1143.62   48.52
  -2   1   0 1179.57   42.19
   2  -1   0 1178.06   41.75
  -1   1   0  227.92    8.73
   1  -1   0  225.84    8.40
   1  -1   0  238.21    8.08
   1  -1   0  238.72    8.07
   1  -1   0  247.79    8.73
   1  -1   0  228.53    8.09
  -1   1   0  245.07    8.07
  -1   1   0  221.81    8.83
   1  -1   0  235.16    8.13
   0   1   0    6.29    0.64
   1   1   0 5884.67  185.88
  -1  -1   0 5839.45  209.21
   1   1   0 5502.07  182.76
   1   1   0 5357.08  192.67
   1   1   0 5452.09  186.77
   1   1   0 5307.64  181.72
  -1  -1   0 5971.31  186.10
   1   1   0 5513.15  192.71
  -1  -1   0 5797.49  183.87
  -1  -1   0 5496.28  193.17
  -1  -1   0 5620.97  192.80
  -1  -1   0 5399.14  221.04
   2   1   0  475.63   15.54
   2   1   0  448.71   15.43
  -2  -1   0  445.00   17.55
   2   1   0  441.70   15.49
   2   1   0  441.99   19.10
   2   1   0  440.99   15.48
   2   1   0  458.64   17.48
   2   1   0  422.86   15.97
  -2  -1   0  437.13   19.17
  -2  -1   0  439.20   15.20
   2   1   0  435.31   16.00
   3   1   0 2139.20   72.50
   3   1   0 2236.72   72.48
   3   1   0 2225.94   88.23
   3   1   0 2279.60   73.36
   3   1   0 2300.25   82.34
  -3  -1   0 2090.82   88.30
   3   1   0 2251.18   76.14
   3   1   0 2169.07   76.16
   3   1   0 2100.31   73.29
   4   1   0   13.95    2.15
   4   1   0   17.63    2.58
   4   1   0   15.64    2.30
  -4  -1   0   12.12    3.34
   4   1   0   13.87    1.98
   4   1   0   11.07    2.29
   4   1   0   10.91    2.03
   5   1   0    6.58    2.09
   5   1   0    8.09    2.03
   5   1   0    6.87    2.15
   6   1   0   79.21    5.43
   6   1   0   82.12    5.35
   7   1   0   41.41    4.37
   7  -2   0   42.42    4.12
   6  -2   0   22.53    2.78
   5  -2   0    1.66    1.54
   5  -2   0    3.53    1.53
  -5   2   0    1.58    2.19
   4  -2   0  106.83    5.09
   4  -2   0  109.87    4.98
   4  -2   0  110.21    5.12
   4  -2   0  112.39    5.15
   4  -2   0  119.30    5.34
  -4   2   0  115.55    6.98
   3  -2   0 3281.75  110.08
   3  -2   0 3470.53  133.99
  -3   2   0 3213.85  117.30
  -3   2   0 3303.76  116.29
   3  -2   0 3449.05  115.84
   3  -2   0 3456.84  111.39
   3  -2   0 3317.23  111.56
   3  -2   0 3479.03  109.94
   2  -2   0   25.78    2.08
   2  -2   0   23.65    1.96
  -2   2   0   25.47    2.30
   2  -2   0   25.35    1.69
   2  -2   0   29.93    1.83
   2  -2   0   25.96    1.76
  -2   2   0   21.48    2.29
  -1   2   0 1376.89   49.56
  -1   2   0 1478.97   47.71
   1  -2   0 1491.93   47.74
   1  -2   0 1385.47   49.63
   1  -2   0 1403.72   47.86
   1  -2   0 1504.33   47.23
   1  -2   0 1412.19   47.30
  -1   2   0 1420.08   47.12
   0  -2   0 3282.49  112.71
   0   2   0 3234.93  113.83
   0   2   0 3352.35  108.57
   0  -2   0 3296.72  108.47
   0  -2   0 3306.37  107.11
   0  -2   0 3119.32  113.46
   0  -2   0 3344.06  108.60
   0   2   0 3293.97  108.45
   0   2   0 3317.91  107.08
  -1  -2   0  944.69   32.07
  -1  -2   0  986.08   31.87
  -1  -2   0  917.90   33.20
   1   2   0  979.29   32.24
   1   2   0  979.10   32.17
   1   2   0  981.32   33.51
   1   2   0  930.07   31.90
  -1  -2   0 1015.19   32.14
   1   2   0  925.89   33.36
  -1  -2   0  837.99   33.23
  -2  -2   0   45.60    3.72
  -2  -2   0   52.21    3.33
   2   2   0   52.69    2.98
   2   2   0   48.93    2.99
  -2  -2   0   53.82    2.97
  -2  -2   0   48.14    2.51
   2   2   0   49.99    3.13
   2   2   0   48.65    3.06
   2   2   0   45.99    3.21
  -2  -2   0   47.25    2.55
   3   2   0  396.79   14.25
  -3  -2   0  377.46   13.69
   3   2   0  388.73   14.73
  -3  -2   0  378.70   15.99
   3   2   0  380.49   14.29
   3   2   0  384.92   14.20
  -3  -2   0  358.48   17.69
   3   2   0  379.33   14.62
   4   2   0  103.46    5.67
  -4  -2   0   85.76    7.15
   4   2   0   96.81    5.39
   4   2   0   94.75    5.64
   4   2   0  100.13    5.47
   5   2   0   23.51    3.08
   5   2   0   19.42    2.90
   5   2   0   27.66    3.17
  -5  -2   0   34.02    5.17
   6   2   0    0.02    2.21
   6   2   0    2.32    2.29
   7   2   0   32.10    4.26
   7  -3   0  136.27    7.49
   6  -3   0   66.65    4.55
   5  -3   0  128.78    6.30
  -5   3   0  144.31    8.63
   5  -3   0  137.08    6.42
  -4   3   0   33.48    4.22
   4  -3   0   44.35    3.05
   4  -3   0   37.02    3.03
   4  -3   0   43.38    2.97
   4  -3   0   37.87    2.98
  -4   3   0   34.51    3.97
   3  -3   0   -0.95    1.05
  -3   3   0    0.34    1.64
  -3   3   0   -0.10    0.48
   3  -3   0    2.43    1.07
  -3   3   0    0.60    1.59
   3  -3   0    1.73    1.06
   3  -3   0    0.26    1.25
   2  -3   0 1823.14   60.78
   2  -3   0 1828.53   63.23
  -2   3   0 1785.78   63.35
  -2   3   0 1797.07   62.95
   2  -3   0 1916.87   60.26
  -2   3   0 1778.23   64.01
   2  -3   0 1746.20   60.26
   2  -3   0 1772.59   60.97
  -2   3   0 1987.45   60.59
  -2   3   0 1802.46   59.90
   1  -3   0  184.58    7.58
  -1   3   0  185.48    7.08
  -1   3   0  186.60    7.30
   1  -3   0  182.37    7.50
   1  -3   0  189.23    7.31
   1  -3   0  185.05    7.40
   0   3   0 4165.62  147.98
   0  -3   0 4194.60  148.33
   0   3   0 4185.90  141.31
   0   3   0 4053.25  146.80
   0  -3   0 4356.00  139.59
   0   3   0 4454.35  141.33
   0  -3   0 4363.58  141.31
   0  -3   0 4296.69  146.83
   0  -3   0 4409.76  141.47
   1   3   0  757.83   27.02
  -1  -3   0  760.17   26.84
  -1  -3   0  740.14   25.77
  -1  -3   0  735.61   25.70
   1   3   0  785.57   25.95
   1   3   0  725.43   25.86
   1   3   0  752.06   25.83
   1   3   0  705.04   26.75
  -2  -3   0  173.57    7.15
   2   3   0  152.31    7.30
   2   3   0  181.50    7.23
   2   3   0  154.03    7.04
   2   3   0  169.65    7.31
  -2  -3   0  161.65    6.91
  -2  -3   0  149.27    8.50
  -2  -3   0  174.09    6.76
   2   3   0  159.66    7.48
  -2  -3   0  161.08    7.88
  -3  -3   0   53.15    2.79
   3   3   0   47.08    3.92
  -3  -3   0   49.23    4.07
   3   3   0   54.56    4.00
   3   3   0   50.72    3.75
   3   3   0   58.94    3.96
   3   3   0   52.44    4.19
  -3  -3   0   53.65    3.69
  -3  -3   0   52.79    4.88
   4   3   0  179.82    8.37
   4   3   0  164.47    8.36
   4   3   0  169.27    8.28
  -4  -3   0  178.35    9.08
  -4  -3   0  163.46   10.44
   5   3   0  108.47    6.77
  -5  -3   0  119.32    9.32
   5   3   0  124.65    7.00
   5   3   0  118.68    6.94
   6   3   0   -1.69    2.22
   6   3   0    2.93    2.62
   7   3   0   38.18    4.86
   7  -4   0   -0.50    2.13
  -6   4   0   28.91    4.74
   6  -4   0   28.69    3.09
   6  -4   0   24.09    3.04
  -5   4   0  661.64   27.64
  -5   4   0  696.01   28.55
   5  -4   0  693.71   24.92
   5  -4   0  705.35   24.60
   4  -4   0  836.45   29.16
  -4   4   0  780.03   31.48
   4  -4   0  851.49   30.17
  -4   4   0  846.76   32.36
   3  -4   0   54.51    3.65
   3  -4   0   56.35    3.61
   3  -4   0   55.49    3.48
  -3   4   0   63.10    4.52
  -3   4   0   68.65    3.44
   3  -4   0   53.31    3.77
  -3   4   0   57.98    4.66
   2  -4   0  454.33   16.75
  -2   4   0  450.39   16.66
   2  -4   0  451.12   16.73
   2  -4   0  490.78   16.65
  -2   4   0  456.25   16.30
  -2   4   0  448.31   17.55
   2  -4   0  459.64   17.27
  -2   4   0  470.85   16.05
  -1   4   0  425.99   15.22
  -1   4   0  426.34   15.82
   1  -4   0  431.39   15.60
   1  -4   0  427.20   16.05
   1  -4   0  401.43   15.50
   1  -4   0  451.82   15.50
  -1   4   0  400.45   15.29
   0   4   0    6.74    1.54
   0   4   0    9.59    1.28
   0   4   0    9.31    1.83
   0  -4   0    7.37    1.50
   0   4   0    7.22    1.52
   0  -4   0    5.02    1.71
   0  -4   0    5.24    1.52
   0  -4   0    6.47    1.14
  -1  -4   0 3780.84  134.50
   1   4   0 3821.64  127.99
   1   4   0 3990.82  134.39
  -1  -4   0 3862.96  127.91
   1   4   0 4024.26  129.61
   1   4   0 3760.41  134.46
  -1  -4   0 4031.90  129.49
  -2  -4   0  283.69   11.21
  -2  -4   0  274.78   10.74
   2   4   0  270.28   11.37
   2   4   0  260.33   11.21
   2   4   0  263.36   11.35
   2   4   0  295.93   11.92
   3   4   0  427.65   16.96
  -3  -4   0  432.68   16.25
  -3  -4   0  419.95   18.65
   3   4   0  437.82   17.41
  -3  -4   0  409.31   20.33
   3   4   0  445.75   17.76
  -3  -4   0  445.29   15.81
   3   4   0  439.36   17.10
   3   4   0  466.54   17.14
  -3  -4   0  435.03   16.45
  -4  -4   0   15.93    3.75
  -4  -4   0   12.92    2.73
   4   4   0   10.61    2.88
   4   4   0   10.90    2.53
   4   4   0    9.86    2.63
   5   4   0    5.43    2.74
   5   4   0    3.39    2.17
   5   4   0    2.76    2.45
   6   4   0   48.85    5.18
   6   4   0   46.00    5.10
   6   4   0   63.80    5.58
  -7   5   0   96.42    8.63
   7  -5   0   98.62    6.37
   6  -5   0   70.70    5.05
   6  -5   0   64.81    4.80
  -6   5   0   68.56    6.87
  -5   5   0    8.19    3.01
   5  -5   0    3.98    2.07
   5  -5   0    6.14    2.20
  -5   5   0    7.79    3.19
  -4   5   0  134.40    8.31
   4  -5   0  138.54    6.88
  -4   5   0  139.48    8.13
   3  -5   0  155.70    7.14
   3  -5   0  138.46    7.16
   3  -5   0  149.98    7.21
  -3   5   0  141.60    8.07
  -3   5   0  149.64    6.52
   3  -5   0  164.80    7.22
  -3   5   0  143.83    7.74
  -2   5   0  462.93   17.31
   2  -5   0  514.86   18.49
   2  -5   0  472.83   17.83
  -2   5   0  463.82   16.94
   2  -5   0  501.61   17.75
  -2   5   0  463.33   17.69
   2  -5   0  475.72   17.87
  -1   5   0   67.29    3.93
   1  -5   0   64.25    4.10
  -1   5   0   65.18    4.32
   1  -5   0   61.22    4.27
   1  -5   0   66.51    4.15
  -1   5   0   59.87    3.87
   1  -5   0   62.68    3.21
   0  -5   0   15.75    2.32
   0   5   0   18.88    2.27
   0   5   0   21.68    2.46
   0   5   0   27.06    2.97
   0  -5   0   31.69    2.97
   0  -5   0   18.32    2.64
   1   5   0   25.85    2.90
   1   5   0   23.51    2.71
  -1  -5   0   29.36    3.24
   1   5   0   27.97    2.68
  -1  -5   0   29.92    2.94
   1   5   0   47.65    3.74
  -1  -5   0   25.36    2.87
  -2  -5   0  164.01    7.69
  -2  -5   0  167.15    8.03
  -2  -5   0  173.09    8.22
   2   5   0  177.59    8.37
   2   5   0  164.88    8.47
   2   5   0  171.75    8.26
   3   5   0  195.81    9.31
  -3  -5   0  193.92    9.03
   3   5   0  199.64    9.64
   3   5   0  188.50    9.43
  -3  -5   0  185.39   11.03
  -3  -5   0  187.30   10.02
  -4  -5   0  300.14   16.75
   4   5   0  285.03   13.51
   4   5   0  307.93   13.80
   4   5   0  333.74   14.23
  -4  -5   0  319.61   15.04
   5   5   0   24.09    3.87
   5   5   0   28.01    4.74
   5   5   0   31.36    4.16
   5   5   0   15.44    3.68
   6   5   0   15.39    3.73
   6   5   0   14.51    3.84
   6   5   0   18.17    4.15
  -7   6   0  111.02    9.17
   7  -6   0   98.99    6.77
  -6   6   0   94.71    8.73
   6  -6   0   74.84    5.61
   6  -6   0   88.67    5.90
  -6   6   0   74.04    7.27
   6  -6   0   81.73    5.71
  -5   6   0    0.79    2.64
  -5   6   0   -1.31    2.31
   5  -6   0    3.13    2.22
  -4   6   0  296.97   14.21
   4  -6   0  285.58   12.27
   4  -6   0  282.68   12.19
  -4   6   0  280.24   13.44
   3  -6   0    5.64    2.30
   3  -6   0   13.58    2.52
   3  -6   0   13.50    2.79
  -3   6   0    5.16    2.30
  -3   6   0   11.81    2.14
  -2   6   0 1295.18   44.69
   2  -6   0 1357.90   47.24
   2  -6   0 1299.95   45.58
   2  -6   0 1247.40   45.17
  -2   6   0 1344.87   44.66
  -1   6   0  300.08   12.90
   1  -6   0  323.24   13.36
  -1   6   0  317.04   12.53
  -1   6   0  328.64   13.08
   1  -6   0  324.11   11.92
   1  -6   0  307.02   13.02
   0  -6   0  389.56   15.70
   0   6   0  379.50   14.84
   0  -6   0  380.92   15.24
   0   6   0  359.04   15.16
   0   6   0  373.17   15.10
   0  -6   0  370.26   14.97
   1   6   0  681.66   25.17
  -1  -6   0  664.95   24.80
  -1  -6   0  650.20   25.81
   1   6   0  711.46   25.93
   1   6   0  691.05   25.08
  -1  -6   0  659.11   25.01
   1   6   0  665.79   25.00
   2   6   0   18.96    3.33
   2   6   0   20.47    3.04
  -2  -6   0   14.41    3.07
  -2  -6   0   21.81    2.99
   2   6   0   16.28    3.39
   2   6   0   11.18    2.52
  -2  -6   0   18.49    2.71
   3   6   0   35.85    4.03
  -3  -6   0   41.19    4.13
   3   6   0   40.60    4.28
   3   6   0   42.38    4.82
  -3  -6   0   40.00    4.99
  -3  -6   0   39.37    4.34
   3   6   0   47.66    4.62
   4   6   0  332.22   15.51
  -4  -6   0  344.38   18.62
   4   6   0  346.38   15.74
   4   6   0  315.77   16.10
   4   6   0  350.09   15.40
  -4  -6   0  366.01   16.93
   5   6   0   80.35    7.46
   5   6   0   77.79    6.78
   5   6   0   83.02    6.69
   5   6   0   75.22    6.60
   6   6   0    6.26    3.64
   6   6   0   -3.81    2.90
  -7   7   0   24.08    5.56
   7  -7   0   19.81    3.81
   6  -7   0   74.28    6.02
  -6   7   0   79.91    8.53
  -6   7   0   91.96    8.19
   6  -7   0   89.92    6.42
   5  -7   0   12.51    3.00
  -5   7   0    9.55    3.48
  -5   7   0   21.91    4.60
   4  -7   0   60.53    4.85
   4  -7   0   51.65    4.76
  -4   7   0   50.65    5.20
  -4   7   0   58.88    5.96
  -3   7   0   19.65    2.69
   3  -7   0   20.47    3.48
  -3   7   0   22.12    3.39
   3  -7   0   12.24    2.81
   2  -7   0  111.75    6.65
   2  -7   0  115.57    7.11
  -2   7   0  118.18    5.93
   2  -7   0   99.21    6.94
  -2   7   0  111.51    6.45
  -1   7   0  939.53   33.32
   1  -7   0  912.99   33.85
   1  -7   0  901.43   33.83
   1  -7   0 1001.20   33.26
  -1   7   0  918.76   33.46
  -1   7   0  929.72   34.54
   0   7   0  618.01   23.14
   0   7   0  591.24   22.76
   0  -7   0  613.72   23.97
   0  -7   0  563.36   22.84
   0  -7   0  622.10   23.41
   0   7   0  620.02   23.61
   1   7   0  600.17   23.13
   1   7   0  622.49   22.96
  -1  -7   0  595.87   23.42
   1   7   0  612.38   23.93
  -1  -7   0  577.65   23.87
  -1  -7   0  610.16   23.11
   1   7   0  616.54   23.57
  -2  -7   0  846.87   33.23
   2   7   0  879.02   33.71
   2   7   0  894.63   33.25
  -2  -7   0  927.56   32.27
  -2  -7   0  914.45   32.61
   2   7   0  848.42   32.58
   2   7   0  864.27   32.57
  -3  -7   0   71.38    6.28
   3   7   0   56.27    5.71
  -3  -7   0   59.90    6.49
  -3  -7   0   68.46    5.68
   3   7   0   69.04    5.81
   3   7   0   60.43    5.60
   3   7   0   63.13    5.62
   4   7   0   45.05    5.42
   4   7   0   31.40    4.88
   4   7   0   37.42    4.90
   4   7   0   42.64    4.92
  -4  -7   0   38.58    5.10
   5   7   0   28.15    4.88
   5   7   0   25.37    5.09
   5   7   0   24.93    4.76
   5   7   0   29.23    4.71
   6   7   0   -0.50    3.33
  -7   8   0   55.90    7.65
  -6   8   0    3.84    3.69
   6  -8   0    2.84    2.79
   6  -8   0   -1.58    2.67
   5  -8   0    0.32    2.40
  -5   8   0    5.35    3.11
  -5   8   0    4.81    3.18
  -4   8   0  219.19   11.66
  -4   8   0  203.55   11.89
   4  -8   0  209.38   10.86
   4  -8   0  217.42   10.84
  -3   8   0   62.99    5.65
  -3   8   0   77.82    5.52
   3  -8   0   72.86    5.56
   3  -8   0   74.24    6.01
  -2   8   0   39.18    4.09
  -2   8   0   56.24    4.14
   2  -8   0   29.29    3.94
   2  -8   0   42.75    4.74
  -1   8   0   79.98    5.43
  -1   8   0   80.63    5.91
   1  -8   0   70.08    5.77
   1  -8   0   65.79    5.75
  -1   8   0   75.70    5.28
   0   8   0  222.18   11.29
   0  -8   0  214.92   11.46
   0  -8   0  240.27   11.34
   0   8   0  239.04   11.09
   0   8   0  238.49   11.21
   0  -8   0  231.75   11.59
   1   8   0  616.20   25.09
  -1  -8   0  633.26   25.18
  -1  -8   0  634.24   24.70
   1   8   0  655.97   25.66
  -1  -8   0  656.55   25.77
   1   8   0  640.33   24.87
   1   8   0  643.48   24.32
   2   8   0  571.44   22.56
   2   8   0  577.25   23.48
  -2  -8   0  543.08   22.63
  -2  -8   0  585.30   22.26
   2   8   0  549.51   22.60
   2   8   0  548.64   22.95
   3   8   0   50.23    5.70
   3   8   0   72.13    6.21
   3   8   0   49.63    5.39
  -3  -8   0   46.66    5.27
  -3  -8   0   68.06    6.53
   3   8   0   53.96    5.39
   4   8   0   22.27    4.46
   4   8   0   28.13    4.87
  -4  -8   0   21.01    4.52
   4   8   0   18.42    4.33
   4   8   0   24.50    4.45
   5   8   0    4.71    3.25
   5   8   0   -1.13    3.28
   5   8   0    3.76    3.64
   6   8   0    9.85    4.45
   6  -9   0   12.86    3.94
  -6   9   0   22.04    5.36
   6  -9   0   28.20    4.78
   5  -9   0   25.20    4.42
  -5   9   0   29.39    5.20
  -5   9   0   29.26    5.56
   4  -9   0    0.16    2.37
  -4   9   0   -0.64    2.64
  -4   9   0    0.20    2.59
   4  -9   0   -0.04    2.62
  -3   9   0   21.21    3.84
   3  -9   0   23.69    4.03
   3  -9   0   28.70    4.56
   2  -9   0   13.01    3.35
   2  -9   0   20.99    4.08
  -2   9   0   16.30    3.49
   1  -9   0   80.35    6.24
  -1   9   0   95.56    6.20
  -1   9   0   92.38    6.01
   1  -9   0   75.13    6.47
   1  -9   0   86.74    6.82
  -1   9   0   82.14    6.46
   0   9   0   72.19    5.70
   0   9   0   74.64    6.50
   0  -9   0   55.01    5.92
   0  -9   0   75.55    5.99
   0   9   0   78.17    6.02
   0  -9   0   77.14    6.43
  -1  -9   0  198.80   10.94
  -1  -9   0  193.24   10.77
   1   9   0  197.99   10.78
   1   9   0  197.84   10.47
  -1  -9   0  196.78   10.50
   1   9   0  184.62   10.80
   2   9   0  262.13   13.35
   2   9   0  278.00   13.78
   2   9   0  274.67   12.69
   2   9   0  251.12   13.78
  -2  -9   0  271.76   13.51
   3   9   0  189.18   10.58
   3   9   0  177.72   10.67
   3   9   0  187.01   11.37
  -3  -9   0  184.58   11.80
   3   9   0  186.08   11.03
  -3  -9   0  169.87   10.51
   4   9   0   41.54    6.28
  -4  -9   0   49.64    6.50
   4   9   0   50.30    6.40
   4   9   0   49.35    6.13
   4   9   0   51.31    6.05
   5   9   0   48.21    6.80
  -6  10   0   33.23    6.34
  -5  10   0   19.44    4.87
   5 -10   0   19.44    4.54
  -4  10   0    2.60    3.08
   4 -10   0    0.84    2.75
  -4  10   0    7.08    3.17
   4 -10   0    1.30    2.90
   3 -10   0   71.02    6.72
  -3  10   0   64.99    6.24
   3 -10   0   64.35    6.26
   2 -10   0   84.41    7.06
   2 -10   0   90.96    7.59
  -2  10   0   82.02    6.68
  -1  10   0  201.09   10.44
  -1  10   0  209.72   11.39
   1 -10   0  201.21   11.47
   1 -10   0  204.77   11.57
   1 -10   0  190.13   10.97
   0  10   0   -0.56    2.30
   0 -10   0   -4.26    2.18
   0  10   0    1.55    2.47
   0  10   0    2.03    3.13
   0 -10   0    1.78    2.60
   0 -10   0    1.31    2.76
  -1 -10   0   30.58    4.35
   1  10   0   14.86    3.81
   1  10   0   22.98    4.27
   1  10   0   23.83    4.62
  -1 -10   0   27.06    4.81
   2  10   0  100.66    7.74
  -2 -10   0   91.77    7.94
   2  10   0   92.53    7.71
   2  10   0   87.93    7.96
   3  10   0   55.39    7.11
   3  10   0   66.17    6.84
   3  10   0   62.43    6.87
  -3 -10   0   65.38    7.39
   4  10   0    4.33    3.87
   4  10   0    7.16    4.54
   4  10   0    3.95    3.62
   5  10   0    0.63    4.17
  -5  11   0   14.97    4.60
   5 -11   0   10.49    4.28
  -4  11   0   65.97    7.10
   4 -11   0   72.17    7.08
   4 -11   0   74.68    7.47
   3 -11   0    8.47    3.77
  -3  11   0    4.21    3.08
   3 -11   0   10.24    3.94
   2 -11   0   30.95    5.42
   2 -11   0   30.64    5.04
   2 -11   0   25.15    5.18
  -2  11   0   23.90    4.64
   1 -11   0   33.97    5.33
   1 -11   0   35.36    5.71
  -1  11   0   29.05    5.24
   1 -11   0   38.54    5.47
   0  11   0  230.09   12.32
   0 -11   0  255.38   13.79
   0  11   0  237.63   13.39
   0 -11   0  234.58   12.95
   1  11   0   33.05    5.68
  -1 -11   0   38.68    6.08
   1  11   0   35.79    5.25
  -2 -11   0  121.12    9.65
   2  11   0  128.88    9.24
   2  11   0  136.26    9.68
   2  11   0  105.28    9.47
   3  11   0   84.34    8.00
   3  11   0  101.54    8.98
   3  11   0   69.12    8.01
   4  11   0   24.25    6.11
  -5  12   0    2.11    3.82
  -4  12   0    7.31    3.92
   4 -12   0    4.86    4.05
   4 -12   0    2.58    3.57
  -3  12   0   81.21    7.82
   3 -12   0   63.26    7.57
   3 -12   0   78.56    7.76
   3 -12   0   82.38    8.18
   2 -12   0    6.54    3.77
   2 -12   0   -1.16    3.63
  -2  12   0   -1.17    3.36
   2 -12   0    1.40    3.79
   1 -12   0   18.73    5.28
  -1  12   0   14.46    4.65
   1 -12   0   13.70    4.31
   1 -12   0    8.72    3.91
   0 -12   0   29.86    5.82
   0 -12   0   30.52    5.39
   0  12   0   26.56    5.51
   1  12   0   42.74    6.56
   1  12   0   35.12    5.74
  -1 -12   0   37.47    6.40
  -2 -12   0   28.06    6.13
   2  12   0   25.84    5.49
   2  12   0   20.86    5.70
   3  12   0  177.55   12.52
   3  12   0  165.81   12.09
   4 -13   0   11.80    5.02
  -4  13   0    7.80    4.32
   3 -13   0    8.74    4.62
  -3  13   0    7.12    4.01
   3 -13   0    8.00    4.31
   2 -13   0    8.57    4.41
   2 -13   0    8.07    4.63
   2 -13   0    1.18    3.60
   1 -13   0    8.45    4.53
   1 -13   0   -0.94    3.53
  -1  13   0   10.30    4.68
   0  13   0   52.02    7.27
   0 -13   0   69.03    8.46
  -1 -13   0    3.11    4.54
   1  13   0    3.39    4.26
   2  13   0   28.91    6.82
   2  13   0   26.31    6.08
   2 -14   0   10.21    4.91
   1 -14   0   46.60    7.78
  -1  14   0   54.90    7.45
   0 -14   0   53.74    8.14
   0  14   0   40.30    7.37
  -1 -14   0   30.95    6.98
   1  14   0   17.85    6.16
   0  15  -1   39.62    7.43
   1  14  -1   11.86    5.30
  -1 -14   1   19.29    6.15
   0  14  -1   26.31    6.18
   0 -14   1   20.62    6.16
   1 -14   1   39.14    6.81
  -1  14  -1   30.03    6.17
   1 -14   1   28.87    6.63
   2 -14   1    9.78    4.87
   3 -14   1   88.44    9.42
  -2 -13   1   12.44    5.48
   2  13  -1    8.74    4.94
   2  13  -1   10.94    4.77
   1  13  -1   16.87    5.37
  -1 -13   1   22.44    5.91
   0 -13   1   65.40    8.08
   0  13  -1   75.79    8.28
  -1  13  -1   33.20    5.86
   1 -13   1   26.41    5.94
   1 -13   1   35.32    6.02
   2 -13   1    1.89    3.60
   2 -13   1    1.03    3.76
   2 -13   1    7.18    4.55
  -3  13  -1    0.43    3.12
   3 -13   1    1.85    4.06
   3 -13   1    1.59    3.32
   3 -13   1   -1.66    3.90
   4 -13   1   59.76    7.56
  -4  13  -1   48.09    6.97
   3  12  -1    2.75    4.10
   3  12  -1    7.45    4.54
  -2 -12   1    2.10    3.75
   2  12  -1    0.44    3.55
   2  12  -1    3.73    4.28
   1  12  -1   37.89    5.72
  -1 -12   1   44.22    6.67
   1  12  -1   42.75    6.64
   0  12  -1   43.57    6.39
   0 -12   1   51.41    7.07
   0 -12   1   51.49    6.48
  -1  12  -1   16.41    4.45
   1 -12   1   15.04    4.72
   1 -12   1   16.93    4.69
   1 -12   1    8.25    3.62
   2 -12   1    4.02    3.84
   2 -12   1    4.07    3.83
   2 -12   1    7.00    3.77
   3 -12   1   87.49    8.27
  -3  12  -1   78.13    7.59
   3 -12   1   78.05    8.11
   3 -12   1   68.90    7.30
   4 -12   1   17.34    4.88
  -4  12  -1   14.63    4.48
   4 -12   1   16.14    4.48
  -5  12  -1   11.87    4.63
   4  11  -1  148.96   11.45
   3  11  -1    6.18    4.22
   3  11  -1   16.39    4.66
   3  11  -1   15.30    4.43
  -3 -11   1    9.40    4.63
   2  11  -1   22.80    4.82
   2  11  -1   25.21    4.97
  -2 -11   1   35.02    5.70
   2  11  -1   34.24    5.99
  -1 -11   1    6.05    3.85
  -1 -11   1    4.62    3.26
   1  11  -1    6.06    3.70
   1  11  -1    7.14    3.53
   0 -11   1   47.62    5.79
   0 -11   1   52.59    6.32
   0  11  -1   66.21    6.64
   0 -11   1   65.37    6.53
   0  11  -1   50.75    5.58
  -1  11  -1  201.50   11.60
   1 -11   1  196.47   11.96
   1 -11   1  191.91   11.30
   1 -11   1  194.98   11.83
  -2  11  -1   39.16    4.98
   2 -11   1   35.78    5.21
   2 -11   1   40.31    5.68
   2 -11   1   33.07    5.47
   3 -11   1   49.32    6.03
   3 -11   1   41.88    5.79
  -3  11  -1   63.97    6.47
  -4  11  -1   13.17    4.17
   4 -11   1   14.60    4.19
   4 -11   1   19.42    4.68
  -5  11  -1   14.90    4.67
   5 -11   1   33.62    5.35
   5  10  -1   14.05    5.21
   4  10  -1   12.78    4.48
   4  10  -1    9.72    3.96
   4  10  -1   15.94    5.14
   3  10  -1   45.37    6.06
  -3 -10   1   65.26    7.29
   3  10  -1   77.73    7.23
   3  10  -1   59.31    7.03
   2  10  -1    8.88    3.37
  -2 -10   1    8.84    3.71
   2  10  -1   10.29    3.75
   2  10  -1    9.41    4.13
   1  10  -1  132.97    8.67
  -1 -10   1  141.68    9.59
   1  10  -1  137.36    9.55
   1  10  -1  149.95    9.11
  -1 -10   1  150.02    9.12
   0 -10   1  118.05    8.33
   0  10  -1  150.98    8.70
   0 -10   1  135.68    9.32
   0  10  -1  148.42    8.47
   0 -10   1  138.31    9.06
   0  10  -1  124.21    8.91
   1 -10   1   44.31    5.68
   1 -10   1   50.95    5.68
   1 -10   1   41.33    5.12
  -1  10  -1   50.24    5.43
   2 -10   1   31.23    4.62
  -2  10  -1   32.26    4.58
   2 -10   1   31.46    4.95
   2 -10   1   24.32    4.38
   3 -10   1   17.30    3.76
  -3  10  -1   18.21    4.00
   3 -10   1   16.11    4.14
   4 -10   1  173.08   10.30
  -4  10  -1  176.15   10.96
   4 -10   1  175.55   10.50
  -4  10  -1  168.47   11.21
  -5  10  -1   45.95    6.54
   5 -10   1   52.79    5.98
  -6  10  -1   19.32    5.42
   5   9  -1    2.57    3.77
   5   9  -1    6.31    4.26
   4   9  -1   45.93    6.17
   4   9  -1   42.72    6.01
   4   9  -1   56.36    6.36
   4   9  -1   51.76    6.16
   3   9  -1   54.86    6.36
   3   9  -1   67.75    6.52
   3   9  -1   66.17    5.95
  -3  -9   1   71.11    7.04
  -3  -9   1   62.33    6.44
   3   9  -1   62.72    6.36
   2   9  -1   43.26    4.49
  -2  -9   1   53.25    5.71
   2   9  -1   52.73    5.46
   2   9  -1   43.29    5.63
   2   9  -1   52.83    5.44
  -1  -9   1   93.60    6.88
   1   9  -1   79.31    6.86
  -1  -9   1   95.18    6.79
  -1  -9   1   86.00    6.95
   1   9  -1   90.17    6.60
   1   9  -1   80.67    6.53
   1   9  -1   82.11    5.38
   0  -9   1  145.93    8.95
   0   9  -1  144.21    8.86
   0   9  -1  142.95    8.26
   0  -9   1  149.91    8.77
   0  -9   1  151.83    9.18
   0   9  -1  160.15    8.70
   1  -9   1  567.74   24.17
  -1   9  -1  626.87   23.34
   1  -9   1  608.02   24.98
   1  -9   1  620.13   24.16
  -1   9  -1  610.89   24.08
  -1   9  -1  599.83   23.76
   2  -9   1   27.24    4.22
   2  -9   1   31.02    4.23
  -2   9  -1   30.90    4.13
   3  -9   1  312.87   14.46
   3  -9   1  313.43   14.78
  -3   9  -1  329.37   15.30
  -4   9  -1    2.04    2.74
   4  -9   1   -0.94    2.51
   4  -9   1    1.74    2.49
  -4   9  -1   -2.14    2.35
  -5   9  -1  152.11   10.79
   5  -9   1  129.99    8.66
  -5   9  -1  156.41   10.54
   6  -9   1    9.66    3.37
  -6   9  -1    6.98    4.18
   6  -9   1    3.01    3.19
   6   8  -1   92.65    8.43
   5   8  -1    3.58    3.41
   5   8  -1   -0.99    3.30
   5   8  -1   -3.35    2.95
   5   8  -1    2.34    3.19
  -4  -8   1  207.18   12.21
   4   8  -1  211.47   11.91
   4   8  -1  209.57   11.79
   4   8  -1  196.78   11.73
   4   8  -1  218.19   12.15
   3   8  -1    1.92    2.38
   3   8  -1   -2.20    2.61
   3   8  -1   -0.36    2.23
  -3  -8   1    2.32    2.77
  -3  -8   1   -0.25    2.26
   3   8  -1    3.93    3.14
   2   8  -1   63.81    5.04
   2   8  -1   65.05    5.58
   2   8  -1   65.67    6.15
  -2  -8   1   61.40    5.79
   2   8  -1   64.95    5.59
  -2  -8   1   68.10    5.49
   1   8  -1    2.94    2.49
   1   8  -1    3.32    2.25
   1   8  -1    7.92    2.01
   1   8  -1    7.84    3.03
  -1  -8   1    3.49    2.49
  -1  -8   1    2.29    2.81
  -1  -8   1    3.59    2.28
   0  -8   1    2.27    2.55
   0  -8   1    5.22    2.53
   0   8  -1    3.46    2.20
   0  -8   1    5.13    2.79
   0   8  -1    3.25    2.39
   0   8  -1    3.03    2.75
  -1   8  -1  835.35   30.71
   1  -8   1  795.44   30.32
   1  -8   1  819.76   31.42
  -1   8  -1  814.14   29.53
   1  -8   1  780.39   30.18
  -1   8  -1  826.01   30.00
  -2   8  -1  216.42    8.92
   2  -8   1  170.93    9.55
  -2   8  -1  219.18    9.85
   2  -8   1  173.31    9.89
   3  -8   1  211.84   10.51
  -3   8  -1  208.71    9.56
  -3   8  -1  200.86   10.68
   3  -8   1  193.78   10.08
  -4   8  -1  177.36   10.65
   4  -8   1  170.97    9.14
   4  -8   1  168.95    9.23
  -4   8  -1  155.94    9.90
  -5   8  -1   64.19    7.13
  -5   8  -1   67.25    6.88
   5  -8   1   67.97    5.63
   6  -8   1   36.91    4.78
   6  -8   1   40.06    4.62
  -6   8  -1   39.55    6.23
  -7   8  -1   -0.25    3.95
   6   7  -1   -5.56    2.77
   5   7  -1   11.90    3.74
   5   7  -1    9.60    3.81
   5   7  -1   15.24    4.21
   5   7  -1   16.95    4.43
   4   7  -1  118.34    8.31
   4   7  -1  103.07    7.72
   4   7  -1  108.92    7.47
  -4  -7   1  108.22    7.78
   4   7  -1  104.25    7.60
   3   7  -1  786.23   29.40
   3   7  -1  747.51   29.94
  -3  -7   1  751.02   34.27
   3   7  -1  739.76   29.76
   3   7  -1  723.82   28.89
  -3  -7   1  797.02   32.15
  -3  -7   1  777.50   28.70
  -2  -7   1  167.72    9.28
  -2  -7   1  200.02    9.25
  -2  -7   1  194.34    9.71
   2   7  -1  180.14    9.06
   2   7  -1  185.54    9.60
   2   7  -1  181.85    9.57
   2   7  -1  169.79    9.73
  -1  -7   1  122.09    7.50
   1   7  -1  128.36    7.69
   1   7  -1  127.46    7.23
  -1  -7   1  124.94    7.02
   1   7  -1  116.54    7.05
   1   7  -1  124.58    6.35
  -1  -7   1  123.17    7.37
   0   7  -1   45.45    4.00
   0  -7   1   44.34    4.47
   0   7  -1   47.20    4.10
   0   7  -1   42.52    4.35
   0  -7   1   43.03    4.10
   0  -7   1   49.09    4.61
  -1   7  -1  514.15   20.45
   1  -7   1  525.40   20.45
  -1   7  -1  544.41   19.86
  -1   7  -1  530.43   20.19
   1  -7   1  525.26   20.53
   2  -7   1  956.23   35.70
   2  -7   1  962.70   35.87
   2  -7   1 1046.61   37.22
  -2   7  -1  967.81   34.72
  -2   7  -1 1015.64   35.24
  -2   7  -1 1011.66   36.15
   2  -7   1 1043.78   35.11
   3  -7   1   28.86    3.70
   3  -7   1   22.10    3.28
  -3   7  -1   28.41    2.91
  -3   7  -1   26.28    3.65
  -3   7  -1   30.79    3.96
   4  -7   1   96.63    6.06
   4  -7   1   88.67    6.03
  -4   7  -1  101.87    7.18
  -4   7  -1   93.86    7.18
   5  -7   1   55.11    4.68
  -5   7  -1   56.99    6.47
  -5   7  -1   53.00    6.00
   6  -7   1   31.07    4.06
  -6   7  -1   26.84    5.26
   7  -7   1    4.72    2.65
  -7   7  -1   -2.44    3.38
   7   6  -1   12.14    4.36
   6   6  -1   18.47    4.64
   6   6  -1   19.76    4.51
   5   6  -1    2.31    2.67
   5   6  -1    3.57    2.96
   5   6  -1    1.15    2.53
   5   6  -1    3.56    3.17
   4   6  -1  187.38   10.30
  -4  -6   1  191.12   12.24
   4   6  -1  177.30    9.90
   4   6  -1  194.64   10.32
  -4  -6   1  184.48   10.48
   3   6  -1    3.84    2.77
   3   6  -1    2.78    2.21
   3   6  -1    2.30    2.27
  -3  -6   1    3.90    2.56
  -3  -6   1    6.26    2.44
  -3  -6   1    8.53    2.44
   2   6  -1   92.24    6.17
   2   6  -1  110.37    6.39
   2   6  -1  105.16    6.93
  -2  -6   1   99.43    6.11
   2   6  -1   93.69    5.87
  -2  -6   1   99.52    6.45
  -2  -6   1  104.73    6.00
   1   6  -1   -0.10    2.10
   1   6  -1    0.30    1.55
  -1  -6   1    0.52    1.66
  -1  -6   1    1.83    1.92
  -1  -6   1    3.54    2.22
   1   6  -1    1.75    1.47
   1   6  -1    4.90    2.14
   0  -6   1   33.07    3.52
   0   6  -1   35.57    3.54
   0  -6   1   30.83    3.35
   0   6  -1   28.44    3.02
   0  -6   1   25.74    3.04
   0   6  -1   29.96    3.08
   1  -6   1  906.97   32.74
   1  -6   1  909.16   32.67
  -1   6  -1  890.72   33.35
  -1   6  -1  905.89   32.27
  -1   6  -1  866.55   32.12
   1  -6   1  992.52   34.05
   1  -6   1  968.39   32.17
   2  -6   1  123.81    6.64
  -2   6  -1  130.15    6.51
  -2   6  -1  130.78    5.75
  -2   6  -1  122.36    5.93
   2  -6   1  136.21    6.92
   2  -6   1  122.94    6.81
   3  -6   1  576.06   21.05
  -3   6  -1  541.97   22.67
  -3   6  -1  537.75   22.27
   3  -6   1  574.08   21.01
  -3   6  -1  542.44   19.87
   3  -6   1  593.87   21.70
   4  -6   1   16.07    2.65
   4  -6   1   18.55    2.86
  -4   6  -1   17.32    3.42
  -4   6  -1   17.13    3.59
  -5   6  -1   90.48    7.45
   5  -6   1   97.52    5.83
  -5   6  -1   93.25    7.74
  -6   6  -1    1.33    2.80
   6  -6   1    5.04    2.37
  -6   6  -1    4.82    3.70
   7  -6   1    2.43    2.45
  -7   6  -1    2.27    3.57
   7   5  -1   38.41    5.39
   6   5  -1  127.07    8.53
   6   5  -1  134.97    8.82
   5   5  -1   -0.58    2.06
   5   5  -1   -0.88    2.56
   5   5  -1   -0.22    2.43
  -4  -5   1    4.70    2.84
   4   5  -1    2.06    2.13
   4   5  -1    2.75    2.53
   4   5  -1    2.85    2.73
  -4  -5   1    1.54    2.01
   3   5  -1  359.26   14.67
   3   5  -1  372.36   15.07
  -3  -5   1  334.93   17.03
  -3  -5   1  343.02   15.53
  -3  -5   1  348.50   13.55
   3   5  -1  310.37   14.41
  -3  -5   1  351.45   14.21
  -3  -5   1  360.96   14.00
   2   5  -1   12.45    2.40
  -2  -5   1   18.11    2.31
   2   5  -1   16.88    3.06
  -2  -5   1   15.55    2.40
  -2  -5   1   20.03    2.90
   2   5  -1   15.96    2.90
   2   5  -1   16.68    2.67
  -1  -5   1   15.52    2.50
   1   5  -1   15.75    2.25
   1   5  -1   14.60    1.90
  -1  -5   1   16.28    2.25
   1   5  -1   12.17    2.48
  -1  -5   1   14.52    2.32
   1   5  -1   14.13    2.29
   0   5  -1  235.06    9.81
   0  -5   1  227.75    9.63
   0   5  -1  232.41    8.79
   0  -5   1  224.40   10.08
   0   5  -1  221.39    9.75
   0  -5   1  238.44    9.93
   1  -5   1    1.57    1.32
   1  -5   1    1.56    1.61
  -1   5  -1    4.29    1.37
   1  -5   1    1.33    1.26
  -1   5  -1    2.81    1.25
   1  -5   1    4.14    0.78
  -1   5  -1    3.92    1.72
  -2   5  -1  164.26    7.13
   2  -5   1  148.54    7.29
  -2   5  -1  167.51    6.87
  -2   5  -1  164.88    8.02
   2  -5   1  176.07    7.68
   2  -5   1  163.29    7.62
   2  -5   1  187.14    7.46
  -2   5  -1  166.81    6.56
  -3   5  -1   30.61    2.31
   3  -5   1   32.10    2.79
  -3   5  -1   29.49    3.45
   3  -5   1   30.49    2.87
   3  -5   1   30.10    2.69
   3  -5   1   26.84    2.90
  -3   5  -1   27.54    3.58
  -4   5  -1  295.82   14.21
   4  -5   1  307.33   12.17
  -4   5  -1  278.03   13.58
   4  -5   1  291.62   11.79
   5  -5   1   48.82    3.84
  -5   5  -1   47.15    5.73
  -5   5  -1   43.28    5.13
   5  -5   1   38.13    3.49
   6  -5   1  144.93    7.56
   6  -5   1  162.84    7.78
  -6   5  -1  150.00   10.18
   7  -5   1    0.00    2.00
  -7   5  -1    3.48    3.62
   7   4  -1   18.45    4.22
   6   4  -1   87.54    6.79
   6   4  -1   93.12    7.00
   5   4  -1  283.68   12.92
   5   4  -1  297.70   13.18
   5   4  -1  285.64   13.38
   4   4  -1  353.85   14.88
   4   4  -1  373.39   14.88
   4   4  -1  364.03   15.28
  -4  -4   1  349.64   15.83
  -4  -4   1  349.93   18.24
  -3  -4   1 1246.19   43.64
  -3  -4   1 1200.52   51.36
   3   4  -1 1183.60   42.73
  -3  -4   1 1214.73   42.30
   3   4  -1 1297.00   44.97
   3   4  -1 1303.08   44.79
   3   4  -1 1174.48   42.97
  -3  -4   1 1258.77   47.77
   2   4  -1  146.66    7.12
  -2  -4   1  149.54    6.96
   2   4  -1  148.67    7.01
  -2  -4   1  140.15    6.75
  -2  -4   1  149.23    6.64
   2   4  -1  157.20    7.51
   2   4  -1  136.08    7.07
   1   4  -1   26.83    2.56
  -1  -4   1   34.24    2.76
  -1  -4   1   36.02    2.92
   1   4  -1   34.21    3.04
  -1  -4   1   33.64    3.02
   1   4  -1   27.18    2.75
   1   4  -1   33.54    2.81
   0  -4   1    0.22    1.32
   0   4  -1    1.24    1.31
   0  -4   1   -1.14    1.08
   0   4  -1    0.88    1.15
   0  -4   1    2.24    1.54
   0   4  -1    4.65    1.59
   0  -4   1    1.06    1.28
   0   4  -1    2.70    0.87
  -1   4  -1   56.10    3.02
  -1   4  -1   37.22    2.76
   1  -4   1   56.40    3.32
  -1   4  -1   54.63    3.38
   1  -4   1   46.97    3.45
   1  -4   1   57.53    3.40
   1  -4   1   57.35    3.29
   2  -4   1  278.10   10.92
  -2   4  -1  274.58   10.26
   2  -4   1  276.66   10.63
  -2   4  -1  257.76   11.41
  -2   4  -1  287.51    9.81
   2  -4   1  292.49   10.56
   2  -4   1  284.08   10.77
  -3   4  -1  236.47   11.27
   3  -4   1  274.51   10.09
  -3   4  -1  247.58   11.64
   3  -4   1  230.46    9.84
   3  -4   1  267.65   10.20
  -3   4  -1  249.41    9.05
   3  -4   1  255.03    9.91
   3  -4   1  278.47    9.78
   4  -4   1    7.26    1.69
  -4   4  -1   10.60    3.05
   4  -4   1    7.79    1.71
  -4   4  -1   11.11    2.96
   4  -4   1   12.09    1.80
  -5   4  -1   89.89    7.24
  -5   4  -1   89.22    7.06
   5  -4   1   85.55    4.91
   5  -4   1   88.02    4.79
   7  -4   1   28.86    3.51
   7   3  -1   30.79    4.49
   6   3  -1   66.73    5.69
   6   3  -1   71.35    5.80
  -5  -3   1    1.39    2.59
   5   3  -1    0.57    1.77
   5   3  -1   -2.66    1.91
   5   3  -1   -1.38    2.14
  -4  -3   1    3.45    2.53
   4   3  -1    0.68    1.83
   4   3  -1    6.36    2.47
   4   3  -1    1.02    2.08
   3   3  -1  845.29   30.06
  -3  -3   1  852.04   30.09
   3   3  -1  896.47   31.33
  -3  -3   1  862.60   29.10
   3   3  -1  827.68   31.12
   3   3  -1  913.95   30.28
  -3  -3   1  792.80   36.06
  -3  -3   1  826.01   33.17
   3   3  -1  825.32   29.96
  -3  -3   1  875.08   29.51
   2   3  -1  847.63   30.36
  -2  -3   1  846.33   28.88
  -2  -3   1  783.49   34.58
   2   3  -1  815.45   29.19
   2   3  -1  879.94   29.29
  -2  -3   1  852.76   28.86
  -2  -3   1  841.04   32.30
   2   3  -1  817.83   30.22
   2   3  -1  849.16   29.16
  -1  -3   1   69.47    3.76
   1   3  -1   69.99    4.04
  -1  -3   1   72.72    3.80
  -1  -3   1   66.36    3.91
   1   3  -1   73.49    3.85
   1   3  -1   75.44    3.97
   1   3  -1   74.91    4.09
  -1  -3   1   78.84    4.20
   1   3  -1   75.16    3.90
   0   3  -1  105.64    5.20
   0   3  -1   98.98    4.97
   0  -3   1  112.74    5.16
   0  -3   1  102.77    5.01
   0   3  -1   99.82    4.96
   0   3  -1  111.84    4.37
   0  -3   1  100.72    5.16
   0   3  -1  114.25    4.98
   0  -3   1  106.41    5.11
  -1   3  -1    1.63    0.74
  -1   3  -1    1.37    0.62
   1  -3   1   -0.26    0.81
   1  -3   1    2.90    1.02
   1  -3   1    1.60    0.98
  -1   3  -1    1.12    1.04
   1  -3   1    1.06    1.10
   1  -3   1    1.46    1.15
  -2   3  -1  188.07    9.21
   2  -3   1  251.07    8.10
   2  -3   1  198.88    8.21
   2  -3   1  190.24    8.27
  -2   3  -1  245.13    9.44
   2  -3   1  223.86    8.23
  -2   3  -1  250.94    7.89
   2  -3   1  196.94    8.06
   3  -3   1 1339.56   46.77
  -3   3  -1 1338.77   48.22
   3  -3   1 1411.99   44.64
   3  -3   1 1406.69   44.99
  -3   3  -1 1312.14   48.69
   3  -3   1 1270.25   44.61
   3  -3   1 1334.57   45.13
  -4   3  -1   68.04    5.73
   4  -3   1   77.57    3.83
  -4   3  -1   64.69    5.51
   4  -3   1   76.86    3.73
   4  -3   1   77.55    4.05
   4  -3   1   71.15    3.79
   5  -3   1    2.99    1.40
   5  -3   1    1.46    1.38
  -5   3  -1    0.57    2.24
   5  -3   1    2.56    1.45
   6  -3   1   99.66    5.46
   7  -3   1    8.54    2.40
   7   2  -1   14.53    3.63
   6   2  -1   21.59    3.43
   6   2  -1   20.71    3.46
   5   2  -1  103.20    6.06
  -5  -2   1  106.47    8.38
   5   2  -1  106.93    6.23
  -4  -2   1   45.02    3.04
   4   2  -1   45.04    3.69
  -4  -2   1   36.26    4.67
   4   2  -1   42.30    3.53
   4   2  -1   41.40    3.68
   4   2  -1   38.88    3.43
   3   2  -1  418.09   15.84
  -3  -2   1  418.12   16.81
   3   2  -1  404.66   15.78
   3   2  -1  409.04   15.27
   3   2  -1  409.62   15.35
   3   2  -1  434.90   15.41
  -3  -2   1  430.09   14.15
  -3  -2   1  408.47   14.88
  -3  -2   1  369.80   18.63
  -2  -2   1  122.77    6.58
   2   2  -1  127.88    5.45
   2   2  -1  116.25    5.35
   2   2  -1  120.41    5.46
   2   2  -1  125.40    5.57
  -2  -2   1  117.55    5.32
   2   2  -1  124.01    5.51
  -2  -2   1  122.45    5.64
  -2  -2   1  112.28    5.09
   1   2  -1 1403.93   49.13
  -1  -2   1 1381.96   47.21
   1   2  -1 1428.47   46.84
  -1  -2   1 1391.78   49.01
  -1  -2   1 1448.99   47.26
   1   2  -1 1433.85   47.31
   1   2  -1 1401.51   49.12
  -1  -2   1 1348.83   49.03
  -1  -2   1 1461.87   46.82
   0  -2   1   -3.83    1.00
   0  -2   1   -2.09    0.93
   0   2  -1   -4.12    0.82
   0  -2   1   -2.26    0.92
   0  -2   1   -3.89    0.76
   0  -2   1   -2.54    1.02
   0   2  -1   -2.38    1.09
   0  -2   1   -5.27    0.93
   0   2  -1   -2.52    1.00
   0   2  -1   -2.68    0.87
   1  -2   1   30.09    1.79
   1  -2   1   30.49    1.79
  -1   2  -1   30.26    2.28
  -1   2  -1   30.33    2.27
   1  -2   1   30.74    2.01
   1  -2   1   28.19    2.07
  -1   2  -1   32.54    1.49
   2  -2   1   22.29    2.23
  -2   2  -1   17.61    2.11
   2  -2   1   22.56    1.63
  -2   2  -1   22.25    2.34
   2  -2   1   24.30    1.24
   2  -2   1   25.12    1.31
   2  -2   1   23.11    1.21
   2  -2   1   25.34    1.69
   3  -2   1   24.25    3.33
   3  -2   1   27.00    1.93
   3  -2   1   23.28    1.91
  -3   2  -1   24.65    3.02
   3  -2   1   24.53    1.44
   3  -2   1   24.10    1.54
   3  -2   1   26.47    1.51
  -3   2  -1   22.35    2.90
   4  -2   1  779.56   26.63
   4  -2   1  779.24   27.50
   4  -2   1  767.03   26.37
  -4   2  -1  758.62   29.92
   4  -2   1  795.68   26.47
   4  -2   1  799.79   26.28
   5  -2   1   65.81    3.89
  -5   2  -1   67.36    5.97
   5  -2   1   76.78    4.03
   5  -2   1   74.95    4.02
   6  -2   1  301.91   12.00
   7  -2   1    1.22    2.11
   7   1  -1   11.06    3.13
   6   1  -1   94.63    6.00
   6   1  -1  100.40    6.11
   5   1  -1  370.55   14.46
   5   1  -1  362.42   14.50
  -4  -1   1    7.95    2.83
  -4  -1   1    7.22    1.23
   4   1  -1    5.76    1.85
   4   1  -1    9.43    1.88
   4   1  -1    5.32    1.79
   4   1  -1    7.36    1.79
   4   1  -1    7.94    2.04
   3   1  -1    0.69    1.03
  -3  -1   1    0.27    0.99
   3   1  -1   -1.64    1.27
   3   1  -1    0.43    1.11
   3   1  -1   -0.85    0.94
   3   1  -1    2.47    1.76
  -3  -1   1   -0.02    1.48
   3   1  -1   -0.99    0.93
   3   1  -1   -0.30    1.04
   2   1  -1    9.62    1.91
   2   1  -1   12.83    1.40
  -2  -1   1   11.00    1.45
  -2  -1   1    8.50    1.85
   2   1  -1   12.80    1.63
   2   1  -1   10.37    1.36
  -2  -1   1   12.70    1.12
  -2  -1   1   11.27    1.40
   2   1  -1   12.67    1.49
  -2  -1   1   15.92    1.24
   2   1  -1   10.39    1.38
  -2  -1   1   12.00    1.07
   2   1  -1   13.18    1.79
   2   1  -1   12.60    1.58
  -1  -1   1  704.41   22.51
   1   1  -1  672.04   22.56
  -1  -1   1  652.96   22.47
  -1  -1   1  619.48   26.69
  -1  -1   1  639.30   23.27
   1   1  -1  675.42   22.51
   1   1  -1  641.89   23.37
   1   1  -1  653.57   22.34
  -1  -1   1  682.82   22.33
   1   1  -1  671.15   23.40
   1   1  -1  686.01   22.35
   0  -1   1   93.52    3.57
  -1   1  -1  740.21   28.10
   1  -1   1  846.66   27.92
   1  -1   1  804.60   27.15
  -1   1  -1  775.69   27.90
   1  -1   1  803.29   28.11
   1  -1   1  804.80   26.99
  -2   1  -1  262.66   10.90
   2  -1   1  285.98   10.96
  -2   1  -1  260.96   10.78
   2  -1   1  263.60    9.10
   2  -1   1  272.20   12.41
  -3   1  -1 1824.01   64.79
   3  -1   1 1794.56   74.33
   3  -1   1 1894.44   69.57
   3  -1   1 1831.94   60.16
   3  -1   1 1849.76   61.52
   3  -1   1 1844.16   60.33
   4  -1   1  172.73    7.01
   4  -1   1  181.00    7.03
   4  -1   1  175.48    6.87
   4  -1   1  183.07    6.92
   4  -1   1  181.12    6.84
  -4   1  -1  169.39    9.27
   4  -1   1  173.78    7.00
   5  -1   1  321.34   12.28
   5  -1   1  319.54   12.06
   5  -1   1  337.54   12.74
   6  -1   1   53.72    4.07
   7  -1   1  197.62    9.22
   7   0  -1   13.93    3.25
   6   0  -1  129.45    6.98
   6   0  -1  135.73    7.21
   5   0  -1   25.64    2.88
   5   0  -1   24.50    2.83
   4   0  -1 1031.12   36.55
   4   0  -1 1098.02   36.49
   4   0  -1 1061.80   37.95
   4   0  -1 1077.34   45.08
   4   0  -1 1017.14   36.15
   4   0  -1 1101.00   40.86
   3   0  -1  713.15   25.22
   3   0  -1  742.40   31.38
   3   0  -1  745.71   25.32
   3   0  -1  747.16   28.37
   3   0  -1  743.53   25.15
   3   0  -1  717.98   25.42
   3   0  -1  753.07   26.33
   2   0  -1 2465.45   78.56
   2   0  -1 2435.93   89.12
   2   0  -1 2359.78   79.56
  -2   0   1 2542.90   80.75
  -2   0   1 2315.24   95.03
   2   0  -1 2348.40   82.70
  -2   0   1 2438.52   82.58
   2   0  -1 2346.77   79.67
   2   0  -1 2444.08   83.17
   2   0  -1 2417.10   78.68
  -2   0   1 2343.98   78.48
   2   0  -1 2386.43   95.04
  -1   0   1 1566.98   51.25
   1   0  -1 1545.87   50.49
  -1   0   1 1549.91   51.24
  -1   0   1 1559.17   50.52
   1   0  -1 1494.86   50.60
  -1   0   1 1491.38   53.37
  -1   0   1 1465.29   53.29
   1   0  -1 1476.69   60.90
   1   0  -1 1479.68   51.29
   1   0  -1 1492.03   51.20
  -1   0   1 1524.70   52.91
   1   0  -1 1520.64   53.27
  -1   0   1 1576.67   50.59
   1   0  -1 1563.70   53.33
   1   0  -1 1663.60   52.91
   0   0   1   -1.81    0.10
   0   0  -1   -1.80    0.13
   0   0  -1   -1.68    0.14
   0   0   1   -1.80    0.09
   0   0  -1   -1.73    0.13
   0   0  -1   -1.91    0.09
   0   0  -1   -1.68    0.15
   0   0   1   -1.63    0.15
   0   0  -1   -1.51    0.17
   0   0   1   -1.89    0.11
   0   0   1   -1.81    0.12
   0   0   1   -1.62    0.14
  -1   0  -1    1.42    1.01
   1   0   1    3.11    0.56
   1   0   1    2.71    0.99
   1   0   1    2.29    0.48
   1   0   1    3.37    1.06
   1   0   1    1.02    0.90
  -1   0  -1    2.08    0.98
   2   0   1  231.96    9.59
   2   0   1  230.83    8.06
   2   0   1  233.60    8.07
  -2   0  -1  207.27   10.70
   2   0   1  241.38    9.96
   2   0   1  229.55   10.86
   3   0   1  147.46    5.77
   3   0   1  147.17    8.51
   3   0   1  147.70    5.73
  -3   0  -1  129.39    8.17
   3   0   1  156.73    5.59
   3   0   1  159.55    7.48
   3   0   1  139.63    5.62
   3   0   1  139.52    5.50
   3   0   1  139.13    5.62
   4   0   1  162.43    7.08
   4   0   1  179.71    7.23
   4   0   1  177.09    7.20
   4   0   1  175.32    7.02
   4   0   1  171.28    7.06
   5   0   1   22.52    2.48
   5   0   1   24.22    2.56
   5   0   1   25.13    2.44
   6   0   1  253.46   10.69
   7   0   1    9.82    2.61
   7  -1  -1    8.33    2.97
   6  -1  -1   16.39    2.82
   6  -1  -1   15.20    2.73
   5  -1  -1  103.16    5.50
   5  -1  -1   96.92    5.42
   4  -1  -1    3.46    2.50
   4  -1  -1    2.83    1.59
   4  -1  -1    3.08    1.65
  -4   1   1    0.80    1.99
   4  -1  -1    1.44    1.60
   4  -1  -1    1.44    1.22
   4  -1  -1    0.22    1.29
   3  -1  -1   12.35    1.48
   3  -1  -1   15.86    2.68
   3  -1  -1   10.82    1.54
  -3   1   1   14.16    2.28
  -3   1   1   12.02    2.17
   3  -1  -1   15.88    1.65
   3  -1  -1   15.99    1.81
   3  -1  -1   15.33    1.50
   2  -1  -1 1881.55   63.16
   2  -1  -1 1926.49   66.38
  -2   1   1 2062.71   63.08
  -2   1   1 1969.42   64.60
   2  -1  -1 1967.62   63.07
   2  -1  -1 1884.44   76.46
  -2   1   1 1814.78   66.92
   2  -1  -1 1924.56   63.82
   2  -1  -1 1896.78   63.97
  -2   1   1 1901.43   66.39
  -1   1   1 3047.13   98.55
   1  -1  -1 3101.41  100.40
   1  -1  -1 2957.39  103.88
  -1   1   1 2910.47  103.57
   1  -1  -1 2920.59  100.03
  -1   1   1 3138.15   99.96
   1  -1  -1 3101.91   98.49
   0   1   1   11.79    1.08
   0  -1  -1   13.97    1.29
   0   1   1   14.39    1.30
   0   1   1   11.39    1.08
   0  -1  -1   14.43    1.20
   0  -1  -1   13.09    1.16
   0  -1  -1   13.39    1.12
   0   1   1   14.01    1.13
   0  -1  -1   13.16    1.17
   0   1   1   13.20    1.19
  -1  -1  -1   40.55    2.10
   1   1   1   45.53    2.28
   1   1   1   43.55    2.35
  -1  -1  -1   44.18    2.21
   1   1   1   38.18    2.26
  -1  -1  -1   41.27    2.79
   1   1   1   46.97    2.93
  -1  -1  -1   42.89    3.04
  -1  -1  -1   44.85    2.32
   1   1   1   43.76    2.45
   1   1   1   40.10    2.59
   1   1   1   47.97    2.58
  -1  -1  -1   45.74    2.11
  -1  -1  -1   42.02    1.99
   2   1   1   48.41    2.66
   2   1   1   44.35    2.31
  -2  -1  -1   45.47    3.21
   2   1   1   42.47    2.41
   2   1   1   50.91    3.15
  -2  -1  -1   39.96    3.46
   2   1   1   40.33    2.29
   2   1   1   47.01    3.63
   2   1   1   42.68    2.41
   2   1   1   47.94    2.79
   3   1   1  286.32   10.58
   3   1   1  291.64   10.82
  -3  -1  -1  256.12   13.79
   3   1   1  283.04   10.43
   3   1   1  276.66   10.61
   3   1   1  290.66   12.44
   3   1   1  272.06   10.43
   3   1   1  288.21   10.77
   3   1   1  294.18   13.93
  -4  -1  -1 1988.01   83.53
   4   1   1 1977.44   67.69
   4   1   1 2057.18   71.13
   4   1   1 2109.67   68.55
   4   1   1 2110.64   71.13
   4   1   1 1999.40   68.45
   5   1   1   10.09    2.21
   5   1   1    6.66    1.98
   5   1   1    5.15    1.78
   6   1   1   83.71    5.50
   7   1   1   10.49    2.90
   7  -2  -1   23.48    3.62
   6  -2  -1   30.07    3.31
   6  -2  -1   30.80    3.27
  -5   2   1   -0.11    2.06
   5  -2  -1   -0.56    1.63
   5  -2  -1    0.97    1.55
   4  -2  -1  286.25   11.46
   4  -2  -1  304.22   11.83
  -4   2   1  286.07   13.12
   4  -2  -1  294.94   11.52
   4  -2  -1  306.18   11.34
  -4   2   1  315.09   13.66
  -3   2   1  208.81    9.60
  -3   2   1  198.13    9.39
   3  -2  -1  214.85    8.48
  -3   2   1  216.47    7.84
   3  -2  -1  213.34   10.91
   3  -2  -1  218.76    8.16
   3  -2  -1  201.19    8.25
   3  -2  -1  220.98    8.36
   3  -2  -1  200.26    8.36
  -2   2   1   24.60    1.49
   2  -2  -1   23.18    1.97
  -2   2   1   23.37    2.09
   2  -2  -1   25.96    1.94
  -2   2   1   25.11    1.98
  -2   2   1   26.38    1.54
  -2   2   1   18.27    2.11
   2  -2  -1   26.37    2.04
   2  -2  -1   27.03    2.04
   1  -2  -1 2074.21   76.49
  -1   2   1 2251.50   73.64
   1  -2  -1 2362.31   72.92
  -1   2   1 1912.04   76.36
   1  -2  -1 2425.02   73.66
  -1   2   1 2321.26   73.59
  -1   2   1 2375.88   72.77
   1  -2  -1 2042.80   73.69
   0   2   1  935.32   32.92
   0   2   1  971.68   31.87
   0   2   1  959.51   31.84
   0  -2  -1  920.82   32.85
   0   2   1  947.65   31.50
   0   2   1  890.30   32.98
   0  -2  -1  936.99   31.53
   0  -2  -1  944.46   33.02
   0  -2  -1  954.78   31.88
   1   2   1   68.04    3.60
   1   2   1   69.17    3.41
   1   2   1   67.89    3.41
   1   2   1   66.29    3.68
  -1  -2  -1   64.08    3.27
  -1  -2  -1   66.66    3.43
   1   2   1   61.29    3.30
  -1  -2  -1   62.15    3.15
   2   2   1  799.44   28.81
  -2  -2  -1  820.67   28.26
  -2  -2  -1  754.51   33.58
  -2  -2  -1  824.82   31.59
  -2  -2  -1  823.29   27.44
   2   2   1  780.98   27.80
   2   2   1  801.34   27.73
  -2  -2  -1  831.05   27.28
   2   2   1  793.81   28.91
   2   2   1  859.80   27.88
   3   2   1  532.13   20.14
   3   2   1  536.03   19.48
   3   2   1  546.57   19.53
  -3  -2  -1  561.01   18.82
   3   2   1  559.42   20.27
  -3  -2  -1  535.90   22.32
   3   2   1  547.19   19.54
  -3  -2  -1  538.03   24.41
   4   2   1    3.13    1.70
   4   2   1    2.53    1.86
  -4  -2  -1    4.31    2.88
   4   2   1    4.31    1.86
   4   2   1    4.56    2.16
   5   2   1  160.88    7.86
   5   2   1  157.37    7.81
  -5  -2  -1  162.14   11.13
   5   2   1  157.08    7.93
   6   2   1   53.65    4.66
   6   2   1   67.13    4.97
   6   2   1   63.97    4.98
   7   2   1   86.19    6.43
   7  -3  -1    1.66    2.41
   6  -3  -1   22.13    3.02
  -6   3   1   27.12    4.54
   6  -3  -1   25.06    3.21
   5  -3  -1  172.66    8.22
  -5   3   1  193.31   10.26
  -5   3   1  189.34   10.54
   5  -3  -1  182.83    8.27
  -4   3   1  341.73   15.03
   4  -3  -1  333.66   13.41
   4  -3  -1  353.69   13.51
   4  -3  -1  387.48   13.42
   4  -3  -1  348.00   13.83
  -4   3   1  340.32   15.45
  -3   3   1  383.37   13.10
  -3   3   1  367.42   15.12
  -3   3   1  335.59   14.55
   3  -3  -1  343.30   13.50
   3  -3  -1  376.12   13.41
   3  -3  -1  373.40   13.97
   2  -3  -1 1137.61   38.58
   2  -3  -1 1030.89   37.11
   2  -3  -1 1071.95   36.84
  -2   3   1 1098.12   38.52
  -2   3   1 1055.68   36.48
  -2   3   1 1091.76   38.10
   2  -3  -1 1151.70   37.05
  -1   3   1 4650.94  164.62
   1  -3  -1 4980.80  158.44
  -1   3   1 5045.79  156.42
   1  -3  -1 4784.38  164.71
  -1   3   1 4515.90  159.28
   1  -3  -1 4651.18  156.48
   1  -3  -1 4967.14  158.69
   0   3   1  289.37   10.82
   0  -3  -1  279.40   11.10
   0   3   1  285.70   10.84
   0  -3  -1  282.54   10.76
   0   3   1  276.02   11.06
   0   3   1  284.61   10.76
   0  -3  -1  300.40   10.86
   0  -3  -1  290.71   10.90
  -1  -3  -1  885.91   29.75
   1   3   1  832.20   31.00
  -1  -3  -1  866.70   29.83
   1   3   1  903.24   30.04
   1   3   1  858.25   29.79
  -1  -3  -1  837.31   31.02
   1   3   1  903.39   31.22
   1   3   1  857.36   30.01
   2   3   1 1314.73   45.18
  -2  -3  -1 1329.70   51.16
   2   3   1 1293.07   45.56
   2   3   1 1337.77   47.43
  -2  -3  -1 1376.52   46.72
  -2  -3  -1 1253.06   54.30
   2   3   1 1386.91   45.57
   2   3   1 1317.41   47.18
  -2  -3  -1 1406.67   44.99
   3   3   1   13.39    2.52
   3   3   1   13.95    2.17
   3   3   1   12.57    2.09
  -3  -3  -1   14.58    1.98
   3   3   1   14.03    2.45
  -3  -3  -1    8.98    2.77
  -3  -3  -1   11.49    2.56
   3   3   1   14.30    2.36
  -4  -3  -1  734.10   33.08
  -4  -3  -1  727.75   30.13
   4   3   1  745.26   27.57
   4   3   1  734.11   26.52
   4   3   1  725.36   26.57
   5   3   1   75.24    5.25
   5   3   1   66.31    5.22
   5   3   1   71.41    5.17
   6   3   1  136.00    8.11
   6   3   1  142.41    8.25
   6   3   1  138.83    8.05
   7   3   1    9.59    3.36
   7  -4  -1   45.19    4.66
   6  -4  -1   24.38    3.19
  -6   4   1   15.91    3.87
   6  -4  -1   25.66    3.33
  -5   4   1   30.94    4.11
   5  -4  -1   26.72    3.21
   5  -4  -1   29.83    3.27
   5  -4  -1   27.35    3.09
  -5   4   1   29.24    4.44
  -4   4   1  348.60   15.72
   4  -4  -1  391.16   14.88
  -4   4   1  379.74   16.45
   4  -4  -1  356.79   14.33
  -3   4   1  785.16   27.77
   3  -4  -1  784.23   28.61
  -3   4   1  893.19   27.40
   3  -4  -1  823.05   29.66
  -3   4   1  807.85   30.71
  -3   4   1  749.09   29.90
   3  -4  -1  839.67   28.47
   2  -4  -1   38.98    3.17
   2  -4  -1   40.21    3.21
   2  -4  -1   44.13    3.26
  -2   4   1   37.92    2.70
  -2   4   1   51.70    2.85
   1  -4  -1  861.05   30.51
   1  -4  -1  892.46   30.78
   1  -4  -1  898.79   31.83
  -1   4   1  888.25   31.64
  -1   4   1  879.19   30.35
  -1   4   1  875.12   30.41
   0  -4  -1  619.45   22.79
   0   4   1  622.68   22.72
   0   4   1  665.56   22.85
   0   4   1  631.50   23.56
   0  -4  -1  643.86   23.10
   0  -4  -1  658.34   22.93
  -1  -4  -1    4.84    1.56
  -1  -4  -1    0.46    1.52
  -1  -4  -1    1.31    1.26
   1   4   1    1.46    1.31
   1   4   1    2.98    1.54
   1   4   1    1.70    1.39
   1   4   1   -0.17    1.57
   2   4   1   19.34    2.79
   2   4   1   13.39    2.48
   2   4   1   14.21    2.33
  -2  -4  -1   15.25    1.94
  -2  -4  -1   12.91    2.57
  -2  -4  -1   17.05    2.43
   2   4   1   13.05    2.18
   2   4   1   14.68    2.23
  -2  -4  -1   18.95    2.07
   3   4   1  169.00    9.19
  -3  -4  -1  171.55    7.04
   3   4   1  172.24    8.33
  -3  -4  -1  175.44    9.25
   3   4   1  178.06    8.83
  -3  -4  -1  164.29    7.79
  -3  -4  -1  161.04   10.05
   3   4   1  161.76    8.46
   3   4   1  172.24    8.29
  -3  -4  -1  174.00    7.00
  -4  -4  -1  204.37   11.10
   4   4   1  206.23   10.01
   4   4   1  213.85   10.16
  -4  -4  -1  213.22   12.87
   4   4   1  217.31   10.00
   5   4   1    4.85    2.90
   5   4   1    3.54    2.58
   5   4   1    0.93    2.52
   5   4   1    4.39    2.34
   6   4   1   -0.23    2.39
   6   4   1    1.65    2.75
   6   4   1    0.81    2.67
   7  -5  -1    9.20    3.00
  -7   5   1    1.07    3.17
  -6   5   1    6.40    3.28
   6  -5  -1   12.17    2.77
  -6   5   1   11.03    3.97
   6  -5  -1    5.24    2.41
  -5   5   1  112.65    7.56
   5  -5  -1  105.84    6.30
  -5   5   1   94.72    7.66
   5  -5  -1  108.31    6.30
   4  -5  -1  332.71   13.08
  -4   5   1  319.34   14.73
  -4   5   1  290.87   13.96
  -3   5   1  501.46   17.75
  -3   5   1  459.95   17.68
   3  -5  -1  482.84   18.51
  -3   5   1  518.48   17.25
   3  -5  -1  508.91   18.38
   3  -5  -1  453.28   18.36
   3  -5  -1  506.11   19.12
  -3   5   1  478.00   19.36
  -2   5   1  175.07    7.85
   2  -5  -1  177.34    8.13
  -2   5   1  174.87    7.36
   2  -5  -1  177.87    8.24
   2  -5  -1  180.95    8.36
   1  -5  -1 3501.33  116.92
   1  -5  -1 3483.47  112.34
   1  -5  -1 3256.20  113.48
   1  -5  -1 3531.43  117.93
  -1   5   1 3330.47  113.12
  -1   5   1 3315.62  117.61
  -1   5   1 3362.29  111.97
   0   5   1 2590.66   88.43
   0  -5  -1 2840.01   92.26
   0   5   1 2575.67   92.77
   0  -5  -1 2761.29   88.72
   0  -5  -1 2657.87   89.49
   0   5   1 2545.39   89.31
   1   5   1   37.17    3.38
  -1  -5  -1   44.45    3.72
   1   5   1   47.80    3.83
  -1  -5  -1   36.80    3.30
   1   5   1   38.33    3.23
  -1  -5  -1   41.32    3.68
   1   5   1   42.31    3.75
  -2  -5  -1   38.45    3.72
   2   5   1   35.13    3.46
  -2  -5  -1   39.55    3.27
   2   5   1   37.13    3.69
   2   5   1   37.81    3.73
  -2  -5  -1   30.02    3.10
   2   5   1   35.44    3.97
  -2  -5  -1   35.94    3.90
  -3  -5  -1  169.01    8.03
   3   5   1  151.40    8.21
   3   5   1  162.10    8.66
  -3  -5  -1  133.50    9.43
   3   5   1  159.73    8.29
  -3  -5  -1  161.11    9.19
   3   5   1  165.53    9.00
   4   5   1   90.26    6.56
  -4  -5  -1  100.33    8.26
   4   5   1   89.04    6.34
   4   5   1   81.25    6.87
  -4  -5  -1  104.62    7.29
   4   5   1   89.44    6.24
   5   5   1  302.51   13.67
   5   5   1  299.53   15.48
   5   5   1  298.74   13.97
   5   5   1  262.72   13.30
   6   5   1    0.02    2.63
   6   5   1    1.79    3.04
   6   5   1   -1.02    2.94
   7  -6  -1   -2.32    2.53
  -7   6   1   -0.91    3.28
   6  -6  -1   36.81    4.24
  -6   6   1   50.53    6.58
   6  -6  -1   31.41    4.18
  -6   6   1   35.11    5.46
   6  -6  -1   37.14    4.35
   5  -6  -1    3.78    2.47
  -5   6   1    6.22    2.89
  -5   6   1    6.89    3.37
   5  -6  -1    6.99    2.56
  -4   6   1   49.34    4.77
   4  -6  -1   57.79    4.64
  -4   6   1   52.70    5.40
  -3   6   1  565.75   22.29
  -3   6   1  605.74   20.81
  -3   6   1  550.50   20.54
   3  -6  -1  545.79   21.31
   3  -6  -1  542.94   21.39
   2  -6  -1   25.22    3.09
   2  -6  -1   34.90    3.80
   2  -6  -1   20.73    2.95
  -2   6   1   20.53    2.95
  -2   6   1   21.68    2.57
  -2   6   1   22.21    2.58
   1  -6  -1  549.68   21.58
   1  -6  -1  574.58   21.80
  -1   6   1  607.72   21.40
  -1   6   1  582.45   21.63
  -1   6   1  558.39   22.01
   1  -6  -1  589.51   21.12
   0   6   1  402.70   16.15
   0   6   1  383.22   16.27
   0   6   1  430.89   16.13
   0  -6  -1  406.21   16.68
   0  -6  -1  420.11   16.46
   0  -6  -1  393.22   15.96
  -1  -6  -1   17.92    2.88
   1   6   1   17.59    2.67
   1   6   1   15.04    3.10
   1   6   1   23.57    3.12
   1   6   1   14.55    2.80
  -1  -6  -1   17.77    3.14
  -1  -6  -1   23.31    3.01
  -2  -6  -1  230.24   10.87
   2   6   1  236.51   11.07
  -2  -6  -1  229.60   10.76
   2   6   1  235.32   11.21
   2   6   1  226.80   10.94
  -2  -6  -1  237.96   10.39
   2   6   1  240.12   11.08
  -3  -6  -1  133.75    9.17
  -3  -6  -1  127.83    7.39
   3   6   1  119.00    7.57
   3   6   1  138.69    8.22
  -3  -6  -1  122.81    8.41
   3   6   1  123.19    7.95
   3   6   1  139.90    7.94
   4   6   1  217.40   11.36
   4   6   1  203.06   11.03
   4   6   1  223.27   11.48
   4   6   1  232.72   12.37
  -4  -6  -1  232.63   12.64
   5   6   1   62.97    6.21
   5   6   1   80.10    6.56
   5   6   1   72.24    6.52
   5   6   1   77.71    7.63
   6   6   1   55.51    6.26
   6   6   1   64.74    6.38
  -7   7   1    4.20    3.79
   7  -7  -1    0.92    2.89
   6  -7  -1    5.99    2.93
   6  -7  -1    1.01    2.61
  -6   7   1    2.15    3.74
  -6   7   1    5.63    3.46
   6  -7  -1    1.35    2.43
  -5   7   1   -0.44    2.25
  -5   7   1   -1.98    2.24
   5  -7  -1   -0.95    2.03
  -4   7   1  688.84   28.47
  -4   7   1  688.25   27.66
   4  -7  -1  693.58   26.35
  -3   7   1  948.29   36.29
  -3   7   1  952.49   34.10
   3  -7  -1  996.70   35.41
   3  -7  -1  979.73   35.18
  -2   7   1  212.02    9.18
  -2   7   1  207.14    9.66
   2  -7  -1  200.02   10.31
   2  -7  -1  192.18    9.82
  -2   7   1  206.08    9.45
   1  -7  -1   43.13    4.54
   1  -7  -1   53.21    3.65
  -1   7   1   50.22    4.18
  -1   7   1   48.18    4.14
  -1   7   1   46.62    4.61
   1  -7  -1   41.95    4.24
   0  -7  -1 1547.55   57.69
   0   7   1 1597.25   55.28
   0  -7  -1 1622.64   55.50
   0  -7  -1 1561.30   55.60
   0   7   1 1621.37   57.50
   0   7   1 1628.60   55.50
   1   7   1    7.20    2.99
  -1  -7  -1    7.29    2.86
   1   7   1    2.71    2.38
   1   7   1    4.91    2.21
  -1  -7  -1    5.68    2.69
  -1  -7  -1    0.39    1.96
   1   7   1    5.94    2.51
   2   7   1   30.03    3.72
   2   7   1   27.60    3.78
  -2  -7  -1   31.31    3.57
   2   7   1   25.05    4.14
  -2  -7  -1   22.04    3.60
   2   7   1   24.66    3.79
  -3  -7  -1  150.54    9.65
  -3  -7  -1  157.48   10.63
  -3  -7  -1  145.55    8.58
   3   7   1  139.19    9.07
   3   7   1  155.26    9.01
   3   7   1  150.13    8.86
   3   7   1  148.84    9.14
   4   7   1   24.56    4.56
  -4  -7  -1   23.39    4.49
   4   7   1   26.95    4.37
   4   7   1   18.49    4.30
   4   7   1   23.14    4.06
   5   7   1   42.44    6.29
   5   7   1   38.57    5.40
   5   7   1   23.46    4.62
   5   7   1   28.35    4.84
   6   7   1   28.38    5.10
  -7   8   1    8.57    4.67
   6  -8  -1   13.71    3.85
  -6   8   1   12.45    4.22
   6  -8  -1   13.23    3.72
  -5   8   1    8.45    3.44
  -5   8   1    7.74    3.77
   5  -8  -1   11.93    3.42
  -4   8   1   10.69    3.13
   4  -8  -1   12.97    3.27
   4  -8  -1    9.19    3.28
  -4   8   1    6.61    3.15
  -3   8   1  369.95   16.69
   3  -8  -1  373.40   16.40
   3  -8  -1  391.02   16.71
  -3   8   1  386.26   15.73
  -2   8   1  300.38   12.20
  -2   8   1  287.58   12.83
   2  -8  -1  278.49   13.03
   2  -8  -1  260.12   13.15
  -1   8   1   82.44    5.58
  -1   8   1   63.65    5.45
  -1   8   1   64.52    5.04
   1  -8  -1   70.03    5.71
   1  -8  -1   62.87    5.75
   0   8   1  266.01   12.91
   0   8   1  266.82   12.29
   0  -8  -1  259.59   12.50
   0   8   1  273.17   12.69
   0  -8  -1  273.86   12.99
   0  -8  -1  276.48   13.02
   1   8   1   33.20    3.74
   1   8   1   32.34    4.02
  -1  -8  -1   40.45    4.31
  -1  -8  -1   38.11    4.79
   1   8   1   34.75    4.65
   1   8   1   27.14    3.95
  -1  -8  -1   29.29    4.05
   2   8   1   14.59    3.87
   2   8   1   27.45    4.24
   2   8   1   19.83    3.74
   2   8   1   20.73    3.52
  -2  -8  -1   18.83    3.76
   3   8   1   23.70    4.63
   3   8   1   29.37    4.27
  -3  -8  -1   20.38    4.24
  -3  -8  -1   17.53    3.86
   3   8   1   21.83    4.27
   3   8   1   20.14    3.91
   4   8   1   24.79    4.97
   4   8   1   21.01    4.57
   4   8   1   16.68    4.02
  -4  -8  -1   16.54    4.49
   4   8   1   30.38    5.22
   5   8   1    7.05    3.98
   5   8   1    6.77    3.76
   6   8   1    5.05    4.33
   6  -9  -1   18.90    4.31
   6  -9  -1   15.88    4.27
  -6   9   1   22.10    5.38
   5  -9  -1    4.02    3.08
  -5   9   1    4.22    3.55
  -5   9   1    0.59    2.79
  -4   9   1   82.14    6.89
  -4   9   1   80.96    7.35
   4  -9  -1   72.55    6.75
   4  -9  -1   92.08    7.00
  -3   9   1  277.96   12.68
  -3   9   1  272.04   13.47
   3  -9  -1  258.88   13.24
   3  -9  -1  272.83   13.58
   2  -9  -1  111.89    7.92
   2  -9  -1  121.98    7.82
  -2   9   1  120.03    7.74
  -1   9   1    0.75    2.70
   1  -9  -1   -0.66    2.24
  -1   9   1   -0.86    1.92
   1  -9  -1   -1.84    2.29
  -1   9   1    1.40    2.05
   0   9   1  917.02   35.45
   0   9   1  939.86   34.39
   0  -9  -1  929.47   35.87
   0  -9  -1  882.94   34.66
   0  -9  -1  897.63   34.48
   0   9   1  947.21   34.81
  -1  -9  -1  168.72    9.44
  -1  -9  -1  162.29    9.80
   1   9   1  150.05    9.16
   1   9   1  165.15    9.65
   1   9   1  159.00    9.98
   2   9   1   -2.10    2.18
   2   9   1    0.87    2.40
  -2  -9  -1    1.20    2.72
   2   9   1   -0.09    3.00
   2   9   1    5.10    2.93
   3   9   1   30.47    4.99
   3   9   1   29.33    4.94
   3   9   1   34.01    4.98
   3   9   1   30.15    5.32
  -3  -9  -1   26.81    5.21
   4   9   1   29.48    5.31
  -4  -9  -1   29.42    5.69
   4   9   1   27.02    5.39
   4   9   1   19.68    4.79
   4   9   1   26.00    5.15
   5   9   1   64.33    7.43
   6 -10  -1    6.98    4.04
  -6  10   1    6.24    3.95
   5 -10  -1    6.21    3.51
  -5  10   1    9.14    4.01
   4 -10  -1    8.89    3.72
  -4  10   1    6.08    3.36
  -4  10   1    8.34    3.79
   4 -10  -1   10.66    4.02
   3 -10  -1   34.38    5.04
   3 -10  -1   33.05    5.10
  -3  10   1   32.94    4.71
   2 -10  -1   12.43    3.61
  -2  10   1    9.54    3.48
   2 -10  -1    9.62    3.65
   1 -10  -1    9.55    3.71
   1 -10  -1    9.05    3.67
   1 -10  -1    5.31    2.97
  -1  10   1    9.93    3.08
  -1  10   1   10.09    3.80
   0 -10  -1    7.83    3.17
   0  10   1    9.75    3.22
   0  10   1   10.57    3.72
   0  10   1   10.44    3.20
   0 -10  -1    3.17    3.28
   0 -10  -1    9.00    3.34
   1  10   1   82.99    6.81
  -1 -10  -1   91.94    7.70
   1  10   1   74.69    6.78
  -1 -10  -1   78.43    6.63
   1  10   1   69.68    7.04
   2  10   1    4.25    3.40
   2  10   1   -2.66    3.04
  -2 -10  -1    1.87    3.41
   2  10   1    4.58    3.19
   3  10   1    2.00    3.71
  -3 -10  -1    1.23    3.61
   3  10   1    1.71    3.12
   3  10   1    2.27    3.42
   4  10   1   11.77    4.75
   4  10   1    6.38    4.46
   6 -11  -1    4.54    4.18
   5 -11  -1   12.68    4.34
  -5  11   1    5.43    3.77
   4 -11  -1   16.57    4.94
  -4  11   1   20.51    4.52
   4 -11  -1   13.58    4.39
   3 -11  -1   97.25    8.55
  -3  11   1  107.83    8.56
   3 -11  -1  112.57    8.59
   2 -11  -1   55.00    6.52
   2 -11  -1   49.59    6.35
   2 -11  -1   59.63    6.56
  -2  11   1   52.37    6.15
   1 -11  -1   17.29    4.35
   1 -11  -1    7.22    3.73
  -1  11   1   14.17    4.44
   1 -11  -1    5.66    4.09
   0 -11  -1   16.01    4.15
   0 -11  -1   19.49    4.93
   0  11   1   19.71    4.90
   0  11   1   15.35    4.09
  -1 -11  -1   34.62    5.85
   1  11   1   24.16    5.38
   1  11   1   39.47    5.40
  -2 -11  -1    2.56    4.01
  -2 -11  -1   -1.86    3.52
   2  11   1    1.29    3.58
   2  11   1    5.09    4.13
   2  11   1    4.40    3.43
   3  11   1    2.34    3.56
   3  11   1    8.46    4.37
   3  11   1    3.50    4.49
   4  11   1   -1.75    4.11
  -5  12   1   -2.41    3.14
  -4  12   1   17.80    4.72
   4 -12  -1    5.80    4.22
   4 -12  -1   11.04    4.41
   3 -12  -1   -1.50    3.42
  -3  12   1   -2.80    2.83
   3 -12  -1   -0.80    3.22
  -2  12   1   94.96    8.38
   2 -12  -1   96.44    8.69
   2 -12  -1   93.55    8.82
   2 -12  -1   83.07    8.68
   1 -12  -1    1.63    3.57
  -1  12   1   -1.05    3.41
   1 -12  -1   -0.50    3.40
   0 -12  -1  100.64    9.19
   0  12   1   89.49    8.61
   1  12   1   -4.40    3.56
  -1 -12  -1    9.17    4.60
   1  12   1   -1.15    3.17
   2  12   1    2.08    4.04
   2  12   1    4.87    4.27
   3  12   1    7.06    4.80
   3 -13  -1   29.05    6.31
  -3  13   1   23.07    5.31
   3 -13  -1   29.17    6.20
   2 -13  -1   30.28    6.44
   2 -13  -1   31.48    6.27
   1 -13  -1   59.90    7.98
   1 -13  -1   78.55    8.37
  -1  13   1   69.94    8.13
   0  13   1   10.77    4.76
   0 -13  -1    4.20    4.55
  -1 -13  -1  170.59   12.23
   1  13   1  159.06   12.06
   2  13   1    6.85    5.26
   2 -14  -1   24.96    6.54
  -1  14   1   33.69    6.62
   1 -14  -1   41.07    7.53
   0  14   1   44.56    7.53
   0 -14  -1   44.10    8.08
  -1 -14  -1   -2.10    4.55
   0  15  -2   14.05    5.54
  -1 -14   2   68.00    8.80
   1  14  -2   66.20    8.51
   0  14  -2    1.28    4.25
   0 -14   2   -5.13    4.03
   1 -14   2    3.12    4.01
   1 -14   2    4.17    4.31
   2 -14   2    9.68    4.94
   2 -14   2    4.41    4.40
   3 -14   2   -3.69    3.67
   3  13  -2   28.51    6.65
  -2 -13   2  286.62   16.21
   2  13  -2  235.65   15.20
  -1 -13   2   41.44    7.10
   1  13  -2   33.15    6.34
   0 -13   2  133.75   10.24
   0  13  -2  134.18   10.36
   0 -13   2  110.52   10.13
  -1  13  -2   63.23    7.26
   1 -13   2   51.42    6.92
   1 -13   2   51.88    7.25
   2 -13   2    7.97    4.06
   2 -13   2   -2.16    3.61
   2 -13   2   10.47    4.30
  -3  13  -2   13.05    4.38
   3 -13   2   11.84    5.09
   3 -13   2   10.13    4.57
   3 -13   2   12.58    4.61
   4 -13   2   35.25    6.27
  -4  13  -2   37.68    6.49
   3  12  -2    1.17    3.96
   3  12  -2    3.73    4.47
   2  12  -2    5.89    4.08
  -2 -12   2    2.18    3.95
   2  12  -2    5.60    4.26
  -1 -12   2  149.56   10.87
   1  12  -2  168.69   10.42
   1  12  -2  147.52   10.75
   0 -12   2   15.35    4.36
   0 -12   2   15.56    4.80
   0  12  -2   19.05    5.02
  -1  12  -2   25.51    5.14
   1 -12   2   31.31    5.77
   1 -12   2   28.63    5.29
   1 -12   2   29.72    5.46
   2 -12   2  113.05    9.00
   2 -12   2  115.41    9.31
   2 -12   2  123.55    9.43
   3 -12   2   24.55    5.34
  -3  12  -2   22.38    5.02
   3 -12   2   22.49    5.16
   3 -12   2   23.68    5.16
  -4  12  -2   20.54    5.06
   4 -12   2   11.51    4.40
   4 -12   2    7.02    4.16
   4 -12   2   14.95    4.77
   5 -12   2   18.39    5.18
  -5  12  -2    9.46    4.57
   4  11  -2   40.44    6.58
   4  11  -2   45.37    6.93
  -3 -11   2   49.73    6.79
   3  11  -2   41.66    5.89
   3  11  -2   38.12    5.98
   3  11  -2   25.04    5.74
   2  11  -2  127.41    9.21
  -2 -11   2   96.71    8.94
   2  11  -2  119.78    9.68
   2  11  -2  114.20    8.72
   1  11  -2   12.04    4.33
   1  11  -2   16.31    4.05
  -1 -11   2   18.52    4.87
  -1 -11   2   10.51    3.56
   0  11  -2   66.22    6.16
   0 -11   2   71.04    7.51
   0 -11   2   76.38    6.96
   0 -11   2   77.51    6.85
   0  11  -2   73.51    7.18
   1 -11   2   55.39    6.67
  -1  11  -2   68.98    6.52
   1 -11   2   58.04    6.18
   1 -11   2   64.07    6.60
  -2  11  -2   74.88    6.59
   2 -11   2   83.86    7.27
   2 -11   2   70.22    6.93
   2 -11   2   63.10    6.40
   3 -11   2   15.01    3.91
   3 -11   2    5.78    3.67
  -3  11  -2    5.77    3.29
   3 -11   2   10.85    4.04
   4 -11   2    3.21    3.62
  -4  11  -2    4.44    3.43
   4 -11   2   11.41    3.77
   5 -11   2    6.31    3.49
  -5  11  -2    9.40    4.33
   5 -11   2    2.05    3.62
   5  10  -2   20.22    5.58
   4  10  -2   60.91    7.11
   4  10  -2   72.54    7.60
   4  10  -2   56.56    7.26
   3  10  -2   10.54    4.23
   3  10  -2    7.82    3.77
   3  10  -2   12.53    4.00
  -3 -10   2    8.36    4.04
  -3 -10   2   14.02    4.42
   2  10  -2  128.03    8.61
  -2 -10   2  115.59    8.62
   2  10  -2  122.46    8.32
   2  10  -2  110.23    8.73
  -1 -10   2   71.11    6.27
   1  10  -2   68.20    6.67
   1  10  -2   72.66    6.31
  -1 -10   2   73.73    6.47
   1  10  -2   79.84    6.44
  -1 -10   2   67.85    6.69
   0 -10   2  377.22   17.53
   0  10  -2  392.12   17.08
   0 -10   2  390.90   18.08
   0  10  -2  410.59   17.91
   0 -10   2  426.27   18.61
   1 -10   2  144.91    9.36
  -1  10  -2  148.45    9.18
   1 -10   2  149.79    9.11
   1 -10   2  147.89    9.60
   2 -10   2    9.29    3.45
  -2  10  -2   11.50    3.23
   2 -10   2    6.18    3.08
   2 -10   2   12.37    3.53
  -3  10  -2   19.03    4.00
   3 -10   2   19.47    3.87
   3 -10   2   15.20    3.87
  -4  10  -2   55.25    6.58
  -4  10  -2   54.41    6.36
   4 -10   2   58.64    6.02
   4 -10   2   49.00    5.59
   5 -10   2   29.46    4.73
  -5  10  -2   34.61    5.95
   5 -10   2   34.19    5.20
  -6  10  -2    0.24    3.38
   5   9  -2   13.87    4.67
   5   9  -2   23.09    5.36
   4   9  -2   -0.14    2.83
   4   9  -2    4.49    3.26
   4   9  -2   -4.10    2.90
   4   9  -2   -0.19    3.38
  -3  -9   2   55.90    6.02
   3   9  -2   60.21    6.03
   3   9  -2   51.75    5.68
   3   9  -2   43.51    5.85
   3   9  -2   48.40    5.10
   2   9  -2   26.88    4.73
   2   9  -2   32.54    4.46
   2   9  -2   29.33    4.49
  -2  -9   2   24.22    4.39
  -2  -9   2   22.04    3.87
   2   9  -2   32.18    3.58
  -1  -9   2  670.61   27.79
  -1  -9   2  746.50   29.21
  -1  -9   2  730.18   28.53
   1   9  -2  749.16   29.07
   1   9  -2  717.16   28.28
   1   9  -2  764.54   26.98
   1   9  -2  701.23   27.82
   0  -9   2  204.77   11.04
   0   9  -2  216.29   10.42
   0  -9   2  212.10   11.17
   0   9  -2  206.38   10.55
   0   9  -2  197.34   10.70
   0  -9   2  190.29   10.49
   1  -9   2  653.86   25.41
  -1   9  -2  634.25   24.11
  -1   9  -2  639.31   24.80
   1  -9   2  628.58   25.96
   1  -9   2  639.88   25.15
  -2   9  -2  145.49    8.13
   2  -9   2  138.96    8.31
   2  -9   2  138.52    8.62
   3  -9   2  195.33   10.65
   3  -9   2  200.95   10.45
  -3   9  -2  201.78   11.11
  -3   9  -2  209.08   11.31
   4  -9   2   65.63    5.81
  -4   9  -2   49.83    6.02
  -4   9  -2   56.81    6.10
   4  -9   2   50.70    5.13
  -5   9  -2    3.93    3.31
  -5   9  -2    1.77    3.64
   5  -9   2    2.39    2.92
   5  -9   2    3.95    2.79
  -6   9  -2    9.99    4.65
   6  -9   2   14.16    3.78
   6   8  -2    2.07    3.75
   5   8  -2   13.00    4.20
   5   8  -2   13.29    3.92
   5   8  -2   21.06    4.65
   5   8  -2   28.14    5.39
  -4  -8   2    3.92    2.85
   4   8  -2    4.51    3.01
   4   8  -2    5.27    3.13
   4   8  -2    6.95    3.54
   4   8  -2    1.19    2.66
   3   8  -2  473.11   20.69
  -3  -8   2  471.84   20.17
   3   8  -2  498.59   21.13
   3   8  -2  492.14   20.44
   3   8  -2  475.31   20.35
   2   8  -2  113.01    6.63
  -2  -8   2  122.40    7.20
  -2  -8   2  114.92    7.27
  -2  -8   2  104.22    7.38
   2   8  -2  119.52    8.28
   2   8  -2  115.89    7.58
   2   8  -2  105.95    7.42
  -1  -8   2   30.47    4.36
   1   8  -2   35.02    2.98
   1   8  -2   33.76    3.97
  -1  -8   2   25.36    3.61
   1   8  -2   23.19    4.00
  -1  -8   2   24.62    3.83
   1   8  -2   26.98    3.76
   0  -8   2  712.19   27.27
   0   8  -2  660.38   26.49
   0  -8   2  667.94   26.25
   0   8  -2  666.69   25.93
   0   8  -2  709.17   25.83
   0  -8   2  696.77   26.16
  -1   8  -2   28.45    3.22
   1  -8   2   33.18    4.04
  -1   8  -2   34.29    3.95
   1  -8   2   26.55    3.80
   1  -8   2   24.88    3.91
  -1   8  -2   32.39    3.37
   2  -8   2  343.43   15.14
  -2   8  -2  374.83   14.88
   2  -8   2  359.74   15.50
  -3   8  -2  136.31    8.35
   3  -8   2  135.85    7.60
   3  -8   2  133.62    7.93
  -3   8  -2  134.11    8.44
  -4   8  -2  285.67   14.90
   4  -8   2  299.91   13.26
   4  -8   2  290.41   13.11
  -4   8  -2  296.79   14.71
  -5   8  -2   79.10    8.08
   5  -8   2   86.30    6.18
  -5   8  -2   83.57    7.67
  -6   8  -2    9.63    4.13
   6  -8   2   13.22    3.34
   7  -8   2   77.21    6.28
  -7   8  -2   84.86    9.11
   6   7  -2   16.28    4.67
   6   7  -2   11.11    4.26
   5   7  -2   16.13    3.91
   5   7  -2   12.98    3.97
   5   7  -2   15.62    4.32
   5   7  -2   12.13    3.81
   4   7  -2  112.93    7.91
   4   7  -2  108.31    8.22
   4   7  -2  131.11    8.40
  -4  -7   2  126.95    8.10
   3   7  -2   64.96    5.67
  -3  -7   2   71.33    6.52
   3   7  -2   65.53    6.12
   3   7  -2   85.84    5.99
   3   7  -2   77.58    5.97
  -3  -7   2   73.26    5.96
  -3  -7   2   73.98    5.96
  -2  -7   2  563.90   22.61
  -2  -7   2  565.18   21.77
   2   7  -2  563.92   22.20
   2   7  -2  581.09   22.50
  -2  -7   2  539.51   22.02
   2   7  -2  573.50   22.84
   2   7  -2  576.59   22.17
   1   7  -2  344.78   15.04
   1   7  -2  358.53   14.96
   1   7  -2  348.53   13.70
  -1  -7   2  368.03   15.14
   1   7  -2  343.14   14.55
  -1  -7   2  341.28   14.49
  -1  -7   2  332.25   15.00
   0  -7   2  500.86   20.04
   0   7  -2  484.19   19.49
   0  -7   2  496.16   19.23
   0   7  -2  509.74   19.32
   0   7  -2  465.93   18.80
   0  -7   2  501.18   19.58
  -1   7  -2   22.10    3.28
   1  -7   2   24.26    3.60
   1  -7   2   22.79    3.11
   1  -7   2   21.51    3.28
  -1   7  -2   22.26    2.84
  -1   7  -2   25.91    2.82
  -2   7  -2  215.62    9.00
  -2   7  -2  230.88    9.91
   2  -7   2  216.87   10.44
   2  -7   2  227.58    8.17
   2  -7   2  229.73   10.60
   2  -7   2  209.18   10.03
  -3   7  -2  285.02   13.60
  -3   7  -2  299.68   11.71
   3  -7   2  308.36   12.72
  -3   7  -2  288.21   13.88
   3  -7   2  295.38   12.70
  -4   7  -2    0.81    2.28
   4  -7   2    5.50    2.40
   4  -7   2    6.37    2.21
  -4   7  -2    1.04    2.39
  -5   7  -2    4.89    3.10
  -5   7  -2    8.44    3.57
   5  -7   2   12.90    2.69
   6  -7   2   15.27    3.05
  -6   7  -2    9.44    4.20
  -7   7  -2    3.91    4.03
   7  -7   2    2.31    2.51
   7   6  -2   28.31    5.42
   6   6  -2    1.70    3.29
   6   6  -2    0.87    3.08
   5   6  -2   95.77    7.64
   5   6  -2   99.18    7.48
   5   6  -2  117.78    7.88
  -4  -6   2  141.11    9.95
   4   6  -2  144.93    8.53
   4   6  -2  140.28    8.48
   4   6  -2  137.58    8.35
  -4  -6   2  126.04    8.12
  -3  -6   2  752.10   26.76
  -3  -6   2  681.67   32.25
   3   6  -2  731.24   27.74
   3   6  -2  733.98   27.60
  -3  -6   2  742.25   30.04
   3   6  -2  755.37   28.60
  -3  -6   2  728.91   27.20
  -2  -6   2   82.57    5.59
   2   6  -2   78.42    5.58
  -2  -6   2   86.52    5.44
   2   6  -2   78.66    5.95
   2   6  -2   90.62    5.74
  -2  -6   2   90.92    6.07
   1   6  -2   58.92    3.71
  -1  -6   2   57.55    4.57
  -1  -6   2   52.04    4.10
   1   6  -2   50.69    4.49
  -1  -6   2   54.74    4.60
   1   6  -2   57.19    4.39
   1   6  -2   52.59    4.17
   0   6  -2 3684.02  131.14
   0  -6   2 3970.97  126.68
   0   6  -2 3734.17  125.01
   0  -6   2 3911.47  125.26
   0  -6   2 3700.58  131.56
   0   6  -2 3720.14  126.30
  -1   6  -2  669.98   23.68
   1  -6   2  682.90   25.06
   1  -6   2  661.01   24.16
  -1   6  -2  658.35   23.93
   1  -6   2  643.44   24.14
  -1   6  -2  663.41   24.52
   2  -6   2  100.47    5.67
  -2   6  -2  105.00    5.58
   2  -6   2   99.90    6.01
   2  -6   2  112.33    5.90
  -2   6  -2  101.34    4.69
   2  -6   2  112.33    5.93
  -2   6  -2   96.39    6.10
  -3   6  -2   80.05    4.15
   3  -6   2   72.39    4.71
  -3   6  -2   68.35    5.75
   3  -6   2   73.22    4.97
   3  -6   2   74.93    4.93
  -3   6  -2   77.84    5.70
   4  -6   2  117.08    6.25
   4  -6   2  112.49    6.11
  -4   6  -2  107.91    7.55
  -4   6  -2  110.65    7.70
   5  -6   2   50.65    3.98
  -5   6  -2   42.25    5.82
  -5   6  -2   48.02    5.69
   6  -6   2  107.33    6.39
  -6   6  -2  100.83    8.84
   7  -6   2   17.86    3.04
  -7   6  -2   17.28    5.15
   7   5  -2    9.08    4.04
   6   5  -2   25.05    4.36
   6   5  -2   18.38    4.29
   5   5  -2   26.61    3.98
   5   5  -2   15.66    3.69
   5   5  -2   24.69    3.78
   4   5  -2  340.17   15.11
  -4  -5   2  369.99   18.67
   4   5  -2  378.22   15.92
  -4  -5   2  350.39   15.99
  -4  -5   2  373.49   14.80
   4   5  -2  343.03   15.36
   3   5  -2   64.90    5.21
  -3  -5   2   82.58    6.22
   3   5  -2   86.76    6.20
   3   5  -2   75.97    5.53
  -3  -5   2   80.58    4.87
  -3  -5   2   68.65    5.26
   3   5  -2   84.13    6.12
  -3  -5   2   77.81    5.29
  -3  -5   2   81.66    4.88
  -2  -5   2    5.03    1.83
  -2  -5   2    7.90    2.29
   2   5  -2    5.10    2.33
   2   5  -2    7.77    2.54
   2   5  -2    4.37    1.90
   2   5  -2    7.83    2.36
  -2  -5   2    6.24    1.76
  -1  -5   2 1279.18   44.55
  -1  -5   2 1342.60   44.47
  -1  -5   2 1233.18   46.29
   1   5  -2 1333.73   44.71
   1   5  -2 1265.54   46.23
   1   5  -2 1306.74   44.46
   0  -5   2 1041.47   38.27
   0   5  -2 1127.70   36.87
   0   5  -2 1021.25   36.54
   0   5  -2 1057.19   36.53
   0  -5   2 1086.91   36.68
   0  -5   2 1073.43   38.14
   0   5  -2 1023.71   37.91
   0  -5   2 1030.46   36.71
  -1   5  -2 1052.19   38.11
   1  -5   2 1060.96   37.14
   1  -5   2 1125.88   38.60
  -1   5  -2 1051.18   36.70
   1  -5   2 1031.62   36.86
   1  -5   2 1109.42   37.14
  -1   5  -2 1094.31   36.74
  -2   5  -2   67.07    4.56
   2  -5   2   69.66    4.32
   2  -5   2   76.80    4.17
   2  -5   2   63.85    3.94
   2  -5   2   70.16    4.06
  -2   5  -2   62.12    3.09
  -2   5  -2   64.63    3.73
  -3   5  -2  324.90   14.67
   3  -5   2  334.95   13.07
  -3   5  -2  342.89   15.12
   3  -5   2  361.03   13.58
   3  -5   2  330.51   13.11
   3  -5   2  366.48   13.01
   4  -5   2   56.22    3.70
   4  -5   2   58.46    3.75
  -4   5  -2   48.93    5.01
  -4   5  -2   45.80    5.04
   4  -5   2   54.00    3.84
  -5   5  -2  294.71   15.07
   5  -5   2  279.59   11.28
   5  -5   2  303.71   11.70
  -5   5  -2  289.45   14.53
  -6   5  -2   19.89    4.63
   6  -5   2   21.08    2.76
   6  -5   2   23.32    2.84
   7  -5   2   81.22    5.26
   7   4  -2   33.54    4.93
   7   4  -2   29.12    4.98
   6   4  -2   15.99    3.68
   6   4  -2   14.82    3.83
  -5  -4   2   20.87    4.46
   5   4  -2   13.87    3.42
   5   4  -2   12.22    3.13
  -4  -4   2  110.99    6.21
   4   4  -2  115.45    6.91
  -4  -4   2  115.16    6.63
   4   4  -2  123.07    6.93
  -4  -4   2  121.66    8.39
   4   4  -2  123.70    7.22
   3   4  -2  366.90   15.34
  -3  -4   2  373.79   15.63
  -3  -4   2  348.42   17.38
   3   4  -2  354.57   14.66
  -3  -4   2  388.32   14.05
   3   4  -2  373.50   14.92
  -3  -4   2  372.58   14.50
  -3  -4   2  371.63   14.39
   3   4  -2  363.29   15.16
   2   4  -2   25.72    2.74
   2   4  -2   25.42    2.80
  -2  -4   2   26.86    2.51
  -2  -4   2   29.17    3.01
  -2  -4   2   22.50    2.49
   2   4  -2   29.94    2.88
   2   4  -2   27.72    3.05
  -1  -4   2 1990.54   68.14
   1   4  -2 1920.94   70.72
   1   4  -2 2025.09   70.98
  -1  -4   2 2125.27   67.66
   1   4  -2 2054.09   68.31
  -1  -4   2 1963.51   70.87
   1   4  -2 2100.89   67.67
   0  -4   2 4407.36  149.48
   0  -4   2 4295.32  149.68
   0   4  -2 4240.63  149.39
   0   4  -2 4344.25  150.43
   0   4  -2 4297.25  142.08
   0  -4   2 4410.97  143.96
   0   4  -2 4329.94  143.88
   0  -4   2 4416.56  142.19
  -1   4  -2  336.68   12.63
   1  -4   2  346.43   13.00
  -1   4  -2  375.84   13.00
   1  -4   2  366.48   13.07
   1  -4   2  340.61   13.08
   1  -4   2  348.29   13.45
  -2   4  -2   99.31    4.11
  -2   4  -2   92.78    5.21
   2  -4   2   90.10    4.37
  -2   4  -2   85.70    5.15
   2  -4   2   95.38    4.29
   2  -4   2   93.20    4.60
   2  -4   2   88.32    4.53
   2  -4   2   83.53    4.24
   3  -4   2    2.03    1.21
  -3   4  -2    1.00    1.78
   3  -4   2    1.62    1.10
   3  -4   2    2.24    1.41
   3  -4   2    2.34    1.41
  -3   4  -2   -0.60    1.79
   3  -4   2    0.81    1.08
  -4   4  -2   51.29    5.13
  -4   4  -2   42.79    4.71
   4  -4   2   44.11    2.99
   4  -4   2   48.09    3.08
   4  -4   2   50.65    3.06
   5  -4   2  154.37    6.77
   5  -4   2  154.49    6.53
  -5   4  -2  159.56    9.72
   6  -4   2   62.55    4.04
  -6   4  -2   73.91    7.15
   7  -4   2    2.19    2.05
   7   3  -2  183.69   10.45
   7   3  -2  175.63    9.98
   6   3  -2   -4.01    2.17
   6   3  -2    0.83    2.38
   5   3  -2  216.98   10.43
  -5  -3   2  227.96   13.51
   5   3  -2  214.86   10.51
   4   3  -2  152.06    7.99
  -4  -3   2  158.65    7.37
  -4  -3   2  164.13   10.01
   4   3  -2  151.78    8.06
   4   3  -2  167.38    8.02
   3   3  -2  143.86    6.75
   3   3  -2  139.29    6.99
   3   3  -2  133.04    6.64
  -3  -3   2  130.61    5.91
  -3  -3   2  131.97    6.48
  -3  -3   2  110.91    7.61
   3   3  -2  137.64    6.85
   3   3  -2  127.81    6.45
  -3  -3   2  129.76    6.45
  -2  -3   2 1331.82   44.62
  -2  -3   2 1262.51   53.27
  -2  -3   2 1309.47   44.79
   2   3  -2 1407.93   45.20
   2   3  -2 1339.98   46.93
  -2  -3   2 1271.28   46.47
   2   3  -2 1296.98   46.79
   2   3  -2 1324.33   44.80
   2   3  -2 1351.39   45.14
   1   3  -2  228.50    9.02
   1   3  -2  212.47    9.17
  -1  -3   2  226.81    9.18
  -1  -3   2  241.05    8.99
   1   3  -2  240.38    9.07
  -1  -3   2  215.16    9.21
   1   3  -2  231.35    9.36
   1   3  -2  232.68    9.23
  -1  -3   2  235.99    9.12
   0  -3   2 3239.70  107.63
   0   3  -2 3186.41  111.73
   0  -3   2 3187.07  111.73
   0  -3   2 3288.01  107.62
   0  -3   2 3155.53  111.90
   0   3  -2 3135.17  107.56
   0  -3   2 3334.39  106.33
   0   3  -2 3371.97  107.53
   0   3  -2 3333.17  106.29
   1  -3   2 1454.08   47.77
   1  -3   2 1449.01   48.13
   1  -3   2 1523.28   47.74
   1  -3   2 1400.28   50.00
   1  -3   2 1377.72   48.18
  -1   3  -2 1440.99   47.55
  -2   3  -2 1064.79   39.66
   2  -3   2 1140.62   36.68
   2  -3   2 1152.07   36.95
   2  -3   2 1092.98   37.04
   2  -3   2 1114.23   36.76
   2  -3   2 1096.79   38.40
  -2   3  -2 1092.85   36.29
  -2   3  -2 1082.63   39.34
  -3   3  -2   35.03    3.61
   3  -3   2   35.76    2.34
  -3   3  -2   38.75    3.88
   3  -3   2   37.79    2.46
   3  -3   2   37.05    4.14
   3  -3   2   38.75    1.99
   3  -3   2   37.80    2.01
   3  -3   2   39.21    2.06
   4  -3   2  116.63    4.91
  -4   3  -2  114.74    7.46
   4  -3   2  114.57    5.02
   4  -3   2  122.07    4.90
   4  -3   2  125.69    4.82
  -5   3  -2   -0.23    2.34
   5  -3   2    0.84    1.13
   5  -3   2    0.60    1.07
   5  -3   2    0.65    1.07
   6  -3   2    1.11    1.47
   7   2  -2   54.95    5.58
   6   2  -2   55.97    4.95
   6   2  -2   60.48    5.20
  -5  -2   2   34.17    5.19
   5   2  -2   34.63    3.84
   5   2  -2   38.00    3.81
  -4  -2   2 1241.63   53.92
   4   2  -2 1367.75   46.49
   4   2  -2 1302.58   44.74
   4   2  -2 1225.90   44.24
  -4  -2   2 1312.04   43.53
   3   2  -2 1433.76   49.91
  -3  -2   2 1431.69   52.95
   3   2  -2 1396.89   49.84
   3   2  -2 1372.49   47.54
   3   2  -2 1423.70   50.08
  -3  -2   2 1430.73   47.22
  -3  -2   2 1398.56   48.90
  -3  -2   2 1423.25   47.28
   3   2  -2 1494.49   48.16
  -3  -2   2 1302.81   57.28
   3   2  -2 1375.68   48.00
  -2  -2   2  745.68   25.55
   2   2  -2  721.24   26.77
  -2  -2   2  737.36   25.58
  -2  -2   2  753.25   28.19
   2   2  -2  741.09   25.85
   2   2  -2  793.68   25.93
   2   2  -2  741.24   25.72
  -2  -2   2  689.84   30.57
   2   2  -2  761.61   26.85
  -1  -2   2 1406.44   46.20
   1   2  -2 1340.82   47.99
  -1  -2   2 1361.78   47.88
  -1  -2   2 1384.89   46.18
   1   2  -2 1372.20   47.98
  -1  -2   2 1345.27   45.67
   1   2  -2 1388.28   45.75
   1   2  -2 1419.87   46.25
   1   2  -2 1390.11   46.20
  -1  -2   2 1321.18   47.92
   0  -2   2  841.77   28.36
   0  -2   2  838.36   29.37
   0  -2   2  814.86   29.46
   0  -2   2  813.03   28.03
   0   2  -2  852.56   29.45
   0  -2   2  829.49   28.30
   0   2  -2  862.34   28.27
   0   2  -2  849.15   28.06
   1  -2   2 6981.95  236.94
   1  -2   2 7781.25  251.08
  -1   2  -2 7602.84  250.35
   1  -2   2 6923.85  238.87
   1  -2   2 7320.62  242.69
   1  -2   2 7208.63  241.87
  -1   2  -2 7192.39  252.40
   2  -2   2 1030.53   32.97
   2  -2   2  987.27   41.00
   2  -2   2 1039.51   36.05
   2  -2   2 1024.93   33.09
  -2   2  -2  967.28   35.75
  -2   2  -2  951.18   35.99
   3  -2   2  543.84   17.93
  -3   2  -2  520.46   20.89
   3  -2   2  546.15   24.07
  -4   2  -2    5.50    2.49
   5  -2   2   17.24    1.67
   5  -2   2   15.77    1.64
   5  -2   2   15.31    1.71
   6  -2   2    0.60    1.63
   7  -2   2   48.57    3.89
   7   1  -2   18.53    3.74
   6   1  -2    5.57    2.52
   6   1  -2    8.93    2.78
   5   1  -2    9.73    2.41
   5   1  -2    8.24    2.40
   4   1  -2   89.10    4.99
  -4  -1   2   79.41    6.34
  -4  -1   2   80.91    4.28
   4   1  -2   79.32    5.11
   4   1  -2   87.03    6.72
   4   1  -2   80.95    4.70
   4   1  -2   73.79    4.72
  -3  -1   2  322.81   10.86
  -3  -1   2  311.41   11.54
   3   1  -2  294.39   11.75
  -3  -1   2  308.48   11.06
   3   1  -2  327.15   12.63
   3   1  -2  310.04   14.51
   3   1  -2  322.50   11.80
  -3  -1   2  295.12   14.55
   3   1  -2  305.54   12.17
   3   1  -2  292.83   11.78
   2   1  -2  264.63   10.07
   2   1  -2  250.31    9.76
   2   1  -2  253.10    9.70
   2   1  -2  265.26   11.61
   2   1  -2  272.95    9.72
   2   1  -2  263.91   10.05
  -2  -1   2  246.79   11.65
  -2  -1   2  247.95    9.67
  -2  -1   2  258.64    9.62
  -1  -1   2  746.02   24.85
  -1  -1   2  746.26   25.09
  -1  -1   2  743.59   25.07
   1   1  -2  731.13   26.06
  -1  -1   2  704.67   29.50
   1   1  -2  709.29   24.88
  -1  -1   2  767.00   26.01
   1   1  -2  725.11   25.78
   1   1  -2  740.37   25.14
   1   1  -2  771.26   24.89
  -1  -1   2  733.04   26.03
   1   1  -2  740.73   25.04
   0   1  -2 2301.22   77.00
   0   1  -2 2120.90   76.65
   0  -1   2 2203.46   73.83
   0  -1   2 2206.32   77.92
   0   1  -2 2275.08   72.86
   0  -1   2 2164.95   76.78
   0   1  -2 2271.26   73.74
   0  -1   2 2122.13   72.76
   0   1  -2 2198.49   77.55
   0  -1   2 2208.18   73.78
   0   1  -2 2405.16   72.75
   1  -1   2 6028.43  240.64
   1  -1   2 7298.07  238.18
   1  -1   2 7304.79  276.21
   1  -1   2 6504.95  229.91
   1  -1   2 6986.16  240.17
   1  -1   2 7459.56  232.38
  -1   1  -2 7285.87  240.62
   2  -1   2  344.72   15.43
   2  -1   2  349.22   13.67
  -2   1  -2  340.80   13.62
   3  -1   2  699.27   23.44
   3  -1   2  696.85   23.35
  -3   1  -2  657.03   26.48
   3  -1   2  728.61   30.58
   3  -1   2  749.12   28.44
   4  -1   2  469.86   16.16
   4  -1   2  470.25   16.28
   4  -1   2  470.39   16.83
   4  -1   2  492.43   16.33
   4  -1   2  472.50   16.33
   4  -1   2  475.61   16.86
   5  -1   2  185.78    7.44
   5  -1   2  198.59    7.75
   5  -1   2  187.91    7.84
   5  -1   2  195.04    7.84
   6  -1   2   10.75    2.11
   7  -1   2    3.82    2.15
   7   0  -2  206.83   10.47
   6   0  -2   66.02    5.11
   6   0  -2   75.51    5.44
   5   0  -2   69.50    4.89
   5   0  -2   65.15    4.58
  -4   0   2    9.88    1.51
   4   0  -2   12.89    2.16
   4   0  -2   17.72    3.39
   4   0  -2   13.76    1.97
   4   0  -2   16.90    2.44
   4   0  -2   10.59    1.76
   4   0  -2   15.71    2.19
   3   0  -2  342.16   12.72
   3   0  -2  341.97   12.52
   3   0  -2  331.72   13.37
   3   0  -2  351.60   13.62
   3   0  -2  330.27   13.03
   3   0  -2  335.17   12.70
   3   0  -2  337.20   15.72
  -3   0   2  347.69   12.32
  -2   0   2 7772.23  260.55
  -2   0   2 7950.23  257.83
   2   0  -2 7862.09  246.63
   2   0  -2 7400.47  252.51
   2   0  -2 8038.09  247.21
   2   0  -2 7673.19  260.71
   2   0  -2 7682.69  261.33
   2   0  -2 7650.68  251.27
  -2   0   2 6734.07  259.78
  -2   0   2 7726.34  248.90
  -2   0   2 7162.09  262.02
   2   0  -2 7487.86  296.62
   1   0  -2 2059.06   67.82
  -1   0   2 1920.37   65.74
   1   0  -2 1932.62   64.99
   1   0  -2 1991.17   68.37
  -1   0   2 2031.34   68.01
   1   0  -2 2046.77   65.76
   1   0  -2 2047.89   64.90
  -1   0   2 1884.00   65.71
  -1   0   2 1897.16   68.32
  -1   0   2 2016.64   64.94
   0   0  -2 1185.11   41.85
   0   0  -2 1235.54   39.70
   0   0  -2 1162.98   45.19
   0   0  -2 1149.31   40.16
   0   0   2 1178.96   39.74
   0   0  -2 1231.99   39.82
   0   0   2 1213.40   40.30
   0   0   2 1178.19   41.91
   0   0   2 1234.90   45.20
   0   0   2 1274.16   39.79
   1   0   2 5110.18  168.54
   1   0   2 4447.01  176.90
   1   0   2 4526.91  168.15
   1   0   2 5492.36  184.34
  -1   0  -2 5114.95  196.35
   1   0   2 5218.90  196.22
   1   0   2 5049.45  163.98
  -1   0  -2 4881.92  163.83
   1   0   2 5142.95  179.57
   1   0   2 4843.90  172.21
   2   0   2   35.31    3.14
   2   0   2   36.02    1.86
   2   0   2   39.36    3.39
  -2   0  -2   32.11    3.15
   2   0   2   32.45    1.90
   3   0   2  934.34   30.28
   3   0   2  908.40   30.45
   3   0   2  925.09   38.41
   3   0   2  907.79   30.31
   3   0   2  893.00   30.50
  -3   0  -2  818.66   38.19
   3   0   2  939.35   35.80
   3   0   2  922.34   31.68
   3   0   2  923.47   31.71
   4   0   2   99.56    4.80
   4   0   2   97.37    4.61
  -4   0  -2  106.82    7.69
   4   0   2  101.45    4.61
   4   0   2  108.57    4.60
   4   0   2  103.46    4.72
   5   0   2  307.73   11.61
   5   0   2  305.83   12.20
   5   0   2  317.32   11.85
   6   0   2  110.13    5.88
   7   0   2   34.89    3.73
   7  -1  -2    1.24    2.48
   6  -1  -2  242.46   11.11
   6  -1  -2  250.23   11.00
   5  -1  -2   -0.12    1.71
   5  -1  -2    3.76    1.97
   4  -1  -2  101.36    5.35
   4  -1  -2   92.46    5.35
   4  -1  -2   96.81    5.37
   4  -1  -2  107.31    5.52
   4  -1  -2  100.41    7.29
   4  -1  -2  109.15    5.21
  -4   1   2   99.31    6.13
  -3   1   2 1372.80   44.93
   3  -1  -2 1334.64   47.40
   3  -1  -2 1335.32   45.77
  -3   1   2 1258.77   48.12
   3  -1  -2 1388.26   45.61
  -3   1   2 1350.39   47.72
   3  -1  -2 1372.80   55.16
   3  -1  -2 1391.19   45.37
  -2   1   2 2428.59   84.27
   2  -1  -2 2506.79   80.74
  -2   1   2 2416.94   83.68
   2  -1  -2 2401.74   79.90
   2  -1  -2 2365.82   80.87
  -2   1   2 2488.58   83.46
   2  -1  -2 2400.45   80.90
   2  -1  -2 2407.51   83.92
  -2   1   2 2467.20   79.69
  -1   1   2 6835.53  222.93
  -1   1   2 7086.66  222.07
   1  -1  -2 7018.03  224.66
   1  -1  -2 6690.63  225.34
  -1   1   2 6646.52  223.47
  -1   1   2 6425.33  233.28
   1  -1  -2 6628.74  232.88
   0  -1  -2 3739.78  119.77
   0   1   2 3668.71  124.44
   0   1   2 3639.13  118.03
   0  -1  -2 3423.20  125.17
   0  -1  -2 3373.85  119.45
   0   1   2 3777.54  119.68
   0   1   2 3783.13  118.01
   0  -1  -2 3702.34  119.75
   0  -1  -2 3769.85  124.35
   0   1   2 3356.53  120.82
  -1  -1  -2 3465.78  108.78
  -1  -1  -2 3446.56  110.38
   1   1   2 3335.18  108.83
   1   1   2 3382.54  110.26
   1   1   2 3424.87  123.76
  -1  -1  -2 3165.95  114.70
   1   1   2 3492.50  108.77
  -1  -1  -2 3316.63  123.85
   1   1   2 3218.13  111.12
  -1  -1  -2 3338.67  131.11
  -1  -1  -2 3299.40  110.61
   1   1   2 3236.13  115.04
   1   1   2 3296.11  114.66
  -1  -1  -2 3317.47  114.60
   2   1   2   51.80    2.75
  -2  -1  -2   45.41    3.87
   2   1   2   55.61    3.65
   2   1   2   52.58    2.96
   2   1   2   47.85    2.60
   2   1   2   52.82    2.91
   2   1   2   45.30    2.64
   2   1   2   48.06    2.60
  -2  -1  -2   52.24    3.78
   3   1   2   36.06    2.76
   3   1   2   48.50    3.04
   3   1   2   41.73    2.63
   3   1   2   43.46    2.63
   3   1   2   38.43    2.98
  -3  -1  -2   54.25    4.69
   3   1   2   42.87    2.84
   4   1   2   44.78    3.26
   4   1   2   41.43    3.09
   4   1   2   44.37    3.29
   4   1   2   45.52    3.34
   4   1   2   39.97    3.04
  -4  -1  -2   35.47    4.85
   5   1   2   39.72    3.25
   5   1   2   28.63    2.99
   5   1   2   35.03    3.17
  -5  -1  -2   42.85    5.80
   6   1   2   10.04    2.35
   6   1   2    5.77    2.30
   7   1   2   -1.39    2.18
   7  -2  -2   91.64    6.37
   6  -2  -2    5.45    2.48
   6  -2  -2    7.90    2.45
  -5   2   2   -2.86    1.91
   5  -2  -2    0.74    1.68
   5  -2  -2    0.03    1.68
   4  -2  -2  380.47   13.58
   4  -2  -2  378.82   14.21
   4  -2  -2  355.00   17.48
  -4   2   2  344.11   15.27
  -4   2   2  360.00   15.04
   4  -2  -2  350.83   13.69
   4  -2  -2  342.36   13.66
  -4   2   2  330.01   12.72
  -3   2   2   85.57    5.34
   3  -2  -2   94.25    4.74
  -3   2   2   86.23    4.37
   3  -2  -2   94.89    4.59
   3  -2  -2   84.74    4.61
   3  -2  -2   93.17    4.66
  -3   2   2   97.25    3.56
  -3   2   2   82.75    5.09
   3  -2  -2   89.28    4.78
   2  -2  -2  228.53    8.90
  -2   2   2  219.95    9.00
   2  -2  -2  238.59    8.78
  -2   2   2  219.94    8.73
  -2   2   2  218.53    8.64
   2  -2  -2  235.70    9.15
   1  -2  -2  220.11    8.58
   1  -2  -2  230.16    9.00
  -1   2   2  220.33    8.84
  -1   2   2  229.72    8.51
   1  -2  -2  231.68    8.84
   1  -2  -2  233.24    8.77
  -1   2   2  233.53    8.71
   0   2   2 1435.71   48.03
   0  -2  -2 1474.71   48.09
   0   2   2 1420.64   48.52
   0   2   2 1419.38   50.43
   0   2   2 1480.98   48.65
   0  -2  -2 1413.13   50.34
   0  -2  -2 1488.84   48.64
   1   2   2  624.35   22.90
  -1  -2  -2  647.14   21.96
   1   2   2  658.99   22.16
   1   2   2  659.79   23.41
  -1  -2  -2  634.18   21.88
   1   2   2  624.82   22.00
  -1  -2  -2  618.07   25.04
   2   2   2 1388.92   49.09
   2   2   2 1408.64   47.26
  -2  -2  -2 1346.79   53.40
   2   2   2 1420.47   50.05
  -2  -2  -2 1381.38   48.32
  -2  -2  -2 1455.07   46.56
   2   2   2 1471.38   47.23
   2   2   2 1370.93   48.89
   2   2   2 1393.58   46.79
  -2  -2  -2 1355.96   46.35
  -2  -2  -2 1380.32   56.75
   3   2   2  120.11    5.78
  -3  -2  -2  108.14    7.68
   3   2   2  122.82    6.03
   3   2   2  129.73    6.15
   3   2   2  125.75    5.87
  -3  -2  -2  116.43    7.11
   3   2   2  131.22    5.78
   4   2   2    4.61    1.95
   4   2   2    3.30    1.75
   4   2   2    5.98    1.99
  -4  -2  -2   11.48    3.28
   4   2   2    2.09    2.04
   5   2   2    3.74    2.04
   5   2   2    0.27    1.63
   5   2   2    0.33    1.89
  -5  -2  -2    1.07    2.88
   6   2   2    2.20    2.95
   6   2   2    1.17    2.15
   6   2   2   -2.12    2.08
   7   2   2   17.43    3.50
   7  -3  -2  127.40    7.68
   6  -3  -2   12.71    2.75
   6  -3  -2   18.09    2.96
  -6   3   2   12.06    3.72
  -5   3   2    4.02    2.54
   5  -3  -2    4.32    2.07
  -5   3   2    9.62    2.92
   5  -3  -2    7.19    2.14
  -4   3   2  280.33   12.66
   4  -3  -2  265.23   11.48
   4  -3  -2  288.76   11.98
  -4   3   2  295.58   13.27
  -4   3   2  306.65   10.89
   4  -3  -2  274.86   11.61
   4  -3  -2  284.70   11.71
   3  -3  -2   10.14    1.82
   3  -3  -2    9.07    1.87
   3  -3  -2    9.37    1.77
  -3   3   2    8.88    1.69
  -3   3   2    7.83    1.09
  -3   3   2    6.71    1.18
  -3   3   2    6.12    1.89
  -3   3   2    8.00    2.14
  -2   3   2   18.89    2.01
   2  -3  -2   17.80    2.04
  -2   3   2   19.27    2.05
   2  -3  -2   11.59    1.87
   2  -3  -2   16.62    2.09
   2  -3  -2   16.57    1.81
  -2   3   2   18.26    1.71
   1  -3  -2  344.78   13.15
   1  -3  -2  372.71   13.07
  -1   3   2  361.80   13.08
  -1   3   2  345.72   13.44
   1  -3  -2  354.42   13.59
  -1   3   2  338.56   12.85
   1  -3  -2  355.33   13.23
   0   3   2  765.27   26.27
   0  -3  -2  769.12   27.25
   0  -3  -2  732.67   26.24
   0   3   2  713.56   27.13
   0   3   2  787.99   26.19
   0  -3  -2  773.26   27.01
   0  -3  -2  746.89   26.16
   1   3   2   34.63    2.74
   1   3   2   30.43    2.54
   1   3   2   30.06    2.72
   1   3   2   28.43    2.51
  -1  -3  -2   42.43    2.97
  -1  -3  -2   28.70    2.38
  -1  -3  -2   30.72    2.67
   1   3   2   34.93    2.95
  -2  -3  -2    8.15    1.83
   2   3   2   11.64    2.03
   2   3   2   10.91    2.28
   2   3   2    5.36    1.94
  -2  -3  -2   11.92    1.55
  -2  -3  -2    7.87    2.14
   2   3   2   11.22    1.88
  -2  -3  -2   12.14    2.46
   2   3   2    9.64    1.80
  -3  -3  -2  159.31    9.02
   3   3   2  174.99    8.17
   3   3   2  162.50    9.03
  -3  -3  -2  160.67    9.81
   3   3   2  179.32    8.07
   3   3   2  170.16    7.65
  -3  -3  -2  168.04    7.14
   3   3   2  164.02    7.77
   3   3   2  157.74    7.71
  -4  -3  -2   63.64    6.42
   4   3   2   55.40    4.43
   4   3   2   56.59    4.54
   4   3   2   62.43    4.37
   4   3   2   53.76    5.44
  -4  -3  -2   58.68    5.28
   5   3   2   67.51    6.57
   5   3   2   74.19    5.17
   5   3   2   67.82    5.15
   5   3   2   60.34    4.86
   6   3   2  113.74    9.31
   6   3   2  118.01    7.37
   6   3   2  109.82    6.96
   6   3   2  125.65    7.44
   7   3   2    6.24    3.23
   7  -4  -2   45.74    4.90
   6  -4  -2  320.71   13.81
  -6   4   2  332.84   16.61
   6  -4  -2  308.36   13.41
  -6   4   2  312.60   15.54
  -5   4   2   13.86    3.48
  -5   4   2   15.11    3.32
   5  -4  -2   15.91    2.86
   5  -4  -2   15.25    2.80
   4  -4  -2   35.19    3.46
  -4   4   2   30.48    2.72
   4  -4  -2   23.47    3.11
  -4   4   2   27.57    3.48
  -4   4   2   28.82    3.84
   3  -4  -2  341.77   14.17
  -3   4   2  355.41   14.31
   3  -4  -2  375.82   13.70
  -3   4   2  341.14   13.07
  -3   4   2  356.16   13.23
  -3   4   2  374.72   12.82
   3  -4  -2  310.89   13.63
   2  -4  -2   59.41    3.93
   2  -4  -2   75.53    4.26
  -2   4   2   64.82    3.58
   2  -4  -2   54.14    4.18
   2  -4  -2   59.44    4.14
  -2   4   2   60.38    3.95
   1  -4  -2   15.31    2.03
  -1   4   2   11.82    1.76
   1  -4  -2   13.18    2.17
  -1   4   2   13.24    1.81
  -1   4   2   10.89    1.96
   1  -4  -2   12.35    1.97
   0   4   2  981.12   36.53
   0   4   2 1028.00   35.27
   0  -4  -2 1021.82   35.36
   0  -4  -2 1006.09   35.13
   0  -4  -2 1070.82   36.30
   0   4   2  999.85   35.04
   1   4   2  298.61   12.24
   1   4   2  316.58   12.22
  -1  -4  -2  285.28   11.83
   1   4   2  322.82   12.07
  -1  -4  -2  299.57   11.69
  -1  -4  -2  292.16   12.20
   1   4   2  281.91   12.13
  -2  -4  -2  394.87   15.08
  -2  -4  -2  392.55   17.36
   2   4   2  397.57   15.73
   2   4   2  389.03   15.35
  -2  -4  -2  381.92   15.13
   2   4   2  397.77   15.44
  -2  -4  -2  395.63   14.65
   2   4   2  402.03   16.31
   3   4   2  240.37   10.94
  -3  -4  -2  238.40   13.42
   3   4   2  266.35   11.27
   3   4   2  249.16   12.15
  -3  -4  -2  249.76   12.63
   3   4   2  254.54   11.16
  -3  -4  -2  252.16   10.41
   4   4   2   27.51    3.61
   4   4   2   21.29    4.06
   4   4   2   26.50    3.43
   4   4   2   23.03    3.12
  -4  -4  -2   21.65    3.78
  -4  -4  -2   17.74    4.24
   5   4   2    4.56    3.11
   5   4   2    2.16    2.55
   5   4   2    3.10    2.32
   5   4   2    3.72    2.63
   6   4   2   39.84    4.78
   6   4   2   42.32    4.78
   6   4   2   40.65    4.71
   7  -5  -2  104.98    7.54
  -7   5   2  132.12    9.35
  -6   5   2   34.72    5.52
   6  -5  -2   21.66    3.54
  -6   5   2   25.27    4.71
   6  -5  -2   28.93    3.91
  -5   5   2  479.43   20.65
  -5   5   2  514.10   21.80
   5  -5  -2  482.24   19.14
   5  -5  -2  471.57   18.87
   5  -5  -2  473.05   19.11
  -4   5   2  119.33    7.77
   4  -5  -2  120.49    6.82
  -4   5   2  129.87    7.37
  -3   5   2  361.08   13.52
  -3   5   2  329.65   14.32
   3  -5  -2  355.52   14.64
   3  -5  -2  333.32   14.09
  -3   5   2  362.05   13.57
  -2   5   2   22.52    2.37
  -2   5   2   23.00    2.71
   2  -5  -2   24.48    2.88
  -2   5   2   24.01    2.44
   2  -5  -2   20.47    2.70
   2  -5  -2   18.03    2.80
  -1   5   2   95.98    5.35
   1  -5  -2  100.58    5.57
   1  -5  -2   91.50    5.69
  -1   5   2   94.20    5.65
   1  -5  -2  107.02    5.21
  -1   5   2   97.74    5.24
   0  -5  -2  819.26   29.78
   0   5   2  799.39   30.74
   0   5   2  849.34   29.76
   0  -5  -2  833.23   29.79
   0   5   2  837.53   29.72
   0  -5  -2  872.92   30.33
   1   5   2  134.22    7.29
   1   5   2  142.40    7.19
   1   5   2  158.79    7.42
   1   5   2  152.34    7.64
  -1  -5  -2  138.57    7.01
  -1  -5  -2  153.13    7.63
  -1  -5  -2  136.52    7.42
   2   5   2  594.99   23.41
   2   5   2  613.67   23.20
  -2  -5  -2  610.70   21.78
  -2  -5  -2  576.46   25.19
   2   5   2  597.83   22.39
  -2  -5  -2  580.28   22.06
   2   5   2  587.76   22.37
   3   5   2   22.64    3.11
   3   5   2   23.54    3.44
   3   5   2   23.91    3.68
   3   5   2   25.56    3.70
  -3  -5  -2   27.79    3.28
  -3  -5  -2   23.92    3.86
  -3  -5  -2   23.48    4.07
   4   5   2   22.65    3.62
  -4  -5  -2   20.87    4.02
   4   5   2   20.57    3.78
   4   5   2   19.04    4.11
  -4  -5  -2   31.36    5.13
   4   5   2   27.68    3.66
   5   5   2   43.09    5.96
   5   5   2   46.16    5.06
   5   5   2   45.45    4.92
   5   5   2   49.07    5.10
   6   5   2   12.63    3.80
   6   5   2   10.32    3.68
   7  -6  -2    7.11    3.22
  -7   6   2    3.68    3.31
  -6   6   2   87.70    7.48
  -6   6   2   77.03    7.92
   6  -6  -2   73.80    6.16
   6  -6  -2   77.52    6.11
  -5   6   2    5.19    2.77
  -5   6   2    8.61    3.29
   5  -6  -2    4.89    2.72
   5  -6  -2    7.81    2.64
  -4   6   2   71.39    6.23
  -4   6   2   72.18    5.57
   4  -6  -2   69.52    5.31
  -3   6   2  487.10   19.32
   3  -6  -2  479.34   18.86
  -3   6   2  464.21   18.00
   3  -6  -2  478.04   18.89
   2  -6  -2  141.11    7.71
  -2   6   2  146.27    7.08
  -2   6   2  156.53    7.82
  -2   6   2  161.60    7.54
   2  -6  -2  141.11    7.93
  -1   6   2  167.02    8.38
  -1   6   2  181.08    8.85
   1  -6  -2  154.38    8.76
  -1   6   2  175.38    8.29
   1  -6  -2  171.05    8.52
   1  -6  -2  189.61    7.96
   0  -6  -2  287.82   12.44
   0  -6  -2  260.75   11.96
   0   6   2  289.67   12.06
   0   6   2  280.72   12.31
   0   6   2  283.71   12.30
   1   6   2  637.14   24.81
  -1  -6  -2  660.55   25.57
  -1  -6  -2  648.24   24.51
   1   6   2  649.30   25.58
   1   6   2  635.56   25.07
  -1  -6  -2  698.50   24.99
   1   6   2  707.09   24.98
   2   6   2   33.11    3.90
  -2  -6  -2   33.02    3.49
   2   6   2   38.55    4.59
  -2  -6  -2   33.76    3.43
   2   6   2   41.41    4.23
   2   6   2   32.38    3.99
  -2  -6  -2   40.03    4.03
  -2  -6  -2   36.74    4.51
   3   6   2 1704.46   60.71
   3   6   2 1658.20   58.54
   3   6   2 1634.29   58.03
  -3  -6  -2 1758.78   57.56
   3   6   2 1660.69   61.26
  -3  -6  -2 1635.59   69.82
  -3  -6  -2 1629.24   65.75
   4   6   2  123.36    8.10
   4   6   2  129.19    8.17
   4   6   2  125.49    8.17
   4   6   2  126.15    8.87
  -4  -6  -2  141.86    9.53
   5   6   2    9.38    3.38
   5   6   2    7.41    3.88
   5   6   2   19.98    4.22
   5   6   2   11.32    3.93
   6   6   2   -1.54    3.06
   6   6   2    7.14    3.61
  -7   7   2    7.48    4.01
   7  -7  -2    6.73    3.31
   6  -7  -2   60.71    5.69
   6  -7  -2   65.56    6.02
   6  -7  -2   51.22    5.58
  -6   7   2   51.02    6.28
  -5   7   2   30.12    5.07
   5  -7  -2   24.53    4.05
  -5   7   2   22.56    4.12
  -4   7   2   67.49    5.58
   4  -7  -2   59.73    5.30
  -4   7   2   60.55    5.95
  -3   7   2    7.16    2.52
   3  -7  -2   12.01    3.25
  -3   7   2    7.02    2.38
   3  -7  -2    9.22    2.81
  -2   7   2   27.76    3.15
  -2   7   2   29.16    3.22
  -2   7   2   27.21    3.60
   2  -7  -2   30.61    4.12
   2  -7  -2   17.95    3.37
   1  -7  -2   17.67    3.17
   1  -7  -2   18.07    3.54
  -1   7   2   13.72    3.17
  -1   7   2   24.13    3.18
  -1   7   2   18.85    2.94
   0   7   2  369.98   15.15
   0  -7  -2  338.68   15.06
   0  -7  -2  354.72   15.53
   0   7   2  348.86   15.37
   0   7   2  390.43   15.77
   0  -7  -2  360.71   15.73
   1   7   2    6.25    2.47
  -1  -7  -2    9.10    2.57
   1   7   2    2.73    2.44
  -1  -7  -2    7.16    2.52
  -1  -7  -2    5.17    2.90
   1   7   2    1.85    2.61
   1   7   2    8.60    2.67
  -2  -7  -2  413.29   20.21
   2   7   2  407.28   18.40
  -2  -7  -2  460.42   18.13
   2   7   2  437.15   18.37
   2   7   2  451.03   18.47
   2   7   2  427.46   18.06
   3   7   2   -0.38    2.53
  -3  -7  -2   -2.14    2.30
   3   7   2    1.10    2.47
   3   7   2   -2.17    2.51
   3   7   2    0.18    2.09
   4   7   2  165.46    9.70
  -4  -7  -2  133.49    9.98
   4   7   2  138.88    9.15
   4   7   2  155.92    9.61
   4   7   2  148.41   10.16
   5   7   2    2.22    3.25
   5   7   2    3.74    2.94
   5   7   2    0.63    3.44
   6   7   2   25.61    5.03
   6  -8  -2   36.74    5.03
   6  -8  -2   43.20    5.37
  -6   8   2   42.79    6.06
   6  -8  -2   34.85    5.10
  -5   8   2  111.43    8.33
   5  -8  -2  113.81    8.04
  -5   8   2  123.66    9.33
  -4   8   2    3.90    2.88
   4  -8  -2    1.56    2.44
  -4   8   2   10.54    3.18
   3  -8  -2    8.48    2.92
  -3   8   2    5.58    2.51
  -3   8   2    4.99    2.51
   3  -8  -2    7.19    3.18
   2  -8  -2   28.50    4.17
  -2   8   2   25.63    3.74
  -2   8   2   30.50    3.47
   2  -8  -2   22.41    3.74
  -1   8   2  186.29    9.51
  -1   8   2  184.75   10.06
   1  -8  -2  195.97   10.12
   1  -8  -2  193.15   10.41
  -1   8   2  203.91    9.99
   0   8   2  911.16   33.45
   0  -8  -2  915.58   34.92
   0  -8  -2  924.99   34.02
   0   8   2  864.25   33.53
   0  -8  -2  901.61   33.70
   0   8   2  908.80   34.61
  -1  -8  -2    8.20    2.79
   1   8   2    5.44    2.76
   1   8   2    0.74    2.78
  -1  -8  -2    2.22    2.39
  -1  -8  -2   -2.70    2.55
   1   8   2    3.22    2.38
   2   8   2   19.52    3.66
   2   8   2   19.38    3.81
  -2  -8  -2   14.88    4.02
   2   8   2   17.03    3.39
   2   8   2   11.31    3.71
  -2  -8  -2   25.96    4.15
   3   8   2  213.63   11.74
  -3  -8  -2  230.10   13.42
   3   8   2  206.94   11.65
   3   8   2  209.75   11.94
   3   8   2  209.69   11.71
   4   8   2   34.90    5.60
  -4  -8  -2   38.61    5.98
   4   8   2   32.68    5.42
   4   8   2   40.05    5.39
   4   8   2   36.90    5.41
   5   8   2    2.37    3.80
   5   8   2   23.94    5.15
   6   8   2   -4.25    3.57
   6  -9  -2   40.17    5.64
  -6   9   2   44.36    6.44
   6  -9  -2   42.83    5.69
   6  -9  -2   32.63    5.43
  -5   9   2   20.30    4.61
   5  -9  -2   20.05    4.40
  -4   9   2  286.24   14.55
   4  -9  -2  296.34   14.59
  -3   9   2   -1.27    2.08
   3  -9  -2    3.73    3.12
   3  -9  -2    0.74    2.33
   2  -9  -2  134.19    8.55
   2  -9  -2  128.95    8.67
  -2   9   2  126.44    8.26
   1  -9  -2   46.91    5.53
  -1   9   2   38.92    4.54
   1  -9  -2   26.91    4.29
  -1   9   2   41.88    5.21
   0   9   2    8.35    2.88
   0   9   2   11.37    3.32
   0  -9  -2   12.73    3.95
   0   9   2    8.06    3.43
   0  -9  -2    4.74    3.00
   0  -9  -2    7.72    3.07
   1   9   2  108.56    7.78
   1   9   2  117.16    7.94
  -1  -9  -2  108.19    7.49
   1   9   2  114.05    8.17
  -1  -9  -2   98.78    8.00
   2   9   2    7.06    3.19
   2   9   2    9.42    3.92
  -2  -9  -2    6.93    3.48
  -2  -9  -2    6.19    3.75
   2   9   2    8.21    3.13
   2   9   2    4.42    3.05
   3   9   2   97.26    7.82
   3   9   2   96.85    7.81
   3   9   2  101.11    8.50
  -3  -9  -2   83.40    8.49
   3   9   2  102.46    8.04
   4   9   2   17.70    4.42
   4   9   2    7.56    4.07
   4   9   2    0.09    3.62
   4   9   2    6.32    4.15
  -4  -9  -2    7.43    4.29
   5   9   2   11.19    4.88
  -6  10   2    0.76    3.54
   6 -10  -2    4.60    3.85
   5 -10  -2   82.13    7.79
  -5  10   2   82.54    7.82
   4 -10  -2   19.80    4.53
  -4  10   2   11.91    4.00
   3 -10  -2   26.31    4.83
   3 -10  -2   28.82    5.20
  -2  10   2  120.65    8.39
   2 -10  -2  111.32    8.56
   2 -10  -2  110.62    8.28
  -1  10   2  280.47   12.96
   1 -10  -2  266.55   14.14
  -1  10   2  259.90   13.61
   1 -10  -2  262.64   13.61
   1 -10  -2  247.01   13.72
   0 -10  -2   90.22    7.22
   0  10   2  110.72    8.22
   0  10   2   88.24    7.04
   0 -10  -2  101.42    8.05
  -1 -10  -2   96.13    8.11
   1  10   2   91.67    7.29
   1  10   2   77.47    7.71
   1  10   2   80.40    7.19
  -2 -10  -2    8.50    4.26
  -2 -10  -2   11.71    4.14
   2  10   2   11.69    4.04
   2  10   2    2.39    3.41
   2  10   2   16.59    4.41
   3  10   2    1.54    3.27
   3  10   2    5.38    4.23
   3  10   2    4.49    3.44
   4  10   2  140.19   10.74
   6 -11  -2   11.05    4.91
  -5  11   2   -3.64    2.88
   4 -11  -2   65.74    7.20
  -4  11   2   66.31    6.97
   3 -11  -2   -2.25    3.25
   3 -11  -2    3.03    3.59
  -2  11   2    2.11    3.32
   2 -11  -2    0.16    3.58
   2 -11  -2    0.46    3.06
   1 -11  -2   19.88    5.22
   1 -11  -2   27.78    5.12
  -1  11   2   23.87    5.02
   1 -11  -2   24.29    5.11
   0  11   2   -1.82    3.06
   0 -11  -2    3.66    3.55
   0  11   2    0.74    3.22
   0 -11  -2    9.02    4.26
   1  11   2   -0.16    2.98
  -1 -11  -2    1.75    3.62
   1  11   2   -3.17    3.32
  -2 -11  -2   -4.78    3.41
   2  11   2   -0.97    3.48
   2  11   2    3.36    3.42
   2  11   2    6.44    4.00
   3  11   2   31.13    6.04
   3  11   2   27.90    5.85
   3  11   2   28.84    6.12
  -5  12   2   79.14    8.54
  -4  12   2   61.16    6.98
   3 -12  -2   24.69    5.79
   3 -12  -2   22.50    5.35
  -3  12   2   22.77    5.00
   2 -12  -2   33.26    6.30
  -2  12   2   30.09    5.79
   2 -12  -2   30.12    5.70
   2 -12  -2   25.96    5.75
   1 -12  -2   20.96    5.45
   1 -12  -2   19.11    5.03
  -1  12   2   17.31    5.05
   0  12   2   -4.90    3.13
   0 -12  -2   -3.95    3.53
   1  12   2  102.60    9.00
   1  12   2  106.10    9.64
  -1 -12  -2  125.01   10.36
   2  12   2    9.50    4.62
   2  12   2    0.13    4.30
   3  12   2    4.26    5.13
  -3  13   2   14.80    4.75
   3 -13  -2   17.26    5.52
   2 -13  -2   -3.13    3.68
   2 -13  -2    0.92    4.12
  -1  13   2    4.83    4.22
   1 -13  -2    2.25    4.36
   0 -13  -2   34.74    6.91
   0  13   2   31.86    6.46
   1  13   2    5.23    4.55
  -1 -13  -2    3.93    4.76
  -1  14   2   13.29    5.73
   1 -14  -2    4.81    5.19
   0  14   2   51.70    8.26
   0 -14  -2   57.33    8.88
   0  15  -3   -4.41    3.85
  -2 -14   3    8.65    5.34
   2  14  -3    1.44    4.74
   1  14  -3    3.97    4.26
  -1 -14   3   14.15    5.51
   0  14  -3   -4.36    3.89
   0 -14   3   -4.80    3.84
   1 -14   3   54.80    7.74
   1 -14   3   53.73    7.42
   2 -14   3   10.38    4.97
   2 -14   3   18.81    5.30
   3 -14   3   29.74    6.27
   3  13  -3  177.58   12.95
   2  13  -3   55.30    7.66
  -2 -13   3   51.52    7.64
   1  13  -3    4.68    4.08
  -1 -13   3   -2.13    3.75
   0 -13   3    4.24    3.81
   0  13  -3   -2.18    3.38
   0 -13   3    6.33    4.31
  -1  13  -3    1.30    3.68
   1 -13   3    8.52    4.10
   1 -13   3   12.59    4.58
   1 -13   3    9.57    4.56
   2 -13   3   25.37    5.61
   2 -13   3   29.25    5.59
   2 -13   3   21.89    5.54
   3 -13   3   37.31    6.06
   3 -13   3   44.71    6.73
  -3  13  -3   37.48    6.12
   3 -13   3   48.65    7.02
  -4  13  -3   12.24    4.78
   4 -13   3   19.56    5.29
   5 -13   3   -2.07    3.99
   4  12  -3   42.50    7.55
   3  12  -3   23.40    5.38
   3  12  -3   44.73    6.97
   2  12  -3   33.88    6.46
  -2 -12   3   29.44    6.04
   2  12  -3   31.10    5.37
   1  12  -3   12.41    4.15
  -1 -12   3    8.88    4.55
   1  12  -3    6.13    4.12
   0 -12   3   12.15    3.91
   0 -12   3    2.31    3.60
   0 -12   3   11.55    4.15
   0  12  -3    3.12    3.72
   1 -12   3  168.52   10.86
  -1  12  -3  144.43    9.82
   1 -12   3  145.84    9.98
   1 -12   3  142.55   10.48
   2 -12   3  115.15    9.17
   2 -12   3  121.12    9.14
   2 -12   3  135.32    9.78
  -3  12  -3   49.07    6.37
   3 -12   3   54.51    6.66
   3 -12   3   54.36    6.50
   3 -12   3   42.09    6.15
   4 -12   3   40.40    6.19
   4 -12   3   36.70    5.77
   4 -12   3   33.09    5.66
  -4  12  -3   38.44    6.18
  -5  12  -3   15.63    5.44
   5 -12   3   12.77    4.70
   4  11  -3   44.51    6.56
   4  11  -3   27.45    6.07
   4  11  -3   38.63    6.76
  -3 -11   3   90.54    8.40
   3  11  -3   93.37    8.75
   3  11  -3   82.64    7.95
   3  11  -3  101.52    8.65
  -2 -11   3   48.88    6.46
   2  11  -3   50.71    6.09
   2  11  -3   58.94    6.38
   2  11  -3   57.18    6.87
  -1 -11   3   52.72    6.48
   1  11  -3   40.08    5.14
   1  11  -3   56.88    6.52
  -1 -11   3   51.55    5.77
   0 -11   3    3.66    3.13
   0  11  -3   -2.16    2.89
   0 -11   3    1.15    2.98
   0  11  -3    1.49    2.74
   0 -11   3    4.00    3.46
  -1  11  -3   -1.28    2.82
   1 -11   3   -0.16    3.00
   1 -11   3    3.43    2.97
   1 -11   3   -1.50    2.83
   2 -11   3   30.74    5.02
   2 -11   3   21.84    4.40
   2 -11   3   20.88    4.63
  -3  11  -3   78.54    7.34
  -3  11  -3   90.01    7.57
   3 -11   3   85.08    7.48
   3 -11   3   87.38    7.55
   3 -11   3   72.12    6.81
   4 -11   3   41.29    5.57
  -4  11  -3   36.36    5.71
   4 -11   3   34.05    5.14
   5 -11   3   11.46    4.10
  -5  11  -3    6.46    4.15
   5 -11   3   11.46    3.96
   5  10  -3   38.69    6.58
   4  10  -3    9.94    3.73
   4  10  -3   -1.21    3.13
   4  10  -3    3.51    3.63
   3  10  -3  237.02   13.06
  -3 -10   3  228.02   12.83
   3  10  -3  252.40   13.46
   3  10  -3  211.85   12.90
   2  10  -3   61.21    6.00
  -2 -10   3   52.34    6.12
   2  10  -3   56.16    5.98
   2  10  -3   54.78    6.29
   1  10  -3   19.56    3.93
   1  10  -3   29.95    4.24
   1  10  -3   20.91    4.49
  -1 -10   3   26.57    4.74
  -1 -10   3   20.52    4.03
  -1 -10   3   24.22    4.10
   0 -10   3    3.96    3.15
   0 -10   3    8.24    3.04
   0  10  -3    5.89    2.76
   0 -10   3    8.53    3.29
   0  10  -3    9.92    3.48
   1 -10   3   22.69    4.32
   1 -10   3   18.14    4.03
   1 -10   3   15.81    3.61
  -1  10  -3   15.75    3.65
   2 -10   3  262.58   13.29
   2 -10   3  251.59   12.75
   2 -10   3  239.80   12.85
  -2  10  -3  264.07   12.36
   3 -10   3   55.40    5.64
  -3  10  -3   52.76    5.86
   3 -10   3   66.60    6.19
  -3  10  -3   66.68    6.33
  -4  10  -3  138.01    9.72
   4 -10   3  127.29    8.43
  -4  10  -3  120.87    9.36
   4 -10   3  134.24    8.87
  -5  10  -3   31.14    5.99
   5 -10   3   41.13    5.06
   5 -10   3   43.53    5.31
   6 -10   3   74.65    6.75
  -6  10  -3   66.18    8.44
   6   9  -3   58.81    7.49
   5   9  -3   45.10    6.38
   5   9  -3   44.06    6.65
   4   9  -3   97.93    7.57
   4   9  -3   90.18    7.91
   4   9  -3   93.65    7.76
   4   9  -3   82.56    7.97
   3   9  -3   19.23    4.62
   3   9  -3   20.81    4.25
  -3  -9   3   15.63    4.13
   3   9  -3   19.99    3.66
   3   9  -3   22.84    4.39
   2   9  -3  410.22   18.49
  -2  -9   3  438.08   18.35
   2   9  -3  450.02   19.22
   2   9  -3  417.04   18.99
  -2  -9   3  397.62   18.52
   2   9  -3  453.10   17.72
  -1  -9   3  198.29   10.44
  -1  -9   3  153.23    9.30
   1   9  -3  165.68    9.93
   1   9  -3  186.31    9.98
  -1  -9   3  184.52   10.25
   1   9  -3  178.73    7.94
   1   9  -3  176.77    9.68
   0   9  -3   57.81    5.48
   0   9  -3   60.70    5.21
   0  -9   3   78.33    5.94
   0  -9   3   62.67    5.95
   0   9  -3   69.45    5.26
   0  -9   3   53.50    5.40
  -1   9  -3   15.43    2.80
  -1   9  -3   10.29    3.16
   1  -9   3   15.20    3.29
   1  -9   3   13.90    3.50
   1  -9   3   14.07    3.45
   2  -9   3   95.84    7.00
   2  -9   3   82.97    6.75
  -2   9  -3  101.84    6.50
   2  -9   3  100.39    6.77
  -3   9  -3   83.66    6.83
   3  -9   3   77.39    6.24
  -3   9  -3   69.18    6.27
   3  -9   3   79.68    5.90
   4  -9   3  124.43    7.74
   4  -9   3  131.67    8.09
  -4   9  -3  125.31    9.15
  -4   9  -3  119.66    8.86
  -5   9  -3   -0.80    3.34
   5  -9   3    8.21    3.07
  -5   9  -3    4.09    3.35
   5  -9   3    6.26    3.09
  -6   9  -3   19.71    5.74
   6  -9   3   18.09    3.84
   6   8  -3    6.78    4.51
   5   8  -3   -0.99    3.12
   5   8  -3    2.31    2.56
   5   8  -3    4.84    3.81
   4   8  -3   10.68    3.16
   4   8  -3    7.06    3.05
   4   8  -3    7.93    3.93
   4   8  -3   14.65    4.02
   3   8  -3  264.13   13.07
  -3  -8   3  255.83   12.61
   3   8  -3  244.12   12.54
   3   8  -3  253.21   12.25
   3   8  -3  250.86   13.15
  -2  -8   3   83.56    5.85
   2   8  -3   70.95    5.05
   2   8  -3   80.89    6.19
   2   8  -3   64.77    5.65
  -2  -8   3   76.35    6.09
   2   8  -3   72.04    6.24
  -2  -8   3   70.46    6.00
   1   8  -3  186.74   10.10
  -1  -8   3  190.33    9.88
  -1  -8   3  185.46    9.50
   1   8  -3  184.32    9.52
   1   8  -3  192.92    8.08
  -1  -8   3  160.31    9.51
   1   8  -3  166.15    9.17
   0  -8   3   14.83    3.43
   0   8  -3    6.91    3.06
   0  -8   3    6.97    2.62
   0   8  -3   12.62    2.70
   0   8  -3   10.86    2.80
   0  -8   3   10.33    3.14
   1  -8   3   84.38    6.20
   1  -8   3   80.99    6.15
  -1   8  -3   83.93    6.19
   1  -8   3   80.92    5.80
  -1   8  -3   82.85    5.36
  -1   8  -3   91.92    5.50
   2  -8   3  213.41   10.85
   2  -8   3  233.40   11.25
  -2   8  -3  262.95   10.89
  -3   8  -3  661.37   26.29
   3  -8   3  624.00   24.25
  -3   8  -3  610.75   25.75
   3  -8   3  653.06   24.46
  -4   8  -3  188.20   11.06
   4  -8   3  188.54    9.57
  -4   8  -3  195.17   11.36
   4  -8   3  184.33    9.47
  -5   8  -3   32.97    5.65
   5  -8   3   43.94    4.33
   5  -8   3   40.41    4.28
  -5   8  -3   42.82    6.18
  -6   8  -3  134.40   10.44
   6  -8   3  130.61    7.91
   7  -8   3    2.21    2.71
   7  -8   3    3.13    2.83
  -7   8  -3   -3.93    3.55
   6   7  -3    2.51    3.44
   6   7  -3    6.68    4.10
   5   7  -3  164.60   10.55
   5   7  -3  167.96   10.21
   4   7  -3   37.95    4.88
  -4  -7   3   36.16    4.30
  -4  -7   3   36.22    5.33
   4   7  -3   35.32    5.00
   4   7  -3   31.43    4.45
   3   7  -3   95.45    7.02
   3   7  -3   95.31    6.66
   3   7  -3   96.84    6.70
  -3  -7   3   88.59    6.68
  -3  -7   3   89.53    7.23
  -2  -7   3  119.93    6.79
   2   7  -3   97.94    6.66
  -2  -7   3  102.97    6.67
   2   7  -3  105.75    7.25
  -2  -7   3  111.68    7.06
   2   7  -3  108.74    6.86
   1   7  -3   -0.27    2.41
  -1  -7   3   -2.29    1.93
  -1  -7   3    0.37    1.87
   1   7  -3    0.48    1.35
   1   7  -3    2.92    2.21
   1   7  -3    2.59    1.97
  -1  -7   3    4.12    2.74
   0   7  -3   42.36    3.81
   0  -7   3   37.28    3.85
   0   7  -3   41.47    4.23
   0  -7   3   44.56    4.39
   0  -7   3   44.15    4.33
   0   7  -3   47.21    3.93
  -1   7  -3  463.02   18.13
   1  -7   3  471.25   19.00
   1  -7   3  498.09   19.58
   1  -7   3  503.73   19.78
  -1   7  -3  480.96   18.64
  -1   7  -3  495.77   18.82
   1  -7   3  495.52   18.95
   2  -7   3   93.76    5.82
  -2   7  -3   85.91    4.28
  -2   7  -3   92.31    5.41
   2  -7   3   66.84    5.21
   2  -7   3   95.93    6.07
  -2   7  -3   81.23    5.89
   3  -7   3  128.86    7.12
  -3   7  -3  121.03    7.66
   3  -7   3  125.22    6.74
  -3   7  -3  120.02    7.75
   4  -7   3  244.05   11.06
  -4   7  -3  258.73   13.23
   4  -7   3  261.77   11.23
  -4   7  -3  254.87   13.41
  -5   7  -3   43.14    5.75
  -5   7  -3   34.37    5.59
   5  -7   3   45.11    3.98
   6  -7   3    4.87    2.44
  -6   7  -3    6.12    3.86
  -7   7  -3   47.45    7.32
   7  -7   3   46.15    4.39
   7   6  -3    4.94    3.86
   6   6  -3  149.95    9.87
   6   6  -3  149.78    9.82
   5   6  -3   42.21    5.30
   5   6  -3   44.57    5.23
  -4  -6   3  516.50   24.61
  -4  -6   3  507.92   20.12
   4   6  -3  493.89   20.55
   4   6  -3  510.83   21.33
   4   6  -3  488.19   20.68
  -4  -6   3  510.23   21.55
  -3  -6   3   40.34    3.71
   3   6  -3   35.05    3.99
  -3  -6   3   43.91    4.37
  -3  -6   3   38.59    4.58
   3   6  -3   39.23    4.50
   3   6  -3   26.63    3.98
  -2  -6   3  715.12   26.41
   2   6  -3  728.16   26.57
   2   6  -3  722.18   27.40
  -2  -6   3  729.27   26.22
   2   6  -3  654.44   26.36
  -2  -6   3  722.81   27.26
   1   6  -3  284.74   12.01
   1   6  -3  286.69   12.13
  -1  -6   3  246.96   11.77
   1   6  -3  278.13   11.73
  -1  -6   3  272.49   12.17
  -1  -6   3  279.94   11.67
   0  -6   3  101.32    5.89
   0   6  -3   80.33    5.06
   0  -6   3   91.07    5.71
   0  -6   3   84.08    5.25
   1  -6   3   94.50    5.78
   1  -6   3   92.87    5.49
  -1   6  -3  107.74    5.14
  -1   6  -3   83.76    5.24
   1  -6   3   93.66    5.30
   1  -6   3   85.63    5.48
   2  -6   3   77.46    4.74
  -2   6  -3   77.30    4.61
  -2   6  -3   68.65    5.14
   2  -6   3   73.93    3.30
  -2   6  -3   68.43    5.03
   2  -6   3   85.09    4.91
   2  -6   3   76.91    5.06
   2  -6   3   88.81    5.12
  -2   6  -3   79.09    3.76
  -3   6  -3  211.61   10.75
   3  -6   3  214.41    9.18
   3  -6   3  211.69    9.39
   3  -6   3  217.80    9.46
  -3   6  -3  200.15   10.71
  -3   6  -3  212.29    8.13
  -4   6  -3   13.24    3.25
  -4   6  -3    7.33    2.86
   4  -6   3    8.73    2.15
   4  -6   3    4.51    1.80
   5  -6   3   29.51    3.01
  -5   6  -3   18.85    4.30
  -5   6  -3   26.16    4.85
   6  -6   3  156.45    7.81
  -6   6  -3  168.11   11.42
  -7   6  -3   39.09    6.72
   7   5  -3    5.35    3.73
   6   5  -3    4.31    3.50
   6   5  -3    5.19    3.28
  -5  -5   3  199.82   12.65
   5   5  -3  163.92    9.79
   5   5  -3  178.33    9.82
  -4  -5   3  220.48   13.36
   4   5  -3  240.73   11.72
   4   5  -3  242.27   11.41
   4   5  -3  244.52   11.75
  -4  -5   3  244.88   11.03
  -4  -5   3  253.64   11.44
  -3  -5   3  545.95   20.69
  -3  -5   3  537.81   20.14
   3   5  -3  548.80   20.93
  -3  -5   3  538.29   22.12
  -3  -5   3  511.59   24.22
   3   5  -3  516.89   20.95
   3   5  -3  547.33   21.64
   3   5  -3  581.28   22.02
  -2  -5   3    6.46    1.95
   2   5  -3    6.21    2.09
   2   5  -3    7.40    2.17
  -2  -5   3   11.60    2.60
  -2  -5   3    5.33    1.90
   2   5  -3    7.33    2.42
  -1  -5   3 1497.37   55.67
  -1  -5   3 1579.17   53.30
  -1  -5   3 1544.26   53.56
   1   5  -3 1564.94   53.27
   1   5  -3 1675.43   53.79
   1   5  -3 1541.74   55.57
   0  -5   3   57.91    4.16
   0   5  -3   56.77    3.80
   0   5  -3   56.19    3.75
   0  -5   3   61.97    4.08
   0  -5   3   58.51    3.86
   0   5  -3   64.43    2.62
   0   5  -3   55.26    4.08
   0  -5   3   59.85    4.20
   1  -5   3  235.29    9.98
   1  -5   3  253.44   10.31
  -1   5  -3  249.45    9.97
   1  -5   3  260.06   10.13
  -1   5  -3  252.83    9.60
   1  -5   3  245.21   10.46
   1  -5   3  241.52   10.21
   2  -5   3  246.66   10.12
  -2   5  -3  253.69    9.63
   2  -5   3  253.34   10.04
   2  -5   3  259.32    9.96
  -2   5  -3  239.58   11.07
   2  -5   3  263.15   10.34
  -2   5  -3  247.46   11.02
   3  -5   3   18.46    2.36
   3  -5   3   26.72    2.63
   3  -5   3   22.01    2.22
  -3   5  -3   22.14    3.33
  -3   5  -3   23.43    3.30
   3  -5   3   24.45    2.40
   3  -5   3   19.47    2.17
  -4   5  -3  222.43   11.83
   4  -5   3  237.88    9.42
   4  -5   3  233.99    9.17
  -4   5  -3  220.15   11.66
   4  -5   3  215.26    9.06
  -5   5  -3    7.62    3.23
   5  -5   3   10.02    1.88
   5  -5   3   11.51    1.99
   6  -5   3   13.86    2.19
  -6   5  -3   16.03    4.45
   7   4  -3   10.60    3.78
   7   4  -3   12.32    4.08
   6   4  -3   14.42    3.76
   6   4  -3   18.68    4.01
   5   4  -3   21.76    3.51
   5   4  -3   12.94    3.50
  -5  -4   3   19.99    4.31
  -4  -4   3  320.36   13.24
   4   4  -3  304.85   13.34
  -4  -4   3  293.25   15.78
  -4  -4   3  310.00   12.77
   4   4  -3  297.56   13.17
   3   4  -3   36.26    3.55
  -3  -4   3   43.78    3.36
   3   4  -3   41.92    4.15
   3   4  -3   42.44    3.74
  -3  -4   3   37.40    3.16
  -3  -4   3   34.79    3.60
  -3  -4   3   37.27    3.09
   3   4  -3   47.40    4.12
  -3  -4   3   42.32    4.39
  -2  -4   3 2055.99   71.47
   2   4  -3 2028.72   71.77
  -2  -4   3 2037.26   68.81
  -2  -4   3 2048.66   68.32
   2   4  -3 2010.25   71.68
   2   4  -3 2049.20   68.45
   2   4  -3 2041.41   69.07
  -1  -4   3   36.37    3.26
   1   4  -3   39.13    3.07
   1   4  -3   43.77    3.23
  -1  -4   3   36.17    3.02
  -1  -4   3   42.73    3.42
   1   4  -3   43.73    3.35
   1   4  -3   40.58    3.35
   0  -4   3 1998.18   65.18
   0   4  -3 1942.82   64.40
   0  -4   3 1982.17   65.22
   0  -4   3 1907.12   64.46
   0   4  -3 1916.94   65.01
   0  -4   3 1964.34   67.60
   0  -4   3 1848.38   67.67
   1  -4   3    0.59    1.26
   1  -4   3    0.89    1.21
  -1   4  -3    1.01    1.23
  -1   4  -3   -0.03    0.60
   1  -4   3   -0.12    0.93
   1  -4   3    1.88    1.18
   1  -4   3    1.34    1.05
  -2   4  -3  514.18   20.98
   2  -4   3  579.95   19.28
   2  -4   3  552.38   19.87
   2  -4   3  568.82   19.16
   2  -4   3  552.61   19.23
  -2   4  -3  523.83   20.85
   2  -4   3  548.61   19.24
   3  -4   3 1141.76   39.05
   3  -4   3 1137.06   40.45
   3  -4   3 1150.06   38.76
  -3   4  -3 1147.06   42.75
   3  -4   3 1214.37   38.95
   3  -4   3 1194.57   38.72
  -3   4  -3 1119.30   42.31
  -4   4  -3  494.50   21.33
  -4   4  -3  481.31   21.02
   4  -4   3  520.60   18.24
   4  -4   3  501.89   17.64
   4  -4   3  512.26   17.50
  -5   4  -3   63.58    6.18
   5  -4   3   67.47    3.63
  -6   4  -3    3.38    3.13
   6  -4   3    1.29    1.43
   7   3  -3   -2.34    2.82
   7   3  -3    5.30    3.40
   6   3  -3   82.35    6.42
   6   3  -3   84.48    6.65
  -5  -3   3    9.94    3.56
   5   3  -3    5.74    2.89
   5   3  -3    7.25    2.61
  -4  -3   3 1092.68   34.87
   4   3  -3  944.80   35.38
  -4  -3   3  974.36   42.60
   4   3  -3  967.01   35.29
   3   3  -3   82.83    5.11
  -3  -3   3   82.16    6.04
   3   3  -3   87.65    5.61
   3   3  -3   96.86    5.48
  -3  -3   3   90.73    4.66
  -3  -3   3   88.94    5.22
  -3  -3   3   92.36    4.62
   3   3  -3   86.55    5.35
  -3  -3   3   93.88    4.79
  -2  -3   3  111.27    5.67
   2   3  -3  111.75    5.73
   2   3  -3  107.47    5.58
   2   3  -3  106.89    5.69
   2   3  -3  108.57    5.56
   2   3  -3  118.03    5.59
  -2  -3   3  111.16    6.04
  -2  -3   3  107.57    5.40
  -2  -3   3  104.30    5.25
  -1  -3   3 2948.18  106.54
   1   3  -3 3211.93  102.79
   1   3  -3 3204.26  101.59
  -1  -3   3 3191.80  101.53
   1   3  -3 3063.31  106.71
  -1  -3   3 2946.90  106.65
  -1  -3   3 3056.62  102.67
   0  -3   3  222.66    8.62
   0   3  -3  220.58    8.50
   0   3  -3  213.37    8.62
   0  -3   3  214.93    8.61
   0  -3   3  212.02    8.44
   0  -3   3  204.03    8.84
   0   3  -3  227.92    8.89
   0  -3   3  232.57    8.87
   1  -3   3  265.78   10.00
  -1   3  -3  274.26   10.72
   1  -3   3  259.81    9.87
  -1   3  -3  270.85    9.88
  -1   3  -3  265.94    9.51
   1  -3   3  265.06    9.91
   1  -3   3  292.78   10.02
   1  -3   3  285.17   10.12
  -1   3  -3  271.61   10.75
  -2   3  -3  171.66    8.38
   2  -3   3  191.59    7.07
   2  -3   3  182.95    6.73
  -2   3  -3  180.36    8.49
   2  -3   3  199.94    7.10
   2  -3   3  189.15    6.77
   3  -3   3  114.95    4.41
   3  -3   3  106.98    7.29
   3  -3   3  111.43    4.41
  -3   3  -3   97.75    6.37
  -3   3  -3  101.66    6.53
   4  -3   3 1384.27   46.17
   4  -3   3 1435.24   46.12
  -4   3  -3 1392.52   51.60
  -5   3  -3  175.26   10.50
   5  -3   3  186.39    7.00
   5  -3   3  181.94    7.07
   6  -3   3  211.12    8.44
   7   2  -3    7.54    3.31
   7   2  -3    4.93    3.38
   6   2  -3   -1.38    2.33
   6   2  -3   -0.12    2.08
   5   2  -3   71.29    5.21
   5   2  -3   69.56    5.42
   4   2  -3   14.37    2.65
  -4  -2   3   18.39    2.43
   4   2  -3   12.89    2.62
  -4  -2   3   14.46    3.35
   4   2  -3   11.56    2.69
  -3  -2   3 2101.56   70.53
  -3  -2   3 2045.72   85.05
   3   2  -3 2242.00   74.22
  -3  -2   3 2110.38   73.54
   3   2  -3 2156.62   71.58
   3   2  -3 2064.45   71.54
   3   2  -3 2056.50   70.74
   3   2  -3 2195.16   74.39
  -2  -2   3    3.03    1.20
  -2  -2   3    4.62    1.28
   2   2  -3    4.50    1.39
   2   2  -3    6.50    1.71
  -2  -2   3    2.75    1.31
  -2  -2   3    3.17    0.78
   2   2  -3    5.75    1.39
  -2  -2   3    5.12    1.53
   2   2  -3    3.84    1.37
   2   2  -3    3.66    1.08
  -1  -2   3 3020.23  104.70
   1   2  -3 3074.93   99.64
  -1  -2   3 2994.33  104.78
   1   2  -3 3094.64  100.79
  -1  -2   3 2977.64   99.55
   1   2  -3 3040.05  104.79
   1   2  -3 3127.53  100.97
  -1  -2   3 2990.19  100.80
   0   2  -3 1908.43   61.12
   0   2  -3 1839.68   63.57
   0  -2   3 1798.83   61.22
   0  -2   3 1715.53   63.62
   0   2  -3 1816.60   61.19
   0  -2   3 1821.59   60.47
   0   2  -3 1922.55   60.55
   0   2  -3 1867.49   63.53
   0  -2   3 1856.50   61.21
  -1   2  -3  211.86    8.42
   1  -2   3  207.48    7.78
   1  -2   3  200.02    7.96
   1  -2   3  209.25    7.38
   1  -2   3  212.11    7.61
   1  -2   3  211.33    7.52
   1  -2   3  218.21    8.50
   1  -2   3  201.33    7.46
  -1   2  -3  203.59    8.43
   2  -2   3  192.72    9.83
   2  -2   3  195.30    6.91
   2  -2   3  197.71    8.79
   2  -2   3  202.11    6.93
   3  -2   3   65.31    5.39
  -3   2  -3   69.76    5.16
  -4   2  -3  630.49   25.27
   5  -2   3    5.20    0.98
   5  -2   3    4.07    1.09
   6  -2   3   15.30    1.97
   7   1  -3    1.56    2.88
   7   1  -3   -0.11    2.69
   6   1  -3    1.67    2.42
   6   1  -3    7.25    2.72
   5   1  -3   16.72    2.80
   5   1  -3   13.72    2.85
  -4  -1   3  473.16   16.86
   4   1  -3  461.90   18.04
   4   1  -3  431.91   17.37
   4   1  -3  478.67   21.33
   4   1  -3  441.01   17.43
   4   1  -3  470.86   17.37
  -3  -1   3  525.88   19.46
   3   1  -3  559.98   19.81
   3   1  -3  570.89   23.75
   3   1  -3  553.00   20.56
   3   1  -3  542.21   19.84
   3   1  -3  522.75   19.79
   3   1  -3  563.14   20.57
  -3  -1   3  539.18   19.15
  -3  -1   3  553.82   19.73
  -3  -1   3  554.53   23.83
  -2  -1   3  179.59    8.76
  -2  -1   3  180.14    7.55
   2   1  -3  190.00    7.45
   2   1  -3  197.15    7.54
   2   1  -3  185.05    8.71
  -2  -1   3  190.47    7.37
   2   1  -3  178.79    7.64
   2   1  -3  187.72    7.87
   2   1  -3  186.20    7.53
   2   1  -3  170.88    7.54
  -1  -1   3  224.67    8.31
  -1  -1   3  213.69    9.12
  -1  -1   3  200.41    8.46
   1   1  -3  228.32    8.44
   1   1  -3  219.22    8.21
  -1  -1   3  218.93    8.24
  -1  -1   3  217.09    8.19
   1   1  -3  218.12    8.57
   0   1  -3 3113.30   99.77
   0   1  -3 3047.14  103.55
   0  -1   3 3072.51   99.90
   0   1  -3 3034.65   98.58
   0  -1   3 2858.81  103.83
   0   1  -3 3014.80   99.92
   0  -1   3 3085.90   98.55
   0  -1   3 3103.96  102.82
   0  -1   3 2995.35  120.59
   0   1  -3 2878.49  103.70
   0  -1   3 3029.35   99.88
   1  -1   3 5817.59  184.62
  -1   1  -3 5859.38  184.15
  -1   1  -3 5951.39  191.56
   1  -1   3 5917.94  193.03
   1  -1   3 5240.87  187.21
   1  -1   3 5539.31  188.11
   1  -1   3 5051.49  193.95
   1  -1   3 5855.26  221.38
   1  -1   3 6007.60  183.33
   1  -1   3 5008.14  195.70
  -2   1  -3  249.27   11.93
   2  -1   3  258.62   11.45
   2  -1   3  264.73   10.76
   2  -1   3  238.46   11.85
  -3   1  -3  954.08   36.42
   3  -1   3 1030.30   41.85
   4  -1   3   43.21    2.20
   5  -1   3  449.79   15.89
   5  -1   3  453.45   16.39
   5  -1   3  444.13   16.40
   6  -1   3   -0.86    1.42
   7   0  -3   55.04    5.27
   7   0  -3   47.40    5.15
   6   0  -3   51.26    4.64
   6   0  -3   55.96    4.83
   5   0  -3   11.35    2.56
   5   0  -3   12.29    2.58
   4   0  -3   94.31    5.59
   4   0  -3  106.12    4.79
  -4   0   3  105.85    5.33
   4   0  -3  109.09    5.89
   4   0  -3   97.96    5.74
   4   0  -3  113.77    5.58
   4   0  -3  118.01    7.58
   3   0  -3 1567.53   51.04
  -3   0   3 1536.77   50.47
   3   0  -3 1500.77   51.26
   3   0  -3 1502.62   56.24
  -3   0   3 1482.90   52.26
  -3   0   3 1465.88   53.32
   3   0  -3 1545.17   61.09
   3   0  -3 1421.39   50.60
  -3   0   3 1540.00   50.40
   3   0  -3 1517.01   53.10
  -2   0   3 1129.26   36.89
   2   0  -3 1039.26   37.26
  -2   0   3 1085.27   38.07
  -2   0   3 1101.27   37.07
   2   0  -3 1096.96   37.00
   2   0  -3 1078.07   44.10
   2   0  -3 1043.38   38.65
  -2   0   3 1062.27   38.50
   2   0  -3 1149.80   38.03
   2   0  -3 1171.00   37.25
  -1   0   3 9263.67  305.67
  -1   0   3 9083.29  309.89
   1   0  -3 9474.49  321.75
   1   0  -3 9098.13  347.42
   1   0  -3 9260.35  307.68
  -1   0   3 9157.67  321.50
  -1   0   3 9370.23  309.26
  -1   0   3 9999.80  325.79
   0   0   3  116.17    4.53
   0   0  -3  117.13    4.80
   0   0   3  113.64    4.75
   0   0   3  115.20    4.79
   0   0  -3  117.76    4.70
   0   0  -3  110.69    4.78
   0   0   3  106.42    4.63
   1   0   3  434.75   15.70
   1   0   3  424.70   15.01
   1   0   3  455.22   15.16
   1   0   3  433.98   18.46
  -1   0  -3  457.36   14.98
  -1   0  -3  421.87   18.49
  -1   0  -3  473.03   16.53
   1   0   3  426.59   15.09
   1   0   3  453.04   17.84
   1   0   3  437.70   16.41
   2   0   3   40.73    3.50
   2   0   3   43.12    1.84
   2   0   3   37.02    2.14
  -2   0  -3   30.80    3.28
   2   0   3   39.88    2.17
   2   0   3   40.44    3.43
   2   0   3   40.30    1.81
   2   0   3   31.85    3.00
   2   0   3   37.58    1.88
   2   0   3   37.55    1.86
   3   0   3  149.06    5.84
   3   0   3  158.89    6.04
   3   0   3  155.02    6.01
   3   0   3  165.49    9.15
   3   0   3  156.12    5.88
   3   0   3  156.18    5.77
  -3   0  -3  142.02    8.86
   3   0   3  153.09    5.75
   4   0   3 1596.98   56.18
   4   0   3 1574.71   54.13
  -4   0  -3 1637.17   67.41
   4   0   3 1653.52   56.21
   4   0   3 1639.41   54.13
   4   0   3 1618.84   53.50
   5   0   3  197.91    8.38
   5   0   3  203.36    7.89
   5   0   3  199.94    8.21
   6   0   3  132.49    9.56
   6   0   3  141.69    6.83
   6   0   3  134.43    6.67
   7   0   3    3.69    2.24
   7  -1  -3   -1.53    2.46
   7  -1  -3    6.30    3.04
   6  -1  -3   31.40    3.77
   6  -1  -3   25.18    3.54
   5  -1  -3   18.54    2.82
   5  -1  -3   18.58    2.90
  -4   1   3  194.88    9.60
  -4   1   3  198.66    8.11
   4  -1  -3  182.18    8.60
   4  -1  -3  195.13    8.82
   4  -1  -3  196.16   10.95
   4  -1  -3  202.67    8.46
  -4   1   3  181.37    9.15
   4  -1  -3  192.63    8.34
   4  -1  -3  183.68    8.60
  -3   1   3 3433.90  118.18
  -3   1   3 3269.30  119.26
   3  -1  -3 3319.21  114.58
  -3   1   3 3543.29  113.90
  -3   1   3 3364.57  118.18
  -3   1   3 3564.02  112.91
   3  -1  -3 3491.64  136.29
   3  -1  -3 3448.49  118.95
   3  -1  -3 3392.90  113.17
   3  -1  -3 3603.08  114.41
   2  -1  -3  183.68    8.00
  -2   1   3  203.27    7.99
   2  -1  -3  204.74    8.32
  -2   1   3  207.43    7.76
   2  -1  -3  206.63    7.92
  -2   1   3  197.06    7.89
   2  -1  -3  197.89    8.18
  -1   1   3 1995.71   62.00
   1  -1  -3 1818.61   62.06
   1  -1  -3 1992.51   62.71
   1  -1  -3 1786.25   65.14
  -1   1   3 1897.03   62.65
  -1   1   3 1791.33   65.12
   0   1   3 4045.20  139.46
   0  -1  -3 4179.22  139.37
   0   1   3 4108.26  132.36
   0  -1  -3 3800.10  139.39
   0  -1  -3 3928.35  150.22
   0  -1  -3 4176.08  134.24
   0  -1  -3 4032.09  133.96
   0   1   3 4406.62  134.27
   0   1   3 3895.26  134.06
  -1  -1  -3  932.69   33.35
   1   1   3  962.31   32.02
  -1  -1  -3  938.97   36.80
   1   1   3 1027.78   32.13
   1   1   3  941.91   34.14
   1   1   3  926.53   33.53
  -1  -1  -3  976.04   34.23
   1   1   3  975.10   32.37
  -1  -1  -3  957.18   38.72
  -1  -1  -3  984.67   33.32
   1   1   3  914.71   32.29
   1   1   3  935.23   36.71
   2   1   3  159.32    6.73
   2   1   3  163.21    6.63
   2   1   3  164.49    6.53
  -2  -1  -3  148.86    8.53
   2   1   3  159.12    6.41
   2   1   3  168.11    6.66
   2   1   3  200.18    8.53
   2   1   3  153.65    7.76
  -2  -1  -3  169.83    8.27
   2   1   3  161.09    6.60
   3   1   3  109.25    4.94
  -3  -1  -3  121.17    7.57
   3   1   3  112.71    5.09
   3   1   3  115.00    5.25
   3   1   3  108.14    5.14
   3   1   3  108.40    5.17
   3   1   3  115.45    6.86
   3   1   3  102.85    4.96
   4   1   3   40.18    3.10
   4   1   3   38.51    3.22
   4   1   3   39.32    2.91
  -4  -1  -3   33.78    4.78
   4   1   3   40.69    3.08
  -5  -1  -3  485.01   23.65
   5   1   3  472.99   20.79
   5   1   3  446.99   16.65
   5   1   3  454.13   17.67
   5   1   3  447.10   17.04
   6   1   3   13.67    2.44
   6   1   3   10.01    2.53
   6   1   3   14.63    4.22
   7   1   3  170.98    8.67
   7  -2  -3   36.30    4.55
   6  -2  -3   17.30    3.06
   6  -2  -3   19.49    3.20
   5  -2  -3   38.50    3.86
   5  -2  -3   39.62    3.85
  -5   2   3   52.81    5.16
  -5   2   3   40.87    4.39
   4  -2  -3  375.90   15.45
  -4   2   3  391.26   16.40
   4  -2  -3  392.80   15.61
   4  -2  -3  414.10   19.36
   4  -2  -3  417.83   16.12
  -4   2   3  397.06   16.86
  -4   2   3  426.20   14.99
   3  -2  -3  351.09   13.60
  -3   2   3  362.30   13.22
   3  -2  -3  339.22   13.50
  -3   2   3  350.94   13.94
   3  -2  -3  373.26   14.01
  -3   2   3  364.87   12.78
   3  -2  -3  338.39   13.57
  -3   2   3  344.56   13.03
   3  -2  -3  355.56   13.33
  -3   2   3  333.80   14.26
  -2   2   3 1409.79   46.66
   2  -2  -3 1334.34   47.00
  -2   2   3 1334.56   47.96
   2  -2  -3 1419.59   48.79
   2  -2  -3 1356.82   47.03
  -2   2   3 1414.30   46.31
   2  -2  -3 1425.04   46.87
   1  -2  -3  405.33   15.69
  -1   2   3  429.18   15.10
   1  -2  -3  406.78   15.23
  -1   2   3  428.58   15.68
  -1   2   3  429.23   15.04
   0   2   3 1399.07   47.61
   0   2   3 1484.01   47.80
   0  -2  -3 1382.88   49.43
   0   2   3 1404.92   47.17
   0  -2  -3 1423.11   49.52
   0   2   3 1379.87   49.49
   0  -2  -3 1419.02   47.22
   0  -2  -3 1423.67   47.72
  -1  -2  -3  724.43   24.62
   1   2   3  691.42   24.77
   1   2   3  697.98   24.63
  -1  -2  -3  715.99   26.23
   1   2   3  690.14   26.14
   1   2   3  695.26   25.68
  -1  -2  -3  724.36   28.27
  -1  -2  -3  739.73   24.64
   1   2   3  746.37   24.91
  -1  -2  -3  726.49   24.55
  -2  -2  -3 1438.75   50.73
  -2  -2  -3 1407.35   56.19
  -2  -2  -3 1552.87   48.74
   2   2   3 1476.22   49.03
   2   2   3 1503.40   51.36
   2   2   3 1488.41   49.56
  -2  -2  -3 1468.26   48.59
   2   2   3 1378.89   52.30
   2   2   3 1528.72   49.53
  -2  -2  -3 1382.59   59.41
  -3  -2  -3    2.10    1.99
   3   2   3   -1.61    1.56
   3   2   3   -2.46    1.17
   3   2   3    0.81    1.32
   3   2   3   -0.01    1.58
  -3  -2  -3   -1.25    1.93
   3   2   3   -3.07    1.40
   3   2   3    0.28    2.13
   4   2   3  175.14    7.84
   4   2   3  167.71    7.83
   4   2   3  167.89    7.82
  -4  -2  -3  189.38   11.35
   4   2   3  163.16    9.68
   5   2   3   43.04    3.80
   5   2   3   44.43    3.75
   5   2   3   44.00    3.74
   5   2   3   42.35    5.32
   6   2   3    5.74    2.39
   6   2   3    3.83    3.50
   6   2   3    5.01    2.59
   7   2   3    0.25    2.54
   7  -3  -3   -0.23    2.51
   6  -3  -3   -0.21    2.13
   6  -3  -3    0.73    2.10
  -6   3   3    0.20    2.48
  -5   3   3    3.30    2.31
   5  -3  -3   -0.24    1.96
   5  -3  -3    1.56    1.98
  -5   3   3    0.72    2.31
   4  -3  -3  584.57   21.89
  -4   3   3  565.17   22.79
   4  -3  -3  580.60   21.95
  -4   3   3  612.65   21.17
  -4   3   3  566.57   23.40
   4  -3  -3  627.13   22.75
  -3   3   3 2924.97  102.50
   3  -3  -3 2871.34   98.34
  -3   3   3 2920.69   96.58
  -3   3   3 2979.90  101.23
   3  -3  -3 3013.21  102.11
   3  -3  -3 2840.16   97.15
  -3   3   3 2808.51  101.05
   3  -3  -3 3114.80   98.13
  -2   3   3  454.70   16.30
  -2   3   3  461.18   16.49
   2  -3  -3  413.53   16.69
   2  -3  -3  480.19   16.69
  -2   3   3  440.52   16.93
   2  -3  -3  466.87   17.42
  -1   3   3  240.90    9.89
   1  -3  -3  258.49   10.11
  -1   3   3  240.13   10.05
   1  -3  -3  254.60   10.27
   1  -3  -3  250.59   10.00
   0  -3  -3 2105.44   70.89
   0   3   3 2105.39   70.83
   0  -3  -3 2153.50   73.49
   0  -3  -3 2098.59   70.12
   0   3   3 2136.24   70.13
   0   3   3 2075.19   73.60
   1   3   3   96.45    5.01
   1   3   3   89.86    4.68
   1   3   3   79.48    4.52
  -1  -3  -3   86.73    4.40
  -1  -3  -3   78.83    4.53
  -1  -3  -3   80.52    5.30
  -1  -3  -3   96.47    4.76
   1   3   3   83.13    4.91
   1   3   3   80.92    4.50
   2   3   3  317.87   13.44
   2   3   3  311.91   12.55
  -2  -3  -3  292.38   14.13
  -2  -3  -3  293.97   11.83
   2   3   3  311.18   12.25
   2   3   3  335.54   12.38
  -2  -3  -3  302.45   14.90
  -2  -3  -3  302.46   11.80
  -2  -3  -3  327.26   11.57
   2   3   3  310.81   12.34
  -2  -3  -3  314.84   11.51
   3   3   3  132.61    6.84
   3   3   3  143.86    8.17
  -3  -3  -3  125.92    8.11
  -3  -3  -3  140.96    8.90
   3   3   3  131.19    6.82
  -3  -3  -3  130.07    6.09
   3   3   3  134.82    6.80
   4   3   3  195.65    9.28
   4   3   3  188.79   10.85
  -4  -3  -3  198.76   11.02
   4   3   3  196.28    9.16
  -4  -3  -3  214.88   12.49
   4   3   3  195.80    9.19
   5   3   3    5.78    2.27
   5   3   3    3.17    2.89
   5   3   3    2.92    2.34
   5   3   3    7.44    2.51
   6   3   3  103.67    6.90
   6   3   3  114.67    7.25
   7  -4  -3    6.51    3.25
   6  -4  -3    3.45    2.56
  -6   4   3    8.89    3.36
  -6   4   3   20.40    4.41
   6  -4  -3   10.05    2.85
  -5   4   3   79.13    6.50
   5  -4  -3   60.62    5.02
   5  -4  -3   60.61    4.99
  -5   4   3   65.34    5.50
  -4   4   3   22.04    3.11
  -4   4   3   19.70    2.58
  -4   4   3   22.28    3.51
   4  -4  -3   16.03    2.82
   4  -4  -3   18.40    2.89
   4  -4  -3   20.33    3.13
   3  -4  -3  493.72   19.20
   3  -4  -3  524.46   19.92
  -3   4   3  487.08   19.36
  -3   4   3  507.90   18.56
  -3   4   3  519.95   18.92
   2  -4  -3  635.70   23.77
  -2   4   3  649.99   24.16
   2  -4  -3  702.49   24.72
  -2   4   3  635.07   23.23
  -2   4   3  647.25   23.15
   1  -4  -3  329.15   13.32
  -1   4   3  330.17   13.53
   1  -4  -3  359.41   13.62
  -1   4   3  349.42   13.31
  -1   4   3  338.39   13.03
   0   4   3 3257.93  114.95
   0   4   3 3372.60  110.71
   0  -4  -3 3304.84  114.68
   0  -4  -3 3254.29  110.72
   0   4   3 3289.47  109.41
   0  -4  -3 3423.82  109.54
  -1  -4  -3  664.93   22.88
   1   4   3  638.45   23.82
   1   4   3  613.67   23.00
  -1  -4  -3  643.88   22.93
  -1  -4  -3  610.06   23.69
   1   4   3  651.88   24.07
   1   4   3  617.12   23.03
  -2  -4  -3   78.07    4.58
  -2  -4  -3   79.69    4.38
   2   4   3   76.22    4.91
  -2  -4  -3   82.40    6.10
   2   4   3   79.54    5.45
   2   4   3   80.29    5.05
   2   4   3   78.73    5.58
  -2  -4  -3   79.57    4.93
   3   4   3   12.46    2.55
   3   4   3   14.63    3.31
  -3  -4  -3   14.13    3.20
  -3  -4  -3   13.25    2.33
   3   4   3   12.77    2.76
  -3  -4  -3   16.59    3.57
   3   4   3   16.61    3.19
   4   4   3    8.21    3.24
  -4  -4  -3   13.59    3.89
   4   4   3   10.02    2.89
   4   4   3    8.08    2.53
  -4  -4  -3    7.79    3.12
   4   4   3   11.15    2.79
   5   4   3  221.30   10.71
   5   4   3  222.14   12.92
   5   4   3  217.07   11.03
   5   4   3  218.49   10.87
   6   4   3    3.63    2.57
   6   4   3    4.27    2.97
   6   4   3   -2.87    2.57
   7  -5  -3   88.36    6.99
   6  -5  -3   47.79    4.95
  -6   5   3   52.90    6.46
   6  -5  -3   56.37    5.34
  -6   5   3   50.48    5.63
   5  -5  -3    6.99    2.59
  -5   5   3    1.73    2.59
   5  -5  -3    0.20    2.39
  -5   5   3    7.51    2.80
   5  -5  -3    2.62    2.41
   4  -5  -3   52.74    4.66
  -4   5   3   57.29    4.15
  -4   5   3   54.42    4.71
  -4   5   3   60.03    5.40
  -3   5   3  290.07   12.47
  -3   5   3  296.87   13.03
   3  -5  -3  297.75   13.08
   3  -5  -3  335.77   13.77
  -3   5   3  329.64   12.20
  -3   5   3  316.43   12.61
   2  -5  -3 1116.89   40.31
   2  -5  -3 1085.35   40.53
  -2   5   3 1164.46   39.94
  -2   5   3 1145.89   41.58
   2  -5  -3 1275.50   42.38
  -2   5   3 1144.24   39.93
   1  -5  -3   10.10    2.07
  -1   5   3   17.06    2.69
   1  -5  -3   10.57    2.32
  -1   5   3   10.54    2.21
   1  -5  -3   12.79    2.79
  -1   5   3    8.96    2.01
   0   5   3  191.61    8.61
   0   5   3  172.51    8.66
   0  -5  -3  187.84    8.87
   0   5   3  199.59    9.04
   0  -5  -3  181.34    8.55
  -1  -5  -3  478.12   18.43
   1   5   3  493.06   18.75
  -1  -5  -3  469.95   18.21
   1   5   3  466.04   18.99
  -1  -5  -3  490.08   19.05
   1   5   3  489.45   18.59
   1   5   3  475.63   19.03
   2   5   3  441.54   17.64
   2   5   3  426.56   17.99
  -2  -5  -3  441.81   17.35
   2   5   3  431.33   18.30
  -2  -5  -3  428.55   19.82
   2   5   3  433.58   17.52
  -2  -5  -3  470.68   16.93
  -2  -5  -3  458.25   17.31
   3   5   3   87.55    6.71
   3   5   3   81.99    5.94
   3   5   3   86.66    6.23
  -3  -5  -3   83.77    6.98
  -3  -5  -3   93.63    5.62
   3   5   3   95.70    6.16
  -3  -5  -3   84.16    7.13
   4   5   3   18.28    3.70
   4   5   3   21.73    3.65
   4   5   3   22.41    3.43
   4   5   3   15.42    4.05
  -4  -5  -3   20.08    4.23
   5   5   3   30.37    5.42
   5   5   3   38.65    4.58
   5   5   3   32.42    4.57
   5   5   3   31.63    4.51
   6   5   3  104.17    7.43
   6   5   3  108.20    7.90
   7  -6  -3   26.50    4.39
   7  -6  -3   34.30    4.92
  -6   6   3    6.22    3.33
  -6   6   3    3.07    3.46
   6  -6  -3   -2.13    2.68
   6  -6  -3    5.35    2.83
  -5   6   3   16.01    3.97
  -5   6   3   15.57    3.60
   5  -6  -3   14.26    3.25
   5  -6  -3   14.96    3.43
   5  -6  -3   16.39    3.35
  -4   6   3   10.47    3.20
   4  -6  -3    5.17    2.41
  -3   6   3 1348.43   49.66
   3  -6  -3 1332.98   48.68
  -3   6   3 1448.38   47.50
  -3   6   3 1389.87   47.59
   2  -6  -3   12.23    2.95
  -2   6   3    9.22    2.24
  -2   6   3    7.51    2.56
  -2   6   3    6.33    2.01
   2  -6  -3   10.83    2.65
   1  -6  -3 1005.52   36.95
  -1   6   3 1069.54   36.90
  -1   6   3 1056.55   36.72
   1  -6  -3  997.65   37.02
  -1   6   3 1049.43   38.14
   0  -6  -3  272.23   12.48
   0   6   3  287.99   12.62
   0  -6  -3  298.68   12.46
   0   6   3  285.97   12.23
   0   6   3  267.30   12.45
   1   6   3  511.26   20.60
  -1  -6  -3  530.77   20.55
   1   6   3  531.18   20.51
   1   6   3  513.35   21.05
  -1  -6  -3  535.16   21.12
   1   6   3  520.05   20.80
  -1  -6  -3  532.70   20.22
   2   6   3   95.08    6.36
   2   6   3  110.11    6.94
  -2  -6  -3  114.04    6.08
  -2  -6  -3   92.35    6.34
   2   6   3   90.90    6.33
   2   6   3   93.71    6.53
  -2  -6  -3   98.87    7.35
  -3  -6  -3   34.30    5.26
  -3  -6  -3   31.82    4.75
   4   6   3   40.05    4.85
   4   6   3   31.26    5.11
   4   6   3   33.39    4.39
  -4  -6  -3   35.22    5.22
   4   6   3   31.65    4.62
   5   6   3   10.68    3.50
  -5  -6  -3    9.50    4.03
   5   6   3   13.46    3.82
   5   6   3   11.53    3.86
   6   6   3    6.36    3.55
   7  -7  -3   14.39    4.10
  -6   7   3    3.04    3.34
   6  -7  -3    0.03    2.97
   6  -7  -3   -0.01    2.68
   5  -7  -3  147.00    8.97
   5  -7  -3  140.34    8.73
  -5   7   3  148.87   10.09
  -5   7   3  148.93    9.24
   4  -7  -3   20.04    3.69
  -4   7   3   13.35    3.04
  -3   7   3   61.28    4.95
   3  -7  -3   61.18    5.61
  -3   7   3   58.78    4.93
   3  -7  -3   45.58    4.79
  -2   7   3  926.25   33.84
   2  -7  -3  850.43   33.05
   2  -7  -3  886.39   33.34
  -2   7   3  915.37   32.78
  -2   7   3  920.01   32.41
   1  -7  -3  209.82   10.57
   1  -7  -3  197.80    9.95
  -1   7   3  191.77    9.99
  -1   7   3  193.56    9.56
  -1   7   3  202.19    9.89
   0   7   3  184.80    9.60
   0   7   3  189.62    9.91
   0   7   3  191.43    9.50
   0  -7  -3  167.91    9.60
   0  -7  -3  198.36    9.70
   1   7   3  786.43   30.68
  -1  -7  -3  806.09   29.38
   1   7   3  792.30   29.61
  -1  -7  -3  809.72   30.49
   1   7   3  753.43   29.58
  -1  -7  -3  774.65   29.50
   2   7   3  322.70   14.48
   2   7   3  313.32   14.17
   2   7   3  265.82   13.69
  -2  -7  -3  297.82   15.66
  -2  -7  -3  291.19   13.47
   2   7   3  304.95   13.90
   3   7   3   97.47    7.31
  -3  -7  -3   80.89    7.44
   3   7   3   85.80    6.63
   3   7   3   85.55    6.97
   3   7   3   82.37    6.46
   4   7   3   -2.44    2.87
   4   7   3    0.68    2.95
   4   7   3   -5.05    2.70
  -4  -7  -3    0.69    2.95
   4   7   3    0.26    2.34
   5   7   3   52.36    6.20
   5   7   3   61.46    6.47
   6   7   3   28.50    5.25
   7  -8  -3    2.34    3.62
   6  -8  -3    3.32    3.33
   6  -8  -3    5.78    3.63
   6  -8  -3    1.34    3.13
  -6   8   3    3.90    3.42
  -5   8   3   14.40    3.82
  -5   8   3   15.74    4.51
   5  -8  -3    9.20    3.46
   4  -8  -3   93.28    7.27
  -4   8   3  112.07    7.63
  -3   8   3   15.94    3.22
   3  -8  -3   13.81    3.77
   3  -8  -3   18.49    3.83
  -2   8   3   86.83    5.75
   2  -8  -3   94.62    7.09
  -2   8   3   84.68    6.34
   2  -8  -3   81.25    6.36
  -1   8   3  223.17   10.58
   1  -8  -3  222.50   11.17
  -1   8   3  228.63   10.99
   1  -8  -3  198.91   11.13
  -1   8   3  208.01   11.02
   0  -8  -3   27.08    4.17
   0  -8  -3   15.49    3.51
   0   8   3   20.13    3.95
   0  -8  -3   14.40    3.31
   0   8   3   17.19    3.41
   0   8   3   23.12    3.64
   1   8   3  235.12   12.15
  -1  -8  -3  248.14   12.08
  -1  -8  -3  239.56   12.40
   1   8   3  283.16   13.01
   1   8   3  251.36   12.79
  -2  -8  -3   51.82    5.45
   2   8   3   49.35    5.44
   2   8   3   54.65    5.47
  -2  -8  -3   50.52    6.09
   2   8   3   49.59    5.83
   2   8   3   42.21    5.08
   3   8   3  106.40    8.26
   3   8   3  116.38    8.06
   3   8   3   98.41    8.12
   3   8   3   98.50    7.54
  -3  -8  -3  104.24    8.90
   4   8   3   14.51    4.42
  -4  -8  -3   22.76    5.36
   4   8   3   19.40    4.81
   4   8   3   23.16    4.70
   4   8   3   19.66    4.76
   5   8   3   29.49    5.48
   7  -9  -3   27.65    5.42
   6  -9  -3   -1.65    3.44
  -6   9   3    2.65    3.68
  -5   9   3   12.24    4.07
   5  -9  -3   14.17    4.22
  -4   9   3    4.87    2.81
   4  -9  -3   -2.04    2.34
  -3   9   3   13.24    3.48
   3  -9  -3   11.89    3.77
   3  -9  -3   10.34    3.58
   2  -9  -3   82.73    6.76
   2  -9  -3   92.92    7.32
  -2   9   3   86.04    7.03
  -1   9   3   69.96    5.94
   1  -9  -3   70.42    6.37
   1  -9  -3   58.06    6.52
  -1   9   3   82.02    6.92
   0  -9  -3    1.66    2.58
   0   9   3    4.65    3.34
   0  -9  -3    2.20    2.90
   0  -9  -3    5.57    2.80
   0   9   3    7.56    2.98
   0   9   3    4.92    2.77
   1   9   3   67.45    6.22
  -1  -9  -3   81.87    6.96
   1   9   3   68.65    6.31
   1   9   3   71.30    6.82
   2   9   3   34.70    4.97
  -2  -9  -3   38.37    5.29
  -2  -9  -3   40.86    6.09
   2   9   3   33.93    5.44
   2   9   3   35.78    5.20
   3   9   3    6.09    3.96
   3   9   3    2.42    3.55
   3   9   3   -2.17    2.83
   3   9   3    0.82    2.96
  -3  -9  -3    6.21    3.73
   4   9   3   16.90    4.74
   4   9   3   15.73    4.49
   4   9   3   11.59    4.81
   5   9   3    5.86    4.56
   6 -10  -3   22.56    5.35
  -5  10   3    5.03    3.52
   5 -10  -3    6.47    3.85
   4 -10  -3   26.18    5.02
  -4  10   3   20.03    4.36
   3 -10  -3   89.54    7.69
   3 -10  -3   73.61    7.53
   2 -10  -3   40.92    5.59
   2 -10  -3   36.27    5.76
  -2  10   3   46.21    5.62
   1 -10  -3  119.57    9.44
   1 -10  -3  137.51    9.45
   1 -10  -3  143.86    9.36
  -1  10   3  153.74    9.13
  -1  10   3  138.53    9.69
   0  10   3  111.18    8.69
   0 -10  -3  113.83    9.02
   0  10   3  115.02    8.13
   0 -10  -3  109.58    8.11
   1  10   3   24.70    5.20
  -1 -10  -3   36.85    5.77
   1  10   3   31.38    4.98
   1  10   3   34.82    5.11
  -2 -10  -3   48.07    6.33
   2  10   3   36.17    5.57
  -2 -10  -3   60.06    7.51
   2  10   3   43.27    6.47
   2  10   3   49.42    6.16
   3  10   3   17.38    4.62
   3  10   3   16.61    5.26
   3  10   3   22.71    5.27
   4  10   3    1.29    4.23
  -5  11   3   -0.99    3.00
   4 -11  -3   19.84    5.16
  -4  11   3   13.04    4.05
   3 -11  -3    4.44    3.82
   3 -11  -3    8.93    4.14
  -2  11   3   76.20    7.59
   2 -11  -3   66.97    7.57
   2 -11  -3   79.18    7.86
   1 -11  -3  140.31   10.52
  -1  11   3  135.10    9.80
   1 -11  -3  126.52    9.71
   0  11   3   73.36    8.04
   0 -11  -3   77.12    8.10
   0  11   3   78.24    7.43
   1  11   3    0.42    3.81
   1  11   3    7.57    3.89
  -1 -11  -3    6.58    3.90
   2  11   3  149.45   10.57
   2  11   3  149.39   11.38
   2  11   3  130.68   10.32
   3  11   3   22.54    6.03
  -4  12   3   -0.28    3.00
   3 -12  -3    2.69    4.13
   2 -12  -3   16.58    5.33
   2 -12  -3   13.57    4.70
  -2  12   3   12.04    4.88
   1 -12  -3   -2.78    3.60
   1 -12  -3   -0.82    3.38
  -1  12   3   -0.74    3.63
   0  12   3   67.86    8.19
   0 -12  -3   66.83    8.24
   1  12   3   33.17    5.90
   1  12   3   33.40    6.66
  -1 -12  -3   13.06    5.29
   2  12   3   18.16    5.99
   2  12   3   26.10    5.92
  -3  13   3   11.53    4.73
   2 -13  -3    4.66    4.54
   2 -13  -3    6.85    4.52
   1 -13  -3  127.39   11.37
  -1  13   3  127.89   10.85
   0  13   3   40.32    7.27
   0 -13  -3   57.21    8.37
   1  13   3    1.77    4.76
  -1 -13  -3    7.66    5.07
  -1  14   3   12.97    5.67
   0 -15   4   16.78    6.05
   1 -15   4   26.80    6.52
   2  14  -4    0.48    4.22
  -2 -14   4    0.07    4.48
  -1 -14   4   24.11    6.52
   1  14  -4   27.67    6.37
   0  14  -4  111.48   10.14
   0 -14   4  145.50   11.26
   0 -14   4  132.83   10.59
   1 -14   4   36.23    6.80
   1 -14   4   42.49    6.78
  -2  14  -4   78.38    8.42
   2 -14   4   75.55    8.62
   2 -14   4   67.19    7.93
   3 -14   4    3.87    4.20
   3  13  -4   -2.00    3.96
   3  13  -4    1.98    4.53
  -2 -13   4    9.61    4.91
   2  13  -4    0.52    4.38
   1  13  -4   17.17    5.54
  -1 -13   4   39.90    6.72
   0 -13   4   20.57    5.40
   0  13  -4   22.81    5.53
   0 -13   4   41.05    6.04
   1 -13   4   24.54    5.65
  -1  13  -4   25.68    5.31
   1 -13   4   18.90    5.01
   1 -13   4   27.37    5.70
   2 -13   4   21.39    5.17
   2 -13   4   28.85    5.76
   2 -13   4   31.34    5.86
   3 -13   4  170.33   11.43
  -3  13  -4  170.81   11.74
   3 -13   4  172.08   12.08
   3 -13   4  157.59   11.47
  -4  13  -4    4.10    3.96
   4 -13   4    4.21    4.04
   5 -13   4   -2.82    3.58
   4  12  -4   23.67    5.93
   3  12  -4  324.44   17.60
   3  12  -4  317.33   16.96
  -2 -12   4   22.66    5.39
   2  12  -4   11.87    4.95
   2  12  -4   16.28    4.45
  -1 -12   4  195.10   11.45
  -1 -12   4  173.32   11.74
   1  12  -4  173.68   11.70
   0 -12   4   57.18    6.56
   0 -12   4   43.10    5.89
   0  12  -4   41.96    5.93
   0 -12   4   43.71    6.28
   1 -12   4  216.07   12.85
   1 -12   4  204.02   12.40
   1 -12   4  210.31   12.12
  -1  12  -4  197.87   11.90
   2 -12   4   -1.47    3.12
   2 -12   4   -2.86    3.14
   2 -12   4    0.59    3.09
  -3  12  -4    5.27    3.41
  -3  12  -4    2.33    3.47
   3 -12   4    3.66    3.37
   3 -12   4    2.86    3.57
   3 -12   4    4.62    3.98
   4 -12   4    4.27    3.63
  -4  12  -4    6.41    3.87
   4 -12   4    7.91    3.73
   5 -12   4   -1.17    3.63
  -5  12  -4    2.21    3.82
   4  11  -4   -2.32    3.54
   4  11  -4    5.46    4.51
   3  11  -4   25.77    5.14
   3  11  -4   27.40    5.76
   3  11  -4   22.17    4.77
  -3 -11   4   14.83    4.45
   2  11  -4   38.16    5.35
   2  11  -4   32.90    5.80
  -2 -11   4   26.75    5.33
   1  11  -4   65.74    6.88
   1  11  -4   61.73    6.22
  -1 -11   4   75.89    7.32
  -1 -11   4   81.47    6.98
   0 -11   4  580.64   25.31
   0 -11   4  610.92   25.87
   0 -11   4  586.34   24.90
   0  11  -4  614.19   25.06
   1 -11   4    6.67    3.36
  -1  11  -4    3.76    3.26
   1 -11   4    5.21    3.45
   1 -11   4   -1.09    2.56
   2 -11   4   94.07    7.74
   2 -11   4   74.75    6.79
   2 -11   4   81.23    7.36
   3 -11   4   30.74    4.79
   3 -11   4   33.21    5.17
  -3  11  -4   34.71    5.23
   3 -11   4   36.45    5.24
  -3  11  -4   31.73    5.09
   4 -11   4   21.55    4.59
  -4  11  -4   13.52    4.36
   4 -11   4   15.99    4.36
   4 -11   4    7.94    3.43
   5 -11   4   42.19    5.55
   5 -11   4   36.35    5.35
  -5  11  -4   41.52    6.86
   5  10  -4   -0.26    4.01
   4  10  -4   21.54    5.15
   4  10  -4   11.72    4.78
   3  10  -4    4.19    3.25
  -3 -10   4   -0.38    3.26
   3  10  -4    2.99    3.38
   3  10  -4    2.68    3.52
   2  10  -4   45.78    5.41
   2  10  -4   52.00    6.24
  -2 -10   4   46.25    5.81
   2  10  -4   56.29    5.85
  -2 -10   4   55.93    5.74
   1  10  -4   25.94    4.19
  -1 -10   4   27.50    4.74
   1  10  -4   25.75    4.13
  -1 -10   4   41.75    5.13
  -1 -10   4   27.38    4.36
   1  10  -4   28.50    4.79
   0 -10   4   12.05    3.43
   0 -10   4   10.35    3.79
   0  10  -4   14.20    3.81
   0 -10   4   16.55    3.82
   0  10  -4   17.69    3.35
   1 -10   4  380.88   17.18
   1 -10   4  375.62   16.82
  -1  10  -4  365.28   16.49
   1 -10   4  387.06   17.62
   2 -10   4  245.41   12.10
   2 -10   4  202.88   11.19
  -2  10  -4  210.18   10.78
   2 -10   4  197.92   11.39
   3 -10   4  318.74   15.25
  -3  10  -4  346.26   16.35
  -3  10  -4  335.08   16.16
   3 -10   4  332.22   15.82
   3 -10   4  301.85   14.89
   4 -10   4   23.52    4.11
  -4  10  -4   20.02    4.58
  -4  10  -4   30.11    5.24
   4 -10   4   21.50    4.27
   5 -10   4   50.83    5.51
   5 -10   4   54.20    5.57
  -5  10  -4   47.21    6.87
  -6  10  -4   23.45    6.11
   6 -10   4   20.46    4.13
   6   9  -4   20.04    5.72
   5   9  -4    1.60    3.48
   5   9  -4   -0.42    3.81
   4   9  -4   11.61    3.37
   4   9  -4   15.58    4.62
   4   9  -4   18.19    4.33
  -3  -9   4  170.68   10.34
   3   9  -4  171.98   10.26
   3   9  -4  169.80   10.18
   3   9  -4  154.58   10.45
   3   9  -4  169.08    9.31
  -2  -9   4  159.23    9.73
   2   9  -4  175.50    8.39
  -2  -9   4  166.99    9.33
   2   9  -4  156.90   10.17
   2   9  -4  161.95    9.61
   2   9  -4  154.80    9.42
  -1  -9   4   10.04    3.34
   1   9  -4    4.38    2.59
   1   9  -4    3.23    2.99
   1   9  -4    6.84    1.74
  -1  -9   4    9.68    3.08
  -1  -9   4    1.54    2.95
   1   9  -4    7.17    2.69
   0  -9   4    6.56    3.05
   0   9  -4   11.98    2.76
   0   9  -4   14.85    2.89
   0   9  -4    9.98    3.31
   0  -9   4   11.24    3.27
   0  -9   4    8.53    2.91
   1  -9   4  233.89   11.67
   1  -9   4  246.88   12.19
   1  -9   4  243.67   12.34
  -1   9  -4  262.80   11.09
  -1   9  -4  245.38   11.70
   2  -9   4   18.24    3.68
   2  -9   4   24.42    3.94
   2  -9   4   15.17    3.18
  -2   9  -4   16.25    3.05
  -2   9  -4   15.91    3.41
  -3   9  -4    0.17    2.39
   3  -9   4   -0.70    2.22
   3  -9   4    3.02    2.65
  -3   9  -4    5.22    2.78
   4  -9   4   57.43    5.27
   4  -9   4   64.08    5.55
  -4   9  -4   58.86    6.41
  -4   9  -4   54.29    6.18
  -5   9  -4    7.92    3.98
  -5   9  -4   10.18    4.30
   5  -9   4   13.26    3.27
   5  -9   4   11.23    3.27
  -6   9  -4   -5.07    3.11
   6  -9   4    0.39    2.43
   6   8  -4   17.51    5.16
   5   8  -4   22.17    4.64
   5   8  -4   13.12    4.67
   4   8  -4  156.78   10.13
   4   8  -4  148.64    9.46
   3   8  -4   87.61    7.43
  -3  -8   4   96.28    7.38
   3   8  -4   98.53    7.11
   3   8  -4  111.18    7.59
   2   8  -4  709.86   27.25
  -2  -8   4  677.65   26.82
   2   8  -4  743.48   26.97
  -2  -8   4  717.00   28.05
  -2  -8   4  663.58   27.11
   2   8  -4  725.28   28.17
   2   8  -4  699.37   27.56
   1   8  -4  339.31   15.06
   1   8  -4  361.10   13.28
  -1  -8   4  352.97   15.56
   1   8  -4  346.52   15.03
   1   8  -4  317.14   14.44
  -1  -8   4  325.00   14.97
  -1  -8   4  322.78   14.50
   0   8  -4 1707.41   59.75
   0  -8   4 1697.24   62.61
   0  -8   4 1769.64   60.34
   0  -8   4 1772.59   60.14
   0   8  -4 1736.09   59.75
   0   8  -4 1699.64   61.90
   1  -8   4   76.69    5.65
  -1   8  -4   64.17    4.69
   1  -8   4   64.20    5.43
   1  -8   4   71.60    5.88
  -1   8  -4   91.49    6.02
   2  -8   4 1007.90   37.45
  -2   8  -4 1014.10   37.61
  -2   8  -4 1014.62   35.13
   2  -8   4  974.21   35.84
   2  -8   4  965.34   35.87
   3  -8   4   -2.23    1.95
   3  -8   4   -0.63    1.93
  -3   8  -4    2.11    2.36
  -3   8  -4    1.05    2.44
  -4   8  -4    0.76    2.65
  -4   8  -4    4.33    2.88
   4  -8   4    4.46    2.50
   4  -8   4    5.60    2.37
  -5   8  -4    0.50    2.97
   5  -8   4    2.53    2.34
   5  -8   4   -1.83    2.07
  -5   8  -4   -2.21    2.63
  -6   8  -4    7.67    4.33
   6  -8   4    7.51    2.78
   6   7  -4    2.60    3.81
   6   7  -4   -0.28    3.21
   5   7  -4   70.46    6.94
   5   7  -4   71.55    6.73
   4   7  -4   65.80    6.29
  -4  -7   4   72.56    6.11
   4   7  -4   78.45    6.55
  -4  -7   4   64.79    6.95
  -3  -7   4    7.80    3.09
  -3  -7   4    7.74    2.97
   3   7  -4    5.40    2.93
   3   7  -4    8.22    3.25
   3   7  -4    5.37    2.58
  -3  -7   4   12.60    2.82
   2   7  -4   32.62    4.34
   2   7  -4   34.80    4.01
  -2  -7   4   36.46    4.19
  -2  -7   4   56.29    4.53
   2   7  -4   39.10    4.38
  -2  -7   4   38.55    4.39
   1   7  -4    0.59    1.75
   1   7  -4   -1.46    2.07
  -1  -7   4    2.01    2.28
  -1  -7   4    2.58    2.41
  -1  -7   4    1.14    2.02
   1   7  -4   -0.89    1.97
   0   7  -4  101.83    6.64
   0  -7   4   96.17    6.16
   0   7  -4   97.19    5.76
   0  -7   4  109.78    6.67
   0  -7   4  104.26    6.53
   0   7  -4   97.21    5.76
  -1   7  -4 2681.62   91.40
   1  -7   4 2730.44   92.20
   1  -7   4 2844.27   95.70
   1  -7   4 2634.00   91.19
  -1   7  -4 2778.11   90.91
   1  -7   4 2685.76   95.88
  -2   7  -4  194.04    8.41
  -2   7  -4  166.68    8.97
   2  -7   4  190.31    8.66
  -2   7  -4  176.47    9.23
  -2   7  -4  171.41    7.12
   2  -7   4  183.71    8.79
   2  -7   4  164.55    8.66
   2  -7   4  170.42    8.86
   3  -7   4  488.99   17.53
   3  -7   4  477.04   18.35
  -3   7  -4  456.10   20.20
  -3   7  -4  473.33   20.22
   3  -7   4  488.55   18.53
  -4   7  -4   32.13    4.78
   4  -7   4   45.79    3.88
   4  -7   4   35.12    3.47
  -5   7  -4    9.03    3.72
  -5   7  -4   18.69    4.42
   5  -7   4   12.96    2.53
   5  -7   4   11.76    2.46
   6  -7   4   34.32    3.62
  -6   7  -4   28.40    5.78
  -7   7  -4   72.32    8.55
   7   6  -4   67.98    7.23
   6   6  -4   99.71    8.11
   6   6  -4  101.82    8.18
   5   6  -4    8.90    3.27
   5   6  -4    3.65    3.28
   4   6  -4   25.41    4.06
   4   6  -4   33.92    4.51
  -4  -6   4   26.41    3.94
  -4  -6   4   30.95    3.45
  -4  -6   4   30.02    4.66
   3   6  -4   45.79    4.63
   3   6  -4   50.42    5.06
  -3  -6   4   54.30    4.88
  -3  -6   4   42.97    4.75
   3   6  -4   39.71    4.28
  -3  -6   4   53.09    4.26
  -3  -6   4   43.04    4.00
  -2  -6   4  132.54    7.35
   2   6  -4  116.19    7.45
   2   6  -4  131.32    7.53
  -2  -6   4  137.66    7.08
  -2  -6   4  142.46    7.81
   2   6  -4  121.16    7.19
  -1  -6   4  100.81    5.84
  -1  -6   4   97.76    6.40
   1   6  -4  108.88    6.06
   1   6  -4  104.44    5.96
   1   6  -4  106.71    6.41
  -1  -6   4   93.68    6.18
   0  -6   4   19.78    2.96
   0  -6   4   18.77    2.93
   0   6  -4   19.89    2.63
   0   6  -4   20.89    1.31
   0   6  -4   22.44    2.98
   0  -6   4   20.32    2.78
   1  -6   4  187.84    8.52
   1  -6   4  185.19    8.69
  -1   6  -4  192.53    8.59
  -1   6  -4  189.85    7.97
   1  -6   4  185.79    8.91
   1  -6   4  193.51    8.80
  -2   6  -4  273.22   10.71
  -2   6  -4  261.35   12.02
  -2   6  -4  277.05    9.71
   2  -6   4  265.48   11.09
   2  -6   4  264.63    9.84
   2  -6   4  285.21   11.51
   2  -6   4  259.56   11.23
  -2   6  -4  263.76   12.10
   2  -6   4  290.72   11.27
  -3   6  -4    2.20    2.25
   3  -6   4    0.20    1.43
   3  -6   4   -0.29    1.44
  -3   6  -4    0.31    1.96
   3  -6   4    1.60    1.85
   3  -6   4    0.90    1.67
   4  -6   4   71.35    4.35
  -4   6  -4   64.23    6.23
   4  -6   4   81.09    4.65
  -4   6  -4   62.26    6.06
  -5   6  -4   33.56    5.28
  -5   6  -4   41.45    5.63
   5  -6   4   39.34    3.34
   6  -6   4   64.18    4.46
  -6   6  -4   65.71    7.49
  -7   6  -4   23.88    5.87
   7   5  -4   68.70    6.86
   6   5  -4   29.84    4.84
   6   5  -4   18.36    4.29
   5   5  -4  166.42    9.79
  -5  -5   4  178.55   11.63
   5   5  -4  163.76    9.57
  -4  -5   4   17.02    3.64
  -4  -5   4   17.54    3.11
  -4  -5   4   19.60    2.54
   4   5  -4   16.13    3.56
   4   5  -4   12.49    3.11
  -3  -5   4  595.85   21.75
  -3  -5   4  585.98   21.91
  -3  -5   4  536.96   25.09
   3   5  -4  561.04   21.90
   3   5  -4  566.28   21.85
  -3  -5   4  544.53   21.01
   2   5  -4  699.75   25.46
   2   5  -4  691.11   26.11
  -2  -5   4  676.03   25.90
  -2  -5   4  701.32   25.29
  -2  -5   4  659.59   24.85
   2   5  -4  690.64   25.25
  -1  -5   4   47.38    4.00
   1   5  -4   43.39    3.93
  -1  -5   4   50.86    4.08
  -1  -5   4   52.88    3.93
   1   5  -4   47.01    3.78
   0  -5   4  242.79   10.34
   0   5  -4  242.39   10.16
   0  -5   4  252.54   10.16
   0  -5   4  234.14   10.21
   0  -5   4  243.42   10.60
   0   5  -4  249.24    9.93
   1  -5   4  151.47    6.98
   1  -5   4  145.81    7.07
   1  -5   4  149.60    6.85
   1  -5   4  151.59    7.28
  -1   5  -4  152.47    6.38
   1  -5   4  163.93    7.06
  -1   5  -4  156.10    6.99
  -2   5  -4    7.43    1.50
   2  -5   4    5.94    1.61
   2  -5   4    6.61    1.24
  -2   5  -4    6.02    2.00
   2  -5   4    3.52    1.43
   2  -5   4    4.28    1.75
  -2   5  -4    6.89    2.08
   2  -5   4    4.80    1.37
  -3   5  -4   34.09    3.89
   3  -5   4   25.06    2.32
   3  -5   4   23.50    2.52
   3  -5   4   24.70    2.29
  -3   5  -4   17.31    3.22
   3  -5   4   24.61    2.22
   3  -5   4   22.54    2.56
   4  -5   4  176.74    7.49
   4  -5   4  178.26    7.37
  -4   5  -4  191.83   10.38
  -4   5  -4  166.22   10.00
   4  -5   4  180.77    7.43
  -5   5  -4   11.95    3.63
   5  -5   4   10.16    1.77
   6  -5   4    2.71    1.61
  -6   5  -4   -0.99    3.04
   6  -5   4    5.54    2.64
   7   4  -4   46.84    5.84
   7   4  -4   59.46    6.32
   6   4  -4  278.63   13.64
   6   4  -4  282.04   13.79
   5   4  -4   52.11    5.06
   5   4  -4   59.01    5.42
  -5  -4   4   55.27    6.20
   4   4  -4  555.09   22.87
  -4  -4   4  606.27   27.31
   4   4  -4  601.32   23.17
  -4  -4   4  615.29   23.52
  -4  -4   4  618.61   22.62
  -3  -4   4  260.41   11.17
   3   4  -4  237.05   11.03
   3   4  -4  262.60   11.45
  -3  -4   4  255.98   10.80
  -3  -4   4  269.07   10.68
   3   4  -4  267.48   11.86
  -3  -4   4  227.73   12.52
  -2  -4   4 1498.81   50.22
   2   4  -4 1471.37   52.33
  -2  -4   4 1446.88   52.04
   2   4  -4 1402.73   49.95
  -2  -4   4 1508.11   49.96
   2   4  -4 1455.53   50.38
  -1  -4   4    6.95    1.88
   0  -4   4    8.46    1.70
   0   4  -4    9.51    1.73
   0  -4   4   10.32    1.69
   0  -4   4    8.11    1.79
   0   4  -4   12.50    2.07
   0  -4   4    8.22    1.75
   0  -4   4   10.43    1.66
  -1   4  -4  326.38   12.66
  -1   4  -4  313.75   12.55
   1  -4   4  297.43   11.73
   1  -4   4  318.18   11.99
  -1   4  -4  332.46   11.84
   1  -4   4  306.27   12.16
   1  -4   4  311.84   12.43
   1  -4   4  338.00   12.04
   2  -4   4  165.13    6.53
   2  -4   4  153.30    6.39
   2  -4   4  154.93    6.64
  -2   4  -4  158.40    7.84
   2  -4   4  159.01    6.76
   2  -4   4  178.68    6.85
  -2   4  -4  155.35    7.81
   3  -4   4  382.52   13.91
   3  -4   4  406.91   19.04
  -3   4  -4  404.87   16.93
   3  -4   4  401.04   13.94
  -3   4  -4  379.04   16.78
   3  -4   4  421.50   14.20
   3  -4   4  386.62   14.11
  -4   4  -4   20.43    3.70
   4  -4   4   20.25    1.65
   4  -4   4   19.64    1.65
   4  -4   4   23.19    1.75
   4  -4   4   21.98    1.76
  -5   4  -4   53.68    5.93
   5  -4   4   56.50    3.00
   5  -4   4   59.60    3.11
  -6   4  -4   28.22    5.21
   6  -4   4   28.31    4.43
   6  -4   4   22.66    2.06
   7   3  -4   60.25    6.06
   7   3  -4   58.90    6.20
   6   3  -4   54.47    5.50
   6   3  -4   67.01    6.02
  -5  -3   4    5.40    2.82
   5   3  -4    2.94    2.19
   5   3  -4    2.50    2.49
   4   3  -4  213.00   10.04
  -4  -3   4  218.48    9.80
   4   3  -4  210.42   10.17
  -4  -3   4  211.04   11.84
  -3  -3   4  506.80   18.79
   3   3  -4  533.00   19.82
   3   3  -4  474.59   18.90
  -3  -3   4  466.46   21.97
   3   3  -4  486.86   18.97
  -3  -3   4  501.60   19.31
   3   3  -4  536.01   19.01
  -3  -3   4  502.89   18.39
  -2  -3   4    2.33    1.29
   2   3  -4    2.89    1.47
   2   3  -4    3.30    1.72
  -2  -3   4    0.87    1.24
  -2  -3   4    1.67    1.58
   2   3  -4    1.09    1.48
  -2  -3   4    3.51    1.44
   1   3  -4  145.17    6.22
  -1  -3   4  121.47    5.70
  -1  -3   4  121.86    5.89
  -1  -3   4  122.39    5.90
   1   3  -4  118.28    5.79
  -1  -3   4  134.00    6.14
   1   3  -4  118.97    6.05
   0  -3   4  194.63    7.83
   0   3  -4  189.49    7.99
   0   3  -4  204.99    7.76
   0  -3   4  191.05    7.85
   0   3  -4  198.25    7.49
   0  -3   4  191.01    8.09
   0  -3   4  190.33    7.72
   0   3  -4  195.37    7.95
  -1   3  -4  553.73   18.67
   1  -3   4  587.99   19.22
   1  -3   4  528.73   19.60
   1  -3   4  547.93   19.16
   1  -3   4  554.92   19.04
   1  -3   4  523.30   19.89
  -1   3  -4  552.67   20.35
  -1   3  -4  560.12   20.26
   1  -3   4  533.56   19.04
  -1   3  -4  567.20   18.94
   2  -3   4 1661.17   54.08
   2  -3   4 1630.77   53.54
  -2   3  -4 1529.46   57.61
  -2   3  -4 1679.13   57.46
   2  -3   4 1559.36   56.86
   2  -3   4 1596.89   54.06
   2  -3   4 1641.57   65.68
   2  -3   4 1707.89   53.59
   3  -3   4    1.70    2.20
  -3   3  -4    2.96    2.13
   3  -3   4    2.33    0.97
   3  -3   4    3.07    0.94
  -4   3  -4  564.29   23.25
  -5   3  -4   14.74    3.77
   6  -3   4   96.39    7.77
   7   2  -4   17.23    3.85
   7   2  -4   15.31    4.00
   6   2  -4  252.07   12.26
   6   2  -4  256.75   12.24
   5   2  -4  433.66   17.58
   5   2  -4  431.23   17.50
  -4  -2   4   -1.00    1.82
   4   2  -4   -0.77    1.94
   4   2  -4   -0.59    2.09
  -4  -2   4    0.32    2.00
   3   2  -4   98.04    5.36
   3   2  -4  106.02    5.00
  -3  -2   4   96.25    4.75
   3   2  -4   85.62    5.09
  -3  -2   4   92.93    5.90
  -3  -2   4   95.47    5.33
   3   2  -4   91.37    5.34
   3   2  -4   74.40    5.33
  -3  -2   4   84.17    4.71
   2   2  -4   50.49    3.52
   2   2  -4   56.26    3.89
   2   2  -4   55.82    3.82
  -2  -2   4   49.02    3.66
  -2  -2   4   49.46    3.28
  -2  -2   4   51.68    3.42
   2   2  -4   53.81    2.77
   2   2  -4   62.87    3.70
  -2  -2   4   52.04    3.49
   1   2  -4  632.76   23.09
  -1  -2   4  622.19   23.04
   1   2  -4  656.48   22.32
  -1  -2   4  626.45   22.06
  -1  -2   4  635.42   22.18
   1   2  -4  630.03   22.15
   0  -2   4 2466.44   81.73
   0  -2   4 2300.79   84.87
   0  -2   4 2451.68   80.68
   0   2  -4 2523.97   80.72
   0  -2   4 2463.77   81.65
   0   2  -4 2382.95   81.63
   0  -2   4 2561.75   84.62
   0   2  -4 2393.93   84.79
   0   2  -4 2582.00   84.00
   1  -2   4 1505.82   55.81
   1  -2   4 1623.13   53.53
   1  -2   4 1721.77   53.00
   1  -2   4 1518.89   55.64
   1  -2   4 1638.68   52.93
  -1   2  -4 1655.95   55.89
  -1   2  -4 1556.89   55.86
  -1   2  -4 1634.82   52.81
   1  -2   4 1663.27   56.21
   1  -2   4 1579.89   63.88
   1  -2   4 1589.80   53.47
   2  -2   4   94.81    3.82
   2  -2   4   98.11    3.84
   2  -2   4   95.76    5.96
  -2   2  -4   95.87    5.46
   2  -2   4   90.65    4.93
  -3   2  -4  832.14   31.13
   3  -2   4  833.87   30.79
   3  -2   4  806.92   35.29
  -4   2  -4   26.33    3.91
   6  -2   4   20.99    4.30
   6  -2   4   17.33    1.90
   7   1  -4   83.97    6.80
   7   1  -4   80.61    6.74
   6   1  -4   83.30    6.41
   6   1  -4   92.48    6.45
   5   1  -4   45.64    4.29
   5   1  -4   49.79    4.50
   4   1  -4   71.31    4.96
  -4  -1   4   71.83    3.58
   4   1  -4   73.74    5.98
   4   1  -4   63.25    4.99
  -4  -1   4   68.20    4.53
   4   1  -4   73.52    5.09
   3   1  -4   13.98    2.21
  -3  -1   4   19.60    1.92
  -3  -1   4   10.53    1.72
   3   1  -4   13.91    2.04
  -3  -1   4   12.87    2.12
   3   1  -4   16.76    2.57
   2   1  -4  179.33    7.56
   2   1  -4  174.45    8.22
   2   1  -4  182.93    7.03
   2   1  -4  161.50    7.56
  -2  -1   4  185.45    7.66
  -2  -1   4  175.92    7.54
   2   1  -4  183.94    7.43
   2   1  -4  189.13    7.85
  -2  -1   4  177.78    7.34
   1   1  -4 1659.17   55.30
  -1  -1   4 1706.19   61.48
   1   1  -4 1652.28   54.88
   1   1  -4 1627.10   57.54
   1   1  -4 1646.40   55.44
  -1  -1   4 1601.25   57.52
  -1  -1   4 1669.10   55.33
  -1  -1   4 1641.42   54.74
   0  -1   4  597.74   20.53
   0   1  -4  616.46   20.61
   0  -1   4  618.46   23.41
   0  -1   4  580.55   20.62
   0   1  -4  602.56   21.45
   0   1  -4  632.94   20.74
   0  -1   4  558.55   21.48
   0  -1   4  587.78   24.05
   0  -1   4  606.80   20.98
   0  -1   4  591.17   20.77
   0   1  -4  602.37   21.06
   0   1  -4  604.80   20.62
   1  -1   4 3019.48   98.24
  -1   1  -4 2771.80  103.81
   1  -1   4 2995.06  118.47
   1  -1   4 3157.34  112.38
   1  -1   4 2831.14   99.50
   1  -1   4 3261.10   98.30
   1  -1   4 2954.64  103.60
   1  -1   4 2806.57  103.86
   1  -1   4 3080.94   99.60
  -1   1  -4 2945.61  118.46
  -1   1  -4 3114.80  103.30
  -1   1  -4 3216.93   98.28
   2  -1   4 1949.97   78.81
   2  -1   4 1927.93   64.41
  -2   1  -4 1997.71   68.88
  -2   1  -4 1955.18   78.82
   2  -1   4 1975.24   74.67
   2  -1   4 1942.34   69.08
   2  -1   4 2038.48   64.41
   3  -1   4  795.32   33.73
  -3   1  -4  771.24   29.59
   3  -1   4  778.21   25.89
   3  -1   4  781.30   29.55
   4  -1   4  294.98   13.78
   5  -1   4  120.90    5.12
   5  -1   4  119.35    5.14
   5  -1   4  126.69    8.32
   5  -1   4  119.38    5.20
   6  -1   4  146.34    6.62
   6  -1   4  144.74    6.46
   6  -1   4  155.00   10.11
   7   0  -4    7.68    3.21
   7   0  -4    1.61    3.00
   6   0  -4   90.61    6.57
   6   0  -4   99.54    6.55
   5   0  -4   68.49    5.03
   5   0  -4   64.89    5.15
   4   0  -4  135.93    7.03
  -4   0   4  134.53    5.29
   4   0  -4  129.14    8.16
   4   0  -4  126.77    6.77
  -4   0   4  124.16    6.40
   4   0  -4  117.09    6.75
  -3   0   4   83.99    4.83
   3   0  -4   86.21    4.81
   3   0  -4   97.80    5.17
  -3   0   4   83.16    4.31
   3   0  -4   99.47    5.19
   3   0  -4  110.37    6.03
  -3   0   4   78.25    4.32
  -3   0   4   78.77    4.77
   3   0  -4   92.11    5.23
  -2   0   4   37.73    2.53
   2   0  -4   43.37    2.22
   2   0  -4   27.88    2.66
   2   0  -4   44.36    2.86
   2   0  -4   37.95    2.91
   2   0  -4   36.04    2.85
   2   0  -4   35.91    1.89
   2   0  -4   33.98    2.85
  -2   0   4   35.52    2.57
  -2   0   4   45.58    2.35
  -2   0   4   36.82    2.86
  -2   0   4   37.88    2.64
   1   0  -4  563.83   19.36
  -1   0   4  552.03   19.25
   1   0  -4  550.99   20.15
  -1   0   4  524.90   20.03
   1   0  -4  543.39   21.15
   1   0  -4  565.23   19.43
  -1   0   4  556.96   19.29
   0   0  -4 3273.57  126.42
   0   0   4 3509.54  112.90
   0   0   4 3363.02  111.28
   0   0   4 3540.20  116.06
   0   0   4 3189.69  112.68
   0   0   4 3543.39  126.43
   0   0  -4 3518.35  111.41
   0   0  -4 3389.87  112.84
   0   0  -4 3519.87  117.22
   0   0   4 3257.94  117.26
   1   0   4    1.28    0.88
   1   0   4    2.93    1.05
  -1   0  -4    2.65    0.58
   1   0   4    0.90    0.88
  -1   0  -4    2.09    0.95
  -1   0  -4    2.49    1.28
  -1   0  -4    3.52    0.69
  -1   0  -4    2.37    0.61
   1   0   4    3.38    0.89
   1   0   4    1.04    1.23
  -1   0  -4    4.35    1.48
  -1   0  -4    2.50    0.68
   1   0   4    2.86    1.44
  -1   0  -4    2.71    1.16
   2   0   4  143.92    5.73
   2   0   4  153.80    5.84
   2   0   4  139.68    7.10
   2   0   4  146.43    5.61
   2   0   4  140.25    7.85
  -2   0  -4  136.57    7.87
   2   0   4  150.34    5.80
   2   0   4  150.66    5.63
   3   0   4 1066.68   37.55
   3   0   4 1086.89   35.87
   3   0   4 1089.00   36.28
   3   0   4 1105.38   37.64
   3   0   4 1086.89   35.89
   3   0   4 1086.14   36.19
   3   0   4 1111.54   45.33
   3   0   4 1030.21   39.79
  -3   0  -4 1031.67   45.23
   4   0   4  442.45   15.92
   4   0   4  443.17   15.17
  -4   0  -4  411.12   21.01
   4   0   4  425.10   15.79
   4   0   4  451.75   15.40
   4   0   4  443.09   15.34
   4   0   4  389.80   18.41
   5   0   4    5.71    2.89
   5   0   4    6.57    1.54
   5   0   4    3.05    1.59
   6   0   4   25.16    4.89
   6   0   4   23.64    2.64
   6   0   4   25.55    2.80
   7  -1  -4    5.85    3.09
   7  -1  -4    0.94    2.94
   6  -1  -4   65.99    5.43
   6  -1  -4   61.08    5.23
   5  -1  -4    6.78    2.37
   5  -1  -4    6.93    2.54
   4  -1  -4    7.63    2.67
  -4   1   4   20.53    2.77
   4  -1  -4    7.18    2.28
   4  -1  -4    4.93    1.94
  -3   1   4  341.77   13.21
   3  -1  -4  354.86   13.35
  -3   1   4  347.50   13.25
  -3   1   4  337.49   13.47
   3  -1  -4  364.99   14.05
  -3   1   4  332.86   13.84
   3  -1  -4  353.67   16.00
   3  -1  -4  352.73   13.67
  -3   1   4  350.55   12.88
   3  -1  -4  338.59   13.50
   2  -1  -4    2.73    1.31
  -2   1   4    1.49    1.06
   2  -1  -4    2.16    1.24
   2  -1  -4    0.86    1.34
  -2   1   4    2.70    0.96
   2  -1  -4    1.78    1.54
  -2   1   4    1.77    1.13
  -2   1   4    1.70    1.27
  -1   1   4  599.68   19.72
  -1   1   4  551.22   20.48
   1  -1  -4  561.99   19.83
   1  -1  -4  485.91   21.60
  -1   1   4  610.58   19.74
   0  -1  -4  648.47   26.33
   0   1   4  634.18   24.25
   0   1   4  696.16   23.55
   0   1   4  669.69   23.25
   0  -1  -4  694.39   24.56
   0  -1  -4  677.34   23.46
   0   1   4  693.15   23.55
   0   1   4  668.67   23.35
   0  -1  -4  681.76   24.29
   0  -1  -4  698.70   23.38
  -1  -1  -4  704.18   23.95
   1   1   4  682.84   24.16
  -1  -1  -4  710.97   25.81
   1   1   4  697.84   25.80
  -1  -1  -4  688.71   28.97
   1   1   4  741.94   27.88
   1   1   4  685.20   25.10
   1   1   4  731.58   24.33
   1   1   4  681.62   24.03
  -2  -1  -4 1118.70   46.62
   2   1   4 1211.03   40.68
   2   1   4 1156.79   40.20
  -2  -1  -4 1241.42   39.86
  -2  -1  -4 1131.59   49.24
   2   1   4 1189.71   42.19
   2   1   4 1221.29   43.57
   2   1   4 1281.56   40.38
   2   1   4 1268.94   40.72
   3   1   4 1875.89   61.71
   3   1   4 1872.83   61.61
  -3  -1  -4 1752.73   74.92
   3   1   4 1863.15   60.88
   3   1   4 1943.57   61.00
   3   1   4 1760.68   63.88
   3   1   4 1863.42   64.10
   3   1   4 1762.11   65.90
   4   1   4  126.83    6.09
   4   1   4  118.09    5.68
   4   1   4  122.37    5.72
   4   1   4  122.65    7.93
  -4  -1  -4  113.63    8.59
   4   1   4  114.33    5.66
   5   1   4  102.87    7.85
   5   1   4   96.59    5.14
   5   1   4   96.02    5.36
   5   1   4   98.19    5.40
   6   1   4   12.62    4.19
   6   1   4   11.92    2.59
   6   1   4    8.95    2.33
   7   1   4    5.94    2.64
   7  -2  -4   17.36    3.86
   7  -2  -4   26.05    4.05
   6  -2  -4   13.30    3.13
   6  -2  -4    7.53    2.87
   5  -2  -4  195.53    9.65
  -5   2   4  199.14   10.05
   5  -2  -4  195.44    9.55
  -5   2   4  204.03   10.68
  -4   2   4  415.86   18.10
   4  -2  -4  486.04   18.06
   4  -2  -4  420.42   17.18
  -4   2   4  452.06   16.73
  -4   2   4  442.79   17.74
   4  -2  -4  449.38   20.84
   4  -2  -4  442.68   17.38
   3  -2  -4    0.17    1.44
  -3   2   4   -0.85    1.27
  -3   2   4    1.48    1.24
   3  -2  -4    1.45    1.53
   3  -2  -4    0.01    1.74
  -3   2   4    1.62    1.61
  -3   2   4   -0.78    1.35
  -3   2   4    1.97    1.29
   3  -2  -4    0.12    1.70
  -2   2   4   34.57    2.83
   2  -2  -4   33.54    2.84
  -2   2   4   30.18    2.55
  -2   2   4   30.49    2.27
  -2   2   4   32.34    2.50
   2  -2  -4   32.34    2.93
   2  -2  -4   33.03    3.08
  -1   2   4  989.08   33.67
   1  -2  -4  966.73   35.29
  -1   2   4  949.87   35.20
  -1   2   4  977.37   33.81
   1  -2  -4 1023.30   34.19
   1  -2  -4 1018.93   34.17
   0  -2  -4  471.93   17.26
   0   2   4  496.09   17.46
   0   2   4  466.00   17.88
   0  -2  -4  478.96   17.29
   0   2   4  473.42   17.20
   0   2   4  488.32   17.18
   0  -2  -4  462.29   19.42
   0  -2  -4  497.96   18.04
   1   2   4   50.80    3.77
   1   2   4   52.18    3.21
   1   2   4   46.39    3.26
  -1  -2  -4   52.52    3.04
   1   2   4   50.46    3.55
  -1  -2  -4   49.01    3.97
   1   2   4   59.78    3.44
   2   2   4  128.24    5.96
   2   2   4  123.91    5.87
   2   2   4  113.29    6.80
   2   2   4  130.39    5.89
  -2  -2  -4  131.64    4.81
  -2  -2  -4  112.76    7.15
   2   2   4  125.34    6.04
  -2  -2  -4  118.78    7.40
   3   2   4  166.04    7.64
  -3  -2  -4  166.60    9.64
   3   2   4  166.16    7.61
  -3  -2  -4  172.88   10.32
   3   2   4  182.19    7.68
   3   2   4  170.39    7.69
   3   2   4  165.47    9.11
   4   2   4  183.44    8.22
  -4  -2  -4  189.15   11.66
   4   2   4  175.80    8.23
   4   2   4  169.20    8.03
   4   2   4  182.91   10.32
   5   2   4   38.84    3.64
   5   2   4   41.97    5.63
   5   2   4   45.36    3.72
   5   2   4   42.02    3.84
   6   2   4   25.33    3.51
   6   2   4   32.58    3.86
   7   2   4    3.35    2.72
   7  -3  -4   14.77    3.66
   7  -3  -4   22.86    4.12
   6  -3  -4  292.75   13.29
   6  -3  -4  278.39   12.97
   5  -3  -4   36.85    4.01
  -5   3   4   39.32    4.26
   5  -3  -4   36.44    4.01
  -5   3   4   39.69    4.71
   4  -3  -4 1072.72   39.28
  -4   3   4 1184.33   38.38
  -4   3   4 1087.95   41.24
  -4   3   4 1091.93   40.32
   4  -3  -4 1115.17   39.11
   3  -3  -4   -0.58    1.44
   3  -3  -4   -0.67    1.66
  -3   3   4    1.16    1.33
   3  -3  -4    3.46    2.04
  -3   3   4    0.90    1.62
  -3   3   4    2.69    1.54
  -3   3   4    0.63    1.34
   3  -3  -4    0.98    1.82
   2  -3  -4 1343.67   48.74
   2  -3  -4 1465.14   50.65
   2  -3  -4 1415.49   48.86
  -2   3   4 1405.52   50.26
  -2   3   4 1461.62   48.08
  -2   3   4 1436.62   48.30
   1  -3  -4  109.12    5.72
  -1   3   4  118.47    5.79
  -1   3   4  114.65    5.50
  -1   3   4  121.94    5.90
   0  -3  -4  129.93    6.14
   0   3   4  113.15    5.95
   0  -3  -4  123.12    6.05
   0  -3  -4  116.06    5.73
   0   3   4  114.82    5.95
   0   3   4  129.55    5.95
  -1  -3  -4    0.75    1.24
   1   3   4    2.96    1.53
  -1  -3  -4    0.61    1.14
   1   3   4    2.89    1.59
   1   3   4    0.45    1.67
  -1  -3  -4    0.38    1.34
  -1  -3  -4    1.43    1.60
   1   3   4    1.65    1.73
   1   3   4    1.49    1.51
  -1  -3  -4    1.77    1.32
   2   3   4   29.52    3.57
   2   3   4   34.36    3.22
   2   3   4   34.90    3.14
  -2  -3  -4   30.62    3.87
  -2  -3  -4   32.21    3.93
  -2  -3  -4   41.80    2.80
   2   3   4   44.69    3.43
  -2  -3  -4   41.66    2.81
   2   3   4   28.95    3.19
   3   3   4  575.93   21.03
  -3  -3  -4  565.24   26.15
  -3  -3  -4  552.80   24.61
   3   3   4  541.41   21.52
   3   3   4  593.90   21.04
   3   3   4  563.27   23.17
  -4  -3  -4  159.87   10.21
   4   3   4  169.44   10.00
   4   3   4  171.22    8.36
   4   3   4  164.83    8.29
   4   3   4  164.05    8.29
  -4  -3  -4  171.64   11.21
   5   3   4    4.64    2.09
   5   3   4    1.64    2.85
   5   3   4   -0.61    2.26
   5   3   4   -0.68    2.10
   6   3   4   48.15    4.94
   6   3   4   55.64    5.16
   7  -4  -4   15.11    3.74
   7  -4  -4   14.03    3.82
   6  -4  -4   32.00    4.24
   6  -4  -4   32.57    4.33
  -6   4   4   25.59    4.94
  -6   4   4   30.31    4.48
   5  -4  -4  247.90   11.85
  -5   4   4  260.30   12.30
   5  -4  -4  260.41   11.91
  -5   4   4  260.72   13.18
  -4   4   4  799.79   30.22
   4  -4  -4  803.70   29.82
   4  -4  -4  787.95   29.72
   4  -4  -4  825.61   29.63
  -4   4   4  804.81   31.25
  -4   4   4  825.05   28.70
  -3   4   4  178.76    8.23
   3  -4  -4  169.92    8.69
  -3   4   4  181.44    8.44
  -3   4   4  197.17    8.12
  -3   4   4  185.70    8.51
   3  -4  -4  195.59    9.29
  -2   4   4    8.97    1.89
   2  -4  -4   11.23    2.36
   2  -4  -4    4.11    1.94
  -2   4   4    7.23    1.75
  -2   4   4    5.50    1.96
  -1   4   4 1759.28   57.11
   1  -4  -4 1666.53   57.41
  -1   4   4 1638.67   56.60
  -1   4   4 1634.35   59.22
   1  -4  -4 1682.22   56.86
   0  -4  -4  516.28   19.34
   0   4   4  538.50   19.46
   0   4   4  497.84   19.87
   0  -4  -4  517.99   19.32
   0   4   4  516.01   19.21
   1   4   4 1597.39   55.92
  -1  -4  -4 1590.00   53.34
   1   4   4 1541.44   55.53
  -1  -4  -4 1531.58   55.38
  -1  -4  -4 1479.94   60.29
   1   4   4 1573.73   53.62
  -1  -4  -4 1636.38   53.11
   1   4   4 1537.91   53.11
  -2  -4  -4   27.60    3.93
  -2  -4  -4   36.99    3.39
   2   4   4   30.80    3.45
   2   4   4   30.62    3.58
   2   4   4   34.38    3.88
  -2  -4  -4   33.04    2.85
   2   4   4   33.39    3.44
   3   4   4  367.40   15.60
   3   4   4  380.15   15.32
   3   4   4  380.26   16.90
  -3  -4  -4  359.94   18.81
  -3  -4  -4  366.38   17.90
   3   4   4  386.45   15.34
   4   4   4  242.15   10.94
  -4  -4  -4  231.80   13.11
   4   4   4  210.72   10.53
   4   4   4  214.09   10.78
   4   4   4  242.44   12.80
   5   4   4   64.79    5.53
   5   4   4   69.80    5.70
   5   4   4   70.13    5.56
   5   4   4   65.60    7.30
   6   4   4    9.85    3.52
   7  -5  -4   46.54    5.32
   7  -5  -4   47.93    5.62
  -6   5   4    1.03    2.88
  -6   5   4   -4.78    2.17
   6  -5  -4    0.73    2.79
   6  -5  -4   -0.82    2.68
  -5   5   4   58.19    5.91
  -5   5   4   53.83    5.14
   5  -5  -4   52.91    5.02
   5  -5  -4   47.65    4.92
   4  -5  -4  204.48   10.12
  -4   5   4  198.35    9.20
  -4   5   4  215.96   10.95
   4  -5  -4  206.43   10.10
  -4   5   4  202.42    9.91
   4  -5  -4  189.73    9.92
  -3   5   4  166.17    7.97
   3  -5  -4  153.93    8.38
  -3   5   4  173.59    7.60
  -3   5   4  158.28    7.95
  -2   5   4  434.28   16.83
  -2   5   4  423.78   16.48
  -2   5   4  440.21   17.22
   2  -5  -4  425.23   17.15
   1  -5  -4   23.38    3.06
  -1   5   4   16.83    2.91
  -1   5   4   14.81    2.48
  -1   5   4   15.08    2.49
   1  -5  -4   19.78    3.12
   0   5   4    2.18    1.81
   0   5   4    3.44    1.92
   0   5   4    4.40    2.40
   0  -5  -4    2.27    1.77
   0  -5  -4    1.79    2.13
  -1  -5  -4   86.02    6.50
   1   5   4   84.40    6.13
   1   5   4   88.60    5.80
   1   5   4   97.49    5.95
  -1  -5  -4   85.67    5.91
  -1  -5  -4   89.14    5.45
   1   5   4   90.40    5.97
  -1  -5  -4   88.07    5.61
   2   5   4  171.69    8.66
  -2  -5  -4  161.67    7.70
  -2  -5  -4  155.77    9.76
   2   5   4  148.89    8.64
   2   5   4  175.17    9.20
  -2  -5  -4  168.61    8.38
   2   5   4  162.08    8.54
  -2  -5  -4  174.85    7.83
   3   5   4  173.42    8.82
   3   5   4  142.45    8.43
   3   5   4  151.09    9.28
  -3  -5  -4  160.87   10.52
   3   5   4  149.12    8.42
  -3  -5  -4  161.44   10.09
   4   5   4  509.11   21.13
   4   5   4  490.22   20.25
   4   5   4  506.04   20.50
  -4  -5  -4  494.57   23.77
   4   5   4  520.00   22.73
   5   5   4   25.17    5.61
   5   5   4   24.72    4.16
   5   5   4   22.76    4.18
   5   5   4   21.38    4.04
   6   5   4   18.91    4.16
   7  -6  -4   14.84    3.99
   7  -6  -4   19.71    4.30
  -6   6   4   89.76    8.48
   6  -6  -4   86.29    7.04
   6  -6  -4   84.77    6.90
  -6   6   4   90.73    7.45
  -5   6   4    1.09    2.57
   5  -6  -4    3.67    2.59
  -5   6   4    2.14    2.49
   5  -6  -4    0.20    2.44
   5  -6  -4    3.18    2.57
  -4   6   4  494.54   19.91
   4  -6  -4  465.20   19.67
   3  -6  -4  173.39    9.30
  -3   6   4  175.60    8.83
  -3   6   4  175.33    8.83
   2  -6  -4  250.16   11.95
   2  -6  -4  262.35   11.91
  -2   6   4  255.16   11.58
  -2   6   4  248.72   11.55
  -2   6   4  261.40   11.14
  -1   6   4    2.60    2.56
  -1   6   4   -0.28    1.89
  -1   6   4   -0.81    1.67
   1  -6  -4   -3.74    2.02
   1  -6  -4    1.71    2.08
   0   6   4  108.73    6.70
   0  -6  -4  112.37    7.31
   0   6   4  110.96    6.85
   0  -6  -4  108.20    6.69
   0   6   4  119.71    7.27
   1   6   4  688.91   28.00
   1   6   4  719.25   27.23
  -1  -6  -4  706.65   27.84
  -1  -6  -4  786.27   27.41
   1   6   4  713.42   27.33
  -1  -6  -4  737.84   26.95
  -2  -6  -4   67.42    5.23
   2   6   4   62.49    5.32
   2   6   4   59.02    5.22
  -2  -6  -4   46.79    5.55
   2   6   4   51.59    5.16
   2   6   4   66.24    5.56
  -3  -6  -4  162.92   10.79
   3   6   4  164.37    9.34
   3   6   4  166.05    9.53
   3   6   4  166.94    9.48
   3   6   4  166.53   10.04
   4   6   4  185.59   10.35
  -4  -6  -4  190.87   12.34
   4   6   4  182.98   10.37
   4   6   4  175.08   10.21
   4   6   4  188.01   11.52
   5   6   4   93.77    7.46
   5   6   4   84.92    7.19
  -5  -6  -4   80.83    8.50
   5   6   4   87.38    7.16
   6   6   4   36.71    5.31
   7  -7  -4    2.64    3.45
   6  -7  -4   16.39    4.09
   6  -7  -4   18.96    4.38
  -6   7   4   10.37    3.96
   5  -7  -4  139.80    9.00
   5  -7  -4  139.38    9.06
  -5   7   4  140.11    9.01
  -5   7   4  142.15    9.84
   5  -7  -4  134.76    8.85
  -4   7   4   38.18    4.30
   4  -7  -4   41.15    4.82
   3  -7  -4  217.98   11.28
  -3   7   4  233.47   11.06
  -2   7   4   15.12    2.81
   2  -7  -4   15.66    3.51
  -2   7   4    8.56    2.92
   2  -7  -4   13.51    3.09
  -2   7   4   12.40    2.73
  -1   7   4   57.56    5.15
  -1   7   4   58.66    4.82
   1  -7  -4   57.84    5.11
   1  -7  -4   59.42    5.54
  -1   7   4   52.24    4.73
   0   7   4  119.80    7.71
   0  -7  -4  115.23    7.21
   0   7   4  117.56    7.17
   0   7   4  112.81    7.19
   0  -7  -4  121.96    7.69
   1   7   4  661.58   25.85
  -1  -7  -4  637.29   24.89
   1   7   4  654.53   24.92
  -1  -7  -4  648.29   24.54
   1   7   4  581.46   24.78
  -2  -7  -4   38.31    5.18
   2   7   4   32.87    4.37
   2   7   4   33.58    4.35
   2   7   4   26.88    4.44
  -2  -7  -4   32.53    4.39
   2   7   4   36.55    4.58
   3   7   4   53.05    5.95
   3   7   4   65.44    6.01
   3   7   4   69.16    6.09
   3   7   4   47.59    5.74
  -3  -7  -4   56.57    6.62
   4   7   4  107.98    9.16
   4   7   4  103.92    8.05
  -4  -7  -4  106.24    9.46
   4   7   4   96.22    7.92
   4   7   4  120.36    8.17
   5   7   4    0.04    3.40
   5   7   4    1.74    3.40
   6   7   4    6.39    4.29
   7  -8  -4   21.59    5.01
   6  -8  -4    1.63    3.56
   6  -8  -4   12.78    4.20
   5  -8  -4   -0.47    3.07
  -5   8   4    2.28    3.27
   5  -8  -4    1.38    2.94
  -5   8   4    4.59    3.02
   5  -8  -4    1.33    2.90
  -4   8   4  156.63    9.20
   4  -8  -4  139.86    9.26
   3  -8  -4  302.99   14.47
  -3   8   4  298.97   13.90
  -2   8   4   23.12    3.40
   2  -8  -4   22.79    4.17
   2  -8  -4   13.91    3.45
  -2   8   4   22.78    3.88
   1  -8  -4   -0.80    2.46
  -1   8   4    5.96    3.08
   1  -8  -4    1.90    2.36
  -1   8   4    1.72    2.12
  -1   8   4    1.26    2.11
   0   8   4   89.55    7.16
   0  -8  -4   81.56    6.14
   0  -8  -4   70.97    6.60
   0  -8  -4   73.12    6.38
   0   8   4   72.43    6.20
   0   8   4   82.64    6.29
   1   8   4  193.90   10.66
  -1  -8  -4  172.75   10.35
   1   8   4  199.36   10.95
   1   8   4  193.46   10.42
  -2  -8  -4   47.21    6.28
  -2  -8  -4   67.68    6.16
   2   8   4   60.53    6.46
   2   8   4   63.70    6.16
   2   8   4   61.05    6.04
   2   8   4   62.01    5.94
  -3  -8  -4   79.69    8.28
   3   8   4   82.02    7.09
   3   8   4   70.67    7.21
   3   8   4   83.41    7.62
   3   8   4   80.15    7.06
   4   8   4   29.01    5.35
  -4  -8  -4   23.82    5.84
   4   8   4   29.92    5.18
   4   8   4   26.86    4.97
   5   8   4   51.37    6.62
   6  -9  -4   58.83    7.03
   5  -9  -4   -1.29    3.04
   5  -9  -4   -1.85    2.69
  -5   9   4    0.05    2.84
   5  -9  -4   -2.34    3.22
  -4   9   4   68.45    6.19
   4  -9  -4   58.34    6.47
  -3   9   4   15.96    3.80
   3  -9  -4   12.58    3.81
   2  -9  -4   10.13    3.84
  -2   9   4   13.71    3.89
   2  -9  -4   13.78    3.48
   1  -9  -4  162.61    9.84
  -1   9   4  154.18    9.73
  -1   9   4  152.09    9.04
   1  -9  -4  175.92   10.41
   0  -9  -4   23.52    4.21
   0  -9  -4   24.88    4.69
   0   9   4   25.70    5.01
   0   9   4   25.43    4.29
   0   9   4   34.04    4.67
  -1  -9  -4    4.20    2.98
   1   9   4   -1.34    2.88
   1   9   4    2.89    2.69
  -1  -9  -4    2.75    3.39
   1   9   4    2.02    3.06
   2   9   4   -1.56    3.13
   2   9   4    0.21    2.95
   2   9   4   -0.58    2.48
  -2  -9  -4    2.82    3.13
  -2  -9  -4    2.59    3.29
   3   9   4    1.26    3.40
   3   9   4   -1.95    2.90
   3   9   4   -0.47    3.55
  -3  -9  -4    1.13    3.71
   3   9   4   -1.55    2.83
   4   9   4   44.05    6.34
   4   9   4   43.25    6.50
   6 -10  -4   11.58    4.90
  -5  10   4   34.17    5.52
   5 -10  -4   29.62    5.63
   5 -10  -4   46.06    6.40
  -4  10   4   34.89    5.14
   4 -10  -4   30.42    5.51
  -3  10   4  316.06   15.18
   3 -10  -4  278.06   15.34
   2 -10  -4   -0.01    2.97
   2 -10  -4    2.07    3.49
  -2  10   4    0.85    3.31
   1 -10  -4   12.12    3.88
  -1  10   4   10.70    3.40
  -1  10   4   16.24    4.29
   1 -10  -4   14.82    4.47
   0  10   4  133.41    9.17
   0 -10  -4  117.91    8.59
   0 -10  -4  127.27    9.36
   0  10   4  120.65    9.28
   1  10   4   -2.39    2.76
   1  10   4    3.12    3.93
  -1 -10  -4   -1.83    3.20
   1  10   4    0.89    2.71
  -1 -10  -4   -0.50    3.28
   2  10   4   10.28    4.50
   2  10   4    7.00    3.72
   2  10   4    9.11    4.07
   3  10   4    1.72    4.06
   3  10   4   -0.32    3.11
   3  10   4   -0.87    3.38
   4  10   4    5.34    4.50
  -5  11   4   12.33    4.58
   4 -11  -4  111.86    9.54
  -4  11   4  107.63    8.89
   3 -11  -4   11.76    4.48
  -2  11   4  162.12   10.79
   2 -11  -4  146.29   10.92
   2 -11  -4  156.06   10.79
  -1  11   4   15.23    4.75
   1 -11  -4   11.55    4.21
   1 -11  -4   20.26    5.20
   0  11   4   42.64    6.51
   0  11   4   49.03    6.09
   0 -11  -4   36.27    6.34
   1  11   4   -0.73    3.74
   1  11   4    5.13    3.74
  -1 -11  -4    2.25    4.04
   2  11   4   21.33    6.00
   2  11   4   22.66    5.52
   2  11   4   18.19    4.79
   3  11   4   21.84    5.81
  -4  12   4    2.39    3.45
   3 -12  -4  102.05    9.63
   2 -12  -4   -0.60    3.42
  -2  12   4   -2.41    3.75
  -1  12   4   26.75    5.85
   1 -12  -4   26.11    6.11
   0  12   4    2.12    4.06
   0 -12  -4    1.71    4.23
   1  12   4    6.20    4.93
  -1 -12  -4    7.44    5.26
   1  12   4    3.10    4.09
   2  12   4   23.88    6.54
  -1  13   4    3.00    4.57
   1 -13  -4   -6.99    4.04
   0 -13  -4    1.97    5.11
   0  13   4   -3.29    4.31
   1  15  -5    2.83    4.77
   0 -15   5    8.85    4.98
   1 -15   5    6.43    4.66
   2  14  -5   74.60    9.01
  -2 -14   5   75.74    9.16
  -1 -14   5    3.63    4.37
   1  14  -5    2.95    4.41
   0 -14   5   14.91    5.11
   0 -14   5   28.02    6.30
   0  14  -5   21.69    5.86
   1 -14   5    5.01    4.30
   1 -14   5   15.47    4.83
   2 -14   5   16.63    5.24
   2 -14   5   11.91    4.63
  -2  14  -5   13.12    4.76
   3 -14   5   71.53    8.23
   3  13  -5   46.66    7.71
   3  13  -5   40.86    6.53
  -2 -13   5   19.37    5.88
   2  13  -5   23.34    5.89
  -1 -13   5   55.91    7.69
   1  13  -5   54.13    7.28
   0 -13   5    0.53    3.87
   0 -13   5   -2.20    3.03
   0  13  -5   -0.63    3.51
   1 -13   5    0.69    3.21
   1 -13   5   -0.94    3.48
   1 -13   5    1.55    3.70
  -2  13  -5    6.69    3.99
  -2  13  -5   15.90    4.58
   2 -13   5   10.25    4.48
   2 -13   5   17.48    4.91
   2 -13   5   17.03    4.69
   3 -13   5    0.26    3.38
   3 -13   5    1.17    3.75
   3 -13   5    3.07    3.66
  -3  13  -5    3.87    3.54
  -4  13  -5   88.87    9.33
   4 -13   5   86.58    8.40
   5 -13   5   -0.15    3.67
   4  12  -5    8.52    4.81
  -3 -12   5   57.21    7.33
   3  12  -5   62.41    7.51
   3  12  -5   75.56    8.37
   2  12  -5   61.97    6.76
   2  12  -5   67.99    7.81
  -2 -12   5   66.87    7.75
   1  12  -5   26.04    5.21
  -1 -12   5   14.75    4.45
  -1 -12   5   28.95    5.81
   0 -12   5    1.41    2.99
   0 -12   5   -0.24    3.41
   0 -12   5    1.16    3.01
   0  12  -5    2.38    3.21
   1 -12   5   12.99    4.40
   1 -12   5   14.86    4.75
  -1  12  -5   14.90    4.08
   1 -12   5    6.54    3.69
  -2  12  -5    4.23    3.42
   2 -12   5    8.56    3.54
   2 -12   5   10.45    4.16
   2 -12   5    4.33    3.68
   3 -12   5   73.16    7.52
   3 -12   5   79.32    7.36
  -3  12  -5   79.78    7.87
   3 -12   5   72.34    7.31
  -3  12  -5   74.72    7.49
   4 -12   5    0.19    3.09
  -4  12  -5    2.05    3.45
   4 -12   5   -0.11    3.28
   5 -12   5   35.37    5.53
   4  11  -5  111.21    9.69
   4  11  -5  115.89   10.35
  -3 -11   5   55.73    7.04
   3  11  -5   60.32    7.52
   3  11  -5   70.41    7.33
   2  11  -5   82.40    7.32
  -2 -11   5   75.30    7.65
   2  11  -5   71.73    7.49
   1  11  -5   52.83    5.54
   1  11  -5   60.95    6.50
  -1 -11   5   52.90    6.50
  -1 -11   5   52.10    5.88
   0 -11   5   43.70    5.51
   0  11  -5   37.50    5.20
   0 -11   5   41.18    5.75
   0 -11   5   32.41    4.82
   1 -11   5  133.57    8.96
   1 -11   5  132.98    9.28
   1 -11   5  151.43    9.56
  -1  11  -5  122.70    8.64
   2 -11   5   52.95    5.69
  -2  11  -5   52.85    5.86
  -2  11  -5   39.27    5.05
   2 -11   5   52.12    6.08
   2 -11   5   51.29    5.93
  -3  11  -5   85.74    7.55
  -3  11  -5   75.01    7.36
   3 -11   5   68.96    6.59
   3 -11   5   77.23    7.23
   3 -11   5   77.86    7.07
   4 -11   5    2.89    3.21
   4 -11   5    1.87    2.91
   4 -11   5    1.60    3.10
  -4  11  -5    1.55    3.24
  -5  11  -5   23.13    5.72
   5 -11   5   19.58    4.26
   5 -11   5   19.95    4.39
   5  10  -5   19.59    5.61
   4  10  -5   -3.53    2.95
   4  10  -5    2.34    4.12
   3  10  -5   41.58    5.73
   3  10  -5   42.05    6.07
  -3 -10   5   40.47    5.72
   2  10  -5   79.93    7.45
   2  10  -5   77.51    6.94
  -2 -10   5   80.65    6.58
  -2 -10   5   79.22    7.20
   1  10  -5  203.18   10.96
  -1 -10   5  196.35   11.09
  -1 -10   5  231.85   12.12
   1  10  -5  216.66   12.02
  -1 -10   5  215.12   11.82
   0 -10   5   19.21    4.10
   0  10  -5   15.04    3.84
   0 -10   5   13.40    3.38
   0 -10   5   22.85    4.18
   0  10  -5   15.48    3.36
   1 -10   5   -0.35    2.18
   1 -10   5    1.47    2.62
   1 -10   5   -1.85    2.62
  -1  10  -5    2.02    2.34
  -2  10  -5    0.30    2.33
   2 -10   5    1.86    2.68
   2 -10   5   -1.70    2.59
   2 -10   5   -1.95    2.16
  -2  10  -5    0.56    2.32
   3 -10   5  115.89    8.13
   3 -10   5  123.29    8.12
  -3  10  -5  108.09    8.19
   3 -10   5  117.45    7.78
  -3  10  -5  115.05    8.52
   4 -10   5  296.77   13.86
  -4  10  -5  282.16   15.59
   4 -10   5  284.47   14.27
  -4  10  -5  270.97   15.36
   4 -10   5  282.67   13.62
   5 -10   5   -0.53    2.61
  -5  10  -5    0.15    3.42
   5 -10   5    4.69    3.04
   5 -10   5    1.37    3.09
   6 -10   5    8.78    3.37
  -6  10  -5   12.73    5.07
   6   9  -5    1.31    4.15
   5   9  -5   15.69    3.78
   5   9  -5    7.60    4.16
   5   9  -5    9.86    4.29
   4   9  -5  114.29    9.22
   4   9  -5  107.72    8.50
   3   9  -5   -2.12    2.81
   3   9  -5    5.48    3.53
  -3  -9   5    3.54    3.21
   2   9  -5    1.28    2.49
   2   9  -5    2.90    1.94
  -2  -9   5    2.55    2.86
   2   9  -5    4.22    3.09
  -2  -9   5   -0.24    2.19
   1   9  -5  511.15   20.83
   1   9  -5  516.96   21.38
  -1  -9   5  514.61   21.54
  -1  -9   5  522.17   21.98
  -1  -9   5  508.23   20.95
   0   9  -5  100.90    6.24
   0   9  -5   98.82    6.95
   0  -9   5   83.73    6.31
   0  -9   5   88.36    6.78
   0  -9   5   98.96    7.30
  -1   9  -5   14.51    3.11
   1  -9   5   15.19    3.51
   1  -9   5   14.79    3.56
   1  -9   5   16.16    3.29
   2  -9   5   84.50    6.14
   2  -9   5  101.24    7.00
  -2   9  -5   91.66    6.86
   2  -9   5   97.20    7.00
  -2   9  -5   94.24    6.71
  -2   9  -5  101.77    6.49
   3  -9   5   37.73    4.54
  -3   9  -5   36.98    4.83
   3  -9   5   39.40    4.55
  -3   9  -5   43.93    5.18
   3  -9   5   37.14    4.25
   4  -9   5    3.55    2.68
   4  -9   5   -3.28    2.16
   4  -9   5    0.90    2.39
  -4   9  -5   -1.80    2.38
  -4   9  -5    0.66    2.55
  -5   9  -5  211.98   13.75
  -5   9  -5  237.99   14.24
   5  -9   5  217.05   10.91
   5  -9   5  217.50   10.73
  -6   9  -5   -1.07    3.66
   6  -9   5    1.53    2.53
   6   8  -5    6.38    4.37
   5   8  -5   12.18    4.41
   5   8  -5   13.39    4.30
  -4  -8   5  170.41   10.29
   4   8  -5  162.61   10.64
   4   8  -5  179.58   10.61
   3   8  -5   61.29    5.95
   3   8  -5   78.52    6.72
  -3  -8   5   63.07    6.25
  -3  -8   5   81.92    6.55
  -2  -8   5   13.23    3.18
   2   8  -5   10.75    3.61
   2   8  -5    9.95    2.96
  -2  -8   5    6.99    3.00
  -2  -8   5   14.45    3.10
  -1  -8   5  119.81    7.58
   1   8  -5  130.49    5.71
  -1  -8   5  112.65    7.22
   1   8  -5  105.99    7.66
   1   8  -5  112.45    6.98
  -1  -8   5  102.21    7.35
   0  -8   5  131.45    8.37
   0   8  -5  154.80    8.00
   0  -8   5  144.07    8.28
   0  -8   5  160.92    8.83
   0   8  -5  155.41    8.58
   1  -8   5   97.83    6.99
   1  -8   5  118.18    7.31
  -1   8  -5  119.97    7.03
  -1   8  -5  112.67    6.18
   1  -8   5  104.12    6.69
   2  -8   5  366.99   15.13
   2  -8   5  349.30   14.80
  -2   8  -5  337.80   15.69
  -2   8  -5  345.79   15.54
   2  -8   5  360.76   15.59
  -2   8  -5  369.55   14.45
   3  -8   5   19.72    3.34
   3  -8   5   22.95    3.44
  -3   8  -5   11.20    3.31
   3  -8   5   27.69    3.33
  -3   8  -5   28.07    4.17
   4  -8   5  199.59    9.72
  -4   8  -5  198.47   11.89
   4  -8   5  206.29    9.73
  -4   8  -5  205.33   11.92
   5  -8   5    4.81    2.37
  -5   8  -5    1.08    3.14
  -5   8  -5    0.58    3.31
   5  -8   5    4.75    2.38
   6  -8   5   64.46    5.27
  -6   8  -5   65.62    8.01
   6   7  -5    1.82    3.68
   6   7  -5    3.36    3.57
   5   7  -5    8.59    3.97
   5   7  -5    6.63    3.61
  -4  -7   5  258.76   14.46
  -4  -7   5  243.77   12.34
   4   7  -5  235.56   12.58
   4   7  -5  241.09   12.40
   3   7  -5  628.57   25.50
  -3  -7   5  648.90   29.36
  -3  -7   5  672.27   25.00
   3   7  -5  649.30   25.73
  -3  -7   5  666.78   25.59
  -2  -7   5  228.74   11.39
   2   7  -5  229.16   11.34
   2   7  -5  239.88   11.66
  -2  -7   5  243.70   11.16
  -2  -7   5  244.68   11.71
   1   7  -5  210.35    9.82
   1   7  -5  204.74   10.22
  -1  -7   5  197.70   10.14
  -1  -7   5  207.88   10.39
  -1  -7   5  201.27    9.72
   0  -7   5  629.14   24.41
   0  -7   5  608.84   23.34
   0  -7   5  597.46   23.43
   0   7  -5  633.13   23.38
   0   7  -5  626.41   23.05
   1  -7   5  185.97    9.54
   1  -7   5  183.79    9.10
   1  -7   5  200.42    9.37
  -1   7  -5  183.13    8.34
   1  -7   5  193.27    9.35
  -1   7  -5  203.17    9.22
   2  -7   5  113.63    6.35
   2  -7   5  125.01    6.63
  -2   7  -5  108.97    6.78
  -2   7  -5  109.27    6.98
   2  -7   5  105.80    6.58
   2  -7   5  114.88    6.65
  -2   7  -5  105.71    5.99
   3  -7   5   33.71    2.72
   3  -7   5   29.10    3.49
   3  -7   5   32.20    3.27
  -3   7  -5   32.57    4.24
  -3   7  -5   36.70    4.50
   4  -7   5  178.66    8.59
  -4   7  -5  180.48   10.96
  -4   7  -5  202.34   11.43
   4  -7   5  194.54    8.80
   5  -7   5    0.31    1.86
  -5   7  -5    0.75    2.84
  -5   7  -5    2.13    3.01
  -6   7  -5   14.96    5.08
   6  -7   5   23.76    3.07
   7   6  -5    4.62    3.94
   6   6  -5    3.02    3.66
   6   6  -5    4.97    3.33
   5   6  -5   11.79    3.73
   5   6  -5    7.50    3.35
  -4  -6   5  143.79    9.40
   4   6  -5  121.83    8.20
  -4  -6   5  127.29    8.06
   4   6  -5  116.61    7.76
   3   6  -5  345.74   15.30
  -3  -6   5  361.67   15.07
  -3  -6   5  343.06   14.41
  -3  -6   5  338.38   16.82
   3   6  -5  344.65   15.07
  -3  -6   5  352.71   15.07
   2   6  -5   12.34    2.82
  -2  -6   5   14.54    2.75
   2   6  -5    9.92    3.02
  -2  -6   5    7.62    2.73
  -2  -6   5    9.37    2.54
  -1  -6   5 2733.26   90.82
  -1  -6   5 2550.88   94.24
   1   6  -5 2673.81   89.90
  -1  -6   5 2813.82   90.05
   1   6  -5 2646.62   90.66
   0  -6   5  553.79   21.97
   0  -6   5  600.77   23.16
   0   6  -5  623.25   22.19
   0   6  -5  611.41   21.94
   0  -6   5  597.36   22.22
  -1   6  -5   23.47    2.87
   1  -6   5   21.64    2.66
   1  -6   5   24.71    3.09
   1  -6   5   20.42    2.63
   1  -6   5   20.83    3.01
  -1   6  -5   20.28    2.58
   2  -6   5   35.99    3.22
   2  -6   5   27.94    2.87
   2  -6   5   31.80    3.25
  -2   6  -5   30.83    2.86
  -2   6  -5   31.09    3.48
   2  -6   5   35.79    3.03
   2  -6   5   28.10    3.09
  -2   6  -5   30.00    3.54
   3  -6   5    0.54    1.84
  -3   6  -5    0.48    1.99
   3  -6   5   -0.19    1.48
   3  -6   5    0.94    1.65
  -3   6  -5   -0.39    2.19
   3  -6   5   -1.08    1.36
   4  -6   5  339.31   14.03
   4  -6   5  339.39   12.92
   4  -6   5  336.52   12.95
  -4   6  -5  337.13   16.07
  -4   6  -5  308.43   15.85
  -5   6  -5  183.20   11.94
   5  -6   5  221.37   10.71
   5  -6   5  207.59    8.76
   6  -6   5    1.54    1.63
  -6   6  -5    4.00    3.48
  -7   6  -5    7.53    4.75
   7   5  -5   26.92    5.33
   6   5  -5  121.80    8.99
   6   5  -5  135.44    9.09
  -5  -5   5   22.19    4.53
   5   5  -5   13.52    3.53
   5   5  -5   19.25    4.15
   4   5  -5    3.39    2.49
   4   5  -5    6.13    2.89
  -4  -5   5    1.09    2.32
  -4  -5   5    2.30    2.39
  -3  -5   5 2186.19   71.89
  -3  -5   5 2172.08   71.57
   3   5  -5 2033.00   71.73
  -3  -5   5 2038.27   84.79
  -3  -5   5 2184.81   74.54
   3   5  -5 2012.84   72.20
  -2  -5   5    3.66    1.91
  -2  -5   5   -0.50    1.61
   2   5  -5    2.90    2.07
  -2  -5   5   -0.54    1.93
   2   5  -5    0.03    2.02
  -1  -5   5  643.77   24.85
   1   5  -5  649.33   23.82
   1   5  -5  673.45   24.01
  -1  -5   5  659.46   23.95
  -1  -5   5  650.52   23.98
   0  -5   5 2776.97   93.56
   0  -5   5 2855.59   97.20
   0  -5   5 2802.13   92.64
   0   5  -5 2763.07   93.35
   0  -5   5 2724.48   97.39
   0   5  -5 2825.24   92.54
  -1   5  -5  906.47   32.93
   1  -5   5  963.21   31.87
   1  -5   5  940.80   32.83
   1  -5   5  881.16   31.56
   1  -5   5  901.59   31.52
  -1   5  -5  863.92   32.82
  -1   5  -5  908.80   31.27
   1  -5   5  892.38   32.99
   2  -5   5   34.23    2.78
   2  -5   5   23.91    2.64
  -2   5  -5   31.07    3.37
   2  -5   5   26.91    2.70
   2  -5   5   27.61    2.45
  -2   5  -5   25.56    3.14
   2  -5   5   28.98    2.46
   2  -5   5   27.14    2.33
  -2   5  -5   32.62    2.37
  -3   5  -5  122.25    7.63
   3  -5   5  129.26    6.08
   3  -5   5  119.59    5.80
   3  -5   5  131.48    5.70
   3  -5   5  142.65    6.00
   3  -5   5  128.80    6.44
  -3   5  -5  125.95    7.79
  -4   5  -5  173.39   10.48
   4  -5   5  184.87    7.53
   4  -5   5  192.10    7.56
   4  -5   5  188.63    7.71
   4  -5   5  189.71    9.23
   5  -5   5   62.07    3.47
   5  -5   5   63.52    5.47
  -5   5  -5   60.49    6.64
   6  -5   5  106.98    7.79
  -6   5  -5  108.67    9.38
   7   4  -5   25.27    4.92
   7   4  -5   30.52    5.32
   6   4  -5   80.61    6.66
   6   4  -5   67.29    6.56
   5   4  -5   11.00    3.43
   5   4  -5   12.59    3.27
  -5  -4   5   12.25    3.61
  -4  -4   5  317.49   13.41
   4   4  -5  304.04   13.55
  -4  -4   5  314.26   15.86
   4   4  -5  298.25   13.74
   3   4  -5  553.30   22.13
  -3  -4   5  583.72   22.17
   3   4  -5  582.68   22.40
  -3  -4   5  608.18   21.89
  -3  -4   5  589.83   22.53
  -3  -4   5  545.19   25.49
  -3  -4   5  601.26   22.79
   3   4  -5  600.54   23.24
   3   4  -5  622.51   21.84
  -2  -4   5   22.39    2.68
   2   4  -5   30.43    3.18
   2   4  -5   23.06    3.06
  -2  -4   5   25.29    2.80
  -2  -4   5   27.71    2.76
  -2  -4   5   28.02    3.25
   1   4  -5   -1.44    1.29
  -1  -4   5   -0.83    1.28
  -1  -4   5    0.04    1.20
  -1  -4   5   -0.74    1.40
   1   4  -5    2.56    1.78
   0   4  -5 1228.34   42.34
   0  -4   5 1174.61   41.12
   0   4  -5 1250.43   41.17
   0  -4   5 1176.86   43.15
   0   4  -5 1174.96   41.27
   0  -4   5 1245.75   41.61
   0  -4   5 1214.56   42.97
   0  -4   5 1214.72   41.47
  -1   4  -5  249.68   10.40
  -1   4  -5  246.91    9.69
   1  -4   5  252.78   10.28
  -1   4  -5  247.12   10.46
   1  -4   5  249.85    9.70
  -1   4  -5  254.83    9.27
   1  -4   5  260.79    9.97
   1  -4   5  255.32    9.96
  -2   4  -5  152.82    5.41
  -2   4  -5  141.60    7.41
   2  -4   5  151.18    6.12
   2  -4   5  142.54    6.34
   2  -4   5  139.30    6.25
   2  -4   5  141.77    6.32
  -2   4  -5  129.63    7.25
   2  -4   5  134.90    6.10
   2  -4   5  135.28    5.82
   3  -4   5  409.35   16.20
   3  -4   5  389.48   14.26
   3  -4   5  419.70   19.65
   3  -4   5  400.46   14.45
  -3   4  -5  396.35   17.34
   3  -4   5  404.61   14.35
   3  -4   5  437.58   14.50
   4  -4   5   25.42    1.91
   4  -4   5   28.33    1.83
  -4   4  -5   25.69    4.07
   4  -4   5   27.93    1.90
   4  -4   5   23.91    3.35
   5  -4   5   68.33    5.78
  -5   4  -5   62.45    6.53
   6  -4   5   10.94    3.56
   7   3  -5    3.64    3.33
   7   3  -5    6.59    3.60
   6   3  -5    4.96    3.15
   6   3  -5    1.17    2.55
   5   3  -5   10.12    3.24
   5   3  -5   11.39    3.09
  -4  -3   5    8.23    2.49
   4   3  -5    7.47    2.76
   4   3  -5    9.73    2.61
  -4  -3   5    8.75    2.81
  -3  -3   5 2715.79   89.16
  -3  -3   5 2642.85  106.40
   3   3  -5 2744.44   93.88
  -3  -3   5 2728.55   93.29
   3   3  -5 2592.00   90.27
   3   3  -5 2531.71   89.22
  -3  -3   5 2668.16   89.82
   3   3  -5 2767.03   92.53
  -2  -3   5 2212.01   91.73
  -2  -3   5 2311.13   81.18
   2   3  -5 2364.50   77.54
  -2  -3   5 2385.89   78.18
   2   3  -5 2301.39   78.34
  -2  -3   5 2287.48   77.38
   2   3  -5 2361.97   81.36
   2   3  -5 2355.16   79.97
   1   3  -5  358.34   13.28
  -1  -3   5  330.03   13.18
  -1  -3   5  361.25   13.23
  -1  -3   5  352.02   13.71
   1   3  -5  329.18   13.21
   0   3  -5 3164.12  104.21
   0  -3   5 2910.98  105.39
   0  -3   5 3091.99  101.50
   0   3  -5 2924.54  101.23
   0   3  -5 3119.79  100.18
   0  -3   5 3010.83  100.12
   0  -3   5 3081.47  101.40
   0   3  -5 3089.90  104.93
  -1   3  -5   -0.40    0.68
  -1   3  -5   -0.19    0.80
  -1   3  -5   -0.69    1.13
   1  -3   5    0.25    1.07
   1  -3   5    0.05    1.14
   1  -3   5    0.98    0.99
   1  -3   5   -0.41    1.00
  -1   3  -5    0.68    1.25
   1  -3   5   -1.13    1.05
  -1   3  -5    0.42    1.06
   2  -3   5 2281.56   73.15
   2  -3   5 2245.51   89.21
  -2   3  -5 2205.19   77.88
   2  -3   5 2184.30   73.95
   2  -3   5 2284.94   73.13
   2  -3   5 2303.73   73.97
   2  -3   5 2163.65   77.56
   2  -3   5 2161.20   76.95
  -3   3  -5  270.37   12.73
   3  -3   5  283.83    9.80
   3  -3   5  280.22    9.82
   3  -3   5  270.11   14.19
   3  -3   5  278.30   11.96
  -4   3  -5    2.31    2.47
   4  -3   5    7.00    2.68
  -5   3  -5   16.96    4.01
   5  -3   5   22.59    3.81
   6  -3   5    5.30    3.21
   7   2  -5   11.98    3.89
   7   2  -5    8.35    3.64
   6   2  -5   61.43    5.80
   6   2  -5   68.75    5.92
   5   2  -5   18.71    3.36
   5   2  -5   14.85    3.36
   4   2  -5   -1.26    1.82
   4   2  -5    0.01    2.11
  -4  -2   5    0.52    1.93
  -3  -2   5  452.83   16.59
  -3  -2   5  436.54   16.17
   3   2  -5  413.50   16.54
  -3  -2   5  419.97   18.98
   3   2  -5  435.08   17.29
   3   2  -5  425.98   16.65
   2   2  -5   94.51    5.32
  -2  -2   5   86.63    4.86
  -2  -2   5   93.04    3.91
  -2  -2   5   98.77    5.12
  -2  -2   5   85.72    4.79
  -2  -2   5   94.57    5.02
   2   2  -5   88.90    5.21
  -1  -2   5  144.65    6.46
  -1  -2   5  159.92    6.93
  -1  -2   5  156.94    6.81
   1   2  -5  144.55    6.85
   1   2  -5  157.34    6.82
   1   2  -5  162.82    6.91
  -1  -2   5  152.64    6.60
   0  -2   5 2350.62   77.49
   0   2  -5 2370.21   79.46
   0  -2   5 2319.73   91.37
   0  -2   5 2251.25   80.45
   0   2  -5 2238.07   77.28
   0   2  -5 2346.56   76.51
   0  -2   5 2261.84   76.45
   0  -2   5 2362.65   77.39
   0  -2   5 2393.29   80.02
  -1   2  -5  314.88   10.56
   1  -2   5  292.25   11.05
   1  -2   5  286.17   11.77
   1  -2   5  293.68   11.00
  -1   2  -5  301.46   11.82
   1  -2   5  317.17   11.21
   1  -2   5  303.57   11.57
   1  -2   5  320.87   11.30
   1  -2   5  303.20   13.49
  -1   2  -5  321.43   11.03
   1  -2   5  325.62   12.20
  -1   2  -5  307.57   12.13
   2  -2   5  413.31   14.66
   2  -2   5  388.09   14.01
   2  -2   5  421.32   14.16
   2  -2   5  412.41   14.13
   2  -2   5  406.55   14.17
   2  -2   5  418.68   15.98
   2  -2   5  402.50   18.32
  -2   2  -5  414.38   16.41
   3  -2   5  205.53    9.93
  -3   2  -5  205.57   10.50
   3  -2   5  223.17   11.92
   3  -2   5  216.57    7.54
  -4   2  -5  539.32   22.39
   4  -2   5  529.26   21.87
   5  -2   5  211.29   11.63
   6  -2   5  216.20   12.53
   7   1  -5   97.12    7.68
   7   1  -5  100.76    7.66
   6   1  -5   41.51    4.77
   6   1  -5   39.17    4.60
   5   1  -5  221.03   10.63
   5   1  -5  213.09   10.43
   4   1  -5   -1.23    2.11
  -4  -1   5    4.40    1.53
  -4  -1   5    1.44    2.05
   4   1  -5    4.04    2.26
   4   1  -5    7.60    2.67
   3   1  -5  208.35    9.80
   3   1  -5  189.14    8.90
   3   1  -5  186.20    8.84
   3   1  -5  191.43    8.75
  -3  -1   5  196.30    8.24
  -3  -1   5  187.01    8.51
   2   1  -5  958.36   33.59
   2   1  -5  947.16   33.38
  -2  -1   5  942.52   33.15
   2   1  -5 1020.63   33.33
   2   1  -5  970.61   38.67
  -2  -1   5  926.27   34.58
   2   1  -5  954.95   34.80
  -2  -1   5  998.57   33.42
  -2  -1   5  957.76   33.79
  -1  -1   5  793.60   27.54
   1   1  -5  785.32   28.85
  -1  -1   5  782.88   28.87
   1   1  -5  806.39   27.71
  -1  -1   5  822.63   30.46
   1   1  -5  798.71   27.85
  -1  -1   5  810.11   27.71
   0  -1   5  390.24   15.07
   0  -1   5  392.88   14.42
   0   1  -5  397.64   14.45
   0  -1   5  432.66   14.52
   0   1  -5  402.37   14.55
   0  -1   5  380.12   14.56
   0   1  -5  406.91   14.55
   0  -1   5  425.79   16.54
   0  -1   5  391.81   14.38
   0   1  -5  407.38   14.96
  -1   1  -5   85.87    3.25
  -1   1  -5   87.00    3.83
  -1   1  -5   80.74    4.51
   1  -1   5   82.88    4.10
   1  -1   5   79.59    3.89
  -1   1  -5   81.61    4.42
   1  -1   5   80.78    4.42
  -1   1  -5   81.03    4.68
   1  -1   5   83.23    3.88
   1  -1   5   80.03    5.14
   1  -1   5   79.62    3.85
   1  -1   5   76.69    4.65
   1  -1   5   79.34    3.65
   2  -1   5    7.26    1.21
  -2   1  -5    6.73    1.96
  -2   1  -5   11.02    2.18
   2  -1   5    6.16    1.00
   2  -1   5    6.03    2.02
   2  -1   5    5.97    1.83
   2  -1   5    8.54    1.13
   2  -1   5    7.17    1.03
   3  -1   5  153.76    6.01
   3  -1   5  166.67    9.59
   3  -1   5  156.86    8.33
   3  -1   5  157.83    5.87
   3  -1   5  163.97    5.90
   3  -1   5  155.06    6.01
   4  -1   5   14.84    1.35
   4  -1   5   13.49    3.38
   4  -1   5   13.51    1.41
   5  -1   5    7.88    1.29
   5  -1   5   11.63    3.58
   5  -1   5    8.22    1.54
   6  -1   5  125.58    9.49
   6  -1   5  131.07    5.95
   6  -1   5  120.48    5.69
   7   0  -5    4.05    3.04
   7   0  -5    0.59    2.88
   6   0  -5   13.58    3.37
   6   0  -5   12.30    3.31
   5   0  -5   31.53    3.84
   5   0  -5   23.89    3.49
  -4   0   5    8.32    1.73
   4   0  -5    9.36    2.43
   4   0  -5    4.69    2.32
  -4   0   5    5.81    2.13
  -4   0   5    6.60    1.61
   4   0  -5    5.24    2.64
   4   0  -5    8.85    2.62
  -3   0   5 1797.96   57.92
   3   0  -5 1580.90   58.27
   3   0  -5 1776.66   60.68
   3   0  -5 1753.58   68.65
  -3   0   5 1683.89   60.01
  -3   0   5 1719.60   57.51
   3   0  -5 1652.98   57.82
  -2   0   5 1178.17   43.89
  -2   0   5 1253.63   42.09
   2   0  -5 1184.74   42.23
   2   0  -5 1294.60   49.66
   2   0  -5 1220.55   42.70
  -2   0   5 1246.32   42.35
   2   0  -5 1287.70   44.29
   2   0  -5 1261.17   46.46
  -1   0   5 1047.29   35.04
   1   0  -5 1011.25   36.73
  -1   0   5 1032.26   36.73
   1   0  -5 1040.17   35.17
   1   0  -5 1003.01   39.05
  -1   0   5 1057.09   35.27
   0   0  -5   22.06    2.37
   0   0  -5   24.73    2.25
   0   0  -5   16.33    1.74
   0   0   5   28.46    2.00
   0   0  -5   23.46    1.83
   0   0   5   18.02    1.91
   0   0   5   23.84    2.10
   0   0   5   20.95    2.22
   0   0   5   23.22    2.15
   0   0   5   23.07    1.90
   1   0   5  579.41   19.77
  -1   0  -5  584.01   21.12
  -1   0  -5  538.73   22.80
   1   0   5  561.27   21.09
   1   0   5  539.92   20.37
  -1   0  -5  580.66   19.25
  -1   0  -5  558.75   23.56
   1   0   5  532.83   19.50
  -1   0  -5  575.64   19.45
   1   0   5  595.55   23.01
   1   0   5  550.66   19.50
  -2   0  -5  299.16    9.90
  -2   0  -5  284.74   13.57
   2   0   5  288.72   10.47
   2   0   5  282.35   10.45
   2   0   5  274.60   12.06
   2   0   5  278.29   10.72
   2   0   5  272.96   10.31
   2   0   5  285.41   10.45
   3   0   5  515.51   18.83
   3   0   5  512.65   21.00
  -3   0  -5  518.51   23.85
   3   0   5  526.24   18.22
   3   0   5  546.73   23.91
   3   0   5  512.40   18.08
   3   0   5  507.88   18.19
   3   0   5  536.64   18.18
   4   0   5   21.42    2.15
   4   0   5   17.12    3.63
   4   0   5   22.92    2.01
  -4   0  -5   28.89    4.50
   4   0   5   27.83    2.21
   5   0   5    6.82    1.61
   5   0   5    7.57    1.82
   5   0   5    3.60    3.00
   6   0   5   31.57    3.07
   6   0   5   28.74    2.95
   6   0   5   29.83    5.38
   7  -1  -5  183.61   10.39
   7  -1  -5  182.78   10.49
   6  -1  -5   20.73    3.74
   6  -1  -5   12.46    3.39
   5  -1  -5    1.88    2.17
   5  -1  -5    3.91    2.48
   4  -1  -5    7.22    2.49
  -4   1   5   11.61    2.47
  -4   1   5    7.28    1.65
  -4   1   5    6.12    2.30
   4  -1  -5    6.70    2.54
   4  -1  -5    6.98    2.68
  -3   1   5  119.26    6.28
   3  -1  -5  123.37    6.65
   3  -1  -5  124.30    6.68
  -3   1   5  118.83    6.36
   3  -1  -5  136.14    7.42
  -3   1   5  122.84    5.99
  -3   1   5  132.76    5.98
   3  -1  -5  138.32    6.89
  -2   1   5 3454.73  116.70
   2  -1  -5 3511.13  130.03
  -2   1   5 3501.47  119.59
   2  -1  -5 3493.21  117.12
   2  -1  -5 3502.20  115.74
  -2   1   5 3453.04  121.34
   2  -1  -5 3687.96  121.68
  -2   1   5 3497.31  115.41
  -1   1   5   57.52    3.48
  -1   1   5   62.56    3.66
   1  -1  -5   54.36    3.69
   1  -1  -5   53.61    3.54
   1  -1  -5   50.76    3.46
  -1   1   5   51.45    3.24
   1  -1  -5   59.58    3.66
   0   1   5  295.28   11.20
   0   1   5  302.37   11.48
   0   1   5  313.71   11.56
   0   1   5  280.53   11.29
   0  -1  -5  305.39   11.47
   0  -1  -5  292.09   12.85
   0   1   5  295.15   11.75
   0  -1  -5  301.59   12.01
   0  -1  -5  301.86   11.34
  -1  -1  -5   31.61    2.45
   1   1   5   33.03    2.55
   1   1   5   28.30    2.34
  -1  -1  -5   39.88    3.55
   1   1   5   34.63    2.72
  -1  -1  -5   31.76    2.93
   1   1   5   32.79    2.63
   1   1   5   31.30    2.53
   2   1   5    0.40    1.12
  -2  -1  -5   -2.10    1.50
   2   1   5   -0.29    1.10
   2   1   5   -0.29    1.23
   2   1   5    0.83    1.78
  -2  -1  -5    0.34    1.83
  -2  -1  -5    1.08    1.05
   2   1   5    0.31    1.43
   3   1   5  366.21   13.99
   3   1   5  334.88   15.72
   3   1   5  345.17   13.45
   3   1   5  391.31   13.70
   3   1   5  352.99   13.55
  -3  -1  -5  390.39   18.11
  -4  -1  -5  288.32   15.72
   4   1   5  290.09   11.22
   4   1   5  275.32   11.34
   4   1   5  282.50   10.99
   4   1   5  274.92   13.76
   5   1   5   -2.14    2.41
   5   1   5    2.28    1.80
   5   1   5    3.45    1.59
   5   1   5    2.88    1.79
   6   1   5    0.91    2.04
   6   1   5    0.69    1.86
   7  -2  -5   16.61    3.94
   7  -2  -5    8.97    3.59
   6  -2  -5   40.50    4.65
   6  -2  -5   38.62    4.64
  -5   2   5   22.12    3.26
   5  -2  -5   19.57    3.45
  -5   2   5   16.60    3.44
   5  -2  -5   19.96    3.36
  -4   2   5    3.26    1.92
  -4   2   5    2.38    2.00
   4  -2  -5    0.91    2.13
  -4   2   5    4.47    2.03
   4  -2  -5    2.00    2.37
   4  -2  -5    2.34    2.33
  -3   2   5  248.66    9.80
   3  -2  -5  263.13   11.01
  -3   2   5  242.44   10.21
  -3   2   5  236.58    9.82
   3  -2  -5  233.57   10.69
   3  -2  -5  215.93   10.29
  -2   2   5   24.07    2.49
  -2   2   5   25.71    2.03
  -2   2   5   24.47    2.70
   2  -2  -5   17.17    2.47
   2  -2  -5   25.19    2.95
   2  -2  -5   26.51    2.79
  -2   2   5   21.91    2.27
  -1   2   5 1538.85   52.59
   1  -2  -5 1607.63   52.92
   1  -2  -5 1604.02   53.34
  -1   2   5 1582.58   53.01
  -1   2   5 1502.02   55.11
   1  -2  -5 1556.90   59.24
   0  -2  -5  773.53   29.95
   0   2   5  720.41   27.47
   0   2   5  764.39   26.44
   0  -2  -5  782.45   26.57
   0   2   5  731.89   26.36
   1   2   5 2621.90   89.21
   1   2   5 2390.17   89.59
   1   2   5 2623.17   84.82
   1   2   5 2775.26   86.06
  -1  -2  -5 2601.47   85.51
   1   2   5 2463.40   85.69
  -1  -2  -5 2472.06   96.69
   2   2   5    7.84    1.80
  -2  -2  -5    9.28    1.12
  -2  -2  -5    7.99    1.81
   2   2   5    9.15    1.90
  -2  -2  -5    6.95    2.49
   2   2   5    6.68    1.98
   2   2   5    8.32    1.85
  -2  -2  -5    7.24    2.50
   2   2   5   10.04    2.52
   3   2   5  215.01    9.23
  -3  -2  -5  208.99   11.53
   3   2   5  223.62   11.20
  -3  -2  -5  223.46   12.35
   3   2   5  211.81    9.36
   3   2   5  206.45    9.11
   4   2   5   77.05    4.76
   4   2   5   72.76    4.75
  -4  -2  -5   71.47    6.99
   4   2   5   75.36    6.52
   4   2   5   74.35    4.81
   5   2   5   12.54    2.60
   5   2   5   13.27    3.79
   5   2   5   16.70    2.66
   5   2   5   10.49    2.49
   6   2   5  176.21    9.05
   6   2   5  159.92    8.56
   7   2   5  104.77    6.87
   7  -3  -5   19.58    4.10
   7  -3  -5   19.56    4.17
   6  -3  -5  103.28    7.23
   6  -3  -5  114.68    7.57
  -6   3   5  112.90    8.48
   5  -3  -5   86.52    6.42
  -5   3   5   93.39    6.31
  -5   3   5   97.57    7.07
   5  -3  -5   97.87    6.50
  -4   3   5    3.55    1.91
  -4   3   5    3.39    2.14
   4  -3  -5    3.19    2.49
  -4   3   5    1.98    1.88
   4  -3  -5    4.43    2.32
  -3   3   5   98.74    5.17
  -3   3   5   86.43    5.59
   3  -3  -5   87.19    5.90
   3  -3  -5   90.52    6.20
  -3   3   5  101.95    5.25
   3  -3  -5  107.22    6.22
  -2   3   5   40.03    3.32
  -2   3   5   35.05    3.25
   2  -3  -5   34.45    3.48
  -2   3   5   36.52    3.03
   2  -3  -5   33.65    3.28
  -1   3   5    4.07    1.78
  -1   3   5    4.93    1.65
  -1   3   5    3.46    1.53
   1  -3  -5    4.37    1.81
   1  -3  -5    5.81    1.79
   0  -3  -5    1.91    1.51
   0   3   5    3.03    1.74
   0   3   5    4.87    1.68
   0  -3  -5    0.00    1.26
   0  -3  -5    3.08    1.77
   0   3   5    1.98    1.53
  -1  -3  -5  360.85   13.90
   1   3   5  354.21   14.15
   1   3   5  369.82   14.41
  -1  -3  -5  365.17   16.48
   1   3   5  382.07   15.34
   1   3   5  364.79   14.71
   2   3   5  762.90   27.98
  -2  -3  -5  771.78   28.00
   2   3   5  758.03   28.08
  -2  -3  -5  786.66   33.97
  -2  -3  -5  809.20   27.19
   2   3   5  843.03   28.43
   2   3   5  773.83   30.11
  -2  -3  -5  754.33   32.44
   2   3   5  813.13   29.26
   3   3   5   10.70    2.26
   3   3   5    4.81    2.27
  -3  -3  -5   11.05    3.34
   3   3   5    7.87    2.89
   3   3   5    9.83    2.37
  -3  -3  -5   13.04    3.23
  -4  -3  -5   57.74    6.62
   4   3   5   65.25    4.97
  -4  -3  -5   59.30    6.23
   4   3   5   60.62    4.61
   4   3   5   59.71    4.68
   4   3   5   72.79    6.60
   5   3   5   -1.05    2.00
   5   3   5    0.87    3.20
   5   3   5   -2.92    2.13
   5   3   5   -1.41    2.13
   6   3   5   12.46    3.28
   6   3   5   14.27    3.48
   7  -4  -5   82.80    7.19
   7  -4  -5   77.61    6.73
   6  -4  -5   41.29    4.81
   6  -4  -5   27.49    4.35
  -6   4   5   35.95    5.45
  -5   4   5   -1.29    2.23
  -5   4   5    1.05    2.11
   5  -4  -5    1.99    2.49
   5  -4  -5    1.78    2.36
  -4   4   5   80.89    5.28
  -4   4   5   87.48    5.57
   4  -4  -5   80.93    5.86
  -4   4   5   79.18    5.86
   4  -4  -5   68.49    5.60
   3  -4  -5   38.82    3.98
  -3   4   5   50.06    3.72
  -3   4   5   48.64    3.86
   3  -4  -5   41.78    4.44
  -3   4   5   50.68    4.11
   3  -4  -5   38.71    4.08
  -3   4   5   49.83    3.74
   3  -4  -5   36.79    3.98
   2  -4  -5 1601.91   55.33
   2  -4  -5 1597.65   55.32
  -2   4   5 1608.76   54.47
  -2   4   5 1599.81   56.91
  -2   4   5 1587.94   54.65
   1  -4  -5    2.54    1.86
  -1   4   5    9.01    2.16
  -1   4   5    7.93    1.98
  -1   4   5    6.05    2.28
   0  -4  -5  956.60   38.41
   0  -4  -5  985.26   34.16
   0   4   5  966.97   34.01
   0   4   5  950.07   35.38
   0  -4  -5  967.46   34.09
   0   4   5  951.73   34.07
  -1  -4  -5   97.09    5.65
  -1  -4  -5   98.77    6.82
   1   4   5  108.13    6.70
   1   4   5  109.68    6.19
   1   4   5  100.10    6.05
  -1  -4  -5  102.23    5.88
  -1  -4  -5  101.41    5.62
   1   4   5  100.82    6.18
   2   4   5  247.94   11.16
   2   4   5  248.43   10.99
   2   4   5  243.18   11.15
   2   4   5  255.71   12.07
  -2  -4  -5  253.64   13.32
  -2  -4  -5  244.30   10.27
  -2  -4  -5  233.27   12.80
  -3  -4  -5    0.69    2.50
  -3  -4  -5    6.92    3.03
   3   4   5    5.91    2.66
   3   4   5    4.88    2.38
   3   4   5    8.61    3.12
   3   4   5    4.94    2.22
   4   4   5   33.52    4.11
   4   4   5   32.33    4.04
   4   4   5   28.40    3.62
  -4  -4  -5   27.55    4.88
   4   4   5   38.94    5.32
   5   4   5   -1.67    2.52
   5   4   5   -0.74    3.21
   5   4   5    0.29    2.15
   5   4   5   -1.23    2.46
   6   4   5    1.67    2.78
   7  -5  -5   20.99    4.63
   7  -5  -5   27.90    4.76
   6  -5  -5   73.82    6.58
  -6   5   5   75.79    7.60
   6  -5  -5   80.47    6.82
  -5   5   5   -3.66    1.86
   5  -5  -5    0.26    2.37
   5  -5  -5   -0.53    2.48
  -5   5   5    0.05    2.46
  -4   5   5   10.93    2.61
   4  -5  -5    4.70    2.58
   4  -5  -5    8.53    2.91
  -4   5   5   10.61    2.51
   4  -5  -5   10.22    3.31
  -3   5   5    3.30    2.15
   3  -5  -5    1.00    2.05
  -3   5   5    0.74    1.62
  -3   5   5    4.27    1.89
  -3   5   5    0.11    1.54
   3  -5  -5    2.44    2.20
  -2   5   5   77.40    5.16
   2  -5  -5   77.53    5.68
  -2   5   5   72.51    5.68
  -2   5   5   83.65    5.40
   1  -5  -5 1492.39   56.41
  -1   5   5 1623.51   55.96
  -1   5   5 1711.93   56.35
  -1   5   5 1697.59   58.55
   0  -5  -5  147.33    8.26
   0   5   5  152.83    7.74
   0  -5  -5  146.98    7.74
   0   5   5  139.41    7.75
   0   5   5  156.50    8.12
  -1  -5  -5  447.91   17.32
   1   5   5  430.18   18.19
  -1  -5  -5  454.13   17.67
   1   5   5  460.16   18.06
   1   5   5  438.79   17.63
  -1  -5  -5  460.09   17.43
  -1  -5  -5  444.79   18.01
  -1  -5  -5  415.23   20.02
   2   5   5    3.65    2.57
  -2  -5  -5    2.15    2.51
   2   5   5   -0.38    1.86
   2   5   5    1.09    1.87
   2   5   5    0.08    2.33
  -3  -5  -5  130.53    9.51
   3   5   5  124.22    7.78
   3   5   5  135.26    8.90
   3   5   5  150.88    8.29
   3   5   5  137.29    8.32
  -3  -5  -5  143.12   10.01
   4   5   5  148.32    8.62
   4   5   5  143.71    8.63
   4   5   5  137.48    8.58
   4   5   5  141.48    9.85
  -4  -5  -5  153.96   10.60
   5   5   5   35.63    4.72
   5   5   5   31.73    4.42
   5   5   5   35.17    4.80
   7  -6  -5   25.15    4.90
  -6   6   5    2.45    3.60
   6  -6  -5    2.42    3.09
   6  -6  -5    4.71    3.38
  -5   6   5   16.67    3.50
   5  -6  -5   13.62    3.70
  -5   6   5   22.46    4.52
   5  -6  -5   16.64    3.98
   4  -6  -5  100.47    7.35
   4  -6  -5   90.27    6.88
  -4   6   5  104.49    6.54
  -4   6   5   94.63    6.26
   4  -6  -5   98.03    7.04
   3  -6  -5  143.26    8.33
  -3   6   5  138.04    7.72
  -3   6   5  135.80    7.53
  -2   6   5   48.86    4.74
  -2   6   5   59.53    4.71
   2  -6  -5   57.40    5.10
  -2   6   5   56.35    4.67
   1  -6  -5  163.45    9.25
  -1   6   5  206.65    9.23
  -1   6   5  168.01    9.09
   1  -6  -5  157.40    8.90
  -1   6   5  164.21    8.87
   0  -6  -5  682.44   26.06
   0   6   5  692.96   26.87
   0   6   5  672.09   25.77
   0   6   5  656.71   25.92
   0  -6  -5  716.41   26.07
  -1  -6  -5   12.93    2.84
  -1  -6  -5   15.05    3.60
  -1  -6  -5   14.91    3.19
  -1  -6  -5   15.24    2.76
   1   6   5   15.04    3.52
   1   6   5   11.10    2.95
   1   6   5   12.14    2.92
  -2  -6  -5 1113.91   46.34
   2   6   5 1148.21   42.61
   2   6   5 1159.35   42.36
   2   6   5 1080.44   40.52
   2   6   5 1089.19   40.54
  -2  -6  -5 1126.14   40.00
   3   6   5   97.11    7.26
   3   6   5  103.71    7.15
  -3  -6  -5  102.68    8.40
   3   6   5   95.16    6.99
   3   6   5   90.77    7.60
   4   6   5   21.32    4.13
   4   6   5   14.70    4.61
   4   6   5   21.54    3.95
   4   6   5   16.63    4.09
  -4  -6  -5   13.36    4.39
  -5  -6  -5   11.15    4.87
   5   6   5   15.16    4.27
   5   6   5   17.86    4.22
   7  -7  -5    4.81    3.99
   6  -7  -5   36.16    5.45
   6  -7  -5   32.02    5.27
  -5   7   5   21.81    4.65
   5  -7  -5   16.43    4.20
   5  -7  -5   21.64    4.51
  -5   7   5   19.09    3.85
   5  -7  -5   16.51    4.25
   4  -7  -5   66.38    6.04
   4  -7  -5   65.44    6.03
  -4   7   5   72.35    5.72
   3  -7  -5   89.69    6.99
  -3   7   5  106.68    7.10
  -2   7   5   57.57    4.90
  -2   7   5   60.06    5.44
  -2   7   5   60.69    5.11
   2  -7  -5   57.77    5.45
   1  -7  -5   53.18    4.94
  -1   7   5   35.65    4.15
  -1   7   5   42.05    4.75
   1  -7  -5   38.24    4.81
  -1   7   5   47.23    4.61
   0   7   5  628.77   23.86
   0  -7  -5  572.21   23.54
   0  -7  -5  620.83   24.06
   0   7   5  594.68   24.03
   0   7   5  604.87   24.53
   1   7   5  129.08    8.06
  -1  -7  -5  116.80    7.80
  -1  -7  -5  123.74    9.01
   1   7   5  125.41    7.86
   1   7   5  118.41    8.33
  -1  -7  -5  128.45    7.58
  -2  -7  -5   30.26    4.43
  -2  -7  -5   32.22    5.29
   2   7   5   40.81    4.95
   2   7   5   37.86    4.70
   2   7   5   29.68    4.77
   2   7   5   30.93    4.42
   3   7   5   31.77    5.31
   3   7   5   46.60    5.31
  -3  -7  -5   40.29    6.08
   3   7   5   45.29    5.69
   3   7   5   43.13    5.31
   4   7   5    1.55    2.66
  -4  -7  -5   -5.43    3.03
   4   7   5    2.29    3.31
   4   7   5    2.49    4.08
   4   7   5    1.85    3.34
   5   7   5   -0.41    3.35
   7  -8  -5   21.69    5.17
   6  -8  -5    9.66    4.12
   6  -8  -5   22.54    5.06
   5  -8  -5   11.43    4.25
   5  -8  -5   21.39    4.63
   5  -8  -5   15.69    4.40
  -5   8   5   21.84    4.33
  -5   8   5   20.14    5.03
   4  -8  -5   23.54    4.41
  -4   8   5   21.69    3.78
   4  -8  -5   20.20    4.19
   3  -8  -5   60.79    6.09
  -3   8   5   64.79    6.04
   2  -8  -5   38.65    4.96
  -2   8   5   35.00    4.71
  -2   8   5   34.63    4.26
  -1   8   5  394.52   17.48
   1  -8  -5  373.98   17.54
  -1   8   5  390.14   16.92
  -1   8   5  410.71   17.72
   1  -8  -5  392.09   17.50
   0   8   5    9.58    3.07
   0  -8  -5    7.01    2.93
   0   8   5    8.97    3.52
   0   8   5   10.57    3.37
   0  -8  -5    7.39    3.41
   1   8   5  182.54   10.48
   1   8   5  182.95   10.27
  -1  -8  -5  190.85   10.59
  -1  -8  -5  190.71   11.99
   1   8   5  156.94   10.31
  -2  -8  -5    8.80    3.39
   2   8   5    7.43    3.71
   2   8   5    6.94    3.25
  -2  -8  -5    9.54    3.88
   2   8   5    4.70    3.25
  -3  -8  -5   65.87    7.84
   3   8   5   54.85    6.59
   3   8   5   71.58    7.42
   3   8   5   52.12    6.14
   3   8   5   59.04    6.44
   4   8   5   19.31    4.77
   4   8   5   14.60    4.75
   5   8   5    1.97    4.07
   6  -9  -5    9.80    4.63
   5  -9  -5   42.47    6.23
  -5   9   5   56.21    6.14
   5  -9  -5   51.62    6.81
   5  -9  -5   50.58    6.46
  -4   9   5   10.08    3.44
   4  -9  -5    6.68    3.45
   4  -9  -5   10.95    3.83
   3  -9  -5    7.95    3.43
  -3   9   5   12.02    3.84
  -2   9   5    1.20    2.93
   2  -9  -5    0.39    2.52
   1  -9  -5   52.37    5.84
  -1   9   5   65.40    6.49
  -1   9   5   72.37    6.27
   1  -9  -5   62.26    6.75
   0   9   5  378.74   17.43
   0   9   5  362.73   17.21
   0   9   5  367.39   16.85
   0  -9  -5  357.57   16.74
   0  -9  -5  341.05   16.96
  -1  -9  -5   12.15    3.85
   1   9   5   -0.13    2.71
   1   9   5    3.68    2.92
   1   9   5    6.09    3.86
  -1  -9  -5    7.38    3.80
   2   9   5   43.82    5.90
  -2  -9  -5   28.45    6.04
   2   9   5   41.05    6.28
   2   9   5   35.72    5.44
   3   9   5   -0.52    3.27
   3   9   5   -0.49    3.12
   3   9   5    0.42    3.51
   4   9   5    3.96    4.43
   5 -10  -5    1.41    3.84
   4 -10  -5   14.67    4.55
   4 -10  -5   22.67    5.10
  -4  10   5   19.69    4.40
  -3  10   5   30.92    5.34
   3 -10  -5   12.23    4.34
  -2  10   5    1.76    3.36
   2 -10  -5    0.87    3.16
  -1  10   5    8.84    4.02
   1 -10  -5   14.77    4.56
   1 -10  -5   15.95    4.28
   0  10   5   41.58    6.14
   0 -10  -5   48.39    6.55
   0  10   5   34.64    5.50
   1  10   5   12.89    4.28
   1  10   5   21.92    4.90
  -1 -10  -5   24.80    5.27
   1  10   5   31.51    5.91
   2  10   5   38.48    6.06
   2  10   5   25.73    5.78
   2  10   5   31.19    5.64
   3  10   5  134.08   10.79
   5 -11  -5   23.05    6.08
   4 -11  -5  106.78    9.66
  -4  11   5  109.41    8.92
   3 -11  -5   54.31    7.11
   2 -11  -5    1.87    3.73
  -2  11   5    4.14    3.86
  -1  11   5    5.91    3.96
   0 -11  -5   57.40    7.75
   0  11   5   57.75    7.28
   0  11   5   53.89    6.56
   1  11   5   50.29    7.28
   1  11   5   61.48    7.36
  -1 -11  -5   65.23    7.99
   2  11   5   -4.84    3.59
   2  11   5   -2.67    3.49
  -4  12   5   16.00    4.70
   3 -12  -5    3.17    4.07
  -2  12   5    0.27    4.03
   2 -12  -5   13.17    4.70
  -1  12   5    8.73    4.98
   0  12   5   82.69    8.81
   1  12   5    4.33    4.60
   1  12   5    2.16    4.20
  -1  13   5   14.46    5.86
   0  13   5   14.45    5.89
   1  15  -6    0.85    4.68
   0 -15   6    3.42    4.68
   1 -15   6   35.78    7.09
  -2 -14   6   93.13    9.94
   2  14  -6   77.27    9.18
   1  14  -6   38.15    6.87
  -1 -14   6   54.63    7.76
   0 -14   6  127.13   10.64
   0 -14   6  148.45   11.65
   0  14  -6  154.08   11.01
   1 -14   6    8.60    4.47
   1 -14   6   19.68    5.27
   1 -14   6    8.76    4.64
   2 -14   6   55.66    7.70
   2 -14   6   69.07    7.89
  -2  14  -6   75.65    8.09
   3 -14   6    9.76    4.76
   3  13  -6   15.39    5.65
  -3 -13   6   37.57    6.85
  -2 -13   6   68.51    8.40
   2  13  -6   51.74    7.58
   1  13  -6    0.78    3.71
  -1 -13   6    4.69    3.89
  -1 -13   6   -3.97    3.24
   0  13  -6   54.32    6.85
   0 -13   6   44.21    6.38
   0 -13   6   53.25    7.16
   1 -13   6  248.12   14.36
   1 -13   6  241.59   14.71
   1 -13   6  275.04   15.17
   2 -13   6  137.71   10.10
   2 -13   6  130.52   10.28
   2 -13   6  141.56   10.42
  -2  13  -6  139.94    9.99
  -2  13  -6  131.19   10.07
  -3  13  -6   15.18    4.64
   3 -13   6   21.03    4.93
   3 -13   6    7.34    4.41
  -4  13  -6    2.00    3.73
   4 -13   6    2.49    3.78
   5 -13   6   -1.58    3.72
   4  12  -6   -1.94    4.28
  -3 -12   6   10.67    4.68
   3  12  -6   13.89    5.35
   3  12  -6   11.77    4.63
   2  12  -6   57.46    6.53
  -2 -12   6   53.65    7.29
   2  12  -6   44.08    6.70
  -1 -12   6   19.18    4.46
   1  12  -6   13.50    4.62
  -1 -12   6    8.46    4.32
   0 -12   6  143.11   10.08
   0 -12   6  123.65    9.80
   0 -12   6  117.69    9.23
   0  12  -6  134.29    9.46
  -1  12  -6   64.06    6.44
   1 -12   6   60.29    7.08
   1 -12   6   74.76    7.40
   1 -12   6   65.68    6.94
  -2  12  -6  244.32   14.04
  -2  12  -6  249.69   13.68
   2 -12   6  238.24   13.72
   2 -12   6  285.59   14.86
   2 -12   6  266.92   13.94
   3 -12   6   96.17    8.41
  -3  12  -6   92.98    8.57
   3 -12   6   85.85    7.80
   3 -12   6   84.17    7.69
  -3  12  -6   83.95    8.10
   4 -12   6   35.68    5.45
   4 -12   6   33.68    5.30
  -4  12  -6   35.25    6.16
   5 -12   6    5.76    3.73
   4  11  -6    7.25    4.43
   4  11  -6   11.22    5.12
   3  11  -6    8.16    4.84
   3  11  -6    6.17    3.97
  -3 -11   6    2.23    3.84
   2  11  -6  103.33    8.13
   2  11  -6   92.15    8.49
  -2 -11   6   94.72    8.38
  -1 -11   6  164.23   10.41
  -1 -11   6  139.35    9.80
   1  11  -6  137.78    9.06
   1  11  -6  134.97    9.71
  -1 -11   6  145.95    9.57
   0 -11   6    6.44    3.41
   0 -11   6    5.13    3.01
   0 -11   6    4.76    3.26
   0  11  -6   13.11    3.73
   1 -11   6    0.25    2.92
   1 -11   6   -1.71    2.26
   1 -11   6   -1.53    2.50
  -1  11  -6   -2.21    2.25
   2 -11   6   29.28    4.85
   2 -11   6   27.20    4.43
   2 -11   6   17.73    4.30
  -2  11  -6   21.76    4.34
  -2  11  -6   23.77    4.16
   3 -11   6   -0.09    2.62
  -3  11  -6    1.22    2.89
  -3  11  -6   -0.77    2.63
   3 -11   6    3.00    3.18
   3 -11   6    5.88    3.42
  -4  11  -6    2.26    3.26
   4 -11   6    2.68    2.86
   4 -11   6   -2.67    2.76
   4 -11   6    1.92    3.16
   5 -11   6   10.13    3.65
   5 -11   6    2.02    3.36
  -5  11  -6    5.20    4.08
   5  10  -6    0.58    4.14
   4  10  -6  114.45    9.71
   4  10  -6  119.75    9.28
  -3 -10   6    5.47    3.57
   3  10  -6    0.03    3.34
   3  10  -6    2.31    3.21
  -2 -10   6   -1.00    2.81
  -2 -10   6    0.04    2.56
   2  10  -6   -3.03    2.40
   2  10  -6   -3.68    2.49
  -1 -10   6  101.36    8.11
  -1 -10   6  125.31    8.60
  -1 -10   6  122.50    8.01
   1  10  -6  125.63    8.05
   1  10  -6  124.30    8.64
   0 -10   6  222.82   12.35
   0 -10   6  234.93   12.12
   0  10  -6  240.25   11.57
   0  10  -6  234.77   12.37
   0 -10   6  266.36   13.19
  -1  10  -6  349.45   15.38
   1 -10   6  335.83   15.58
   1 -10   6  331.19   15.81
   1 -10   6  360.20   16.45
   2 -10   6   81.93    6.24
   2 -10   6   77.20    6.51
  -2  10  -6   83.73    6.53
   2 -10   6   88.64    6.88
  -2  10  -6   70.22    6.45
   3 -10   6  155.09    9.49
  -3  10  -6  144.74    9.79
  -3  10  -6  143.95    9.58
   3 -10   6  155.01    9.21
   3 -10   6  149.56    8.82
  -4  10  -6    1.42    3.02
   4 -10   6    2.25    3.03
   4 -10   6   -3.27    2.63
   4 -10   6   -0.94    2.39
  -4  10  -6   -1.92    3.07
   5 -10   6    8.39    3.21
   5 -10   6    8.38    3.22
  -5  10  -6    6.64    4.03
   5 -10   6    7.42    3.43
   6   9  -6   33.77    6.64
   5   9  -6   23.96    5.59
   5   9  -6   22.75    5.23
   4   9  -6   25.47    4.86
   4   9  -6   36.95    5.94
   3   9  -6  328.81   16.25
   3   9  -6  323.89   15.71
  -3  -9   6  348.50   16.22
   2   9  -6   12.53    3.37
  -2  -9   6   11.70    3.25
  -2  -9   6    5.53    2.88
   2   9  -6   12.48    4.07
  -2  -9   6   11.43    3.61
   1   9  -6  136.22    8.16
  -1  -9   6  147.26    8.92
  -1  -9   6  117.66    7.93
  -1  -9   6  144.27    8.89
   1   9  -6  150.32    8.97
   0  -9   6    8.08    2.81
   0  -9   6    3.71    2.74
   0   9  -6    3.94    2.67
   0   9  -6    4.86    2.48
   0  -9   6   -1.10    2.53
   1  -9   6  311.28   14.58
  -1   9  -6  329.61   14.09
   1  -9   6  321.47   14.34
   1  -9   6  323.07   15.01
   2  -9   6  330.60   15.04
  -2   9  -6  337.70   15.33
   2  -9   6  310.57   14.24
  -2   9  -6  303.21   14.65
   2  -9   6  326.64   14.32
   3  -9   6  407.64   17.15
   3  -9   6  415.64   17.35
  -3   9  -6  423.61   18.86
  -3   9  -6  387.51   18.73
   3  -9   6  423.20   18.11
  -4   9  -6   48.63    6.15
   4  -9   6   45.91    4.74
   4  -9   6   42.05    4.42
  -4   9  -6   44.43    5.85
   4  -9   6   37.67    4.59
   5  -9   6    1.00    2.59
   5  -9   6   -0.23    2.35
  -5   9  -6   -2.95    2.98
   6  -9   6    7.45    2.89
  -6   9  -6    0.75    3.97
   6   8  -6   26.59    5.87
   5   8  -6   28.81    5.33
   5   8  -6   36.27    5.93
   4   8  -6   20.13    4.75
  -4  -8   6   20.74    4.52
  -4  -8   6   24.47    4.90
   4   8  -6   13.49    4.00
  -3  -8   6  181.63   11.00
   3   8  -6  150.94    9.66
   3   8  -6  176.86   10.41
  -3  -8   6  192.29   10.50
  -2  -8   6   66.39    5.58
   2   8  -6   54.68    5.67
  -2  -8   6   77.49    6.21
   2   8  -6   58.34    5.40
  -2  -8   6   59.99    5.71
   1   8  -6  129.63    7.51
  -1  -8   6  129.12    7.57
  -1  -8   6  129.68    8.04
  -1  -8   6  130.12    8.06
   1   8  -6  125.26    8.00
   0  -8   6  252.38   12.17
   0   8  -6  261.84   12.07
   0  -8   6  247.86   12.41
   0   8  -6  279.15   11.69
   0  -8   6  248.11   11.84
  -1   8  -6   15.62    2.49
  -1   8  -6   13.33    2.59
   1  -8   6   14.48    2.88
   1  -8   6   15.11    3.32
   1  -8   6   18.26    3.43
  -1   8  -6   24.09    3.41
   2  -8   6  105.70    6.50
   2  -8   6  121.22    7.17
  -2   8  -6  124.27    7.59
  -2   8  -6  128.95    6.72
  -2   8  -6  104.63    6.96
   2  -8   6  111.95    7.15
   3  -8   6  603.63   23.27
   3  -8   6  593.70   24.30
  -3   8  -6  615.75   25.57
  -3   8  -6  621.82   25.71
   3  -8   6  646.80   23.50
  -4   8  -6   40.91    5.70
   4  -8   6   45.42    4.30
   4  -8   6   44.78    4.09
   4  -8   6   45.74    4.43
  -4   8  -6   47.59    5.84
  -5   8  -6   67.99    7.64
   5  -8   6   84.16    5.56
   5  -8   6   83.76    5.84
  -5   8  -6   54.99    7.28
   6  -8   6   -0.41    2.19
   6  -8   6    1.12    2.45
  -6   8  -6    2.09    3.98
   6   7  -6  203.04   12.70
   6   7  -6  235.38   13.44
   5   7  -6   39.25    5.37
   5   7  -6   51.66    6.36
  -4  -7   6  123.04    8.23
   4   7  -6   98.92    7.48
  -4  -7   6  114.83    8.50
   4   7  -6  112.22    8.14
   3   7  -6   19.10    3.68
  -3  -7   6   23.48    3.82
  -3  -7   6   18.65    3.86
   3   7  -6   14.91    3.69
  -3  -7   6   18.48    3.40
   2   7  -6   19.52    3.78
  -2  -7   6   18.49    3.56
   2   7  -6   26.74    3.72
  -2  -7   6   23.97    3.65
  -2  -7   6   26.39    3.46
   1   7  -6  444.89   17.95
   1   7  -6  428.76   17.51
  -1  -7   6  439.09   18.55
  -1  -7   6  443.30   18.04
  -1  -7   6  435.18   17.75
   0   7  -6  806.68   29.47
   0  -7   6  803.03   29.55
   0  -7   6  794.65   29.64
   0   7  -6  796.49   29.09
   0  -7   6  826.77   31.01
   1  -7   6  162.70    8.34
  -1   7  -6  187.90    8.69
  -1   7  -6  175.51    7.69
   1  -7   6  185.53    8.85
   1  -7   6  161.89    8.73
  -1   7  -6  154.55    8.18
   1  -7   6  173.22    8.87
   2  -7   6   94.98    6.34
   2  -7   6  101.64    6.28
   2  -7   6  101.62    5.96
  -2   7  -6  105.97    5.85
  -2   7  -6  123.00    7.18
  -2   7  -6  110.59    6.83
  -3   7  -6  220.91   11.79
   3  -7   6  228.96   10.04
   3  -7   6  230.41   10.56
   3  -7   6  240.64   10.28
  -3   7  -6  217.40   11.59
  -4   7  -6   92.77    7.62
   4  -7   6  110.15    6.09
  -4   7  -6  109.36    8.30
   4  -7   6  102.06    5.87
   4  -7   6  114.80    6.40
  -5   7  -6   42.85    6.05
   5  -7   6   34.57    3.41
  -6   7  -6  127.95   10.72
   6  -7   6  115.46    6.37
   7   6  -6   20.19    5.44
   6   6  -6   17.31    4.74
   6   6  -6   17.19    4.55
   5   6  -6  257.72   13.62
  -5  -6   6  266.21   15.40
   5   6  -6  251.88   13.28
  -4  -6   6   12.80    3.44
   4   6  -6   11.51    3.33
   4   6  -6   10.45    3.63
  -4  -6   6   11.12    3.28
  -3  -6   6  113.21    7.56
   3   6  -6  103.51    7.51
   3   6  -6  114.64    7.30
  -3  -6   6  123.49    7.05
  -3  -6   6  114.83    7.52
  -3  -6   6  126.13    7.14
  -2  -6   6    6.07    2.40
  -2  -6   6    4.84    2.45
   2   6  -6    4.01    2.68
   2   6  -6    3.47    2.49
  -2  -6   6    1.57    2.43
  -1  -6   6   25.24    3.51
   1   6  -6   28.45    3.64
  -1  -6   6   19.69    3.14
  -1  -6   6   25.41    3.29
   1   6  -6   26.08    3.23
   0   6  -6 1437.97   49.16
   0   6  -6 1466.96   49.08
   0  -6   6 1395.86   51.52
   0  -6   6 1402.63   49.44
   0  -6   6 1436.48   49.20
   1  -6   6  555.19   20.99
   1  -6   6  537.73   20.71
  -1   6  -6  582.57   20.16
  -1   6  -6  538.28   21.40
  -1   6  -6  576.05   21.78
  -1   6  -6  557.80   20.60
   1  -6   6  563.55   21.82
   1  -6   6  587.25   21.66
   2  -6   6  455.03   17.21
  -2   6  -6  417.91   18.04
  -2   6  -6  426.26   18.14
  -2   6  -6  450.51   16.11
   2  -6   6  430.52   16.79
   2  -6   6  419.98   17.39
   2  -6   6  437.92   16.60
   2  -6   6  487.48   17.04
  -3   6  -6   30.81    4.16
   3  -6   6   31.49    2.92
  -3   6  -6   32.29    4.17
   3  -6   6   33.38    3.21
   3  -6   6   30.53    2.86
   3  -6   6   30.40    3.04
   3  -6   6   33.84    2.98
   4  -6   6  217.71    9.05
   4  -6   6  207.47    8.96
  -4   6  -6  226.05   12.28
   4  -6   6  215.77   10.05
  -5   6  -6    7.28    3.50
   5  -6   6    4.78    1.74
  -6   6  -6   10.17    4.56
   7   5  -6   31.41    5.64
   6   5  -6   49.50    6.16
   6   5  -6   36.88    5.44
   5   5  -6  201.34   11.24
   5   5  -6  187.03   10.72
  -5  -5   6  212.11   12.66
  -4  -5   6  195.67   11.12
   4   5  -6  194.53   10.01
  -4  -5   6  182.41    9.88
   4   5  -6  181.79   10.15
  -3  -5   6    2.49    2.01
  -3  -5   6    5.02    2.59
   3   5  -6    3.90    1.45
   3   5  -6    7.59    2.96
   3   5  -6    5.57    2.70
  -3  -5   6    1.29    1.83
  -3  -5   6    3.93    2.23
  -2  -5   6  567.70   22.68
   2   5  -6  568.97   21.96
  -2  -5   6  584.84   21.88
  -2  -5   6  589.60   22.18
   2   5  -6  590.25   22.30
   1   5  -6    8.19    2.50
   1   5  -6    0.28    1.68
  -1  -5   6    5.19    2.02
  -1  -5   6    5.06    2.20
  -1  -5   6    6.71    1.97
   0   5  -6   66.96    3.73
   0  -5   6   65.90    4.56
   0  -5   6   72.88    4.77
   0   5  -6   68.65    4.63
   0   5  -6   64.61    4.15
   0  -5   6   69.44    4.59
   0  -5   6   68.88    4.29
   1  -5   6  332.04   12.94
  -1   5  -6  302.84   12.66
  -1   5  -6  304.22   12.04
   1  -5   6  340.25   12.57
   1  -5   6  296.56   12.30
   1  -5   6  296.36   12.08
  -1   5  -6  306.13   12.78
   2  -5   6  155.89    7.32
   2  -5   6  164.18    7.14
   2  -5   6  158.73    6.72
  -2   5  -6  127.22    7.74
  -2   5  -6  154.81    8.11
  -2   5  -6  156.78    6.37
   2  -5   6  150.76    7.07
   2  -5   6  153.59    6.80
  -3   5  -6 1300.49   50.18
   3  -5   6 1371.76   48.12
   3  -5   6 1428.33   46.32
   3  -5   6 1388.35   45.84
   3  -5   6 1317.82   46.12
   3  -5   6 1368.68   48.53
  -3   5  -6 1355.70   50.18
   4  -5   6   25.32    2.27
  -4   5  -6   25.32    4.25
   4  -5   6   23.32    2.05
   4  -5   6   24.29    2.10
   4  -5   6   20.78    3.13
  -5   5  -6   49.95    6.11
   5  -5   6   43.62    4.66
   5  -5   6   40.63    2.81
  -6   5  -6   -1.13    3.01
   7   4  -6    3.07    3.69
   6   4  -6  111.57    8.44
   6   4  -6  116.51    8.43
  -5  -4   6    9.22    3.32
   5   4  -6   10.12    3.57
   5   4  -6   10.00    3.20
  -4  -4   6  235.99   12.70
   4   4  -6  237.85   11.54
  -4  -4   6  245.92   11.32
   4   4  -6  228.76   11.31
  -3  -4   6   61.31    4.44
   3   4  -6   47.41    4.59
  -3  -4   6   55.52    4.74
  -3  -4   6   64.11    5.08
   3   4  -6   61.72    3.52
  -3  -4   6   55.00    4.30
   3   4  -6   53.12    4.87
  -2  -4   6  192.47    9.35
   2   4  -6  176.09    8.91
  -2  -4   6  198.54    8.89
  -2  -4   6  191.00    9.29
   2   4  -6  207.59    9.55
   2   4  -6  205.95    7.39
  -2  -4   6  210.76    9.41
   1   4  -6 1115.87   37.48
   1   4  -6 1081.75   37.39
   1   4  -6 1062.36   37.49
  -1  -4   6 1080.48   37.53
  -1  -4   6 1051.98   38.98
  -1  -4   6 1057.27   37.33
   0   4  -6   71.15    4.66
   0   4  -6   73.44    3.83
   0   4  -6   82.39    4.39
   0  -4   6   81.23    4.44
   0  -4   6   74.24    4.56
   0   4  -6   77.99    4.20
   0  -4   6   71.48    4.52
   1  -4   6  150.09    7.04
   1  -4   6  164.36    6.92
   1  -4   6  142.41    6.73
  -1   4  -6  155.72    6.42
  -1   4  -6  151.25    6.04
   1  -4   6  143.75    6.51
  -1   4  -6  148.75    7.06
  -1   4  -6  160.28    6.73
  -1   4  -6  146.44    7.16
   2  -4   6    6.38    1.38
   2  -4   6    4.64    1.64
   2  -4   6    9.17    1.77
   2  -4   6    9.55    1.82
  -2   4  -6    4.10    2.05
  -2   4  -6    7.84    1.11
   2  -4   6    8.33    1.81
   2  -4   6    9.58    1.75
   2  -4   6    7.39    2.38
  -3   4  -6  149.06    8.74
   3  -4   6  155.30    7.74
   3  -4   6  145.52    6.46
   3  -4   6  149.60    6.36
   3  -4   6  147.24    6.08
   3  -4   6  168.43    6.41
   4  -4   6  407.79   14.24
   4  -4   6  423.24   17.32
  -4   4  -6  381.46   18.26
   4  -4   6  417.82   14.32
   5  -4   6   38.82    4.71
  -5   4  -6   45.89    5.69
   6  -4   6   54.30    5.95
   7   3  -6   71.06    7.15
   7   3  -6   82.36    7.29
   6   3  -6   28.83    4.46
   6   3  -6   29.48    4.79
   5   3  -6  623.60   24.94
   5   3  -6  648.09   24.99
  -4  -3   6    3.40    2.26
  -4  -3   6    5.36    2.37
  -3  -3   6  153.64    7.44
  -3  -3   6  135.34    7.76
   3   3  -6  129.67    7.60
  -3  -3   6  152.80    7.19
   3   3  -6  135.01    7.44
  -3  -3   6  148.67    7.72
  -2  -3   6  214.58    9.86
  -2  -3   6  219.43    9.52
   2   3  -6  226.66    9.95
  -2  -3   6  223.69    9.78
   2   3  -6  218.73    9.67
  -2  -3   6  225.46   10.06
  -1  -3   6  111.00    5.68
   1   3  -6  101.95    5.42
  -1  -3   6  109.17    5.40
  -1  -3   6  102.14    5.61
   1   3  -6  107.61    5.76
   0  -3   6  679.83   24.09
   0   3  -6  696.25   24.47
   0  -3   6  694.05   24.32
   0  -3   6  677.90   24.13
   0   3  -6  678.44   24.02
   0   3  -6  698.54   24.07
   0  -3   6  673.00   25.19
   1  -3   6  835.80   29.63
   1  -3   6  802.26   29.37
   1  -3   6  778.58   28.08
  -1   3  -6  842.29   27.90
  -1   3  -6  815.24   29.59
  -1   3  -6  786.18   29.23
   1  -3   6  821.21   28.05
   1  -3   6  836.41   33.56
   1  -3   6  826.79   28.34
  -1   3  -6  828.10   27.59
  -2   3  -6   12.54    2.55
   2  -3   6   10.38    1.62
   2  -3   6   13.27    2.67
   2  -3   6   13.35    1.46
   2  -3   6   12.93    1.60
   2  -3   6   15.17    2.23
   2  -3   6   10.71    1.62
   2  -3   6   15.28    1.86
   3  -3   6  584.22   21.03
   3  -3   6  604.67   26.77
   3  -3   6  575.53   22.88
   3  -3   6  594.56   20.13
  -3   3  -6  573.33   23.67
   3  -3   6  615.00   20.28
   3  -3   6  586.43   20.13
   3  -3   6  596.40   20.13
  -4   3  -6  271.35   13.51
   4  -3   6  268.47   12.68
   5  -3   6   51.76    5.51
   6  -3   6    3.03    3.15
   7   2  -6   24.16    4.67
   7   2  -6   29.70    5.15
   6   2  -6   41.99    5.05
   6   2  -6   45.75    5.29
   5   2  -6  182.95    9.82
   5   2  -6  192.27   10.12
   4   2  -6 1467.24   52.09
   4   2  -6 1434.73   52.40
  -4  -2   6 1604.25   51.93
   3   2  -6  329.83   13.84
  -3  -2   6  329.14   13.54
   3   2  -6  309.90   13.57
  -3  -2   6  339.15   13.67
   3   2  -6  356.30   14.35
  -3  -2   6  328.59   13.16
  -2  -2   6   74.59    4.71
  -2  -2   6   67.71    4.34
  -2  -2   6   67.30    4.60
   2   2  -6   80.93    5.07
   2   2  -6   82.23    3.49
  -2  -2   6   81.81    3.62
  -1  -2   6 2254.13   75.85
   1   2  -6 2346.65   77.23
  -1  -2   6 2099.35   78.80
  -1  -2   6 2355.06   84.35
  -1  -2   6 2192.64   75.02
   1   2  -6 2321.52   75.20
   1   2  -6 2243.70   75.92
   0   2  -6   87.31    4.13
   0  -2   6   92.56    4.65
   0  -2   6   90.25    4.14
   0  -2   6   88.30    4.40
   0  -2   6   84.88    4.63
   0  -2   6   83.60    4.10
   0  -2   6   82.21    4.64
   0   2  -6   80.85    4.49
   0   2  -6   90.90    4.35
   1  -2   6 3908.39  126.77
   1  -2   6 3735.36  133.52
   1  -2   6 4054.09  133.98
  -1   2  -6 3635.52  127.99
   1  -2   6 4017.61  128.54
  -1   2  -6 3981.06  132.97
   1  -2   6 3852.87  152.43
   1  -2   6 3981.08  128.43
  -1   2  -6 4028.34  126.66
  -1   2  -6 3629.67  133.71
   2  -2   6 1610.03   54.23
   2  -2   6 1675.95   53.79
   2  -2   6 1616.09   53.68
   2  -2   6 1604.87   57.59
   2  -2   6 1633.86   54.32
  -2   2  -6 1623.76   57.68
   2  -2   6 1641.43   65.84
   2  -2   6 1603.92   56.46
   3  -2   6 1660.85   65.90
  -3   2  -6 1551.95   57.54
   3  -2   6 1607.64   52.54
   3  -2   6 1585.45   53.17
   3  -2   6 1597.22   55.36
   3  -2   6 1556.04   57.40
   3  -2   6 1624.99   53.19
   4  -2   6   27.90    3.94
   5  -2   6   82.31    6.97
   6  -2   6    3.12    3.22
   7   1  -6    2.42    3.05
   7   1  -6    0.45    3.22
   6   1  -6   24.47    4.01
   6   1  -6   31.14    4.47
   5   1  -6   28.70    3.92
   5   1  -6   32.65    4.14
   4   1  -6   -0.71    2.21
  -4  -1   6    0.03    1.96
   4   1  -6    0.70    2.09
   4   1  -6   -1.48    1.98
  -3  -1   6  348.68   13.02
  -3  -1   6  327.98   13.27
  -3  -1   6  343.11   13.35
   3   1  -6  307.23   13.26
   3   1  -6  325.89   13.84
   3   1  -6  326.06   14.61
   3   1  -6  297.09   13.27
   2   1  -6  712.60   24.94
   2   1  -6  692.37   24.89
  -2  -1   6  692.65   24.72
  -2  -1   6  656.79   24.32
  -2  -1   6  695.88   24.66
  -2  -1   6  668.22   25.53
   2   1  -6  711.38   27.87
   2   1  -6  698.40   25.78
  -1  -1   6  775.65   28.99
   1   1  -6  755.91   26.50
  -1  -1   6  752.70   26.28
  -1  -1   6  761.75   26.39
   1   1  -6  737.43   26.39
  -1  -1   6  726.02   27.47
   0   1  -6   92.36    4.62
   0  -1   6  102.04    4.97
   0  -1   6   97.72    5.56
   0  -1   6   95.36    4.97
   0  -1   6  102.96    4.75
   0  -1   6  110.58    4.53
   0   1  -6  101.47    4.98
   0   1  -6  103.86    4.86
   0  -1   6   97.18    5.00
   1  -1   6  859.97   29.05
   1  -1   6  846.40   34.58
   1  -1   6  845.15   30.31
  -1   1  -6  843.61   30.51
  -1   1  -6  878.90   28.61
  -1   1  -6  853.66   28.77
   1  -1   6  868.95   29.26
  -1   1  -6  828.56   30.85
   1  -1   6  819.97   28.85
  -1   1  -6  836.19   34.66
   2  -1   6  376.43   14.02
   2  -1   6  405.99   14.73
   2  -1   6  415.25   18.09
   2  -1   6  416.64   14.29
   2  -1   6  386.86   15.99
  -2   1  -6  402.23   18.06
   2  -1   6  382.74   14.08
  -3   1  -6   18.33    3.35
   3  -1   6   19.67    1.77
   3  -1   6   16.74    3.56
   3  -1   6   21.22    1.81
   3  -1   6   19.49    1.75
   3  -1   6   20.70    3.36
   3  -1   6   24.40    1.91
   4  -1   6 1252.33   41.81
   4  -1   6 1279.29   42.57
   4  -1   6 1283.10   44.18
   4  -1   6 1251.82   47.32
   5  -1   6    9.87    3.67
   5  -1   6   13.52    1.65
   5  -1   6    9.55    1.64
   6  -1   6   14.47    4.43
   6  -1   6   12.83    1.95
   7   0  -6   72.35    6.65
   7   0  -6   82.00    7.13
   6   0  -6   17.94    3.73
   6   0  -6   12.68    3.45
   5   0  -6   23.70    3.71
   5   0  -6   27.89    3.79
  -4   0   6  450.29   17.89
  -4   0   6  482.30   17.62
   4   0  -6  423.98   17.72
   4   0  -6  485.70   20.79
   4   0  -6  399.29   17.70
  -3   0   6  260.22   10.43
   3   0  -6  262.83   11.32
  -3   0   6  238.22   10.60
  -3   0   6  243.46   10.27
  -3   0   6  258.59   10.82
   3   0  -6  233.96   10.93
   3   0  -6  269.22   12.00
   3   0  -6  243.61   10.82
   2   0  -6  132.93    6.32
  -2   0   6  126.75    6.41
   2   0  -6  129.07    6.64
  -2   0   6  131.95    6.54
   2   0  -6  127.47    5.87
  -2   0   6  136.05    6.25
   2   0  -6  123.47    6.38
   2   0  -6  131.13    6.60
   1   0  -6   43.86    3.33
  -1   0   6   44.49    3.40
  -1   0   6   54.64    2.15
  -1   0   6   47.49    3.69
  -1   0   6   50.77    3.34
  -1   0   6   50.38    3.34
   1   0  -6   43.89    3.61
   0   0  -6   68.49    3.63
   0   0  -6   59.84    3.95
   0   0  -6   67.53    4.26
   0   0   6   59.75    3.59
   0   0  -6   60.89    4.31
   0   0   6   66.34    3.95
   0   0   6   57.32    3.85
   0   0   6   62.86    4.30
   0   0  -6   68.11    3.82
   0   0   6   61.77    3.98
  -1   0  -6  970.71   32.70
   1   0   6  950.19   33.01
   1   0   6  947.74   34.41
   1   0   6  950.73   35.08
   1   0   6  971.91   33.25
  -1   0  -6  939.01   37.96
  -1   0  -6 1004.06   32.68
   1   0   6  979.42   32.86
  -1   0  -6  971.30   39.39
   2   0   6  353.98   12.87
   2   0   6  355.02   12.89
   2   0   6  353.56   12.82
   2   0   6  337.37   14.53
   2   0   6  339.60   12.68
  -2   0  -6  340.08   16.16
   2   0   6  343.42   13.20
   3   0   6  448.81   15.83
  -3   0  -6  446.62   20.86
   3   0   6  432.56   18.42
   3   0   6  439.74   16.30
   3   0   6  429.68   15.70
   3   0   6  428.04   15.65
   4   0   6    5.11    1.51
   4   0   6    5.46    1.58
   4   0   6    6.17    1.66
   4   0   6    3.60    2.78
  -4   0  -6    5.55    2.87
   5   0   6  178.43    7.58
   5   0   6  178.20   10.84
   5   0   6  168.80    7.63
   6   0   6    6.41    2.06
   6   0   6    2.90    1.79
   7  -1  -6    0.81    3.10
   7  -1  -6    2.02    3.10
   6  -1  -6   96.44    7.03
   6  -1  -6   85.03    6.83
   5  -1  -6  150.35    8.45
   5  -1  -6  156.94    8.73
   4  -1  -6  912.02   34.97
  -4   1   6 1014.52   34.33
   4  -1  -6 1028.83   41.14
  -4   1   6  956.35   35.78
   4  -1  -6  931.98   34.70
  -3   1   6    6.85    1.51
   3  -1  -6    6.93    2.07
  -3   1   6    4.93    1.75
   3  -1  -6    6.28    2.24
  -3   1   6    5.96    1.80
   3  -1  -6    7.21    2.28
  -3   1   6    6.74    2.21
   3  -1  -6    6.60    1.38
   3  -1  -6    4.57    2.40
  -3   1   6    5.07    1.81
   2  -1  -6   58.97    3.60
  -2   1   6   55.78    3.86
   2  -1  -6   54.87    4.03
  -2   1   6   57.79    4.07
   2  -1  -6   62.16    4.24
   2  -1  -6   53.24    4.23
  -2   1   6   56.64    3.84
  -2   1   6   57.87    2.76
   1  -1  -6   43.84    3.29
   1  -1  -6   36.25    3.05
   1  -1  -6   37.12    3.24
   0  -1  -6  138.42    6.53
   0  -1  -6  180.13    7.12
   0   1   6  151.36    6.96
   0  -1  -6  127.20    7.44
   0   1   6  154.22    6.60
   0   1   6  152.33    6.88
   1   1   6 2344.22   74.04
   1   1   6 2294.70   74.01
   1   1   6 2164.92   72.97
  -1  -1  -6 2026.99   83.33
   1   1   6 2169.64   77.39
  -1  -1  -6 2181.80   87.53
  -1  -1  -6 2238.46   72.87
   1   1   6 2199.51   73.70
   1   1   6 2180.50   76.70
  -2  -1  -6    0.02    1.18
   2   1   6   -0.31    1.93
   2   1   6    3.76    1.44
  -2  -1  -6    2.12    2.04
   2   1   6    0.74    1.42
   2   1   6    2.28    1.47
   2   1   6    3.03    1.72
  -2  -1  -6    0.70    1.80
   3   1   6    2.96    2.54
   3   1   6    0.00    1.74
   3   1   6    1.47    1.60
  -3  -1  -6    4.71    2.60
   3   1   6    0.50    1.65
  -4  -1  -6  321.65   16.88
   4   1   6  298.61   11.92
   4   1   6  283.69   14.73
   4   1   6  300.89   12.25
   4   1   6  303.65   11.75
   5   1   6   30.28    3.16
   5   1   6   28.84    5.07
   5   1   6   35.86    3.23
   6   1   6   54.06    4.44
   6   1   6   64.84    4.68
   7  -2  -6   36.71    5.11
   7  -2  -6   43.90    5.40
   6  -2  -6   90.12    6.82
   6  -2  -6   86.13    6.74
   5  -2  -6   79.51    6.10
   5  -2  -6   78.92    6.08
  -5   2   6   78.39    6.08
  -4   2   6  226.18    9.72
   4  -2  -6  212.56   10.55
   4  -2  -6  231.68   10.52
   4  -2  -6  244.41   12.14
  -4   2   6  191.14   10.05
  -4   2   6  198.36    9.74
  -3   2   6 3545.87  118.80
  -3   2   6 3599.90  123.00
   3  -2  -6 3497.18  120.76
  -3   2   6 3584.30  124.68
  -3   2   6 3701.18  120.03
   3  -2  -6 3743.96  125.50
   3  -2  -6 3501.88  119.35
  -2   2   6   56.12    3.72
   2  -2  -6   36.80    3.73
   2  -2  -6   36.25    3.66
   2  -2  -6   42.01    3.43
  -2   2   6   46.88    3.65
  -1   2   6 1258.05   46.47
  -1   2   6 1265.07   44.62
   1  -2  -6 1358.69   45.08
   1  -2  -6 1267.81   49.80
   1  -2  -6 1350.32   44.77
  -1   2   6 1314.94   44.49
   0  -2  -6    2.89    1.53
   0  -2  -6    1.68    1.69
   0   2   6    2.08    1.51
   0  -2  -6    3.38    1.77
   0   2   6    2.16    1.44
   0   2   6    2.88    1.78
  -1  -2  -6   24.14    2.67
  -1  -2  -6   26.86    3.45
   1   2   6   22.02    3.15
   1   2   6   35.47    3.11
   1   2   6   24.99    2.65
  -1  -2  -6   27.83    2.45
   1   2   6   32.04    3.10
   1   2   6   25.61    2.69
  -2  -2  -6  525.69   24.71
  -2  -2  -6  558.87   19.85
   2   2   6  545.83   20.26
   2   2   6  521.23   21.02
   2   2   6  568.55   20.55
   2   2   6  566.87   20.36
  -2  -2  -6  525.89   23.95
   2   2   6  565.09   22.36
  -2  -2  -6  604.22   19.06
   3   2   6   33.59    3.18
   3   2   6   25.60    3.96
  -3  -2  -6   25.48    4.11
   3   2   6   26.33    2.93
   3   2   6   29.61    3.23
  -3  -2  -6   35.89    4.62
   4   2   6  233.74   10.27
  -4  -2  -6  232.87   14.24
   4   2   6  233.89   12.66
   4   2   6  229.75   10.20
   4   2   6  238.82   10.51
   5   2   6    0.63    2.02
   5   2   6    0.74    2.10
   5   2   6   -2.65    2.93
   5   2   6   -1.76    1.71
   6   2   6   -0.54    2.28
   6   2   6    0.50    2.15
   7  -3  -6    6.61    3.64
   7  -3  -6   17.72    4.18
   6  -3  -6   25.83    4.30
   6  -3  -6   28.67    4.57
  -6   3   6   28.82    4.80
   5  -3  -6    5.00    2.88
  -5   3   6    5.05    2.85
  -5   3   6    8.35    2.57
   5  -3  -6    8.50    3.01
  -4   3   6  298.73   12.64
  -4   3   6  297.01   13.52
  -4   3   6  305.43   12.78
   4  -3  -6  294.52   13.48
   4  -3  -6  313.25   13.61
  -3   3   6  101.89    5.40
  -3   3   6  114.95    5.96
  -3   3   6  103.92    6.31
  -3   3   6  110.91    6.09
   3  -3  -6  108.92    6.55
   3  -3  -6   91.18    6.47
   2  -3  -6   32.40    3.80
  -2   3   6   52.38    4.07
  -2   3   6   55.69    3.99
  -2   3   6   52.91    3.90
  -1   3   6  464.64   17.49
  -1   3   6  446.42   17.17
   1  -3  -6  460.33   19.34
  -1   3   6  443.79   17.92
   1  -3  -6  459.92   17.53
   0   3   6  455.77   17.40
   0  -3  -6  471.15   19.64
   0   3   6  454.12   17.18
   0   3   6  442.01   17.88
   0  -3  -6  445.32   17.22
   1   3   6  281.54   11.92
   1   3   6  274.61   11.42
  -1  -3  -6  267.27   11.05
   1   3   6  268.98   11.60
   2   3   6   18.12    2.79
   2   3   6   21.51    3.64
   2   3   6   29.18    3.25
   2   3   6   22.58    3.24
   3   3   6   93.91    5.94
   3   3   6   87.84    5.67
   3   3   6  105.04    7.22
  -3  -3  -6  100.31    7.79
   3   3   6   89.73    5.72
  -3  -3  -6   81.22    7.06
   4   3   6   56.00    4.57
   4   3   6   57.76    4.55
   4   3   6   39.97    5.48
   4   3   6   43.46    4.19
   5   3   6  222.52   10.71
   5   3   6  228.45   11.25
   5   3   6  233.27   11.00
   5   3   6  237.35   13.80
   6   3   6    3.87    2.63
   7  -4  -6   30.23    5.03
   7  -4  -6   45.31    5.82
  -6   4   6  348.28   17.45
   6  -4  -6  356.10   16.50
   6  -4  -6  359.52   16.28
  -5   4   6   43.56    4.99
   5  -4  -6   40.44    4.84
   5  -4  -6   35.91    4.66
  -5   4   6   42.32    4.19
  -4   4   6   86.50    6.30
   4  -4  -6   82.47    6.13
  -4   4   6   92.94    5.66
   4  -4  -6   97.46    6.87
  -4   4   6   92.12    6.02
  -3   4   6 1045.13   37.74
  -3   4   6 1090.58   37.21
   3  -4  -6 1049.99   38.26
   3  -4  -6 1078.35   38.21
  -3   4   6 1027.19   37.25
  -3   4   6 1052.99   38.64
  -2   4   6   88.45    5.66
   2  -4  -6   84.94    5.97
  -2   4   6   87.01    5.31
   2  -4  -6   79.20    5.67
  -2   4   6   86.23    5.72
  -1   4   6    1.22    1.73
  -1   4   6   -1.83    1.81
   1  -4  -6    2.08    1.96
  -1   4   6    0.29    1.72
   1  -4  -6    1.74    1.98
   0  -4  -6  387.55   15.41
   0  -4  -6  369.52   17.41
   0   4   6  369.16   15.24
   0   4   6  382.54   15.56
   0   4   6  393.53   16.01
   0  -4  -6  406.50   15.51
   1   4   6   32.88    3.71
  -1  -4  -6   39.11    3.48
   1   4   6   29.34    3.45
  -1  -4  -6   32.17    4.32
   1   4   6   40.22    4.17
   2   4   6   71.61    5.20
  -2  -4  -6   69.95    6.08
  -2  -4  -6   68.09    6.23
   2   4   6   75.06    5.99
   2   4   6   69.20    5.04
   2   4   6   67.57    5.30
   3   4   6   37.87    5.00
  -3  -4  -6   47.03    5.64
  -3  -4  -6   33.05    5.05
   3   4   6   40.08    4.39
   3   4   6   43.88    4.21
   3   4   6   40.96    4.15
   4   4   6  145.23    8.15
   4   4   6  126.09    7.88
  -4  -4  -6  132.65    9.91
   4   4   6  131.13    7.86
   4   4   6  136.27    9.71
   5   4   6   33.11    4.37
   5   4   6   46.64    4.92
   5   4   6   43.35    4.83
   6   4   6  135.46    8.65
   7  -5  -6    8.61    3.89
   6  -5  -6    2.39    3.17
  -6   5   6    1.88    3.11
   6  -5  -6    0.37    2.84
   5  -5  -6   59.98    5.86
  -5   5   6   66.33    5.49
  -5   5   6   56.60    5.84
   5  -5  -6   56.36    5.73
   4  -5  -6  151.94    9.48
  -4   5   6  177.31    8.72
  -4   5   6  176.17    8.96
   4  -5  -6  182.79    9.76
  -3   5   6  332.62   14.37
   3  -5  -6  329.95   14.90
  -3   5   6  355.30   13.96
   3  -5  -6  335.80   15.18
   3  -5  -6  328.68   14.94
  -3   5   6  349.10   14.01
  -2   5   6    1.94    2.27
   2  -5  -6    2.77    2.30
  -2   5   6    2.81    1.98
   2  -5  -6   -0.34    1.95
  -2   5   6    4.08    2.17
   1  -5  -6  272.65   12.54
   1  -5  -6  275.73   12.70
  -1   5   6  293.21   12.37
  -1   5   6  300.83   12.98
  -1   5   6  287.74   12.82
   0   5   6   35.16    4.09
   0  -5  -6   27.78    4.08
   0   5   6   30.27    3.74
   0  -5  -6   33.49    3.75
   0   5   6   26.83    3.53
   0  -5  -6   35.69    3.87
  -1  -5  -6  214.05    9.89
   1   5   6  190.87    9.72
   1   5   6  194.52    9.89
  -1  -5  -6  190.80   11.24
   1   5   6  186.20    9.90
  -1  -5  -6  215.02    9.60
   2   5   6  559.57   21.90
   2   5   6  587.64   22.77
   2   5   6  551.85   22.01
   2   5   6  530.73   23.19
  -2  -5  -6  576.70   26.40
  -2  -5  -6  536.54   25.27
   3   5   6    3.47    3.16
   3   5   6    2.23    2.47
   3   5   6    9.29    3.19
   3   5   6    6.52    2.59
  -3  -5  -6    6.51    3.45
   4   5   6   78.78    6.33
   4   5   6   77.25    7.68
  -4  -5  -6   80.84    8.13
   4   5   6   78.14    6.42
   4   5   6   81.99    6.38
   5   5   6   98.11    7.31
   5   5   6   86.09    7.09
   5   5   6  101.31    7.38
   7  -6  -6    8.29    3.96
   6  -6  -6   53.45    6.15
   6  -6  -6   42.23    5.80
  -6   6   6   55.55    6.91
   5  -6  -6    6.29    3.33
   5  -6  -6    3.82    2.77
  -5   6   6    4.41    3.07
   4  -6  -6   17.73    3.90
  -4   6   6   21.58    3.22
  -4   6   6   20.89    3.45
   4  -6  -6   17.96    3.81
   4  -6  -6   17.15    3.77
  -3   6   6  229.93   10.86
   3  -6  -6  247.10   12.08
   3  -6  -6  237.47   11.96
  -3   6   6  232.20   11.40
  -2   6   6  168.90    9.13
   2  -6  -6  146.50    8.80
  -2   6   6  170.91    8.73
   2  -6  -6  161.10    8.94
  -2   6   6  148.30    8.21
  -1   6   6   38.19    4.14
  -1   6   6   42.77    4.30
  -1   6   6   36.39    4.53
   1  -6  -6   35.82    4.21
   1  -6  -6   43.13    4.35
   0  -6  -6   18.20    3.81
   0   6   6   17.61    3.67
   0   6   6   21.42    3.31
   0   6   6   23.67    3.57
   0  -6  -6   28.26    3.65
   0  -6  -6   18.79    3.18
   1   6   6   55.81    5.15
  -1  -6  -6   56.93    4.75
   1   6   6   57.78    5.45
  -1  -6  -6   51.90    5.80
  -1  -6  -6   57.68    4.87
   1   6   6   52.26    4.94
   2   6   6   26.44    4.56
   2   6   6   27.98    4.08
   2   6   6   29.19    4.38
   2   6   6   23.05    3.84
  -2  -6  -6   28.41    4.90
   3   6   6  302.36   14.75
   3   6   6  297.77   14.48
  -3  -6  -6  330.03   17.73
   3   6   6  324.67   16.25
   3   6   6  319.45   15.20
   4   6   6    5.58    3.33
  -4  -6  -6    3.22    3.63
   4   6   6   -0.33    3.57
   4   6   6    0.98    3.21
   4   6   6    1.64    2.63
   5   6   6   27.33    4.79
   5   6   6   27.40    4.98
   7  -7  -6   19.29    5.10
   6  -7  -6   41.97    6.04
   6  -7  -6   46.60    6.25
   5  -7  -6    1.28    3.15
   5  -7  -6    0.44    3.27
  -5   7   6    1.94    3.05
   4  -7  -6   41.60    5.19
   4  -7  -6   24.95    4.70
   4  -7  -6   30.00    4.71
  -4   7   6   31.76    3.97
   3  -7  -6   89.08    7.05
   3  -7  -6   91.45    7.04
  -3   7   6   85.83    6.86
   2  -7  -6   17.62    3.68
  -2   7   6   22.09    3.42
  -2   7   6   19.30    3.80
   1  -7  -6  105.86    7.02
  -1   7   6   98.84    7.14
  -1   7   6   88.40    6.46
  -1   7   6   97.61    6.72
   0  -7  -6  141.38    8.35
   0   7   6  155.52    8.87
   0   7   6  151.49    9.21
   0  -7  -6  142.25    8.44
   0   7   6  130.85    8.35
   0  -7  -6  150.57    9.89
  -1  -7  -6   17.09    4.11
   1   7   6   21.58    4.25
   1   7   6   20.06    3.82
   1   7   6   16.19    3.60
   2   7   6  146.41    9.67
   2   7   6  172.54    9.96
   2   7   6  170.09    9.76
  -2  -7  -6  153.04   11.00
   3   7   6   20.64    4.89
  -3  -7  -6   15.91    4.92
   3   7   6   26.50    4.90
   3   7   6   19.47    4.19
   3   7   6   17.37    4.09
   4   7   6  159.67   10.45
   4   7   6  169.95   10.53
   4   7   6  136.70    9.73
   5   7   6   35.42    5.81
   6  -8  -6   23.62    5.53
   5  -8  -6   85.65    8.09
   5  -8  -6   79.64    7.84
  -4   8   6   12.17    3.33
   4  -8  -6   18.11    4.38
   4  -8  -6   12.50    3.91
   3  -8  -6    3.32    2.80
  -3   8   6   -0.83    2.53
   3  -8  -6   -3.63    2.14
   2  -8  -6  236.63   12.66
  -2   8   6  252.39   12.90
  -2   8   6  244.46   11.99
  -1   8   6    5.05    3.16
  -1   8   6    5.20    2.94
  -1   8   6    6.45    2.94
   1  -8  -6    2.42    2.67
   0   8   6   -0.77    2.43
   0   8   6    4.37    2.67
   0  -8  -6    0.74    2.45
   0  -8  -6   -0.39    2.66
   0   8   6    3.72    3.03
   0  -8  -6   -2.28    2.07
   1   8   6   61.27    6.05
  -1  -8  -6   51.79    6.65
   1   8   6   66.91    6.80
   1   8   6   62.55    6.16
   2   8   6   10.61    3.85
  -2  -8  -6   18.77    5.10
   2   8   6   14.66    4.39
   2   8   6   14.08    3.90
   3   8   6   24.89    4.98
   3   8   6   18.23    5.05
   3   8   6   37.90    5.58
   4   8   6    2.09    3.99
   5   8   6    1.14    4.05
   6  -9  -6   20.28    5.57
   5  -9  -6    6.63    4.19
   5  -9  -6    9.53    4.20
   4  -9  -6   45.06    6.50
   4  -9  -6   65.41    7.12
  -4   9   6   62.65    6.02
  -3   9   6  180.22   11.19
   3  -9  -6  194.91   11.63
   3  -9  -6  190.36   11.65
  -2   9   6  129.71    9.32
   2  -9  -6  123.94    8.91
  -1   9   6  167.33   11.04
  -1   9   6  186.53   10.68
   1  -9  -6  183.22   10.95
   0  -9  -6    5.16    3.83
   0   9   6   -0.05    2.83
   0   9   6    2.59    3.23
   0   9   6    5.88    3.23
   1   9   6   29.36    5.06
   1   9   6   40.11    6.04
   1   9   6   39.50    5.51
  -1  -9  -6   37.31    6.29
   2   9   6    0.89    3.10
   2   9   6   -0.11    3.08
   2   9   6    5.40    4.09
   3   9   6   36.14    5.89
   3   9   6   38.14    6.37
   3   9   6   44.05    6.43
   4   9   6    7.36    4.36
   5 -10  -6   20.90    5.91
   4 -10  -6    4.22    3.84
   4 -10  -6    7.30    4.33
  -4  10   6    4.95    3.36
   3 -10  -6   29.07    5.73
  -3  10   6   34.67    5.89
   3 -10  -6   29.05    5.47
   2 -10  -6  188.49   11.90
  -2  10   6  197.94   12.28
  -1  10   6  163.61   11.42
   1 -10  -6  166.65   10.79
   0  10   6   26.45    5.02
   0  10   6   23.73    5.40
   1  10   6   18.41    4.80
   1  10   6   10.76    4.30
   1  10   6    6.27    4.22
   2  10   6    6.12    4.15
   2  10   6    3.54    4.36
   2  10   6    5.76    3.68
   3  10   6   17.55    5.63
   3 -11  -6   14.63    4.90
   3 -11  -6   17.98    5.30
   2 -11  -6  125.46   10.04
  -2  11   6  120.98   10.30
   2 -11  -6  129.13   10.44
  -1  11   6   67.24    8.00
   0  11   6   12.87    5.06
   0  11   6   10.76    4.30
   1  11   6   35.70    6.30
   1  11   6   50.16    7.27
   2  11   6    0.37    4.29
  -2  12   6   -3.68    3.66
  -1  12   6   69.45    8.75
   0  12   6    6.87    4.91
   1  12   6    6.82    5.04
   1  15  -7    3.75    4.75
   0 -15   7   20.65    6.28
   1 -15   7   14.44    5.18
  -2 -14   7   62.54    8.61
   2  14  -7   48.24    7.79
   1  14  -7   41.91    7.39
  -1 -14   7   58.16    7.96
   0 -14   7   27.46    6.35
   0 -14   7   34.21    6.30
   1 -14   7    8.65    4.18
   1 -14   7    8.78    4.33
   1 -14   7    2.65    4.12
   2 -14   7    5.72    4.37
  -2  14  -7    7.24    4.13
   3 -14   7   10.80    4.70
   3  13  -7   87.99    9.50
  -3 -13   7  102.97   10.04
   2  13  -7   47.55    7.27
  -2 -13   7   47.67    7.43
   1  13  -7   58.02    7.25
  -1 -13   7   56.97    7.05
  -1 -13   7   54.48    7.51
   0  13  -7    0.80    3.64
   0 -13   7    6.86    3.87
   0 -13   7    3.92    4.13
   0 -13   7   -0.62    3.38
   1 -13   7    8.05    3.93
   1 -13   7    5.84    4.27
   1 -13   7    7.11    4.07
   2 -13   7    3.50    3.63
  -2  13  -7    1.77    3.37
   2 -13   7    4.26    3.91
  -2  13  -7   -3.20    2.68
   2 -13   7    4.66    3.96
  -3  13  -7    3.24    3.67
   3 -13   7    6.70    4.02
   3 -13   7   -2.04    3.01
   4 -13   7   21.62    5.13
   4  12  -7   81.89    9.52
   3  12  -7   10.12    5.23
  -3 -12   7   13.50    5.09
   3  12  -7   11.63    4.61
  -2 -12   7   74.47    8.23
   2  12  -7   82.68    8.39
  -1 -12   7    1.21    3.13
   1  12  -7    1.93    3.84
  -1 -12   7    5.07    3.81
   0  12  -7  372.89   17.60
   0 -12   7  330.49   17.09
   0 -12   7  348.30   17.75
   0 -12   7  387.03   18.47
   1 -12   7  123.64    8.95
   1 -12   7  118.00    9.18
  -1  12  -7  134.66    8.62
   1 -12   7  122.80    9.30
   2 -12   7    1.36    3.31
   2 -12   7   -1.91    2.63
  -2  12  -7    3.87    3.18
  -2  12  -7    1.44    3.00
   2 -12   7   -0.78    3.46
  -3  12  -7   -0.09    3.14
   3 -12   7    7.05    3.81
   3 -12   7   -1.35    2.76
   3 -12   7    4.24    3.55
  -3  12  -7   -2.19    2.96
   4 -12   7    0.30    2.93
   4 -12   7    0.36    3.42
  -4  12  -7   -3.81    2.88
   4  11  -7    1.98    3.89
   4  11  -7   -4.91    3.35
   3  11  -7   52.35    7.05
   3  11  -7   58.76    6.69
  -3 -11   7   57.75    7.21
   2  11  -7    0.06    3.66
  -2 -11   7   -1.13    2.58
  -2 -11   7   -1.96    3.09
   2  11  -7    0.89    3.09
   1  11  -7   38.27    5.94
  -1 -11   7   48.07    6.08
  -1 -11   7   44.01    5.92
  -1 -11   7   39.85    5.42
   0 -11   7   36.46    5.40
   0  11  -7   31.54    5.01
   0 -11   7   37.70    5.37
   0 -11   7   39.87    5.18
   1 -11   7   56.47    5.77
   1 -11   7   44.90    5.72
  -1  11  -7   49.50    5.55
   1 -11   7   44.71    5.73
  -1  11  -7   51.82    5.09
   2 -11   7   25.34    4.63
   2 -11   7   15.59    3.75
  -2  11  -7   13.84    3.86
   2 -11   7   18.57    4.27
  -2  11  -7   29.37    4.51
   3 -11   7    1.62    2.97
  -3  11  -7    0.64    2.69
   3 -11   7    1.25    2.94
  -3  11  -7    0.31    2.71
   3 -11   7    1.07    2.62
  -4  11  -7  173.36   12.22
   4 -11   7  191.85   11.24
   4 -11   7  177.18   10.51
   4 -11   7  172.99   10.47
   5 -11   7   42.59    5.39
  -5  11  -7   39.36    7.18
   5  10  -7    1.17    4.30
   4  10  -7    1.35    3.39
   4  10  -7    3.33    3.86
   3  10  -7  218.74   12.95
  -3 -10   7  224.38   13.05
   3  10  -7  218.42   12.58
   2  10  -7   49.01    6.13
  -2 -10   7   52.58    6.32
  -2 -10   7   52.96    5.64
   2  10  -7   61.95    6.10
  -1 -10   7    3.89    3.07
  -1 -10   7    6.73    3.42
   1  10  -7    0.61    2.39
   1  10  -7    4.88    3.23
  -1 -10   7    2.66    2.63
   0 -10   7  291.55   14.68
   0 -10   7  293.79   14.38
   0  10  -7  294.92   14.28
   0 -10   7  283.53   13.84
   1 -10   7    3.87    2.74
  -1  10  -7    7.11    2.57
   1 -10   7    2.97    2.93
   1 -10   7    5.21    2.99
  -1  10  -7    6.21    2.95
   2 -10   7    0.97    2.40
   2 -10   7   -0.82    2.16
  -2  10  -7    1.86    2.24
   2 -10   7    0.54    2.58
  -2  10  -7    1.65    2.48
  -3  10  -7  161.80   10.62
   3 -10   7  167.98   10.06
   3 -10   7  166.39    9.43
   3 -10   7  156.45    9.50
  -3  10  -7  183.26   10.82
   4 -10   7    0.78    2.99
  -4  10  -7    5.20    3.65
   4 -10   7    9.58    3.44
  -4  10  -7    6.64    3.79
   4 -10   7    4.24    2.85
   5 -10   7   16.81    3.86
  -5  10  -7   13.42    5.14
   5 -10   7   28.86    4.30
   6   9  -7   11.08    5.06
   5   9  -7    9.00    4.75
   5   9  -7    6.67    4.09
   4   9  -7    3.91    3.57
   4   9  -7    6.80    3.68
  -4  -9   7    3.04    3.50
   3   9  -7   93.69    7.40
  -3  -9   7   90.90    7.73
   3   9  -7   94.23    8.10
  -3  -9   7  102.78    8.10
  -2  -9   7  269.36   13.70
   2   9  -7  274.36   13.74
   2   9  -7  273.42   13.14
  -2  -9   7  252.28   13.46
  -2  -9   7  264.50   13.01
   1   9  -7   13.44    3.18
  -1  -9   7   15.88    3.66
  -1  -9   7   23.01    3.77
   1   9  -7   18.98    4.10
  -1  -9   7   18.91    4.05
   0   9  -7  128.43    7.27
   0   9  -7  110.29    7.75
   0  -9   7  121.00    7.62
   0  -9   7  129.78    8.21
   0  -9   7  115.43    7.83
  -1   9  -7    3.59    2.08
   1  -9   7   13.15    3.33
  -1   9  -7    3.16    2.50
   1  -9   7    2.40    2.65
   1  -9   7   -0.17    2.08
   2  -9   7    5.41    2.64
   2  -9   7    4.90    2.81
   2  -9   7    8.23    2.73
  -2   9  -7   -0.08    2.17
  -2   9  -7    4.29    2.51
   3  -9   7   18.84    3.42
   3  -9   7   20.84    3.70
  -3   9  -7   19.06    4.19
   3  -9   7   21.12    3.60
  -3   9  -7   17.91    3.99
   4  -9   7   53.65    5.16
  -4   9  -7   54.90    6.51
   4  -9   7   44.08    4.74
   4  -9   7   64.94    5.18
  -4   9  -7   50.36    6.49
  -5   9  -7   36.98    6.36
   5  -9   7   32.17    4.04
   5  -9   7   33.15    4.35
  -6   9  -7   -2.81    3.73
   6  -9   7    2.96    2.49
   6   8  -7    0.25    3.90
   5   8  -7   25.05    5.29
   5   8  -7   23.11    5.13
  -4  -8   7   78.93    7.21
   4   8  -7   68.92    6.83
   4   8  -7   85.68    7.69
  -3  -8   7  387.10   18.86
   3   8  -7  350.09   16.82
  -3  -8   7  382.73   17.33
   3   8  -7  377.79   17.54
  -3  -8   7  393.54   16.80
  -2  -8   7    1.35    2.17
  -2  -8   7   -0.62    2.35
   2   8  -7   -0.21    2.32
   2   8  -7    1.52    2.51
  -2  -8   7    3.95    2.45
  -1  -8   7  281.42   13.33
   1   8  -7  309.95   13.40
   1   8  -7  304.30   13.82
  -1  -8   7  300.88   14.19
  -1  -8   7  285.37   13.72
   0  -8   7  140.32    8.30
   0  -8   7  176.43    9.19
   0   8  -7  151.50    7.87
   0  -8   7  148.92    8.67
   0   8  -7  146.36    8.37
   1  -8   7  463.99   18.89
   1  -8   7  473.28   19.21
  -1   8  -7  461.58   19.02
  -1   8  -7  481.81   19.57
   1  -8   7  472.99   19.79
  -1   8  -7  486.12   18.83
  -2   8  -7  123.44    7.39
   2  -8   7  121.78    7.25
  -2   8  -7  111.03    7.51
   2  -8   7  111.79    6.79
   2  -8   7  120.84    7.34
   3  -8   7   35.17    3.74
  -3   8  -7   25.89    4.33
   3  -8   7   31.28    3.89
  -3   8  -7   28.91    4.27
   3  -8   7   23.42    3.47
  -4   8  -7   69.89    7.19
   4  -8   7   71.45    5.38
   4  -8   7   77.30    5.26
   4  -8   7   72.24    5.54
  -4   8  -7   66.19    6.83
  -5   8  -7   35.51    6.19
   5  -8   7   39.83    3.92
   5  -8   7   42.05    4.29
  -6   8  -7   40.65    7.08
   6  -8   7   29.11    3.53
   6  -8   7   34.62    3.91
   6   7  -7   20.73    4.94
   6   7  -7   14.95    4.85
   5   7  -7   68.26    6.72
   5   7  -7   68.71    7.24
   4   7  -7    5.84    3.12
  -4  -7   7    7.84    3.38
   4   7  -7    9.63    3.85
  -4  -7   7    2.85    3.06
   3   7  -7   25.10    4.08
  -3  -7   7   33.71    4.13
   3   7  -7   22.10    4.29
  -3  -7   7   16.52    3.94
  -3  -7   7   21.51    3.56
   2   7  -7  371.94   16.64
  -2  -7   7  397.60   17.07
  -2  -7   7  387.25   16.36
   2   7  -7  387.91   16.45
  -2  -7   7  379.79   16.60
  -1  -7   7   49.36    4.94
   1   7  -7   60.62    5.01
  -1  -7   7   62.57    5.40
   1   7  -7   66.89    5.63
  -1  -7   7   52.01    4.82
   0  -7   7 1717.58   62.08
   0   7  -7 1654.66   58.92
   0  -7   7 1715.05   59.23
   0   7  -7 1719.76   59.25
   0   7  -7 1696.80   60.41
   0   7  -7 1787.49   59.04
   0  -7   7 1733.74   59.61
   1  -7   7  262.55   11.67
  -1   7  -7  252.39   11.28
  -1   7  -7  264.77   10.41
   1  -7   7  242.75   11.80
   1  -7   7  257.85   11.64
  -1   7  -7  250.73   11.09
   1  -7   7  236.66   11.06
  -1   7  -7  257.93   11.68
   2  -7   7  431.43   17.72
  -2   7  -7  438.34   18.24
  -2   7  -7  427.10   18.30
   2  -7   7  406.41   16.92
   2  -7   7  426.88   16.89
  -2   7  -7  456.58   16.29
   3  -7   7   27.61    3.27
  -3   7  -7   22.51    3.79
   3  -7   7   26.90    3.36
  -3   7  -7   26.37    4.18
   3  -7   7   28.72    3.10
  -4   7  -7    1.14    2.65
   4  -7   7    1.52    1.83
   4  -7   7   -0.23    1.98
   4  -7   7    2.22    1.90
   5  -7   7  120.89    6.69
  -5   7  -7  122.01    9.67
   5  -7   7  124.67    6.48
  -6   7  -7    8.97    4.54
   6  -7   7    9.55    2.54
   7   6  -7   39.37    6.51
   6   6  -7   16.71    4.62
   6   6  -7   19.76    5.03
   5   6  -7   -0.40    3.14
   5   6  -7    3.76    3.03
   4   6  -7   39.48    4.91
  -4  -6   7   51.22    5.36
  -4  -6   7   41.63    5.06
   4   6  -7   36.87    5.06
  -3  -6   7  235.34   11.54
   3   6  -7  237.57   11.98
   3   6  -7  239.11   11.63
  -3  -6   7  236.10   11.75
  -3  -6   7  242.93   11.36
  -3  -6   7  243.14   12.40
  -2  -6   7 2012.59   71.09
   2   6  -7 2055.12   71.24
  -2  -6   7 2122.50   74.47
   2   6  -7 2044.36   71.66
  -2  -6   7 2170.27   71.74
  -1  -6   7  242.90   11.68
  -1  -6   7  254.19   11.58
   1   6  -7  243.28   11.03
  -1  -6   7  251.91   11.27
   1   6  -7  258.60   11.55
   0   6  -7  164.92    7.50
   0  -6   7  172.66    8.36
   0  -6   7  167.01    8.78
   0   6  -7  175.49    8.01
   0  -6   7  166.40    8.70
   0   6  -7  182.89    8.76
   1  -6   7  227.09   10.25
   1  -6   7  224.17    9.82
   1  -6   7  226.31   10.57
   1  -6   7  226.26   10.17
  -1   6  -7  227.46    9.89
  -1   6  -7  225.31   10.11
  -1   6  -7  223.98   10.31
  -2   6  -7   18.23    2.30
  -2   6  -7   19.55    3.21
   2  -6   7   21.10    2.54
   2  -6   7   14.87    2.32
   2  -6   7   16.41    2.79
  -2   6  -7   14.15    2.94
   2  -6   7   15.20    2.80
  -3   6  -7   18.36    3.76
   3  -6   7   16.34    2.58
   3  -6   7   17.99    2.31
   3  -6   7   14.71    2.45
   3  -6   7   16.84    2.53
  -3   6  -7   20.61    3.68
   4  -6   7  231.60   10.50
   4  -6   7  219.15    9.16
   4  -6   7  216.60    9.67
  -4   6  -7  217.06   12.40
   4  -6   7  217.14    9.14
   5  -6   7   44.74    3.51
   5  -6   7   44.08    3.31
  -5   6  -7   36.77    5.92
  -6   6  -7   17.42    5.28
   6  -6   7   16.03    2.26
   7   5  -7   31.02    6.03
   6   5  -7   86.43    7.86
   6   5  -7   88.08    7.67
   5   5  -7  110.34    7.86
   5   5  -7  105.78    8.11
   4   5  -7   70.00    6.28
  -4  -5   7   68.14    5.92
   4   5  -7   67.77    5.99
  -4  -5   7   67.45    5.89
   3   5  -7  495.92   20.10
  -3  -5   7  504.46   19.65
  -3  -5   7  498.26   22.21
   3   5  -7  498.39   20.22
  -3  -5   7  514.68   20.12
  -3  -5   7  487.43   20.23
   2   5  -7  766.76   28.72
  -2  -5   7  762.14   32.19
  -2  -5   7  771.43   29.64
  -2  -5   7  786.31   28.60
  -2  -5   7  805.06   28.78
   2   5  -7  791.19   28.92
  -1  -5   7 2042.39   74.23
   1   5  -7 2192.21   72.35
   1   5  -7 2037.96   71.26
  -1  -5   7 2054.09   71.30
   1   5  -7 2117.90   70.85
  -1  -5   7 2121.11   70.88
   0   5  -7  117.92    6.10
   0   5  -7  113.94    6.31
   0  -5   7  115.75    6.63
   0   5  -7  121.63    5.54
   0  -5   7  121.14    6.47
   0  -5   7  113.34    6.19
   0   5  -7  122.53    6.03
  -1   5  -7  485.65   18.87
  -1   5  -7  464.37   18.62
   1  -5   7  522.46   18.38
  -1   5  -7  485.85   17.73
   1  -5   7  499.47   18.95
  -1   5  -7  466.77   17.16
  -1   5  -7  486.32   17.79
   1  -5   7  472.88   18.02
   1  -5   7  471.51   17.92
   2  -5   7    7.78    2.12
   2  -5   7    8.24    1.99
   2  -5   7    6.53    2.03
  -2   5  -7    8.62    2.54
  -2   5  -7    7.55    2.45
   2  -5   7    5.51    1.65
  -2   5  -7    8.85    1.66
   3  -5   7   16.21    2.66
   3  -5   7   22.47    2.51
   3  -5   7   19.81    2.18
  -3   5  -7   16.85    3.58
   3  -5   7   20.57    2.51
   4  -5   7   40.05    4.25
   4  -5   7   50.83    3.16
   4  -5   7   55.69    3.36
   4  -5   7   52.68    3.46
  -4   5  -7   52.65    5.80
  -5   5  -7   52.91    6.43
   5  -5   7   61.68    5.60
   5  -5   7   49.50    3.09
   5  -5   7   53.26    3.26
  -6   5  -7    3.48    3.64
   7   4  -7   17.34    4.71
   6   4  -7    1.78    3.35
   6   4  -7   -1.96    2.85
   5   4  -7   33.68    4.58
   5   4  -7   28.85    4.72
   4   4  -7   56.05    5.31
  -4  -4   7   60.81    5.40
   4   4  -7   60.56    5.32
  -4  -4   7   64.14    5.43
   3   4  -7    8.47    2.70
  -3  -4   7    1.38    1.93
  -3  -4   7    4.70    2.20
  -3  -4   7    6.09    2.19
   3   4  -7    3.03    2.53
  -3  -4   7    4.99    2.66
   2   4  -7  853.95   30.82
  -2  -4   7  902.19   30.86
  -2  -4   7  847.18   31.87
   2   4  -7  838.85   30.83
  -2  -4   7  847.34   30.76
  -2  -4   7  837.76   34.68
   1   4  -7  271.78   11.42
  -1  -4   7  267.77   11.16
  -1  -4   7  277.86   11.46
  -1  -4   7  253.63   11.66
   1   4  -7  270.02   11.30
   0   4  -7 1691.50   56.31
   0   4  -7 1675.85   57.93
   0  -4   7 1655.46   59.14
   0   4  -7 1630.03   56.50
   0  -4   7 1653.00   56.30
   0  -4   7 1701.42   56.78
  -1   4  -7   18.58    1.78
  -1   4  -7   23.68    2.13
   1  -4   7   21.80    2.52
   1  -4   7   17.79    2.43
  -1   4  -7   22.46    2.34
   1  -4   7   21.39    2.30
  -1   4  -7   17.91    2.46
   1  -4   7   20.43    2.46
   2  -4   7 1193.76   39.17
  -2   4  -7 1112.32   41.69
   2  -4   7 1149.11   47.32
   2  -4   7 1147.30   38.70
   2  -4   7 1157.13   38.92
   2  -4   7 1111.04   40.61
   2  -4   7 1118.88   40.81
   3  -4   7   78.68    4.31
  -3   4  -7   97.10    6.75
   3  -4   7   80.52    4.03
   3  -4   7   78.58    4.35
   3  -4   7   84.93    4.40
   3  -4   7   78.57    5.43
   4  -4   7    2.58    1.08
   4  -4   7    4.87    1.19
  -4   4  -7    4.50    2.85
   4  -4   7    5.70    1.34
   4  -4   7    1.15    2.27
  -5   4  -7   50.15    6.15
   5  -4   7   56.91    5.57
   6  -4   7   -2.61    3.00
   7   3  -7    4.02    3.49
   7   3  -7    5.77    3.98
   6   3  -7    5.92    3.55
   6   3  -7   11.89    3.66
   5   3  -7    6.95    3.16
   5   3  -7   10.05    3.17
   4   3  -7  130.37    7.68
  -4  -3   7  148.61    8.02
   4   3  -7  114.16    7.65
   3   3  -7   73.55    5.83
  -3  -3   7   90.68    6.22
  -3  -3   7   93.96    5.76
   3   3  -7   89.32    6.11
  -3  -3   7   92.11    5.55
  -3  -3   7   91.47    5.66
  -2  -3   7  211.17   10.01
   2   3  -7  215.25    9.94
  -2  -3   7  229.93    9.84
  -2  -3   7  231.29    9.86
  -2  -3   7  220.82    9.97
   2   3  -7  215.44   10.07
   1   3  -7   15.04    2.25
  -1  -3   7   19.37    2.56
   1   3  -7   14.81    1.37
  -1  -3   7   17.25    2.26
  -1  -3   7    7.98    2.19
   1   3  -7   14.33    2.42
   0  -3   7   11.29    1.92
   0   3  -7   16.21    2.07
   0  -3   7   12.88    2.09
   0   3  -7   14.45    1.74
   0  -3   7   15.42    1.54
   0   3  -7   16.54    2.24
   0  -3   7    7.32    1.88
   0  -3   7   14.50    1.56
   1  -3   7  535.98   20.81
  -1   3  -7  567.31   19.30
   1  -3   7  529.05   19.83
  -1   3  -7  571.96   19.80
   1  -3   7  549.96   23.58
   1  -3   7  546.33   19.91
  -1   3  -7  555.69   20.86
   1  -3   7  587.21   21.07
   1  -3   7  587.26   20.19
  -1   3  -7  562.11   21.07
   2  -3   7  915.85   29.86
   2  -3   7  885.39   31.95
   2  -3   7  901.65   30.06
   2  -3   7  843.47   31.11
   2  -3   7  890.73   29.83
   2  -3   7  862.77   36.57
  -2   3  -7  857.71   28.80
   2  -3   7  838.57   29.60
  -2   3  -7  833.73   32.29
   3  -3   7  972.60   33.75
  -3   3  -7  921.47   36.16
   3  -3   7  942.55   35.46
   3  -3   7  934.31   32.07
   3  -3   7  977.56   32.51
   3  -3   7  974.12   32.37
  -4   3  -7   30.34    4.44
   4  -3   7   30.83    2.10
   4  -3   7   25.04    3.79
   4  -3   7   29.87    2.01
   5  -3   7    8.85    3.46
   6  -3   7   38.56    5.70
   8   2  -7    6.51    4.36
   7   2  -7  183.12   11.33
   7   2  -7  175.53   11.03
   6   2  -7  160.02    9.97
   6   2  -7  167.84    9.93
   5   2  -7   10.10    3.44
   5   2  -7    6.51    2.87
   4   2  -7   37.11    4.20
   4   2  -7   30.76    4.03
  -4  -2   7   41.32    4.08
   3   2  -7  202.86   10.10
  -3  -2   7  238.29   10.00
  -3  -2   7  221.73   10.04
  -3  -2   7  218.28   10.07
   3   2  -7  216.64   10.49
  -2  -2   7   48.21    4.06
  -2  -2   7   56.12    3.89
   2   2  -7   54.32    4.13
  -2  -2   7   52.95    4.17
   2   2  -7   50.04    4.31
  -2  -2   7   58.63    3.09
   1   2  -7 2993.48  102.42
  -1  -2   7 3267.30  115.41
  -1  -2   7 2946.13  103.42
   1   2  -7 3088.67  103.59
  -1  -2   7 3057.13  107.71
  -1  -2   7 3178.19  107.22
  -1  -2   7 3071.87  102.43
   1   2  -7 3180.23  105.86
   0  -2   7 1042.08   35.16
   0   2  -7 1023.46   35.38
   0  -2   7  954.95   36.26
   0  -2   7  990.53   34.59
   0   2  -7  994.01   34.72
   0  -2   7 1069.86   39.49
   0   2  -7  994.22   34.65
   0  -2   7  984.80   34.78
   0  -2   7 1023.42   35.65
  -1   2  -7  322.07   11.07
   1  -2   7  312.12   12.65
   1  -2   7  302.91   12.22
   1  -2   7  291.29   11.71
   1  -2   7  291.68   11.57
  -1   2  -7  318.88   11.66
   1  -2   7  331.31   12.03
   1  -2   7  308.52   13.75
  -1   2  -7  304.83   12.50
   2  -2   7    0.55    1.20
   2  -2   7   -0.15    1.39
   2  -2   7    0.16    1.14
   2  -2   7    1.52    2.00
   2  -2   7   -0.78    1.21
  -2   2  -7   -0.10    1.79
   2  -2   7   -0.77    1.27
  -2   2  -7   -0.09    0.79
   2  -2   7    2.60    2.04
   3  -2   7    6.18    1.43
  -3   2  -7    4.87    2.61
   3  -2   7    6.62    1.47
   3  -2   7    3.80    1.37
   3  -2   7    6.48    1.48
   3  -2   7    4.56    2.51
   4  -2   7   11.97    1.44
   4  -2   7   11.94    1.47
   4  -2   7   16.94    3.51
   5  -2   7   57.04    5.99
   5  -2   7   52.85    2.91
   5  -2   7   54.69    2.89
   6  -2   7   15.24    4.60
   8   1  -7    3.12    3.86
   7   1  -7   -1.18    2.95
   7   1  -7    0.38    3.27
   6   1  -7  201.12   11.07
   6   1  -7  205.22   11.31
   5   1  -7   23.49    3.99
   5   1  -7   17.56    3.59
  -4  -1   7   88.11    5.89
   4   1  -7   84.16    5.88
   4   1  -7   84.22    6.16
   4   1  -7   76.60    5.82
  -2  -1   7    4.71    1.68
   2   1  -7    2.63    0.95
   2   1  -7    4.37    2.10
   2   1  -7    1.08    1.57
  -2  -1   7    3.40    0.93
  -2  -1   7    0.48    1.70
  -2  -1   7    5.64    1.79
  -1  -1   7  449.64   16.44
  -1  -1   7  415.65   16.44
   1   1  -7  441.59   16.72
   1   1  -7  433.41   16.50
  -1  -1   7  426.46   17.12
  -1  -1   7  470.74   17.95
   0  -1   7 1948.92   68.25
   0  -1   7 2179.29   77.76
   0   1  -7 2059.86   68.99
   0   1  -7 2078.67   68.39
   0  -1   7 1995.78   68.94
   0   1  -7 2005.23   80.86
   0  -1   7 2111.52   69.36
   0  -1   7 2054.85   71.91
   1  -1   7  211.37    8.97
  -1   1  -7  226.68    8.65
   1  -1   7  197.49    8.61
  -1   1  -7  208.36   10.07
   1  -1   7  207.25    8.50
   1  -1   7  216.26    8.80
  -1   1  -7  222.01    8.04
  -2   1  -7  220.29   11.36
   2  -1   7  219.53    9.14
  -2   1  -7  230.98    8.14
   2  -1   7  220.33    8.86
   2  -1   7  224.43   10.40
   2  -1   7  228.13   11.37
   2  -1   7  211.16    8.70
   2  -1   7  230.05    8.95
   3  -1   7   20.51    2.09
   3  -1   7   20.51    2.05
   3  -1   7   21.44    3.71
  -3   1  -7   22.67    3.71
   4  -1   7    1.08    1.27
   4  -1   7    2.68    1.28
   4  -1   7    0.49    2.63
   4  -1   7    0.58    1.20
   5  -1   7   96.83    4.81
   5  -1   7   96.74    7.88
   5  -1   7  103.06    4.77
   6  -1   7    5.76    1.76
   8   0  -7   16.49    4.65
   7   0  -7    8.80    3.69
   7   0  -7   13.50    4.34
   6   0  -7   56.87    5.90
   6   0  -7   54.23    5.65
   5   0  -7   -0.11    2.33
   5   0  -7    3.62    2.67
   4   0  -7   33.13    3.98
   4   0  -7   29.09    3.87
  -4   0   7   34.99    3.82
  -4   0   7   40.94    3.43
   4   0  -7   24.16    3.53
  -3   0   7  230.67    9.87
  -3   0   7  249.24   10.40
  -3   0   7  252.25   10.79
   3   0  -7  266.43   11.55
   3   0  -7  226.73   10.94
   3   0  -7  223.44   10.77
  -3   0   7  235.71   10.62
   2   0  -7  191.55    8.48
  -2   0   7  191.61    8.77
   2   0  -7  198.48    8.65
   2   0  -7  194.94    9.01
  -2   0   7  188.84    8.46
  -2   0   7  180.90    8.70
   2   0  -7  189.74    8.74
  -1   0   7   69.21    4.36
  -1   0   7   80.72    4.69
   1   0  -7   75.67    4.85
  -1   0   7   88.21    3.26
  -1   0   7   90.50    4.95
   1   0  -7   68.23    4.64
  -1   0   7   68.37    4.56
   0   0   7  179.32    7.49
   0   0  -7  178.16    7.92
   0   0  -7  151.13    8.45
   0   0  -7  178.45    7.73
   0   0  -7  175.79    7.48
   0   0   7  164.73    7.84
   0   0   7  174.54    7.67
  -1   0  -7   48.43    2.93
  -1   0  -7   56.14    3.53
   1   0   7   48.74    3.50
   1   0   7   50.30    3.34
  -1   0  -7   50.43    3.82
   1   0   7   50.76    3.60
   1   0   7   49.57    3.63
  -1   0  -7   47.87    4.41
  -2   0  -7 1586.94   48.79
  -2   0  -7 1435.74   60.01
   2   0   7 1440.83   51.70
   2   0   7 1507.08   49.95
   2   0   7 1396.64   49.59
   2   0   7 1466.07   49.23
   2   0   7 1435.47   53.06
   3   0   7  939.03   33.46
   3   0   7  977.22   34.86
  -3   0  -7 1009.03   42.02
   3   0   7  985.89   37.04
   3   0   7  960.30   33.14
  -4   0  -7   49.38    5.81
   4   0   7   48.14    3.42
   4   0   7   45.76    3.35
   4   0   7   44.49    5.27
   4   0   7   50.32    3.41
   5   0   7    3.28    1.63
   5   0   7    0.68    1.43
   5   0   7   -1.11    2.76
   6   0   7   27.81    2.99
   6   0   7   34.21    3.26
   8  -1  -7    8.81    4.06
   7  -1  -7   38.58    5.47
   7  -1  -7   33.41    5.26
   6  -1  -7   -2.86    2.50
   6  -1  -7    2.12    2.77
   5  -1  -7   15.29    3.56
   5  -1  -7   11.02    3.24
  -5   1   7   16.92    3.29
   4  -1  -7   18.09    3.18
  -4   1   7   16.57    2.69
  -4   1   7   14.78    2.91
   4  -1  -7   11.86    3.12
   4  -1  -7   14.40    3.15
   3  -1  -7  403.63   16.19
  -3   1   7  399.98   14.38
   3  -1  -7  390.82   15.98
   3  -1  -7  384.32   15.68
   3  -1  -7  400.10   17.51
  -3   1   7  395.15   15.66
  -3   1   7  368.86   15.71
  -3   1   7  391.55   15.28
  -2   1   7  169.26    7.98
   2  -1  -7  171.44    8.08
  -2   1   7  165.64    6.17
  -2   1   7  156.55    7.49
  -2   1   7  155.93    7.84
   2  -1  -7  164.82    7.81
   2  -1  -7  163.47    8.31
   1  -1  -7  206.60    9.08
  -1   1   7  203.56    9.19
  -1   1   7  213.98    9.17
  -1   1   7  198.37    8.69
   1  -1  -7  208.40    9.31
   1  -1  -7  195.02    9.53
   0  -1  -7  958.53   33.04
   0  -1  -7  925.88   37.27
   0   1   7  955.41   34.42
   0   1   7  931.44   32.94
   0   1   7  973.41   32.98
   0  -1  -7  921.16   32.85
   1   1   7    0.71    1.51
   1   1   7   -1.03    1.67
  -1  -1  -7   -1.69    1.46
   1   1   7   -1.10    1.28
   1   1   7    1.90    1.43
  -1  -1  -7    0.23    1.79
  -1  -1  -7    0.25    1.44
  -1  -1  -7    1.73    1.08
   1   1   7    0.76    1.55
  -2  -1  -7   92.74    6.96
   2   1   7   79.85    5.07
   2   1   7  119.43    5.80
   2   1   7   91.55    5.39
  -2  -1  -7  101.07    5.02
   2   1   7   90.31    6.45
   2   1   7  113.05    5.65
  -2  -1  -7   95.07    6.69
   3   1   7  507.14   18.46
   3   1   7  496.59   19.22
   3   1   7  498.17   18.50
  -3  -1  -7  514.83   23.89
   3   1   7  495.12   21.18
   4   1   7  141.68    6.68
   4   1   7  124.13    6.54
  -4  -1  -7  146.36   10.15
   4   1   7  143.54    9.14
   4   1   7  130.20    6.70
   5   1   7    5.46    3.53
   5   1   7    3.99    1.94
   5   1   7   -1.05    1.75
   6   1   7    4.31    2.27
   6   1   7    0.99    1.88
   8  -2  -7    8.60    4.12
   7  -2  -7   31.57    5.15
   7  -2  -7   36.76    5.33
   6  -2  -7  143.82    9.04
   6  -2  -7  128.99    8.89
   5  -2  -7  295.59   13.73
   5  -2  -7  279.17   13.73
  -5   2   7  302.00   13.89
  -4   2   7  109.03    5.93
   4  -2  -7  108.37    7.37
   4  -2  -7  113.04    7.23
  -4   2   7  116.32    6.79
   4  -2  -7  123.18    7.81
  -4   2   7  113.64    6.66
  -3   2   7  473.09   19.10
   3  -2  -7  448.63   19.01
   3  -2  -7  483.43   19.59
  -3   2   7  504.85   18.50
  -3   2   7  506.30   17.92
  -3   2   7  496.89   18.87
   3  -2  -7  473.62   19.28
   2  -2  -7    6.31    2.31
   2  -2  -7    4.19    1.80
  -2   2   7    1.69    1.99
  -2   2   7    2.06    1.76
  -2   2   7    6.01    1.88
   2  -2  -7    6.75    2.39
   1  -2  -7  879.24   35.91
  -1   2   7  916.99   33.62
   1  -2  -7  927.40   32.48
   1  -2  -7  918.30   32.53
  -1   2   7  918.47   32.23
  -1   2   7  916.33   32.23
   0  -2  -7  592.19   20.86
   0  -2  -7  574.66   20.62
   0   2   7  540.93   20.69
   0   2   7  559.56   20.53
   0   2   7  557.15   21.49
   0  -2  -7  522.11   23.28
   1   2   7   60.74    4.25
   1   2   7   49.44    3.90
  -1  -2  -7   62.95    4.02
  -1  -2  -7   59.55    4.78
  -1  -2  -7   54.10    5.09
   1   2   7   58.08    4.62
  -1  -2  -7   59.27    4.24
   2   2   7   16.95    2.65
  -2  -2  -7   22.95    2.66
   2   2   7   21.73    3.71
   2   2   7   21.47    3.04
  -2  -2  -7   18.13    3.68
  -2  -2  -7   21.33    3.53
   2   2   7   25.59    2.93
   3   2   7  178.59    8.32
  -3  -2  -7  159.73   10.44
   3   2   7  173.55    8.09
   3   2   7  165.01    8.22
  -3  -2  -7  180.60   10.99
   3   2   7  177.24   10.06
   4   2   7    6.40    2.13
   4   2   7    5.51    2.19
   4   2   7    5.40    3.20
   4   2   7    4.70    2.26
   5   2   7   10.54    2.66
   5   2   7    9.94    2.74
   5   2   7   15.98    4.59
   6   2   7   10.82    3.00
   7  -3  -7    5.79    3.57
   7  -3  -7    6.65    3.50
  -6   3   7    7.15    3.52
   6  -3  -7    6.93    3.37
   6  -3  -7    3.48    3.24
   5  -3  -7  113.01    7.73
   5  -3  -7  125.81    8.28
  -5   3   7  126.26    7.95
  -4   3   7   87.96    5.28
   4  -3  -7   77.66    6.39
   4  -3  -7   86.93    6.25
  -4   3   7   84.81    5.95
  -4   3   7   96.87    6.06
   3  -3  -7    2.91    2.64
  -3   3   7    5.04    2.07
  -3   3   7    4.95    1.92
  -3   3   7    8.00    2.56
  -3   3   7    3.16    1.52
   3  -3  -7    6.67    2.54
  -2   3   7  148.39    7.77
   2  -3  -7  150.70    8.11
  -2   3   7  166.88    8.07
   2  -3  -7  144.43    8.13
   2  -3  -7  135.41    7.80
  -2   3   7  155.24    7.44
  -1   3   7   24.58    3.05
   1  -3  -7   24.57    3.24
   1  -3  -7   19.34    3.12
   1  -3  -7   20.49    3.22
  -1   3   7   20.00    3.16
  -1   3   7   22.92    2.98
   0  -3  -7 1513.07   52.34
   0   3   7 1590.83   54.89
   0  -3  -7 1497.89   59.31
   0  -3  -7 1528.03   52.66
   0   3   7 1526.49   52.36
   0   3   7 1496.89   52.56
  -1  -3  -7 1357.24   44.67
   1   3   7 1239.32   44.60
  -1  -3  -7 1290.01   44.55
   1   3   7 1262.98   44.94
   1   3   7 1321.31   46.89
  -1  -3  -7 1264.23   51.22
  -2  -3  -7  303.53   12.34
   2   3   7  315.74   12.93
  -2  -3  -7  316.40   15.68
   2   3   7  302.79   13.15
   2   3   7  295.22   14.13
   2   3   7  291.43   12.59
  -2  -3  -7  276.55   15.07
   3   3   7  295.73   12.93
  -3  -3  -7  278.16   15.39
   3   3   7  274.50   14.22
  -3  -3  -7  294.77   16.04
   3   3   7  295.62   12.48
   3   3   7  285.78   12.40
   4   3   7    2.58    2.31
   4   3   7    1.62    1.95
   4   3   7   -0.71    2.84
   4   3   7    0.30    1.99
   5   3   7    1.73    2.40
   5   3   7    5.02    2.49
   5   3   7    5.70    2.74
   6   3   7   39.09    4.47
   7  -4  -7   29.17    5.32
   7  -4  -7   34.14    5.37
   6  -4  -7   13.99    4.13
  -6   4   7   21.36    4.58
   6  -4  -7   22.19    4.48
  -5   4   7   65.96    6.05
   5  -4  -7   75.52    6.49
   5  -4  -7   74.44    6.57
  -4   4   7    1.09    1.66
  -4   4   7    1.56    2.33
   4  -4  -7   -2.88    2.30
   4  -4  -7   -1.70    2.11
   3  -4  -7   67.85    5.63
  -3   4   7   65.92    4.88
  -3   4   7   61.65    4.58
  -3   4   7   55.57    4.83
   3  -4  -7   50.51    5.01
  -3   4   7   66.80    4.14
  -2   4   7   29.61    3.61
   2  -4  -7   28.35    3.81
   2  -4  -7   31.43    4.12
  -2   4   7   28.68    3.86
  -2   4   7   32.36    3.52
   1  -4  -7  270.32   11.79
  -1   4   7  269.50   11.44
   1  -4  -7  243.97   12.70
  -1   4   7  266.37   12.01
  -1   4   7  251.43   11.73
   0  -4  -7  879.08   37.38
   0  -4  -7  975.38   33.34
   0   4   7  905.36   34.46
   0   4   7  918.22   33.19
   0   4   7  917.95   33.22
   1   4   7   67.32    5.11
  -1  -4  -7   83.18    5.15
  -1  -4  -7   66.64    6.13
   1   4   7   70.74    5.41
   1   4   7   72.64    5.76
   2   4   7   17.10    2.99
   2   4   7   18.62    3.78
   2   4   7   17.75    3.10
  -2  -4  -7   21.52    3.88
  -2  -4  -7   12.15    3.85
   2   4   7   13.41    3.17
   3   4   7  632.14   25.01
   3   4   7  615.02   26.42
   3   4   7  630.94   24.13
  -3  -4  -7  599.26   28.40
   3   4   7  604.34   23.96
  -3  -4  -7  676.96   30.16
   4   4   7   72.19    5.90
   4   4   7   81.18    6.08
  -4  -4  -7   76.94    7.99
   4   4   7   77.49    7.64
   4   4   7   75.03    5.94
   5   4   7   -1.21    2.33
   5   4   7    2.47    2.87
   5   4   7   -0.39    2.55
   7  -5  -7   15.89    4.53
  -6   5   7   16.12    4.64
   6  -5  -7   17.58    4.41
   6  -5  -7   17.76    4.39
  -5   5   7   40.43    5.16
   5  -5  -7   40.06    5.13
   5  -5  -7   41.48    5.43
  -4   5   7  124.40    7.53
  -4   5   7  117.39    6.73
   4  -5  -7  110.42    8.13
   4  -5  -7  118.09    7.96
   3  -5  -7  145.39    8.54
  -3   5   7  127.39    7.96
  -3   5   7  156.39    7.43
   3  -5  -7  138.92    8.68
  -3   5   7  146.34    7.70
  -2   5   7  670.68   25.54
   2  -5  -7  604.21   24.99
  -2   5   7  672.02   24.57
  -2   5   7  641.15   24.76
  -1   5   7    5.56    2.33
   1  -5  -7    5.08    2.59
  -1   5   7    6.54    2.80
   1  -5  -7    2.72    2.28
   1  -5  -7    5.50    2.51
  -1   5   7    4.14    2.18
   0   5   7  145.45    8.19
   0  -5  -7  136.83    8.99
   0   5   7  164.74    8.65
   0   5   7  144.86    7.99
   0  -5  -7  141.26    8.01
   1   5   7  527.60   20.20
   1   5   7  507.29   20.34
  -1  -5  -7  468.41   22.99
   1   5   7  509.90   20.83
   2   5   7   20.04    3.45
  -2  -5  -7   20.76    4.20
  -2  -5  -7   14.06    4.02
   2   5   7   13.32    3.19
   2   5   7   23.12    3.89
   2   5   7   13.02    3.81
   3   5   7   75.78    7.27
   3   5   7   82.58    6.34
   3   5   7   88.59    6.61
  -3  -5  -7   78.72    7.94
   3   5   7   87.95    6.67
  -4  -5  -7   28.26    5.90
   4   5   7   25.33    4.31
   4   5   7   30.28    4.48
   4   5   7   30.37    4.60
   4   5   7   27.42    5.73
   5   5   7   -0.26    2.89
   5   5   7    4.58    3.23
   7  -6  -7   26.27    5.43
   6  -6  -7    7.01    3.95
   6  -6  -7    4.40    3.38
   5  -6  -7   64.34    6.75
   5  -6  -7   68.25    7.05
  -5   6   7   79.91    7.22
  -4   6   7   32.96    3.83
   4  -6  -7   37.36    4.97
  -4   6   7   34.23    4.38
   4  -6  -7   29.19    4.89
   3  -6  -7   28.12    4.30
   3  -6  -7   33.88    4.61
   3  -6  -7   39.48    5.22
  -3   6   7   30.32    4.24
  -3   6   7   34.88    3.63
   2  -6  -7   38.48    4.61
  -2   6   7   46.46    4.55
  -2   6   7   39.92    4.70
  -2   6   7   43.48    4.42
   2  -6  -7   39.19    4.71
   1  -6  -7   11.42    3.54
  -1   6   7   24.75    3.52
  -1   6   7   16.64    3.20
  -1   6   7   19.56    3.68
   1  -6  -7   12.36    3.35
   1  -6  -7   19.82    3.55
   0  -6  -7  523.81   24.76
   0   6   7  536.09   22.14
   0  -6  -7  555.07   21.93
   0   6   7  551.75   22.72
   0  -6  -7  579.89   22.04
   0   6   7  544.72   21.78
   1   6   7  227.19   11.81
   1   6   7  245.35   12.33
  -1  -6  -7  255.36   14.30
   1   6   7  269.55   12.64
  -2  -6  -7    4.72    3.36
   2   6   7   -1.73    2.14
   2   6   7   -1.34    2.65
   2   6   7    1.54    2.55
   3   6   7   40.17    5.87
   3   6   7   33.30    5.05
   3   6   7   40.78    5.03
  -3  -6  -7   40.40    6.38
   3   6   7   33.26    4.76
   4   6   7    3.56    3.56
   4   6   7    3.77    3.13
   4   6   7    4.85    3.20
   5   6   7   -1.06    3.24
   7  -7  -7   23.99    5.63
   6  -7  -7   23.24    5.16
   6  -7  -7    9.37    4.40
   5  -7  -7   39.10    5.65
  -5   7   7   30.17    5.39
   5  -7  -7   30.24    5.57
  -4   7   7  147.13    8.55
   4  -7  -7  150.94    9.84
   4  -7  -7  139.84    9.88
   3  -7  -7   13.85    3.66
   3  -7  -7    6.77    3.13
  -3   7   7    5.42    3.11
  -2   7   7   95.70    7.55
   2  -7  -7  102.36    7.42
   2  -7  -7  111.47    7.67
  -2   7   7   99.96    6.79
  -1   7   7    3.40    2.55
   1  -7  -7    5.37    2.73
  -1   7   7    1.22    2.38
   1  -7  -7    6.02    2.82
  -1   7   7    6.27    3.09
   0   7   7   71.25    6.04
   0  -7  -7   74.81    6.24
   0  -7  -7   86.08    7.65
   0   7   7   69.21    6.61
   0   7   7   80.12    6.33
   0  -7  -7   64.34    5.99
   1   7   7  376.74   16.93
   1   7   7  365.11   16.99
  -1  -7  -7  368.45   19.30
   1   7   7  379.13   17.40
   2   7   7  123.78    8.98
   2   7   7  136.34    8.92
   2   7   7  129.19    8.52
  -2  -7  -7  127.40   10.26
   3   7   7   71.19    6.79
   3   7   7   71.95    7.13
   3   7   7   70.75    6.89
  -3  -7  -7   78.41    8.70
   4   7   7    1.85    3.52
   4   7   7    7.15    3.65
   5   7   7    4.65    3.80
   6  -8  -7   11.69    4.85
   5  -8  -7   18.24    4.78
   5  -8  -7   25.78    5.55
   4  -8  -7   26.18    5.22
   4  -8  -7   26.23    5.36
  -3   8   7   13.38    3.99
   3  -8  -7   14.32    4.01
   3  -8  -7    4.84    3.37
   2  -8  -7  100.47    7.68
   2  -8  -7   92.30    7.49
  -2   8   7   96.01    7.63
   1  -8  -7    7.61    3.43
   1  -8  -7    8.23    3.35
  -1   8   7   11.68    3.49
  -1   8   7   13.07    3.92
   0  -8  -7   20.53    4.85
   0   8   7   26.67    4.96
   0   8   7   18.77    3.96
   0   8   7   17.30    4.13
  -1  -8  -7   45.58    6.66
   1   8   7   48.42    6.21
   1   8   7   40.44    5.58
   1   8   7   47.10    5.67
   2   8   7   66.83    7.12
  -2  -8  -7   60.84    7.89
   2   8   7   71.75    6.94
   2   8   7   67.21    6.93
   3   8   7   -1.05    3.16
   3   8   7   -0.17    3.54
   3   8   7    0.09    2.89
   4   8   7   69.05    7.52
   5  -9  -7   20.09    5.54
   5  -9  -7   26.50    5.75
   4  -9  -7   10.73    4.33
   4  -9  -7    7.97    4.11
   4  -9  -7    2.17    3.79
   3  -9  -7  101.04    8.76
  -3   9   7   93.48    8.27
   3  -9  -7  102.08    8.75
   2  -9  -7   22.54    4.77
   2  -9  -7   15.92    4.71
  -2   9   7   25.10    5.02
  -1   9   7    2.58    3.40
   1  -9  -7    2.03    3.42
  -1   9   7   -2.59    2.51
   1  -9  -7   -0.96    3.36
   1  -9  -7    4.16    3.45
   0   9   7    5.83    3.31
   0   9   7    9.53    4.04
   0   9   7    8.88    3.77
   0  -9  -7    8.60    4.36
   1   9   7    1.69    3.25
   1   9   7    4.40    3.78
   1   9   7    5.76    3.53
   2   9   7   21.95    5.08
   2   9   7   28.17    5.37
   2   9   7   29.77    5.78
   3   9   7    9.41    4.66
   5 -10  -7    8.71    4.91
   4 -10  -7   46.20    6.89
   4 -10  -7   50.59    7.21
   4 -10  -7   50.62    7.24
  -3  10   7   17.17    5.20
   3 -10  -7   23.13    5.23
   3 -10  -7   18.43    5.36
   2 -10  -7   19.59    5.09
  -2  10   7   22.20    5.23
   2 -10  -7   13.49    4.57
  -1  10   7    3.47    4.38
   0  10   7   -2.76    3.75
   0  10   7   -0.41    3.25
   1  10   7  132.82   10.80
   1  10   7  134.81   10.30
   2  10   7    3.18    4.43
   2  10   7    3.17    3.98
   4 -11  -7    4.85    4.54
   3 -11  -7   80.71    9.12
   3 -11  -7   84.29    8.94
  -2  11   7    6.59    4.36
  -1  11   7    3.75    4.36
   0  11   7    9.53    4.90
   1  11   7   -0.12    3.95
   1  11   7   -3.71    3.78
  -2  12   7    6.89    5.31
  -1  12   7   -0.64    4.34
   0  12   7   14.93    6.01
   1  15  -8   52.53    8.15
  -2 -14   8   -6.89    3.56
   2  14  -8   -1.37    4.35
  -1 -14   8    7.85    4.76
   1  14  -8    1.54    4.14
   0 -14   8   20.19    5.34
   0 -14   8   11.34    4.83
   1 -14   8    4.39    4.02
   1 -14   8    5.86    3.90
  -1  14  -8    9.68    4.32
   1 -14   8   -0.37    3.83
  -2  14  -8   54.15    7.31
   2 -14   8   56.80    7.44
   3 -14   8   17.07    5.30
   3  13  -8    4.05    4.84
  -3 -13   8    8.69    5.21
  -2 -13   8    5.52    4.67
   2  13  -8    7.83    4.80
   1  13  -8   52.00    7.13
  -1 -13   8   46.38    6.64
  -1 -13   8   34.08    6.72
   0 -13   8   95.66    8.79
   0  13  -8   98.32    8.73
   0 -13   8  113.48    9.40
   0 -13   8   88.68    9.01
   1 -13   8   19.03    5.00
   1 -13   8   23.67    5.33
  -1  13  -8   22.51    5.12
   1 -13   8   20.57    5.42
   2 -13   8   -0.53    3.23
   2 -13   8    0.28    3.26
  -2  13  -8    1.09    2.97
  -2  13  -8   -1.27    3.05
   2 -13   8   -1.79    3.40
  -3  13  -8  120.49   10.40
   3 -13   8  119.92    9.72
   3 -13   8  127.16    9.58
   4 -13   8   -3.51    3.29
   4  12  -8   60.58    8.57
   3  12  -8   -4.58    3.64
   3  12  -8    1.96    4.23
  -3 -12   8   -0.56    3.92
   2  12  -8   29.33    6.13
  -2 -12   8   22.57    5.62
   1  12  -8   14.42    4.86
  -1 -12   8    6.24    3.69
  -1 -12   8   23.75    5.34
   0 -12   8   32.20    5.86
   0 -12   8   30.57    5.48
   0 -12   8   44.00    5.76
   0  12  -8   31.97    5.35
   1 -12   8   78.63    7.79
  -1  12  -8   83.35    6.84
  -1  12  -8   71.05    7.06
   1 -12   8   86.40    8.01
   1 -12   8   78.20    7.34
   2 -12   8    0.55    3.06
   2 -12   8   -1.66    2.87
  -2  12  -8    1.24    2.94
  -2  12  -8   -1.33    2.62
   2 -12   8   -0.14    2.66
   3 -12   8    1.37    3.42
  -3  12  -8    1.66    3.36
   3 -12   8    2.13    3.17
  -3  12  -8    4.76    3.57
   3 -12   8    1.87    3.21
  -4  12  -8   10.23    4.54
   4 -12   8   10.81    3.92
   4 -12   8   11.90    4.20
   4  11  -8   44.59    7.06
   4  11  -8   40.98    6.76
  -3 -11   8   38.61    6.27
   3  11  -8   28.67    5.45
   3  11  -8   37.15    6.32
   2  11  -8   67.10    7.49
   2  11  -8   62.27    6.61
  -2 -11   8   53.90    6.76
  -2 -11   8   47.77    5.95
  -1 -11   8   85.04    7.93
  -1 -11   8   96.86    7.69
   1  11  -8  104.61    8.57
  -1 -11   8  105.51    8.51
   0 -11   8  154.02   10.10
   0 -11   8  141.03    9.45
   0  11  -8  152.68    9.62
   0 -11   8  141.79    9.73
  -1  11  -8    3.08    2.69
   1 -11   8    2.52    2.67
  -1  11  -8    4.40    2.52
   1 -11   8   -1.36    2.68
   1 -11   8    0.34    2.85
   2 -11   8  105.51    8.20
  -2  11  -8  119.15    8.29
  -2  11  -8  119.53    8.59
   2 -11   8  125.29    8.66
   2 -11   8  111.51    7.89
   3 -11   8   46.50    5.22
   3 -11   8   33.03    5.04
  -3  11  -8   35.82    5.49
  -3  11  -8   40.65    6.10
   3 -11   8   47.16    5.73
   4 -11   8  118.41    8.44
   4 -11   8  113.82    8.20
  -4  11  -8  113.15   10.13
   4 -11   8  122.77    8.79
   5 -11   8   -2.43    2.73
  -5  11  -8   -5.77    2.88
   5  10  -8   12.79    4.92
   4  10  -8   27.05    5.30
   4  10  -8   25.57    5.66
   3  10  -8   11.86    4.01
  -3 -10   8   15.28    4.82
   3  10  -8   17.11    4.82
  -2 -10   8    2.47    3.50
   2  10  -8    1.58    3.47
   2  10  -8    1.82    2.96
  -2 -10   8    0.01    2.47
  -1 -10   8  151.59    9.94
   1  10  -8  143.05    9.78
  -1 -10   8  161.22   10.05
   1  10  -8  157.97    9.30
  -1 -10   8  149.84    9.34
   0  10  -8   -0.79    2.56
   0  10  -8   -1.07    1.75
   0 -10   8   -4.01    2.03
   0 -10   8    0.01    2.17
   0 -10   8    0.77    2.99
  -1  10  -8   -0.28    2.48
  -1  10  -8    0.08    1.93
   1 -10   8   -0.40    2.67
   1 -10   8   -0.66    2.18
  -1  10  -8    0.51    2.35
   1 -10   8   -3.35    2.19
   2 -10   8   22.20    3.84
  -2  10  -8   25.39    3.93
   2 -10   8   32.48    4.53
   2 -10   8   28.79    4.47
  -2  10  -8   19.39    4.17
  -3  10  -8  103.28    8.20
   3 -10   8   86.35    6.65
   3 -10   8  102.89    7.45
   3 -10   8   83.53    6.78
  -3  10  -8   93.11    7.60
   4 -10   8   15.14    3.55
   4 -10   8   18.84    3.91
  -4  10  -8    9.49    4.21
  -4  10  -8   19.37    4.90
   4 -10   8   15.16    3.70
  -5  10  -8   29.53    6.34
   5 -10   8   19.17    3.86
   5   9  -8  178.55   12.05
   5   9  -8  184.43   12.29
   4   9  -8   40.72    5.97
   4   9  -8   34.31    5.97
  -4  -9   8   41.59    5.94
  -3  -9   8    1.78    3.31
   3   9  -8    5.10    3.31
   3   9  -8    2.71    3.37
   2   9  -8   69.68    6.22
   2   9  -8   66.70    6.65
  -2  -9   8   65.96    6.51
  -2  -9   8   60.99    5.96
  -2  -9   8   68.52    6.47
   1   9  -8   20.29    3.66
  -1  -9   8   23.12    4.16
  -1  -9   8   16.92    3.66
   1   9  -8   23.35    4.13
  -1  -9   8   21.40    4.26
   0   9  -8   82.36    5.26
   0  -9   8   62.82    6.22
   0   9  -8   78.23    5.68
   0  -9   8   78.02    6.13
   0   9  -8   78.47    6.40
   0  -9   8   83.72    6.82
   1  -9   8  407.21   17.93
   1  -9   8  367.24   16.97
  -1   9  -8  403.58   17.43
  -1   9  -8  405.98   16.80
   1  -9   8  374.38   16.83
  -1   9  -8  408.79   16.74
  -2   9  -8    9.30    3.12
  -2   9  -8    8.54    2.89
   2  -9   8   10.53    2.93
   2  -9   8    9.06    3.10
   2  -9   8   12.27    3.27
   3  -9   8   33.65    4.24
   3  -9   8   39.42    4.15
  -3   9  -8   34.48    4.76
   3  -9   8   29.02    4.06
  -3   9  -8   30.53    4.87
  -4   9  -8  247.47   13.95
   4  -9   8  254.47   12.15
   4  -9   8  218.23   11.17
   4  -9   8  233.86   11.31
  -4   9  -8  239.04   14.19
   5  -9   8    1.88    2.39
  -5   9  -8    4.44    4.06
   5  -9   8    2.28    2.59
  -6   9  -8   23.03    6.31
   6  -9   8   17.85    3.32
   6   8  -8   25.83    6.05
   5   8  -8    6.60    4.09
   5   8  -8    6.40    3.79
   4   8  -8  283.80   14.90
  -4  -8   8  292.97   14.63
   4   8  -8  279.22   14.59
  -3  -8   8   76.49    6.22
  -3  -8   8   59.13    6.17
  -3  -8   8   58.91    5.77
   3   8  -8   53.08    6.10
   3   8  -8   57.24    5.99
  -2  -8   8   67.35    5.76
  -2  -8   8   78.15    6.62
   2   8  -8   48.61    5.39
  -2  -8   8   84.53    6.63
   2   8  -8   60.91    5.93
   1   8  -8   27.27    3.85
   1   8  -8   33.17    4.40
  -1  -8   8   32.42    4.49
  -1  -8   8   36.19    4.50
  -1  -8   8   29.07    3.91
   0   8  -8  236.36   11.19
   0   8  -8  219.17   10.31
   0  -8   8  233.91   11.73
   0  -8   8  203.47   10.60
   0   8  -8  230.73    9.97
   0  -8   8  216.53   11.09
  -1   8  -8  227.05   10.56
   1  -8   8  225.61   11.37
  -1   8  -8  213.67   10.92
   1  -8   8  202.58   10.69
   1  -8   8  229.81   10.80
  -1   8  -8  239.06   10.69
  -2   8  -8  283.47   13.28
   2  -8   8  259.05   12.23
   2  -8   8  295.96   13.21
  -2   8  -8  283.92   13.56
   2  -8   8  273.21   12.58
   3  -8   8  178.61    9.62
  -3   8  -8  191.36   11.08
  -3   8  -8  187.01   10.60
   3  -8   8  187.50    9.35
   3  -8   8  187.81    9.09
  -4   8  -8    8.47    3.78
   4  -8   8    8.96    2.72
   4  -8   8   13.15    2.98
   4  -8   8   11.85    2.77
  -5   8  -8   19.37    5.12
   5  -8   8   19.34    3.11
   5  -8   8   15.29    3.02
  -6   8  -8   11.67    4.89
   6   7  -8   15.43    5.14
   6   7  -8   26.74    5.50
   5   7  -8   54.16    6.71
   5   7  -8   43.62    5.86
   4   7  -8  113.31    8.20
   4   7  -8  111.09    8.43
  -4  -7   8  134.52    8.90
  -3  -7   8  262.02   12.03
   3   7  -8  218.64   11.74
   3   7  -8  227.52   12.33
  -3  -7   8  238.89   12.43
  -3  -7   8  240.07   12.65
  -2  -7   8   -0.96    2.03
  -2  -7   8    4.36    2.65
  -2  -7   8   -2.33    1.79
   2   7  -8    3.62    2.79
   2   7  -8    2.82    2.39
  -1  -7   8  404.45   17.45
  -1  -7   8  425.89   18.01
   1   7  -8  413.18   15.43
  -1  -7   8  395.99   16.98
   1   7  -8  408.80   17.30
   1   7  -8  422.14   17.03
   0   7  -8  478.24   18.30
   0  -7   8  466.26   19.70
   0   7  -8  479.53   18.88
   0  -7   8  461.71   19.08
   0   7  -8  482.57   17.17
   0   7  -8  475.67   18.14
   0  -7   8  458.33   18.70
   1  -7   8  880.02   31.56
  -1   7  -8  835.66   32.22
  -1   7  -8  850.68   32.46
  -1   7  -8  923.92   31.16
   1  -7   8  872.72   32.98
   1  -7   8  839.28   31.35
  -2   7  -8   77.56    5.92
   2  -7   8   59.37    4.53
   2  -7   8   70.71    5.23
   2  -7   8   61.54    4.96
  -2   7  -8   68.61    5.43
  -3   7  -8  189.36   10.68
   3  -7   8  192.31    8.92
   3  -7   8  191.41    9.09
  -3   7  -8  188.45   10.96
   3  -7   8  205.51    9.66
  -4   7  -8  289.04   15.61
   4  -7   8  307.34   12.25
   4  -7   8  295.12   12.83
   4  -7   8  291.97   12.19
   5  -7   8   76.37    5.04
  -5   7  -8   82.65    8.38
   5  -7   8   89.04    5.41
   6  -7   8    1.47    1.86
  -6   7  -8    2.47    3.77
   7   6  -8   20.32    5.56
   6   6  -8   56.44    6.89
   6   6  -8   64.69    7.34
   5   6  -8    2.56    3.26
  -4  -6   8   11.08    3.50
   4   6  -8   11.71    3.78
   4   6  -8    5.75    3.17
  -3  -6   8   20.18    3.37
   3   6  -8   15.38    3.71
  -3  -6   8   19.73    3.07
  -3  -6   8   15.25    3.52
  -3  -6   8   15.17    3.20
  -2  -6   8   94.27    6.25
   2   6  -8   82.51    6.62
   2   6  -8   98.04    6.74
  -2  -6   8  100.82    7.07
  -2  -6   8   92.39    6.46
   1   6  -8   10.62    2.60
   1   6  -8   10.11    1.44
   1   6  -8    8.85    3.16
  -1  -6   8   12.15    2.75
  -1  -6   8   13.19    3.10
  -1  -6   8    9.15    2.99
   0  -6   8   20.11    3.27
   0  -6   8   18.81    2.99
   0   6  -8   15.15    2.41
   0  -6   8   22.81    3.50
   0   6  -8   19.44    3.23
   0   6  -8   17.86    2.29
   0   6  -8   20.31    2.79
  -1   6  -8  229.67    9.93
   1  -6   8  240.59   10.67
   1  -6   8  218.76    9.92
   1  -6   8  216.86   10.18
  -1   6  -8  212.48    9.99
  -1   6  -8  216.13   10.26
  -2   6  -8  174.95    9.50
   2  -6   8  183.25    8.50
   2  -6   8  180.91    8.81
  -2   6  -8  166.15    9.08
   2  -6   8  181.20    8.22
   3  -6   8  307.69   12.49
  -3   6  -8  328.12   15.36
   3  -6   8  318.33   13.09
   3  -6   8  305.38   13.14
   3  -6   8  323.46   12.67
  -4   6  -8  268.57   14.85
   4  -6   8  294.91   11.63
   4  -6   8  302.01   13.31
   4  -6   8  296.59   11.71
   4  -6   8  307.60   12.40
  -5   6  -8   50.33    6.68
   5  -6   8   55.28    3.71
   5  -6   8   52.97    3.87
   6  -6   8   72.83    4.20
  -6   6  -8   62.01    7.93
   7   5  -8   26.32    5.68
   6   5  -8  112.54    8.41
   6   5  -8   96.06    8.57
   5   5  -8   -0.03    3.10
   5   5  -8    1.78    2.95
  -4  -5   8  814.12   30.92
   4   5  -8  824.15   31.12
  -4  -5   8  807.82   35.06
   4   5  -8  801.36   31.21
  -3  -5   8  151.97    8.90
   3   5  -8  151.44    9.10
  -3  -5   8  154.22    8.46
   3   5  -8  150.33    8.53
  -3  -5   8  156.13    8.46
  -3  -5   8  160.92    8.67
  -2  -5   8   23.52    3.85
   2   5  -8   34.80    4.29
  -2  -5   8   29.34    2.86
  -2  -5   8   29.39    3.55
  -2  -5   8   27.71    3.63
   2   5  -8   30.93    3.85
   1   5  -8   68.32    5.08
  -1  -5   8   59.79    4.62
  -1  -5   8   63.93    5.13
  -1  -5   8   64.61    5.09
   1   5  -8   54.13    4.79
   0   5  -8   66.64    4.27
   0  -5   8   69.21    4.58
   0   5  -8   73.80    4.62
   0  -5   8   64.91    4.84
   0  -5   8   66.72    4.96
   0   5  -8   61.23    4.99
   1  -5   8  703.20   25.30
  -1   5  -8  708.40   24.45
  -1   5  -8  702.61   26.42
   1  -5   8  687.31   25.29
  -1   5  -8  715.06   25.52
  -1   5  -8  682.13   24.97
   1  -5   8  722.99   25.74
   1  -5   8  693.12   26.54
   2  -5   8  138.37    8.46
   2  -5   8  130.38    6.40
   2  -5   8  131.85    6.86
   2  -5   8  123.50    6.58
  -2   5  -8  135.99    7.83
  -2   5  -8  135.70    5.91
   3  -5   8   16.82    2.81
   3  -5   8   17.90    2.17
  -3   5  -8   19.63    3.71
   3  -5   8   16.07    2.34
   3  -5   8   19.14    2.58
   4  -5   8   38.47    3.22
  -4   5  -8   37.88    5.28
   4  -5   8   36.42    2.85
   4  -5   8   40.59    4.36
   4  -5   8   38.77    2.86
   5  -5   8   17.41    1.89
  -5   5  -8   17.18    4.66
   5  -5   8   18.65    2.10
   5  -5   8   11.98    3.58
   7   4  -8   15.24    5.02
   6   4  -8  112.95    8.83
   6   4  -8  106.01    8.09
   5   4  -8   39.46    5.24
   5   4  -8   35.83    4.84
  -4  -4   8   34.28    4.43
   4   4  -8   24.48    4.11
   4   4  -8   32.06    4.29
  -3  -4   8 1242.97   42.36
  -3  -4   8 1238.60   44.51
   3   4  -8 1114.38   42.28
   3   4  -8 1159.53   42.59
  -3  -4   8 1198.26   42.33
  -3  -4   8 1197.18   43.81
  -3  -4   8 1166.87   48.37
   2   4  -8  123.93    7.04
  -2  -4   8  130.89    6.24
  -2  -4   8  124.66    7.20
  -2  -4   8  121.07    6.88
   2   4  -8  120.27    7.31
  -2  -4   8  127.62    7.34
  -1  -4   8  192.41    8.97
  -1  -4   8  169.49    8.26
   1   4  -8  186.98    8.46
   1   4  -8  196.96    8.86
  -1  -4   8  174.97    8.64
   1   4  -8  155.92    7.17
   0  -4   8   36.19    3.18
   0  -4   8   31.69    3.32
   0  -4   8   31.65    3.38
   0   4  -8   35.84    2.97
   0   4  -8   31.73    3.31
   0   4  -8   35.71    3.09
   1  -4   8  754.68   26.23
  -1   4  -8  738.17   26.64
  -1   4  -8  756.32   25.65
   1  -4   8  719.15   30.31
   1  -4   8  759.20   26.90
  -1   4  -8  715.72   25.00
  -1   4  -8  712.95   27.02
   1  -4   8  699.51   25.78
   1  -4   8  707.70   27.02
   1  -4   8  700.07   25.73
   2  -4   8   80.35    4.86
   2  -4   8   88.28    4.97
   2  -4   8   74.89    4.40
  -2   4  -8   82.22    5.83
   2  -4   8   84.92    4.89
   2  -4   8   75.92    6.02
   3  -4   8  316.73   11.54
   3  -4   8  300.02   11.55
  -3   4  -8  292.82   14.26
   3  -4   8  300.58   13.29
   3  -4   8  307.84   12.12
  -4   4  -8  190.06   11.68
   4  -4   8  220.91    8.40
   4  -4   8  218.72   11.05
   4  -4   8  221.33    8.81
   5  -4   8   36.19    2.47
  -5   4  -8   32.24    5.42
   5  -4   8   29.94    2.25
   5  -4   8   38.26    4.80
   6  -4   8    9.31    4.11
   7   3  -8    3.59    3.62
   7   3  -8    1.31    3.77
   6   3  -8    2.45    3.32
   6   3  -8    3.69    3.39
   5   3  -8    2.02    2.80
   5   3  -8   -0.94    2.21
   4   3  -8  638.81   26.17
  -4  -3   8  748.17   26.38
   4   3  -8  659.82   26.26
  -3  -3   8  614.63   23.43
  -3  -3   8  602.95   22.61
   3   3  -8  574.98   22.99
  -3  -3   8  580.05   22.83
   3   3  -8  611.09   23.21
  -2  -3   8  233.81    9.48
   2   3  -8  201.91   10.00
   2   3  -8  216.75    9.92
  -2  -3   8  198.90    9.95
  -2  -3   8  211.99    9.66
  -2  -3   8  211.54    9.94
   1   3  -8   93.69    4.41
  -1  -3   8  109.41    6.22
  -1  -3   8  109.00    5.77
   1   3  -8  113.44    6.38
   1   3  -8  106.84    5.95
  -1  -3   8   98.71    5.95
  -1  -3   8  106.52    6.07
   0   3  -8 1427.91   49.25
   0   3  -8 1473.83   49.15
   0  -3   8 1370.52   49.05
   0   3  -8 1482.34   50.45
   0  -3   8 1422.33   51.59
   0  -3   8 1540.53   50.57
   0  -3   8 1441.86   57.17
   0  -3   8 1393.43   49.40
   1  -3   8  223.37    9.17
   1  -3   8  228.54    9.86
  -1   3  -8  223.94    9.17
   1  -3   8  221.07   10.58
   1  -3   8  208.11    9.61
  -1   3  -8  217.78    9.77
   1  -3   8  216.03    9.38
  -1   3  -8  231.22    8.51
   1  -3   8  233.90    9.63
   2  -3   8  603.24   23.49
   2  -3   8  611.68   22.77
   2  -3   8  639.02   26.96
   2  -3   8  600.09   21.71
  -2   3  -8  612.75   23.99
   2  -3   8  594.64   21.73
  -2   3  -8  604.59   20.81
   2  -3   8  656.23   22.10
   3  -3   8  103.72    5.23
   3  -3   8  112.19    6.93
   3  -3   8  103.73    4.90
  -3   3  -8  117.46    7.37
   3  -3   8  103.14    5.07
  -4   3  -8  179.54   10.82
   4  -3   8  185.44    7.66
   4  -3   8  199.29   10.44
   4  -3   8  184.65    7.30
   5  -3   8   22.37    4.22
   5  -3   8   18.51    1.76
   5  -3   8   15.41    1.63
   6  -3   8   66.09    7.21
   7   2  -8   13.20    4.24
   7   2  -8   10.50    4.31
   6   2  -8  305.01   15.28
   6   2  -8  330.07   15.62
   5   2  -8    9.28    3.48
   5   2  -8    6.90    2.93
   4   2  -8   29.88    3.95
   4   2  -8   31.43    4.33
  -4  -2   8   30.54    4.02
   3   2  -8  568.88   18.55
   3   2  -8  496.58   20.55
  -3  -2   8  540.04   20.37
   3   2  -8  517.68   20.78
  -3  -2   8  511.78   20.86
  -3  -2   8  529.68   20.55
  -2  -2   8   26.65    3.10
   2   2  -8   21.78    3.15
  -2  -2   8   25.30    3.00
   2   2  -8   30.05    3.55
  -2  -2   8   24.69    3.19
  -2  -2   8   28.42    2.37
   1   2  -8   76.27    4.94
   1   2  -8   71.44    4.72
  -1  -2   8   70.10    4.74
  -1  -2   8   70.45    4.64
  -1  -2   8   70.94    5.04
  -1  -2   8   75.80    4.57
   0  -2   8  427.19   16.76
   0  -2   8  396.19   15.93
   0  -2   8  408.56   15.82
   0   2  -8  437.37   15.78
   0   2  -8  433.97   15.84
   0   2  -8  433.03   16.09
   1  -2   8   65.07    4.30
   1  -2   8   72.40    4.44
   1  -2   8   74.78    4.56
   1  -2   8   63.56    4.00
   1  -2   8   67.42    4.45
   2  -2   8   58.91    4.84
   2  -2   8   56.03    3.93
   2  -2   8   64.72    5.23
  -2   2  -8   67.00    5.01
   2  -2   8   59.29    3.69
   2  -2   8   62.50    4.00
  -2   2  -8   62.57    3.05
   2  -2   8   57.55    3.92
   3  -2   8  220.78   11.16
   3  -2   8  230.35    8.93
   3  -2   8  229.72    9.39
   3  -2   8  231.08    9.03
   4  -2   8  165.12    6.56
   4  -2   8  166.00    7.09
   4  -2   8  163.07    6.75
   4  -2   8  164.61    9.73
   5  -2   8   89.96    4.30
   5  -2   8   89.93    4.48
   5  -2   8   88.32    7.65
   6  -2   8   76.53    4.08
   8   1  -8    6.56    4.36
   7   1  -8   21.21    4.80
   7   1  -8    8.85    4.09
   6   1  -8   32.18    4.97
   6   1  -8   37.03    5.26
   5   1  -8  171.96    9.70
   5   1  -8  166.44    9.82
   4   1  -8   19.43    3.37
   4   1  -8   24.09    3.25
   4   1  -8   18.69    3.65
  -4  -1   8   23.69    3.51
  -3  -1   8 1790.72   58.50
  -3  -1   8 1744.05   59.16
   3   1  -8 1618.34   58.40
  -3  -1   8 1704.60   58.12
   3   1  -8 1730.10   67.43
  -3  -1   8 1690.62   60.62
   3   1  -8 1584.67   58.72
   2   1  -8  103.37    6.17
  -2  -1   8   94.81    5.40
   2   1  -8   87.25    5.59
  -2  -1   8   94.48    5.82
  -2  -1   8   88.85    5.59
  -1  -1   8  196.12    8.74
   1   1  -8  202.68    9.20
  -1  -1   8  191.26    8.99
  -1  -1   8  206.96    9.44
   1   1  -8  206.28    9.02
  -1  -1   8  200.02    9.35
   0   1  -8   79.48    4.41
   0  -1   8   92.10    5.32
   0  -1   8   98.84    4.97
   0   1  -8   91.32    4.89
  -1   1  -8  690.33   23.08
  -1   1  -8  667.75   27.90
   1  -1   8  694.81   24.10
   1  -1   8  656.51   23.64
   1  -1   8  622.01   24.68
   1  -1   8  632.83   23.62
  -1   1  -8  698.52   23.54
   2  -1   8   72.84    4.31
   2  -1   8   57.53    4.12
  -2   1  -8   59.01    5.02
   2  -1   8   67.93    3.97
   2  -1   8   67.11    5.33
   2  -1   8   62.57    4.10
   3  -1   8  140.37    6.16
   3  -1   8  141.30    8.39
   3  -1   8  135.45    6.26
   3  -1   8  134.18    6.43
   4  -1   8   14.99    3.73
   5  -1   8   78.82    4.53
   5  -1   8   85.05    7.68
   5  -1   8   87.23    4.54
   6  -1   8   10.26    2.09
   8   0  -8    3.62    4.17
   7   0  -8   14.90    4.54
   7   0  -8   13.96    4.24
   6   0  -8  113.36    8.23
   6   0  -8  109.70    8.24
   5   0  -8   30.63    4.34
   5   0  -8   25.78    4.19
  -4   0   8  276.01   11.60
   4   0  -8  253.51   12.40
   4   0  -8  296.50   13.55
  -4   0   8  274.48   12.37
   4   0  -8  245.68   12.61
   3   0  -8   54.23    4.74
  -3   0   8   50.93    4.21
   3   0  -8   62.09    4.24
   3   0  -8   52.51    5.03
  -3   0   8   51.73    4.32
  -3   0   8   41.83    4.43
  -3   0   8   57.34    3.62
   2   0  -8  462.26   18.60
  -2   0   8  473.75   17.70
  -2   0   8  439.02   17.93
   2   0  -8  471.41   17.90
   2   0  -8  417.03   17.43
   2   0  -8  447.50   18.31
  -2   0   8  439.22   17.18
   1   0  -8   61.84    4.24
  -1   0   8   60.22    2.77
  -1   0   8   53.79    4.20
   1   0  -8   57.51    4.47
   1   0  -8   58.16    4.24
  -1   0   8   63.70    4.49
  -1   0   8   56.91    4.03
   0   0  -8  179.20    8.11
   0   0  -8  178.20    7.78
   0   0  -8  172.37    7.98
   0   0   8  174.67    8.07
   0   0   8  167.55    8.19
   0   0  -8  159.73    8.87
   0   0   8  172.30    7.80
   1   0   8  179.31    8.45
   1   0   8  190.59    8.30
   1   0   8  200.36    8.76
  -1   0  -8  210.26    8.49
  -1   0  -8  190.66    7.68
   1   0   8  186.65    8.72
  -1   0  -8  189.69    9.61
   2   0   8   33.84    3.26
  -2   0  -8   36.95    4.14
   2   0   8   39.47    3.35
   2   0   8   29.63    2.94
  -2   0  -8   32.23    2.68
   2   0   8   27.87    3.91
   2   0   8   32.55    3.13
   3   0   8  150.46    6.93
  -3   0  -8  152.41    9.68
   3   0   8  150.17    7.17
   3   0   8  151.16    6.99
   4   0   8   49.25    3.75
   4   0   8   45.35    3.54
   4   0   8   60.89    6.10
   4   0   8   55.73    3.80
  -4   0  -8   56.82    6.31
   5   0   8   24.74    2.76
   5   0   8   21.50    2.65
   5   0   8   16.31    4.73
   6   0   8    4.71    2.11
   6   0   8    4.53    2.08
   8  -1  -8    3.37    4.07
   7  -1  -8   -0.92    3.50
   7  -1  -8   -1.89    2.91
   6  -1  -8  173.83   10.35
   6  -1  -8  164.69   10.15
   5  -1  -8   73.78    6.41
   5  -1  -8   74.89    6.35
  -5   1   8   80.96    5.90
   3  -1  -8  438.93   18.58
  -3   1   8  424.93   16.85
   3  -1  -8  398.25   17.24
  -3   1   8  417.60   17.15
   3  -1  -8  404.59   17.21
  -3   1   8  416.77   16.44
   3  -1  -8  427.52   17.07
  -2   1   8  817.81   29.70
  -2   1   8  776.61   28.47
   2  -1  -8  773.83   28.88
  -2   1   8  766.61   28.27
   2  -1  -8  790.66   31.03
   2  -1  -8  796.70   28.90
  -1   1   8   29.54    3.04
  -1   1   8   31.30    3.30
   0   1   8  241.25   10.24
   0  -1  -8  240.16   11.86
   0   1   8  242.77   10.54
   0   1   8  231.08   10.69
   0  -1  -8  254.28   10.27
   0  -1  -8  236.30   10.46
  -1  -1  -8  226.37    9.58
   1   1   8  210.61    9.87
  -1  -1  -8  229.01   11.10
   1   1   8  225.78    9.59
  -1  -1  -8  216.19   11.56
   1   1   8  222.95    9.89
   2   1   8  803.06   31.84
   2   1   8  823.63   29.13
  -2  -1  -8  821.17   35.45
  -2  -1  -8  807.49   34.44
   2   1   8  793.32   29.16
   2   1   8  839.64   30.55
  -2  -1  -8  868.99   28.67
   3   1   8   14.90    3.63
   3   1   8   14.94    2.38
  -3  -1  -8   11.32    3.43
   3   1   8   13.55    2.55
   3   1   8   12.35    2.37
   4   1   8   86.26    7.42
   4   1   8   68.78    4.73
   4   1   8   68.36    4.73
   4   1   8   72.88    4.78
  -4  -1  -8   80.01    7.46
   5   1   8    6.73    3.94
   5   1   8    2.95    2.09
   5   1   8    7.05    2.31
   6   1   8   27.23    3.45
   8  -2  -8    2.16    3.79
   7  -2  -8   -2.21    3.32
   7  -2  -8    5.03    3.45
   6  -2  -8    8.18    3.28
   6  -2  -8    1.40    3.03
  -5   2   8  446.67   18.30
   5  -2  -8  400.20   18.32
   5  -2  -8  418.97   18.48
   4  -2  -8   44.52    4.80
   4  -2  -8   49.49    5.08
   4  -2  -8   52.56    5.03
  -4   2   8   47.96    4.25
  -4   2   8   47.20    4.59
   3  -2  -8  142.85    8.38
  -3   2   8  136.02    8.01
  -3   2   8  155.12    8.01
  -3   2   8  146.94    7.47
   3  -2  -8  140.76    8.32
   3  -2  -8  147.19    7.53
  -3   2   8  156.72    6.39
   2  -2  -8  183.40    9.02
  -2   2   8  180.30    8.89
  -2   2   8  183.26    9.13
  -2   2   8  176.89    8.44
   2  -2  -8  165.28    9.14
   2  -2  -8  179.93    8.99
  -1   2   8   25.49    3.15
  -1   2   8   23.79    3.38
  -1   2   8   22.07    2.86
   1  -2  -8   21.45    3.03
   1  -2  -8   31.43    3.55
   1  -2  -8   19.45    3.21
   0  -2  -8  265.14   13.07
   0  -2  -8  262.14   11.26
   0   2   8  254.08   11.19
   0   2   8  272.45   11.65
   0   2   8  259.56   11.77
   0  -2  -8  279.21   11.72
  -1  -2  -8   13.36    2.84
   1   2   8    9.44    2.40
  -1  -2  -8   14.28    2.66
  -1  -2  -8   14.15    3.34
  -1  -2  -8   14.73    2.27
   1   2   8   13.80    2.57
   1   2   8    8.64    2.52
   2   2   8  267.79   13.45
   2   2   8  262.57   11.72
  -2  -2  -8  263.32   14.44
   2   2   8  294.22   12.15
  -2  -2  -8  274.60   14.49
  -2  -2  -8  311.28   11.64
   2   2   8  285.20   12.41
   3   2   8  214.67    9.96
   3   2   8  219.37   10.22
   3   2   8  240.09   12.38
   3   2   8  217.00   10.38
  -3  -2  -8  241.88   13.50
   4   2   8    5.58    2.18
   4   2   8    3.63    2.32
   4   2   8    0.09    3.04
   4   2   8    1.41    1.97
   5   2   8  152.00    8.35
   5   2   8  166.92    8.78
   6   2   8   18.52    3.43
   7  -3  -8    2.59    3.35
   6  -3  -8   64.08    6.61
   6  -3  -8   65.33    6.58
  -5   3   8  118.40    7.71
   5  -3  -8  119.13    8.25
   5  -3  -8  123.16    8.39
   4  -3  -8  165.65    9.37
  -4   3   8  164.88    8.75
   4  -3  -8  164.62    9.51
  -4   3   8  161.73    8.88
  -3   3   8   46.40    4.01
  -3   3   8   37.60    2.99
   3  -3  -8   40.70    3.85
   3  -3  -8   46.12    4.64
  -3   3   8   41.04    4.01
   3  -3  -8   45.45    5.02
  -3   3   8   38.65    4.11
  -2   3   8  881.79   33.71
  -2   3   8  894.15   32.30
   2  -3  -8  909.40   33.12
   2  -3  -8  915.74   33.07
   2  -3  -8  916.09   35.87
  -2   3   8  867.78   32.47
   1  -3  -8  256.96   11.51
  -1   3   8  243.77   11.53
  -1   3   8  236.26   11.33
   1  -3  -8  253.92   11.63
  -1   3   8  266.21   11.24
   1  -3  -8  243.76   12.40
   0   3   8    8.89    2.86
   0  -3  -8    9.47    2.73
   0  -3  -8   12.81    3.34
   0  -3  -8   11.65    2.60
   0   3   8    7.76    2.50
   0   3   8    8.33    2.61
  -1  -3  -8   13.62    2.44
   1   3   8    8.96    2.85
  -1  -3  -8    4.45    2.74
   1   3   8    7.49    2.51
   1   3   8   12.06    2.71
  -1  -3  -8    8.13    2.49
   2   3   8   -0.79    1.56
   2   3   8    0.40    2.19
   2   3   8    3.24    2.89
  -2  -3  -8    2.64    2.52
  -2  -3  -8    2.14    1.91
   2   3   8   -0.80    1.92
  -2  -3  -8    4.26    2.81
  -3  -3  -8   75.99    7.19
   3   3   8   78.52    5.51
   3   3   8   81.05    7.03
  -3  -3  -8   65.71    7.11
   3   3   8   81.31    5.90
   3   3   8   76.52    5.57
   4   3   8   48.22    4.50
   4   3   8   43.49    4.54
   4   3   8   47.60    4.60
   4   3   8   49.81    6.52
   5   3   8   -0.82    2.18
   5   3   8   -2.99    2.22
   7  -4  -8    0.77    3.46
   6  -4  -8    0.27    3.18
   6  -4  -8   -5.91    2.79
   5  -4  -8   38.80    5.23
  -5   4   8   50.38    5.34
   5  -4  -8   46.49    5.61
   4  -4  -8    2.88    2.76
  -4   4   8    1.93    2.37
   4  -4  -8   -3.22    2.29
   3  -4  -8  213.58   10.66
  -3   4   8  200.61   10.29
  -3   4   8  204.49    8.82
   3  -4  -8  210.84   11.12
  -3   4   8  195.94    9.59
   3  -4  -8  191.88   10.57
   2  -4  -8  185.79    9.90
  -2   4   8  173.63    8.74
   2  -4  -8  169.90    9.64
   2  -4  -8  177.93    9.39
  -2   4   8  173.05    9.11
  -2   4   8  171.41    9.16
   1  -4  -8  730.87   27.26
   1  -4  -8  682.54   29.81
  -1   4   8  711.10   27.86
   1  -4  -8  725.72   27.12
  -1   4   8  725.69   26.81
  -1   4   8  727.76   27.09
   0  -4  -8    3.41    2.52
   0   4   8    5.46    2.73
   0  -4  -8    0.44    2.30
   0   4   8    5.14    2.28
   0   4   8    4.67    2.36
   0  -4  -8    3.07    2.10
  -1  -4  -8   31.05    4.60
   1   4   8   19.68    3.22
   1   4   8   28.83    3.88
  -1  -4  -8   34.81    3.78
   2   4   8    1.97    2.12
   2   4   8    6.46    2.65
   2   4   8    8.08    2.70
  -2  -4  -8   12.39    3.55
  -2  -4  -8    8.18    3.33
   3   4   8   13.56    4.09
  -3  -4  -8    4.77    3.59
   3   4   8    2.37    2.28
   3   4   8    5.54    2.87
   3   4   8    8.07    2.83
   4   4   8  169.32   11.60
   4   4   8  172.71    9.67
   4   4   8  171.40    9.39
   4   4   8  152.00    9.04
   5   4   8   72.60    6.31
   5   4   8   81.95    6.35
   7  -5  -8    7.62    4.34
   6  -5  -8    4.88    3.99
   6  -5  -8   14.58    4.27
  -5   5   8   37.21    5.11
   5  -5  -8   22.86    4.73
   5  -5  -8   34.50    5.16
   4  -5  -8   -3.91    2.14
  -4   5   8    4.09    2.58
   4  -5  -8    0.58    2.85
   3  -5  -8   39.41    5.19
  -3   5   8   47.17    3.91
  -3   5   8   38.75    4.08
   3  -5  -8   49.46    5.19
  -3   5   8   42.89    4.73
  -2   5   8  208.47   10.77
   2  -5  -8  213.79   11.61
  -2   5   8  213.64   10.76
   2  -5  -8  215.38   11.05
   2  -5  -8  214.08   11.20
  -2   5   8  199.25   10.09
  -1   5   8    6.88    2.54
  -1   5   8   10.63    2.78
   1  -5  -8    7.14    2.76
   1  -5  -8    6.41    2.80
  -1   5   8    6.87    2.94
   0   5   8   18.78    3.32
   0   5   8   14.99    3.46
   0   5   8   15.73    3.19
   0  -5  -8   12.63    3.47
   0  -5  -8   19.81    3.25
   1   5   8    1.45    2.17
   1   5   8   -0.44    2.48
  -1  -5  -8    2.05    2.74
   1   5   8    2.78    2.52
  -2  -5  -8   17.46    4.44
   2   5   8   20.29    3.96
  -2  -5  -8   18.74    4.47
   2   5   8   16.85    3.37
   2   5   8   16.48    3.42
   3   5   8  269.30   13.70
   3   5   8  301.86   14.45
  -3  -5  -8  324.28   17.62
   3   5   8  289.07   13.79
   3   5   8  290.42   15.64
  -4  -5  -8   39.24    6.81
   4   5   8   40.88    5.09
   4   5   8   43.40    5.19
   4   5   8   35.55    4.96
   5   5   8   82.03    7.11
   7  -6  -8    2.26    3.96
   6  -6  -8    1.22    3.47
   6  -6  -8    0.49    3.28
   5  -6  -8   12.91    4.28
   5  -6  -8   18.52    4.79
  -5   6   8   10.12    3.85
  -4   6   8   83.39    6.78
   4  -6  -8   78.97    7.48
   4  -6  -8   86.60    7.50
   3  -6  -8   17.62    4.05
  -3   6   8   11.80    3.38
  -3   6   8   12.56    2.63
   3  -6  -8   10.88    3.70
   2  -6  -8   12.90    3.80
   2  -6  -8   16.08    3.88
  -2   6   8   18.09    3.45
  -2   6   8   12.28    3.55
  -2   6   8   17.78    3.47
   2  -6  -8   11.24    3.38
   1  -6  -8  173.36    9.73
   1  -6  -8  181.05   10.92
  -1   6   8  174.99    9.52
  -1   6   8  170.45    9.90
  -1   6   8  184.06   10.01
   0   6   8   18.51    4.16
   0   6   8   30.99    4.10
   0   6   8   21.07    3.76
   0  -6  -8   22.27    4.42
   0  -6  -8   24.51    3.94
   1   6   8   -0.10    2.14
   1   6   8    2.62    3.05
  -1  -6  -8    1.66    2.82
   1   6   8    4.08    2.80
   2   6   8   23.98    4.16
   2   6   8   32.14    4.71
  -2  -6  -8   26.28    5.42
   2   6   8   34.42    4.68
   3   6   8   -1.23    3.07
  -3  -6  -8   -1.38    3.17
   3   6   8   -1.84    2.57
   3   6   8    1.50    2.69
   4   6   8   17.82    4.57
   4   6   8   16.49    4.26
   5   6   8    1.08    3.57
   6  -7  -8   21.17    5.43
   5  -7  -8   17.96    5.19
  -5   7   8   24.02    5.19
   5  -7  -8   27.00    5.58
   4  -7  -8   10.08    4.10
   4  -7  -8   12.59    4.10
  -3   7   8   71.94    6.72
   3  -7  -8   80.01    7.38
   3  -7  -8   67.93    6.68
  -2   7   8   81.49    7.10
   2  -7  -8   88.43    7.50
  -2   7   8   90.56    6.78
   2  -7  -8   75.67    6.84
  -1   7   8  370.54   16.75
   1  -7  -8  377.92   17.29
  -1   7   8  380.01   17.50
  -1   7   8  388.61   17.52
   1  -7  -8  381.78   19.27
   0   7   8   86.64    6.77
   0   7   8   78.23    7.10
   0  -7  -8   76.94    7.53
   0   7   8   84.51    6.96
  -1  -7  -8   10.09    3.98
   1   7   8    8.08    3.33
   1   7   8    4.57    3.31
   1   7   8    9.51    3.32
   2   7   8    6.80    3.39
   2   7   8   -2.01    2.86
   2   7   8    4.36    3.05
  -2  -7  -8    2.34    3.72
   3   7   8    3.61    3.54
   3   7   8    7.75    3.29
   3   7   8    1.23    3.56
   4   7   8   43.35    6.03
   6  -8  -8   -0.70    3.73
   5  -8  -8    7.10    4.34
   5  -8  -8    3.06    4.05
   4  -8  -8   70.47    7.69
   4  -8  -8   76.14    7.74
   3  -8  -8   15.78    4.44
  -3   8   8   18.28    4.59
   3  -8  -8   15.80    4.88
  -2   8   8   62.89    6.79
   2  -8  -8   47.49    6.42
   2  -8  -8   61.56    6.61
   1  -8  -8   50.04    6.59
  -1   8   8   44.67    5.29
  -1   8   8   49.41    6.10
   1  -8  -8   57.95    6.19
   0  -8  -8  396.88   21.14
   0   8   8  409.45   18.68
   0   8   8  425.16   19.48
   0   8   8  402.10   19.23
   1   8   8   35.21    5.29
  -1  -8  -8   18.26    5.28
   1   8   8   30.34    5.61
   1   8   8   31.08    5.08
   2   8   8   29.01    5.03
   2   8   8   32.12    5.63
   2   8   8   37.37    5.75
   3   8   8   11.14    4.82
   3   8   8    8.52    4.17
   4   8   8    4.42    4.17
   5  -9  -8   25.13    6.11
   4  -9  -8   22.20    5.39
   4  -9  -8   20.55    5.44
   3  -9  -8   58.67    7.12
   3  -9  -8   62.67    7.56
  -3   9   8   65.15    7.31
  -2   9   8   -3.76    3.35
   2  -9  -8   -0.58    3.13
   2  -9  -8    2.16    3.44
   2  -9  -8    2.89    3.87
   1  -9  -8  198.93   13.42
  -1   9   8  183.96   11.40
  -1   9   8  201.95   12.33
   0   9   8   -0.89    3.56
   0   9   8    4.58    3.40
   1   9   8   15.52    4.73
   1   9   8   21.25    5.35
   1   9   8   14.47    4.29
   2   9   8   22.27    5.68
   2   9   8   20.30    5.13
   2   9   8   21.34    5.34
   3   9   8   35.61    6.43
   4 -10  -8   10.40    4.75
   4 -10  -8   20.68    5.84
  -3  10   8  252.72   14.66
   3 -10  -8  234.79   14.73
   2 -10  -8    6.25    4.25
  -2  10   8    2.00    4.25
  -1  10   8   53.98    7.46
   0  10   8   88.58    9.08
   0  10   8   73.15    7.69
   1  10   8   -0.94    3.49
   1  10   8   -1.60    3.99
   2  10   8    9.27    4.79
   3 -11  -8    3.01    4.26
  -2  11   8   13.12    5.22
  -1  11   8   47.56    7.46
   0  11   8   62.90    8.28
   1  11   8    3.23    4.91
  -2  12   8    2.79    5.29
   2  14  -9   59.80    8.44
  -2 -14   9   47.90    8.01
   1  14  -9   27.10    6.12
  -1 -14   9   19.63    5.88
   0 -14   9   19.49    5.70
   0 -14   9   17.64    5.20
   1 -14   9   38.61    6.40
   1 -14   9   32.28    6.50
  -1  14  -9   27.36    5.58
  -2  14  -9   16.78    5.19
   2 -14   9   30.64    6.05
   3 -14   9   12.29    4.75
  -3 -13   9   55.05    8.15
   3  13  -9   44.45    7.61
  -2 -13   9   -0.75    4.42
   2  13  -9   -2.18    4.03
  -1 -13   9   62.94    7.36
  -1 -13   9   77.52    8.44
   1  13  -9   75.48    7.98
   0 -13   9  112.33    9.73
   0 -13   9  121.68   10.17
   0 -13   9  106.61    9.30
   1 -13   9  109.16    9.63
   1 -13   9  104.86    8.98
  -1  13  -9  118.66    9.08
   1 -13   9  101.09    9.22
   2 -13   9    2.14    3.37
  -2  13  -9   -0.58    3.05
   2 -13   9    7.18    4.10
   2 -13   9    1.14    3.70
  -3  13  -9   18.35    5.33
   3 -13   9   25.78    5.44
   4 -13   9    7.09    4.22
   4  12  -9    1.87    4.66
  -3 -12   9    5.47    4.40
   3  12  -9    8.71    4.57
  -2 -12   9  111.22    9.92
   2  12  -9  110.08    9.79
   1  12  -9   38.41    6.20
  -1 -12   9   42.67    6.01
  -1 -12   9   39.48    6.42
   0 -12   9    6.73    3.67
   0  12  -9    4.46    3.85
   0 -12   9    5.67    4.03
   0 -12   9    9.75    4.26
   1 -12   9  124.74    9.10
  -1  12  -9  127.09    9.14
   1 -12   9  124.73    9.59
   1 -12   9  135.70   10.00
  -2  12  -9   15.28    4.11
   2 -12   9   18.68    4.71
   2 -12   9   20.23    4.75
  -2  12  -9   25.32    5.04
   2 -12   9   16.31    4.18
  -3  12  -9    4.58    3.73
   3 -12   9    7.72    3.69
   3 -12   9    7.89    3.86
  -3  12  -9    7.33    3.77
   3 -12   9    4.40    3.36
   4 -12   9   10.58    3.96
  -4  12  -9   17.49    5.37
   4  11  -9   -2.09    4.02
   4  11  -9   -2.21    3.51
   3  11  -9   69.38    7.88
   3  11  -9   57.61    6.83
  -3 -11   9   72.45    8.03
   2  11  -9   48.42    5.99
  -2 -11   9   51.32    6.77
  -2 -11   9   57.53    6.47
   2  11  -9   58.67    6.98
  -1 -11   9   86.12    7.53
   1  11  -9   83.05    7.81
  -1 -11   9   85.89    7.88
  -1 -11   9   82.56    7.83
   0 -11   9  113.52    8.96
   0 -11   9  128.05    9.31
   0  11  -9  119.93    8.95
   0 -11   9  112.43    8.34
   1 -11   9    8.86    3.53
  -1  11  -9    8.87    2.95
  -1  11  -9    5.34    3.05
   1 -11   9   11.94    3.94
   1 -11   9    9.43    3.45
  -2  11  -9    5.77    3.14
   2 -11   9    5.56    3.37
   2 -11   9    4.80    3.08
  -2  11  -9    7.24    3.43
   2 -11   9    5.46    3.33
  -3  11  -9    5.46    3.38
   3 -11   9    4.70    3.19
   3 -11   9    3.47    3.16
  -3  11  -9    3.01    3.25
   3 -11   9    1.87    2.73
  -4  11  -9    5.75    3.94
   4 -11   9    5.03    3.29
   4 -11   9   -2.73    2.48
  -5  11  -9    0.92    4.19
   5  10  -9    3.76    4.44
  -4 -10   9    5.61    4.26
   4  10  -9    0.00    3.27
   4  10  -9    3.68    4.16
   3  10  -9   29.89    5.22
   3  10  -9   25.58    5.49
  -3 -10   9   32.38    5.80
  -2 -10   9  326.24   16.07
   2  10  -9  326.44   16.63
  -2 -10   9  344.89   16.69
   2  10  -9  333.87   15.94
  -1 -10   9   92.59    7.55
  -1 -10   9   72.27    7.19
  -1 -10   9   82.02    6.92
   1  10  -9   88.29    7.54
   0 -10   9  269.94   14.08
   0  10  -9  277.30   13.87
   0 -10   9  290.22   14.00
   0 -10   9  294.31   14.72
   1 -10   9   10.25    3.35
  -1  10  -9   12.76    2.87
   1 -10   9    6.80    2.99
   1 -10   9    7.11    3.30
  -1  10  -9   10.08    3.15
  -2  10  -9   72.10    6.16
   2 -10   9   63.68    6.22
  -2  10  -9   65.13    6.17
   2 -10   9   58.64    5.59
   2 -10   9   51.70    5.61
   3 -10   9   50.10    5.41
   3 -10   9   45.11    4.95
  -3  10  -9   47.98    6.08
   3 -10   9   41.89    5.04
  -3  10  -9   50.94    5.81
  -4  10  -9  151.71   11.49
  -4  10  -9  170.14   11.66
   4 -10   9  172.91   10.11
   4 -10   9  157.57    9.44
   4 -10   9  168.79    9.31
  -5  10  -9   -0.59    3.37
   5 -10   9   -0.63    2.34
   5   9  -9    1.77    3.72
   5   9  -9    3.93    4.46
   4   9  -9   10.08    4.27
   4   9  -9   15.89    4.91
  -4  -9   9   21.65    5.05
   3   9  -9    4.74    3.33
   3   9  -9    1.01    3.35
  -3  -9   9    4.78    3.62
   2   9  -9    4.21    3.55
   2   9  -9    4.01    2.94
  -2  -9   9    9.82    3.46
  -2  -9   9    5.93    3.32
  -2  -9   9    6.68    3.10
   1   9  -9   40.46    4.71
  -1  -9   9   42.66    4.99
  -1  -9   9   42.52    5.31
   1   9  -9   37.20    5.16
  -1  -9   9   54.26    5.75
   0  -9   9   14.70    3.66
   0   9  -9   16.59    3.60
   0  -9   9   15.62    3.42
   0   9  -9   22.49    2.88
   0  -9   9   23.57    4.16
  -1   9  -9  380.80   15.85
   1  -9   9  347.28   16.13
   1  -9   9  357.50   15.93
  -1   9  -9  365.36   16.38
   1  -9   9  378.14   17.02
  -1   9  -9  369.16   15.85
   2  -9   9    7.30    2.93
   2  -9   9    6.38    2.57
  -2   9  -9    4.01    2.71
   2  -9   9   13.94    3.47
  -2   9  -9    5.88    2.69
   3  -9   9  181.87    9.64
   3  -9   9  187.27   10.18
   3  -9   9  172.93    9.53
  -3   9  -9  177.31   10.85
  -3   9  -9  199.12   11.61
  -4   9  -9    1.44    3.19
   4  -9   9    5.21    2.68
   4  -9   9   -0.16    2.22
   4  -9   9    1.31    2.71
  -5   9  -9   12.51    4.93
   5  -9   9    8.51    3.02
   5  -9   9   11.77    2.99
   6   8  -9   74.22    8.53
   5   8  -9   54.11    7.23
   5   8  -9   55.35    6.83
   4   8  -9   64.62    6.55
  -4  -8   9   55.93    6.55
   4   8  -9   52.13    6.63
  -3  -8   9   55.30    6.07
   3   8  -9   58.23    6.06
  -3  -8   9   53.48    5.57
   3   8  -9   51.83    6.10
   2   8  -9   26.15    4.55
  -2  -8   9   26.89    4.59
   2   8  -9   27.45    4.34
  -2  -8   9   32.31    4.36
  -2  -8   9   37.22    4.78
   1   8  -9  487.37   20.73
  -1  -8   9  495.29   20.59
   1   8  -9  532.75   18.83
  -1  -8   9  515.42   21.77
   1   8  -9  483.81   20.22
  -1  -8   9  487.70   20.86
   0   8  -9   18.77    2.60
   0   8  -9   22.61    3.71
   0   8  -9   26.08    3.28
   0  -8   9   20.11    3.40
   0   8  -9   20.43    3.18
   0  -8   9   19.75    3.83
   0  -8   9   21.45    3.68
  -1   8  -9   11.27    2.77
   1  -8   9    7.38    2.82
   1  -8   9   10.43    3.06
   1  -8   9    5.34    2.41
  -1   8  -9    4.34    2.34
  -1   8  -9    6.86    2.41
   2  -8   9  274.59   12.73
  -2   8  -9  295.82   14.14
   2  -8   9  292.05   13.68
   2  -8   9  287.61   13.06
  -2   8  -9  298.95   13.76
   3  -8   9   -1.03    1.82
   3  -8   9    1.19    2.30
  -3   8  -9   -0.01    2.51
   3  -8   9    2.28    2.31
   4  -8   9   14.14    2.89
   4  -8   9   19.08    3.14
   4  -8   9   16.31    3.18
  -4   8  -9    8.61    3.90
   5  -8   9   15.68    2.94
  -5   8  -9   13.30    4.87
   5  -8   9   21.52    3.29
  -6   8  -9   -2.97    3.58
   6   7  -9   -4.66    3.53
   6   7  -9    2.23    3.54
   5   7  -9   87.85    8.23
   5   7  -9   78.58    7.69
   4   7  -9   45.16    5.90
  -4  -7   9   57.04    6.21
   4   7  -9   55.41    5.97
   3   7  -9    0.65    2.80
  -3  -7   9    6.21    3.21
  -3  -7   9    3.32    2.52
   3   7  -9    7.08    3.51
   2   7  -9  518.33   21.32
  -2  -7   9  512.15   21.35
   2   7  -9  533.99   21.81
  -2  -7   9  543.09   21.92
  -2  -7   9  545.75   22.35
  -1  -7   9  109.56    7.16
  -1  -7   9  127.71    8.11
   1   7  -9  133.24    5.51
   1   7  -9  112.39    7.80
  -1  -7   9  110.40    7.59
   1   7  -9  124.61    7.31
   0  -7   9  679.63   25.95
   0   7  -9  642.20   25.63
   0   7  -9  700.36   25.75
   0   7  -9  695.88   25.23
   0  -7   9  663.96   25.70
   0   7  -9  659.78   25.03
   0  -7   9  716.72   27.21
   1  -7   9    8.99    2.44
   1  -7   9    7.46    2.77
   1  -7   9    5.84    2.54
  -1   7  -9   15.02    2.75
  -1   7  -9    6.96    2.31
  -1   7  -9    8.07    2.35
  -2   7  -9    2.85    2.24
   2  -7   9   -1.20    1.65
   2  -7   9    0.79    2.00
   2  -7   9    4.38    2.36
   3  -7   9   11.55    2.85
   3  -7   9   15.55    2.89
   3  -7   9   17.39    2.65
  -3   7  -9   13.48    3.68
   4  -7   9  107.93    6.00
  -4   7  -9  100.98    8.37
   4  -7   9  109.23    6.48
   4  -7   9  102.14    6.07
   5  -7   9    4.29    2.08
  -5   7  -9    5.27    3.92
   5  -7   9    6.43    2.50
   6  -7   9    2.51    1.96
  -6   7  -9    2.88    4.15
   6   6  -9   12.00    4.80
   6   6  -9   15.16    4.77
   5   6  -9    3.15    3.39
   5   6  -9    0.08    2.90
   4   6  -9   40.11    5.09
   4   6  -9   31.34    5.03
  -4  -6   9   45.98    5.34
  -2  -6   9    0.31    2.07
  -2  -6   9   -2.14    1.42
   2   6  -9   -0.19    1.98
  -2  -6   9   -1.27    1.82
   2   6  -9    4.04    2.65
  -2  -6   9   -1.90    2.03
  -1  -6   9 2079.31   72.30
  -1  -6   9 1959.99   69.17
   1   6  -9 1972.34   68.76
   1   6  -9 2028.10   69.08
  -1  -6   9 2004.83   68.90
   0  -6   9  436.85   17.78
   0   6  -9  436.82   17.11
   0   6  -9  432.28   17.29
   0   6  -9  426.07   17.43
   0  -6   9  428.95   17.52
   0  -6   9  447.49   18.54
   0   6  -9  472.38   16.89
  -1   6  -9 1261.76   43.29
   1  -6   9 1220.33   43.92
   1  -6   9 1246.16   43.79
  -1   6  -9 1185.20   45.29
  -1   6  -9 1313.19   44.39
   1  -6   9 1293.85   46.06
   2  -6   9   15.45    2.81
  -2   6  -9   19.61    3.45
   2  -6   9   20.15    2.73
   2  -6   9   18.39    3.51
   2  -6   9   21.34    3.06
  -3   6  -9  742.33   29.70
   3  -6   9  740.76   26.15
   3  -6   9  715.26   27.50
   3  -6   9  720.21   26.25
  -4   6  -9  173.01   10.91
   4  -6   9  171.84    8.18
   4  -6   9  163.82    7.58
   4  -6   9  166.46    7.65
   5  -6   9   82.69    4.71
   5  -6   9   81.09    5.01
  -5   6  -9   91.12    8.82
  -6   6  -9    8.98    4.42
   6  -6   9   11.21    2.02
   7   5  -9   -0.74    3.74
   6   5  -9    1.04    3.33
   6   5  -9    6.42    4.29
   5   5  -9    1.42    2.95
   5   5  -9    4.00    3.29
  -4  -5   9   11.99    3.51
   4   5  -9   12.53    3.46
   4   5  -9   16.43    4.05
  -3  -5   9  294.66   13.29
  -3  -5   9  299.09   13.35
   3   5  -9  258.79   13.19
  -3  -5   9  275.17   13.35
  -3  -5   9  293.32   12.93
   3   5  -9  259.35   12.87
  -2  -5   9  267.31   11.66
  -2  -5   9  284.70   12.72
   2   5  -9  250.46   12.00
  -2  -5   9  254.98   12.28
  -2  -5   9  256.96   11.81
   2   5  -9  252.45   12.28
  -1  -5   9    1.79    2.01
  -1  -5   9    1.61    2.26
  -1  -5   9   -2.90    1.82
   1   5  -9   -0.58    1.24
   1   5  -9    0.30    1.91
   1   5  -9    5.98    2.63
   0  -5   9  462.22   18.79
   0  -5   9  453.53   17.89
   0   5  -9  457.17   17.71
   0   5  -9  471.31   18.06
   0   5  -9  462.66   17.47
   0   5  -9  477.10   17.73
   0  -5   9  434.89   17.94
   1  -5   9   -1.12    1.93
   1  -5   9    1.92    1.94
   1  -5   9   -0.73    1.92
   1  -5   9   -0.38    1.54
  -1   5  -9    1.20    1.46
  -1   5  -9    4.00    2.01
  -1   5  -9   -0.59    1.27
  -1   5  -9    0.46    1.87
  -2   5  -9  547.15   22.21
   2  -5   9  545.43   20.26
   2  -5   9  559.16   20.31
   2  -5   9  575.92   24.79
   2  -5   9  514.10   21.16
   3  -5   9   74.08    4.64
   3  -5   9   75.05    5.52
   3  -5   9   73.19    4.82
  -3   5  -9   79.53    6.40
   3  -5   9   74.78    4.46
   4  -5   9  183.76    7.99
   4  -5   9  185.96    8.46
  -4   5  -9  199.58   11.65
   4  -5   9  195.89   10.17
   5  -5   9    8.45    3.79
  -5   5  -9    7.64    3.96
   5  -5   9   11.21    1.97
   5  -5   9   12.38    1.90
   7   4  -9   61.49    7.44
   6   4  -9   18.74    4.99
   6   4  -9   18.34    4.69
   5   4  -9  107.89    8.13
   5   4  -9   84.52    7.02
  -4  -4   9   34.17    4.69
   4   4  -9   31.47    4.53
   4   4  -9   32.40    4.66
  -3  -4   9  158.82    8.82
  -3  -4   9  144.77    8.33
  -3  -4   9  151.95    8.17
   3   4  -9  135.29    8.32
   3   4  -9  148.00    8.85
  -2  -4   9  327.09   14.53
  -2  -4   9  328.11   14.32
  -2  -4   9  361.76   14.35
   2   4  -9  321.03   14.32
  -2  -4   9  314.15   13.90
   2   4  -9  317.18   13.96
  -1  -4   9   34.40    3.82
   1   4  -9   38.97    3.81
   1   4  -9   37.04    2.76
  -1  -4   9   36.06    3.84
   1   4  -9   40.23    4.01
  -1  -4   9   38.58    3.67
   0   4  -9 2025.97   68.52
   0  -4   9 1991.97   72.09
   0   4  -9 2083.10   68.94
   0  -4   9 1991.09   68.63
   0   4  -9 2095.98   70.70
   0  -4   9 1969.27   69.20
   0  -4   9 2081.67   80.37
   1  -4   9    9.96    2.23
   1  -4   9   10.74    2.42
   1  -4   9   10.97    2.42
  -1   4  -9   13.93    2.31
   1  -4   9   18.38    2.82
  -1   4  -9   12.62    2.57
   1  -4   9    9.48    2.14
  -1   4  -9   14.37    1.80
   2  -4   9   13.13    2.13
  -2   4  -9    5.61    2.49
   2  -4   9   12.35    2.31
   2  -4   9   14.42    2.46
   2  -4   9   17.46    3.22
   3  -4   9  452.39   18.43
   3  -4   9  463.43   16.43
   3  -4   9  420.88   17.09
  -3   4  -9  435.26   19.32
   3  -4   9  450.83   16.41
   4  -4   9    4.22    1.52
   4  -4   9    0.78    2.80
   4  -4   9    1.44    1.44
  -4   4  -9    0.70    2.58
   5  -4   9   -2.80    2.95
   5  -4   9    2.17    1.28
   5  -4   9    3.03    1.44
   7   3  -9    4.42    4.06
   6   3  -9   58.46    6.53
   6   3  -9   63.66    6.86
   5   3  -9   44.59    5.36
   5   3  -9   48.37    5.72
   4   3  -9  156.93    9.28
  -4  -3   9  184.29    9.63
   4   3  -9  166.95    9.68
  -3  -3   9    6.94    2.40
  -3  -3   9    7.57    2.75
   3   3  -9    6.40    2.92
   3   3  -9    9.06    2.95
  -3  -3   9   10.44    2.61
  -2  -3   9   26.46    3.43
  -2  -3   9   23.83    3.20
  -2  -3   9   36.50    3.10
   2   3  -9   28.45    3.82
  -2  -3   9   28.64    3.77
   1   3  -9  307.02   12.74
  -1  -3   9  291.84   12.61
   1   3  -9  299.01   11.32
  -1  -3   9  295.67   12.97
   1   3  -9  327.67   13.27
  -1  -3   9  301.02   13.36
  -1  -3   9  333.29   13.96
   0   3  -9   39.01    3.70
   0   3  -9   46.16    3.52
   0  -3   9   41.71    3.96
   0  -3   9   42.53    3.19
   0   3  -9   45.13    3.31
   0  -3   9   41.53    3.93
   0  -3   9   42.07    3.58
   1  -3   9  946.21   34.81
  -1   3  -9 1001.10   36.34
   1  -3   9 1025.44   40.85
  -1   3  -9 1012.66   34.46
  -1   3  -9  985.29   33.96
   1  -3   9  984.95   34.75
   1  -3   9 1067.26   35.39
   1  -3   9  974.83   36.42
   3  -3   9   66.01    5.60
   3  -3   9   59.79    4.02
  -3   3  -9   64.80    5.69
   3  -3   9   65.08    4.14
   3  -3   9   71.71    3.97
   4  -3   9   15.78    1.99
   4  -3   9   16.38    3.84
   4  -3   9   13.13    1.96
   5  -3   9   88.91    7.67
   5  -3   9   74.34    4.01
   5  -3   9   81.54    4.33
   7   2  -9   43.60    6.52
   6   2  -9   74.69    7.40
   6   2  -9   82.45    7.27
   5   2  -9  201.68   11.19
   5   2  -9  219.77   11.65
  -4  -2   9  131.57    8.08
   4   2  -9  127.00    8.33
   4   2  -9  127.40    7.90
  -3  -2   9   57.99    4.77
   3   2  -9   42.54    4.58
   3   2  -9   50.49    5.03
  -3  -2   9   44.81    4.54
  -3  -2   9   46.06    4.27
  -2  -2   9  376.58   14.67
  -2  -2   9  346.21   14.39
  -2  -2   9  358.10   15.15
   2   2  -9  335.97   14.76
   2   2  -9  337.46   14.54
  -2  -2   9  360.40   14.89
   1   2  -9  289.62   12.30
  -1  -2   9  294.57   12.98
   1   2  -9  279.64   11.92
  -1  -2   9  274.25   12.56
  -1  -2   9  293.62   12.31
  -1  -2   9  288.89   11.92
   0  -2   9 3144.82  106.97
   0  -2   9 3130.25  108.13
   0   2  -9 3325.63  108.05
   0   2  -9 3288.78  107.03
   0  -2   9 3272.02  112.74
   1  -2   9  167.76    8.02
   1  -2   9  174.11    8.07
  -1   2  -9  173.93    7.74
   1  -2   9  155.09    7.50
  -1   2  -9  162.88    6.82
   1  -2   9  158.01    7.75
   2  -2   9  854.42   34.75
   2  -2   9  782.60   28.42
   2  -2   9  810.84   28.64
   2  -2   9  814.30   29.93
   3  -2   9   65.12    3.94
   3  -2   9   65.36    4.16
   3  -2   9   63.68    4.05
   3  -2   9   75.47    6.08
   4  -2   9  186.56    8.08
   4  -2   9  204.84    8.60
   4  -2   9  199.01    7.96
   4  -2   9  196.98   11.17
   5  -2   9   58.27    3.66
   5  -2   9   56.68    3.78
   5  -2   9   62.85    6.99
   6  -2   9   15.07    2.13
   7   1  -9  133.66    9.78
   7   1  -9  121.95    9.50
   6   1  -9    9.00    3.66
   6   1  -9   -1.25    3.29
   5   1  -9    5.89    2.94
   5   1  -9    2.00    2.82
   4   1  -9  118.51    8.05
  -4  -1   9  132.43    7.67
   4   1  -9  118.03    7.75
   3   1  -9   49.12    4.93
  -3  -1   9   44.35    4.53
  -3  -1   9   58.80    4.65
   3   1  -9   43.72    4.45
   3   1  -9   49.63    3.35
  -3  -1   9   48.77    4.33
  -3  -1   9   46.59    3.10
  -2  -1   9  637.80   23.88
   2   1  -9  620.69   23.81
   2   1  -9  628.48   24.06
  -2  -1   9  624.83   24.62
  -2  -1   9  661.48   23.68
  -1  -1   9  273.70   11.90
   1   1  -9  280.97   12.03
   1   1  -9  284.53   11.78
  -1  -1   9  269.90   11.58
  -1  -1   9  277.80   12.32
   0  -1   9  229.16   10.29
   0  -1   9  230.80   10.61
   0   1  -9  243.64    9.99
   0   1  -9  239.35   10.30
   0  -1   9  227.98   10.00
   0   1  -9  237.13   10.42
  -1   1  -9  460.75   17.06
  -1   1  -9  491.29   16.49
   1  -1   9  445.12   17.14
  -1   1  -9  446.13   19.85
   1  -1   9  412.21   17.08
   1  -1   9  482.87   17.65
   1  -1   9  455.01   18.03
   2  -1   9   68.94    4.59
   2  -1   9   75.20    4.82
  -2   1  -9   70.37    5.45
   2  -1   9   69.77    4.38
   3  -1   9  522.08   19.55
   3  -1   9  494.09   21.46
   3  -1   9  501.86   18.52
   3  -1   9  515.72   18.69
   4  -1   9   24.12    2.69
   4  -1   9   24.88    2.55
   4  -1   9   24.51    4.49
   4  -1   9   24.98    2.68
   5  -1   9    2.88    1.69
   5  -1   9    2.11    1.77
   5  -1   9    0.19    3.46
   6  -1   9   -1.11    1.71
   7   0  -9   28.01    5.31
   7   0  -9   34.55    5.84
   6   0  -9   83.71    7.29
   6   0  -9   75.70    7.27
   5   0  -9  203.76   11.22
   5   0  -9  204.96   11.28
  -4   0   9  375.82   15.07
  -4   0   9  395.01   16.07
   4   0  -9  347.59   16.30
   4   0  -9  371.82   16.31
  -3   0   9   93.86    4.93
   3   0  -9  107.42    5.55
   3   0  -9   90.60    6.30
  -3   0   9   82.39    5.81
   3   0  -9  100.69    7.04
  -3   0   9   90.63    5.96
  -3   0   9   87.44    6.36
   2   0  -9   52.11    4.94
  -2   0   9   52.26    4.42
   2   0  -9   53.92    3.12
  -2   0   9   48.76    4.18
  -2   0   9   49.06    4.50
   2   0  -9   46.53    4.42
  -1   0   9   56.06    4.67
   1   0  -9   54.80    4.56
   1   0  -9   59.27    3.18
  -1   0   9   58.99    4.60
   1   0  -9   58.13    4.59
   1   0  -9   53.51    4.63
  -1   0   9   63.03    2.93
  -1   0   9   53.86    4.20
   0   0  -9  370.46   15.53
   0   0   9  365.56   14.59
   0   0   9  342.39   14.16
   0   0   9  371.71   15.07
   0   0  -9  379.57   14.21
   0   0  -9  342.19   16.31
   0   0  -9  340.49   14.31
   1   0   9 1602.19   54.58
  -1   0  -9 1508.33   53.71
   1   0   9 1589.92   54.15
   1   0   9 1630.68   56.89
  -1   0  -9 1656.60   53.99
  -1   0  -9 1572.45   64.15
   2   0   9   54.01    4.00
   2   0   9   55.78    4.21
   2   0   9   50.84    4.06
  -2   0  -9   59.54    5.14
   3   0   9   28.36    4.40
   3   0   9   20.32    2.62
  -3   0  -9   30.06    4.38
   3   0   9   27.01    2.94
   3   0   9   26.04    2.94
   4   0   9   53.53    4.03
   4   0   9   52.90    4.02
   4   0   9   50.31    3.84
   4   0   9   43.06    5.71
   5   0   9    4.15    2.02
   5   0   9    6.87    4.20
   5   0   9    5.75    2.11
   7  -1  -9   56.50    6.79
   7  -1  -9   63.19    7.08
   6  -1  -9   -1.94    2.72
   6  -1  -9   -3.48    2.69
   5  -1  -9    8.71    3.51
   5  -1  -9    2.81    2.88
   4  -1  -9   55.41    5.44
  -4   1   9   50.44    4.16
   4  -1  -9   54.85    5.51
  -4   1   9   46.71    4.77
   3  -1  -9  198.29    9.32
   3  -1  -9  182.04    9.80
  -3   1   9  179.16    9.25
  -3   1   9  174.21    9.19
  -3   1   9  173.67    8.82
   3  -1  -9  167.62    9.31
   3  -1  -9  185.85    8.66
   2  -1  -9  684.04   25.92
  -2   1   9  716.15   26.72
   2  -1  -9  699.04   27.80
  -2   1   9  665.68   25.30
   2  -1  -9  685.31   26.08
  -2   1   9  674.61   25.64
  -1   1   9   62.53    4.58
  -1   1   9   50.05    4.07
   1  -1  -9   39.50    3.86
   1  -1  -9   51.20    4.65
  -1   1   9   43.18    4.23
   0   1   9 1251.48   45.06
   0  -1  -9 1372.86   45.36
   0   1   9 1324.70   47.35
   0  -1  -9 1235.35   51.09
   0  -1  -9 1302.83   45.16
   0  -1  -9 1369.16   52.63
   0   1   9 1256.41   45.31
  -1  -1  -9  156.81    7.75
   1   1   9  158.90    7.93
  -1  -1  -9  152.31    8.56
   1   1   9  154.64    7.86
   1   1   9  138.74    7.42
  -2  -1  -9  534.17   23.63
   2   1   9  508.14   19.36
   2   1   9  498.54   19.37
   2   1   9  505.62   20.21
   3   1   9   18.01    2.75
   3   1   9   18.40    4.06
   4   1   9    9.04    2.38
   4   1   9    5.54    2.30
   4   1   9    8.09    2.30
   4   1   9    5.82    3.65
   5   1   9    3.55    2.29
   5   1   9    1.46    2.09
   6   1   9   -2.78    2.12
   7  -2  -9   44.26    6.16
   6  -2  -9   39.60    5.68
   6  -2  -9   43.83    5.81
   5  -2  -9   55.66    5.96
   5  -2  -9   67.02    6.50
  -4   2   9  392.60   16.31
   4  -2  -9  374.82   17.19
  -4   2   9  412.00   16.74
   4  -2  -9  383.45   17.42
   3  -2  -9   -0.74    1.66
   3  -2  -9    4.41    2.67
  -3   2   9   -0.12    2.12
  -3   2   9    0.37    1.86
   3  -2  -9    2.94    2.40
  -3   2   9    0.75    1.84
   2  -2  -9  127.85    7.69
  -2   2   9  115.88    6.71
   2  -2  -9  115.76    7.22
  -2   2   9  130.25    7.29
  -2   2   9  136.63    7.50
   2  -2  -9  109.74    7.03
   1  -2  -9   51.83    4.52
  -1   2   9   55.90    4.70
   1  -2  -9   52.98    4.83
   1  -2  -9   56.22    5.12
  -1   2   9   54.58    4.44
  -1   2   9   54.79    4.81
   0  -2  -9   23.56    3.36
   0  -2  -9   22.15    3.71
   0  -2  -9   23.09    3.26
   0   2   9   24.84    3.38
   0   2   9   24.41    3.67
   0   2   9   22.22    3.11
  -1  -2  -9  824.83   36.04
   1   2   9  863.60   31.32
   1   2   9  879.86   31.37
  -1  -2  -9  891.62   36.88
   1   2   9  872.61   32.73
  -1  -2  -9  864.78   31.04
  -2  -2  -9   -0.34    2.41
  -2  -2  -9    0.71    2.08
   2   2   9   -0.10    1.80
   2   2   9   -0.05    1.76
   2   2   9   -0.08    2.14
  -3  -2  -9  200.72   12.44
   3   2   9  199.66    9.56
   3   2   9  208.35   10.08
   3   2   9  191.17    9.65
   3   2   9  211.66   11.90
   4   2   9   15.61    3.12
   4   2   9   24.52    3.38
   4   2   9   21.67    5.01
   4   2   9   19.94    3.23
   5   2   9   11.56    2.98
   5   2   9    5.40    2.63
   7  -3  -9   43.24    6.10
   6  -3  -9  205.85   11.92
   6  -3  -9  178.33   11.35
   5  -3  -9   -1.61    2.89
  -5   3   9    2.28    2.37
   5  -3  -9   -2.57    2.53
   4  -3  -9   39.62    5.11
  -4   3   9   36.44    4.47
   4  -3  -9   39.56    5.25
   3  -3  -9   -1.87    1.77
  -3   3   9    0.33    2.10
   3  -3  -9    3.18    2.43
   3  -3  -9    2.04    2.55
  -3   3   9   -2.52    1.53
  -3   3   9   -1.09    1.73
   2  -3  -9    2.83    2.09
  -2   3   9   -1.18    1.65
   2  -3  -9    4.24    2.38
  -2   3   9    6.59    2.58
   2  -3  -9    0.23    2.36
  -2   3   9    1.62    2.01
   1  -3  -9  171.75    8.93
   1  -3  -9  171.79    9.22
  -1   3   9  163.13    8.91
   1  -3  -9  169.22    9.66
  -1   3   9  164.79    8.96
  -1   3   9  158.49    8.40
   0  -3  -9   10.75    3.20
   0   3   9   14.05    2.86
   0  -3  -9   14.97    2.84
   0   3   9   10.71    2.86
   0   3   9    9.17    3.08
   0  -3  -9   12.14    3.12
   1   3   9  135.89    7.89
  -1  -3  -9  168.25    9.52
  -1  -3  -9  145.46    8.05
   1   3   9  163.98    8.64
  -1  -3  -9  142.27    9.64
   1   3   9  155.23    8.49
   2   3   9  104.44    6.43
   2   3   9   97.37    6.55
   2   3   9   91.75    6.57
  -2  -3  -9   91.40    7.88
  -2  -3  -9  109.93    7.86
   3   3   9   33.91    5.34
   3   3   9   36.40    4.22
   3   3   9   40.64    4.44
   3   3   9   35.44    4.01
  -3  -3  -9   39.32    5.87
  -3  -3  -9   44.53    6.05
   4   3   9  153.48    8.77
   4   3   9  170.35    9.22
   4   3   9  170.44   11.54
   4   3   9  151.31    8.79
   5   3   9   10.09    3.33
   7  -4  -9   47.55    6.74
   6  -4  -9   11.87    4.43
   6  -4  -9   11.07    4.29
  -5   4   9   -2.22    2.30
   5  -4  -9   -0.81    2.84
   5  -4  -9   -0.26    2.93
   4  -4  -9  328.27   15.39
   4  -4  -9  322.45   15.50
  -4   4   9  300.27   14.37
   3  -4  -9  187.41   10.97
   3  -4  -9  222.17   11.02
   3  -4  -9  207.88   10.98
  -3   4   9  207.36   10.10
  -3   4   9  197.44   10.64
   2  -4  -9  255.34   12.15
  -2   4   9  255.03   12.01
   2  -4  -9  252.76   12.38
  -2   4   9  244.43   11.99
   2  -4  -9  247.16   12.69
  -2   4   9  222.70   11.12
   1  -4  -9  103.61    7.18
  -1   4   9  109.53    6.94
   1  -4  -9  110.13    6.97
  -1   4   9  102.56    6.53
  -1   4   9   96.36    7.18
   1  -4  -9  104.94    7.51
   0  -4  -9   58.54    5.21
   0  -4  -9   49.68    5.56
   0   4   9   56.69    5.03
   0  -4  -9   57.70    4.90
   0   4   9   52.42    5.13
   0   4   9   57.13    4.96
  -1  -4  -9   75.31    6.76
   1   4   9   63.89    5.38
  -1  -4  -9   69.79    5.58
   1   4   9   64.17    5.60
   1   4   9   57.76    5.09
   2   4   9  177.17    9.50
  -2  -4  -9  160.55   11.60
  -2  -4  -9  211.14   12.18
   2   4   9  188.25   10.19
   2   4   9  188.15   10.06
  -3  -4  -9    5.51    3.76
   3   4   9   10.88    3.35
   3   4   9    1.42    3.61
   3   4   9    9.76    3.02
   3   4   9    2.16    2.34
   4   4   9   37.98    4.90
   4   4   9   32.42    4.56
   4   4   9   29.98    4.50
   5   4   9    0.14    2.79
   7  -5  -9   10.58    4.60
   6  -5  -9  124.62    9.71
   6  -5  -9  126.75    9.87
   5  -5  -9   20.65    4.69
   5  -5  -9   22.22    4.97
  -5   5   9   18.96    4.15
   4  -5  -9    0.57    2.87
   4  -5  -9   -1.08    3.07
  -4   5   9   -1.09    2.56
   3  -5  -9  158.98    9.62
  -3   5   9  161.27    9.60
   3  -5  -9  144.94    9.89
   3  -5  -9  166.62    9.79
  -2   5   9    0.07    2.10
  -2   5   9   -0.48    2.42
   2  -5  -9    1.98    2.57
   2  -5  -9    3.08    2.72
  -2   5   9    2.40    2.45
   2  -5  -9    3.92    2.80
  -1   5   9   87.48    6.80
   1  -5  -9   76.89    6.58
  -1   5   9   88.58    6.27
  -1   5   9   91.38    6.52
   1  -5  -9   84.72    6.99
   1  -5  -9   94.08    6.67
   0  -5  -9    2.77    2.77
   0  -5  -9    0.77    2.46
   0   5   9    1.61    2.82
   0   5   9    4.03    2.44
   0  -5  -9    1.30    2.26
   0   5   9    0.43    2.29
   1   5   9  243.18   12.33
  -1  -5  -9  236.64   14.16
   1   5   9  241.52   11.78
   1   5   9  235.74   12.13
  -1  -5  -9  246.67   11.92
   2   5   9  200.61   10.99
  -2  -5  -9  195.77   12.95
   2   5   9  194.99   10.81
   2   5   9  198.45   10.50
  -3  -5  -9  110.93   10.15
   3   5   9  144.90    8.91
   3   5   9  121.16    8.16
   3   5   9  129.83    8.69
   4   5   9   42.20    5.38
   4   5   9   37.16    5.30
   4   5   9   33.46    4.96
   5   5   9    0.84    3.35
   6  -6  -9   15.75    5.03
  -5   6   9    3.18    3.50
   5  -6  -9    4.42    3.83
   5  -6  -9    3.96    3.71
  -4   6   9   96.43    7.24
   4  -6  -9   75.80    7.47
   4  -6  -9   79.60    7.66
   3  -6  -9   46.50    5.87
  -3   6   9   56.35    5.88
   3  -6  -9   54.57    6.01
   3  -6  -9   44.20    5.42
  -2   6   9    8.17    3.46
  -2   6   9    7.91    3.00
   2  -6  -9    4.90    3.21
   2  -6  -9    8.63    3.35
   2  -6  -9    7.07    3.31
  -1   6   9   48.49    5.49
  -1   6   9   41.62    4.83
  -1   6   9   45.03    4.88
   1  -6  -9   36.45    5.22
   1  -6  -9   39.54    5.05
   1  -6  -9   45.28    5.59
   0  -6  -9    4.91    3.12
   0  -6  -9    8.20    3.26
   0   6   9    5.34    2.74
   0   6   9    9.18    3.20
   0   6   9   12.01    3.71
  -1  -6  -9   18.20    4.73
   1   6   9   14.51    4.03
  -1  -6  -9    8.66    3.47
   1   6   9   18.11    3.92
   1   6   9   22.11    4.19
  -2  -6  -9  130.06   10.73
   2   6   9  147.00    9.25
   2   6   9  130.21    8.98
   2   6   9  128.48    8.66
   3   6   9    6.25    3.54
   3   6   9    7.76    3.52
   3   6   9   10.77    4.06
   4   6   9   17.06    4.54
   4   6   9   12.08    4.47
   5   6   9    3.01    3.73
   6  -7  -9   53.14    7.49
   5  -7  -9    4.97    4.28
   5  -7  -9   11.84    4.69
   4  -7  -9   28.85    5.31
   4  -7  -9   15.12    5.01
   3  -7  -9    0.61    3.13
  -3   7   9    3.10    3.21
   3  -7  -9    3.22    3.26
   3  -7  -9    3.23    3.90
   2  -7  -9    4.40    3.25
   2  -7  -9    2.76    3.05
  -2   7   9    0.70    3.05
   2  -7  -9   -1.82    3.08
  -2   7   9    0.54    2.55
  -1   7   9    0.38    2.63
  -1   7   9    5.15    3.32
   1  -7  -9    5.52    3.18
   1  -7  -9    3.48    3.15
  -1   7   9    2.75    2.64
   0  -7  -9    4.08    3.51
   0   7   9    7.17    3.69
   0   7   9    7.45    3.12
   0   7   9   -0.19    2.69
   1   7   9   17.69    4.24
   1   7   9   15.12    3.89
   1   7   9    8.77    3.95
  -1  -7  -9    9.78    4.19
   2   7   9   26.98    5.34
   2   7   9   26.14    4.87
   2   7   9   33.20    5.20
   3   7   9   79.76    7.83
   3   7   9   90.48    7.98
   4   7   9    6.13    4.31
   5  -8  -9    5.39    4.19
   5  -8  -9    4.22    4.33
   4  -8  -9    1.90    3.84
   4  -8  -9   -0.20    3.70
   3  -8  -9   74.65    8.12
   3  -8  -9   81.40    7.94
   3  -8  -9   69.66    7.86
  -3   8   9   89.81    7.92
  -2   8   9   96.56    8.33
   2  -8  -9   87.12    7.87
   2  -8  -9   87.78    8.54
   2  -8  -9   77.98    8.22
  -1   8   9   34.24    5.02
  -1   8   9   40.85    6.19
   1  -8  -9   29.87    5.63
   0   8   9   34.16    5.24
   0   8   9   29.12    5.81
   0  -8  -9   30.38    6.03
   0   8   9   19.03    4.50
   1   8   9   17.21    4.34
   1   8   9    8.71    4.21
   1   8   9   13.30    4.16
   2   8   9   77.28    8.00
   2   8   9  105.16    8.27
   2   8   9   87.52    8.22
   3   8   9    5.97    4.25
   5  -9  -9   34.22    6.72
   4  -9  -9   32.88    6.44
   4  -9  -9   35.39    6.72
   3  -9  -9    3.12    4.11
  -3   9   9    2.64    4.06
   3  -9  -9   -3.78    3.21
   2  -9  -9   74.92    8.28
   2  -9  -9   63.94    7.32
  -2   9   9   63.36    7.56
  -1   9   9   12.64    4.21
  -1   9   9   12.16    4.70
   0   9   9   13.31    4.45
   0   9   9   16.66    5.17
   1   9   9   14.10    4.87
   1   9   9   20.04    5.48
   1   9   9   24.07    5.30
   2   9   9   41.94    7.02
   4 -10  -9   11.59    5.49
   3 -10  -9    4.09    4.62
  -3  10   9    2.20    4.40
   3 -10  -9   -6.45    3.40
  -2  10   9   51.69    7.45
   2 -10  -9   45.25    7.41
  -1  10   9    8.19    4.91
   0  10   9    2.69    3.92
   0  10   9    1.20    4.26
   1  10   9    3.07    4.53
   2 -11  -9    9.35    5.63
  -2  11   9   12.46    5.58
  -1  11   9    2.87    4.88
   2  14 -10   16.55    5.91
  -2 -14  10    3.95    4.64
  -1 -14  10    9.33    5.08
   1  14 -10   10.52    4.96
   0 -14  10   27.05    6.19
   0 -14  10   19.67    5.21
   0  14 -10   41.32    6.16
  -1  14 -10   36.64    6.13
   1 -14  10   25.98    6.02
   2 -14  10   21.68    5.49
  -2  14 -10   28.72    5.85
   3 -14  10    0.09    3.81
   3  13 -10    3.46    4.60
  -3 -13  10   -0.06    4.51
  -2 -13  10   13.93    5.12
   2  13 -10   12.06    5.35
  -1 -13  10    3.25    4.34
   1  13 -10    4.26    4.34
  -1 -13  10    9.40    4.23
   0 -13  10   32.00    6.31
   0 -13  10   36.70    6.02
   0 -13  10   46.53    6.74
   1 -13  10  128.78   10.46
   1 -13  10  168.37   11.40
   1 -13  10  130.46    9.92
  -1  13 -10  144.48   10.24
   2 -13  10    5.44    4.18
   2 -13  10    5.86    3.57
  -2  13 -10   10.26    4.31
   3 -13  10   42.78    6.29
  -3  13 -10   37.36    6.52
   4 -13  10    3.62    3.80
   4  12 -10   13.68    5.71
  -3 -12  10   25.90    6.30
   3  12 -10   29.70    6.61
   2  12 -10    9.49    4.72
  -2 -12  10    4.63    4.17
  -1 -12  10   63.55    7.05
   1  12 -10   60.56    7.27
  -1 -12  10   82.87    8.20
   0 -12  10   -0.54    3.07
   0  12 -10   -1.56    3.31
   0 -12  10   -1.21    3.12
   0 -12  10    0.62    3.11
   1 -12  10   -2.00    2.79
   1 -12  10    1.70    3.28
   1 -12  10   -1.69    3.30
  -1  12 -10    4.13    3.04
   2 -12  10    2.68    3.34
  -2  12 -10    3.98    3.34
   2 -12  10    1.45    3.24
   2 -12  10    5.85    3.38
   3 -12  10   10.85    4.12
   3 -12  10   14.27    4.05
  -3  12 -10    9.23    4.19
  -3  12 -10   16.10    4.65
   4 -12  10   33.94    5.22
  -4  12 -10   31.93    6.54
   4  11 -10   31.80    6.16
   4  11 -10   30.65    6.49
  -3 -11  10   76.97    8.26
   3  11 -10   71.56    8.11
   3  11 -10   65.91    7.26
  -2 -11  10   11.68    4.17
  -2 -11  10    1.56    3.60
   2  11 -10    4.09    4.13
   1  11 -10   28.03    5.39
  -1 -11  10   27.69    5.33
  -1 -11  10   31.01    5.16
  -1 -11  10   26.95    5.42
   0  11 -10  125.69    8.33
   0 -11  10  141.03    9.78
   0  11 -10  117.05    8.68
   0 -11  10  116.62    9.19
   0 -11  10  106.02    8.36
   1 -11  10   13.67    4.41
  -1  11 -10   16.97    3.94
   1 -11  10   26.85    4.81
   1 -11  10   19.57    4.10
   2 -11  10    0.94    2.70
   2 -11  10    5.19    3.00
  -2  11 -10    2.38    3.15
  -2  11 -10   -0.12    2.65
   2 -11  10   -1.80    2.76
  -3  11 -10   10.63    4.06
   3 -11  10   13.46    4.03
  -3  11 -10   11.53    3.94
   3 -11  10    5.71    3.55
   3 -11  10    9.70    3.55
   4 -11  10    3.55    2.84
   4 -11  10    3.25    3.10
  -4  11 -10    1.38    3.56
   5  10 -10   -2.97    3.62
   4  10 -10  225.47   13.62
   4  10 -10  228.73   14.12
  -4 -10  10  228.80   14.16
  -3 -10  10   51.63    6.64
   3  10 -10   49.51    6.19
   3  10 -10   43.60    6.68
  -2 -10  10  191.82   10.95
   2  10 -10  171.41   10.45
  -2 -10  10  180.25   11.41
   2  10 -10  170.67   11.20
  -1 -10  10   18.46    4.39
  -1 -10  10   16.71    4.01
   1  10 -10   12.05    3.92
  -1 -10  10   18.50    4.51
   0  10 -10   18.91    3.95
   0 -10  10   20.83    4.52
   0 -10  10   21.07    4.42
   0 -10  10   14.48    3.80
   0  10 -10   13.58    3.23
   1 -10  10  112.94    8.36
   1 -10  10  109.52    8.40
  -1  10 -10  130.15    7.72
  -1  10 -10  117.00    7.89
   1 -10  10  106.38    7.80
  -2  10 -10   89.56    7.07
   2 -10  10  112.53    7.95
  -2  10 -10   90.95    7.62
   2 -10  10   87.48    6.93
   2 -10  10   93.34    7.43
  -3  10 -10   32.95    5.16
  -3  10 -10   33.96    5.62
   3 -10  10   30.09    4.61
   3 -10  10   27.63    4.26
   3 -10  10   41.82    5.23
   4 -10  10    0.38    2.95
  -4  10 -10    3.10    3.68
   4 -10  10    3.51    2.79
   4 -10  10    1.95    2.85
   5 -10  10   21.59    3.89
  -5  10 -10   16.57    5.34
   5   9 -10    2.96    4.38
   5   9 -10   -4.19    3.57
   4   9 -10   88.06    8.72
   4   9 -10   99.48    8.74
  -4  -9  10   94.79    8.79
   3   9 -10  450.30   21.05
   3   9 -10  452.31   20.64
  -3  -9  10  474.06   21.22
   2   9 -10   -0.47    2.66
  -2  -9  10    3.50    2.92
  -2  -9  10    7.66    3.40
   2   9 -10   -1.74    2.67
  -2  -9  10    2.08    2.94
   1   9 -10   56.30    5.16
   1   9 -10   60.95    6.08
  -1  -9  10   46.98    5.51
  -1  -9  10   44.35    5.15
  -1  -9  10   47.15    5.68
   0   9 -10  177.60    9.46
   0  -9  10  182.48   10.57
   0  -9  10  180.69   10.49
   0  -9  10  164.53    9.79
   0   9 -10  176.26    9.90
  -1   9 -10   81.70    6.04
   1  -9  10   98.29    7.12
   1  -9  10   73.68    6.52
   1  -9  10   77.93    6.27
  -1   9 -10   98.10    6.84
   2  -9  10  255.44   13.00
   2  -9  10  254.54   12.26
  -2   9 -10  255.03   12.74
  -2   9 -10  246.65   13.05
   2  -9  10  249.63   12.38
   3  -9  10   87.35    6.74
   3  -9  10   88.59    6.50
   3  -9  10  103.47    7.21
  -3   9 -10  101.49    8.19
  -4   9 -10  118.34    9.90
   4  -9  10  133.09    7.76
   4  -9  10  115.69    7.59
   4  -9  10  133.00    8.35
  -5   9 -10   -2.22    3.33
   5  -9  10    1.47    2.38
   6   8 -10   29.11    6.55
   5   8 -10   64.22    7.75
   5   8 -10   33.01    5.86
  -4  -8  10    3.76    3.82
   4   8 -10    8.21    4.31
   4   8 -10    9.62    3.98
  -3  -8  10   13.43    3.67
   3   8 -10   14.06    4.23
   3   8 -10   13.90    3.86
  -3  -8  10    8.27    3.77
  -2  -8  10   62.87    5.81
   2   8 -10   53.84    5.47
   2   8 -10   55.77    6.01
  -2  -8  10   54.72    5.89
  -2  -8  10   57.85    5.86
   1   8 -10   23.11    4.13
  -1  -8  10   32.99    4.52
   1   8 -10   29.56    3.88
  -1  -8  10   21.11    3.81
  -1  -8  10   24.86    4.42
   0  -8  10   94.66    7.30
   0   8 -10   99.17    6.34
   0  -8  10  111.60    7.59
   0   8 -10   99.84    5.67
   0  -8  10   90.33    6.66
   0   8 -10  102.80    7.10
   1  -8  10  102.38    6.64
  -1   8 -10  111.01    6.71
  -1   8 -10   98.78    6.40
   1  -8  10   99.97    7.08
  -1   8 -10  102.53    6.85
   1  -8  10   85.28    6.88
   2  -8  10    4.34    2.58
   2  -8  10    3.23    2.54
  -2   8 -10    4.55    2.65
   2  -8  10    1.38    2.07
  -3   8 -10  145.57    9.89
   3  -8  10  151.08    8.17
   3  -8  10  161.26    8.94
   3  -8  10  145.55    8.24
   4  -8  10    4.68    2.62
   4  -8  10    6.74    2.59
  -4   8 -10    7.26    4.07
   4  -8  10    3.32    2.35
   5  -8  10   98.31    6.45
  -5   8 -10  106.44    9.96
   5  -8  10   88.86    5.98
   6   7 -10   58.45    7.74
   5   7 -10    6.96    4.19
   5   7 -10    8.69    4.15
   4   7 -10   16.61    4.62
   4   7 -10   13.25    4.17
  -4  -7  10   11.42    4.13
   3   7 -10  106.43    7.89
  -3  -7  10  112.27    8.10
  -3  -7  10   94.77    7.27
   3   7 -10  107.60    8.12
  -2  -7  10   59.70    5.55
   2   7 -10   51.98    5.30
  -2  -7  10   75.53    6.20
  -2  -7  10   72.29    6.45
   2   7 -10   66.29    6.30
   1   7 -10  137.29    7.87
  -1  -7  10  142.49    8.56
   1   7 -10  122.69    7.95
  -1  -7  10  128.21    7.75
  -1  -7  10  123.54    8.14
   0  -7  10   96.98    7.02
   0  -7  10  101.39    7.22
   0   7 -10  102.23    6.25
   0   7 -10  117.77    7.33
   0  -7  10  111.34    6.79
   0   7 -10  122.57    6.57
   1  -7  10   48.00    4.84
  -1   7 -10   52.55    4.74
   1  -7  10   55.24    4.70
  -1   7 -10   60.04    4.68
   1  -7  10   52.96    5.00
  -2   7 -10   28.54    4.25
   2  -7  10   27.10    3.69
   2  -7  10   34.67    3.73
   2  -7  10   40.63    4.21
   3  -7  10   61.75    4.93
   3  -7  10   65.71    5.17
   3  -7  10   59.16    4.60
  -3   7 -10   58.76    6.17
  -4   7 -10   67.00    7.23
   4  -7  10   85.70    5.31
   4  -7  10   71.70    5.42
   4  -7  10   77.31    5.10
   5  -7  10    0.33    1.83
  -5   7 -10    1.79    3.49
   5  -7  10    3.09    2.17
  -6   7 -10   76.73    9.30
   6   6 -10    8.13    4.64
   6   6 -10    8.01    4.26
   5   6 -10   69.47    7.42
   5   6 -10   64.63    6.90
   4   6 -10    1.76    3.00
   4   6 -10   11.32    3.79
  -4  -6  10   10.45    3.77
  -3  -6  10  910.72   33.15
   3   6 -10  853.68   33.05
  -3  -6  10  853.02   33.14
   3   6 -10  865.22   33.35
  -2  -6  10   28.48    4.04
  -2  -6  10   32.39    4.51
   2   6 -10   31.00    4.06
  -2  -6  10   35.60    4.28
   2   6 -10   31.16    4.43
   1   6 -10  475.79   19.52
  -1  -6  10  487.22   20.25
   1   6 -10  493.75   18.25
   1   6 -10  482.11   19.09
  -1  -6  10  436.60   19.21
  -1  -6  10  480.11   19.26
   0  -6  10   42.61    4.42
   0  -6  10   39.00    4.01
   0   6 -10   22.87    2.91
   0   6 -10   36.03    3.52
   1  -6  10   32.23    3.46
   1  -6  10   37.94    4.07
  -1   6 -10   41.01    3.80
  -1   6 -10   31.34    3.65
   1  -6  10   36.09    3.87
   1  -6  10   33.16    3.96
  -2   6 -10  228.85   11.90
   2  -6  10  235.23   11.20
   2  -6  10  246.49   12.92
   2  -6  10  235.97   10.59
   2  -6  10  248.22   10.94
   3  -6  10   43.21    4.06
   3  -6  10   50.83    4.12
   3  -6  10   38.18    3.59
  -3   6 -10   37.48    4.95
   4  -6  10   58.28    4.50
  -4   6 -10   57.37    6.54
   4  -6  10   64.81    4.39
   5  -6  10    6.50    2.06
  -5   6 -10    6.29    4.18
   5  -6  10    3.65    1.84
   7   5 -10    7.13    4.81
   6   5 -10   33.11    5.92
   6   5 -10   21.48    5.26
   5   5 -10   51.68    6.36
   5   5 -10   49.03    6.08
   4   5 -10   24.28    4.29
   4   5 -10   25.06    4.69
  -4  -5  10   33.89    4.94
   3   5 -10  237.00   12.35
  -3  -5  10  250.43   12.27
   3   5 -10  233.00   11.77
  -3  -5  10  247.98   11.78
  -3  -5  10  234.66   11.92
   2   5 -10  576.65   23.03
   2   5 -10  595.74   22.88
  -2  -5  10  598.15   23.64
  -2  -5  10  545.15   22.60
  -2  -5  10  596.08   23.86
  -2  -5  10  578.88   23.07
  -1  -5  10   11.79    3.11
   1   5 -10   11.24    3.11
   1   5 -10   17.20    2.12
   1   5 -10   13.52    2.86
  -1  -5  10   11.83    3.15
  -1  -5  10    8.46    2.62
   0  -5  10   82.03    5.81
   0  -5  10   94.77    5.30
   0  -5  10  106.40    6.60
   0   5 -10  103.16    5.65
   0   5 -10  101.39    5.78
   0   5 -10  108.71    6.62
   0  -5  10   87.05    6.39
  -1   5 -10   16.21    2.84
   1  -5  10   20.01    2.96
  -1   5 -10   18.70    2.82
   1  -5  10   21.59    3.23
   1  -5  10   16.76    2.87
   1  -5  10   13.84    2.91
  -2   5 -10   42.60    4.43
   2  -5  10   35.11    3.66
   2  -5  10   45.28    4.72
   2  -5  10   45.25    4.05
   2  -5  10   50.83    3.89
   3  -5  10  303.05   12.08
  -3   5 -10  303.58   14.80
   3  -5  10  294.76   12.70
   3  -5  10  294.99   12.11
   4  -5  10  115.90    5.92
   4  -5  10  122.16    7.95
  -4   5 -10  123.69    8.96
   4  -5  10  118.35    6.28
   5  -5  10   96.92    5.00
  -5   5 -10   91.49    8.75
   5  -5  10   96.21    5.30
   7   4 -10    2.86    4.06
   6   4 -10    6.07    3.97
   6   4 -10    5.00    4.13
   5   4 -10   73.48    6.98
   5   4 -10   62.55    6.51
   4   4 -10   87.16    7.00
  -4  -4  10   90.68    7.23
   4   4 -10   87.36    7.08
  -3  -4  10  140.07    8.62
  -3  -4  10  149.05    8.51
   3   4 -10  143.23    9.02
   3   4 -10  142.87    8.58
  -3  -4  10  157.22    8.44
  -2  -4  10    1.41    2.15
   2   4 -10    0.50    2.30
  -2  -4  10    6.72    1.97
   2   4 -10    1.15    0.90
  -2  -4  10    3.15    2.07
   2   4 -10    2.57    2.62
  -2  -4  10   -1.49    2.17
  -1  -4  10  109.32    6.71
   1   4 -10  119.22    6.95
  -1  -4  10  116.61    7.19
   1   4 -10  110.38    7.13
   1   4 -10  131.23    5.59
  -1  -4  10  125.30    7.40
   0  -4  10  239.08   10.66
   0   4 -10  235.91   10.16
   0  -4  10  217.12   10.69
   0  -4  10  236.38   10.29
   0   4 -10  240.47   10.29
   0   4 -10  263.09   11.01
   0  -4  10  232.35   11.14
  -1   4 -10   47.04    3.87
   1  -4  10   41.55    3.62
   1  -4  10   42.49    3.90
   1  -4  10   40.53    3.98
   1  -4  10   43.95    4.07
  -1   4 -10   45.15    4.03
  -2   4 -10   44.28    4.51
   2  -4  10   47.47    3.96
   2  -4  10   52.14    4.22
   2  -4  10   50.88    3.95
   2  -4  10   57.49    5.31
  -3   4 -10   17.82    3.70
   3  -4  10   15.92    2.46
   3  -4  10   15.49    2.52
   3  -4  10   17.39    2.44
   4  -4  10   66.08    4.34
  -4   4 -10   71.69    6.82
   4  -4  10   66.45    4.14
   4  -4  10   74.10    6.19
   5  -4  10   20.42    2.41
   5  -4  10   16.56    4.58
   5  -4  10   13.22    2.07
   7   3 -10   12.90    4.73
   6   3 -10   99.15    8.48
   6   3 -10   97.48    8.53
   5   3 -10  279.14   14.50
   5   3 -10  279.48   14.05
   4   3 -10   41.56    5.38
  -4  -3  10   37.39    4.87
   4   3 -10   42.64    5.08
  -3  -3  10   67.18    5.42
  -3  -3  10   58.48    5.45
  -3  -3  10   61.10    4.96
   3   3 -10   61.63    5.50
   3   3 -10   59.25    5.56
  -2  -3  10  664.44   24.61
   2   3 -10  603.52   23.44
  -2  -3  10  607.60   24.35
  -2  -3  10  567.77   23.10
   2   3 -10  616.76   23.80
  -2  -3  10  597.71   23.53
   0   3 -10    4.00    1.93
   0  -3  10    2.49    2.18
   0  -3  10    2.43    2.08
   0  -3  10    7.72    1.82
   0   3 -10   -0.38    1.41
   0  -3  10    2.06    1.93
   0   3 -10    1.48    2.19
  -1   3 -10 1399.54   46.46
   1  -3  10 1305.26   46.70
   1  -3  10 1364.98   49.20
  -1   3 -10 1352.18   48.67
   1  -3  10 1309.26   47.00
  -1   3 -10 1373.42   45.94
   1  -3  10 1416.99   54.93
   2  -3  10    4.26    1.95
  -2   3 -10    2.11    2.05
   2  -3  10    0.83    2.25
   2  -3  10   -0.05    1.51
   2  -3  10    4.76    2.04
   3  -3  10   14.47    2.35
   3  -3  10   10.72    3.30
   3  -3  10   18.02    2.37
   3  -3  10   14.28    2.32
   4  -3  10  191.81   10.96
   4  -3  10  183.19    8.41
   4  -3  10  185.25    7.98
   5  -3  10   12.82    2.10
   5  -3  10   14.20    2.23
   5  -3  10   10.56    4.22
   7   2 -10   10.12    4.65
   6   2 -10    5.67    3.85
   6   2 -10   -0.97    3.19
   5   2 -10  111.37    8.11
   5   2 -10   99.51    7.56
   4   2 -10   92.42    7.18
   4   2 -10  101.55    7.50
  -4  -2  10  114.85    7.35
  -3  -2  10  302.80   13.31
   3   2 -10  293.11   14.03
   3   2 -10  304.56   13.74
  -3  -2  10  316.38   13.96
  -3  -2  10  308.31   13.83
  -2  -2  10  359.39   14.41
   2   2 -10  322.81   14.51
  -2  -2  10  320.11   13.99
  -2  -2  10  343.39   14.92
   2   2 -10  329.48   14.35
  -2  -2  10  329.29   14.50
  -1  -2  10  441.22   17.77
  -1  -2  10  451.32   17.56
   1   2 -10  433.89   17.49
  -1  -2  10  446.65   18.44
   1   2 -10  467.60   18.01
   0  -2  10  130.40    7.15
   0  -2  10  117.07    7.03
   0   2 -10  133.34    6.62
   0   2 -10  127.61    7.06
   0  -2  10  116.58    6.53
   1  -2  10    4.16    1.94
   1  -2  10    4.77    2.32
   1  -2  10    2.45    2.15
  -1   2 -10    5.29    1.55
  -1   2 -10    1.61    2.00
   2  -2  10  200.94    9.06
   2  -2  10  202.84    8.93
   2  -2  10  203.34    9.38
   3  -2  10   50.70    5.22
   3  -2  10   49.17    3.87
   3  -2  10   41.05    3.40
   3  -2  10   49.02    3.89
   4  -2  10   21.78    2.61
   4  -2  10   19.89    4.35
   4  -2  10   21.61    2.69
   5  -2  10   42.24    6.15
   5  -2  10   42.22    3.46
   5  -2  10   36.55    3.21
   6  -2  10    7.31    1.96
   7   1 -10   -0.56    3.57
   6   1 -10   -0.07    3.09
   6   1 -10    2.85    3.54
   5   1 -10   94.78    7.61
   5   1 -10  114.23    8.20
   4   1 -10    6.54    3.05
  -4  -1  10   10.18    3.24
   4   1 -10    3.33    2.73
  -3  -1  10   72.38    5.45
  -3  -1  10   81.91    3.89
  -3  -1  10   80.03    5.59
   3   1 -10   64.77    5.91
  -3  -1  10   72.21    5.91
   3   1 -10   51.30    5.09
  -2  -1  10  809.73   29.82
  -2  -1  10  785.83   29.49
   2   1 -10  804.22   29.86
   2   1 -10  824.84   30.20
  -2  -1  10  811.77   30.89
  -1  -1  10  723.73   26.92
  -1  -1  10  665.23   25.43
   1   1 -10  708.36   25.89
  -1  -1  10  692.70   25.76
   1   1 -10  669.68   25.53
   0   1 -10  434.06   16.94
   0  -1  10  442.82   18.15
   0   1 -10  455.07   17.50
   0  -1  10  457.98   17.57
   0  -1  10  436.67   17.24
  -1   1 -10  213.29   10.38
  -1   1 -10  216.28    9.42
   1  -1  10  182.84    9.40
   1  -1  10  199.24    9.32
  -1   1 -10  237.09    8.71
   1  -1  10  197.26    9.81
  -2   1 -10   36.78    4.05
   2  -1  10   32.65    3.17
   2  -1  10   29.47    3.22
   2  -1  10   32.06    3.35
   3  -1  10  185.36    9.27
   3  -1  10  212.90   11.47
   3  -1  10  217.61    9.09
   3  -1  10  200.98    8.92
   4  -1  10  434.75   17.21
   4  -1  10  432.53   16.15
   4  -1  10  422.72   19.96
   4  -1  10  431.91   16.40
   5  -1  10    1.99    1.74
   5  -1  10    0.20    1.71
   5  -1  10   -6.38    3.48
   7   0 -10    1.16    3.51
   6   0 -10    5.88    3.79
   6   0 -10   11.85    4.39
   5   0 -10   35.33    5.01
   5   0 -10   27.49    4.67
  -4   0  10   40.70    4.57
   4   0 -10   32.10    4.44
   4   0 -10   39.88    5.13
   3   0 -10  117.04    7.30
  -3   0  10  124.97    7.00
   3   0 -10  112.48    7.56
  -3   0  10  113.44    5.58
  -3   0  10  107.11    6.99
  -3   0  10  107.79    7.31
   2   0 -10   27.12    3.69
  -2   0  10   29.37    3.83
  -2   0  10   29.01    4.13
   2   0 -10   30.68    4.16
  -2   0  10   32.08    3.75
   2   0 -10   34.41    2.21
   1   0 -10   51.25    4.73
  -1   0  10   58.71    5.01
   1   0 -10   50.34    2.92
  -1   0  10   44.70    4.30
  -1   0  10   47.48    4.12
   1   0 -10   44.31    4.24
   0   0 -10  106.31    6.03
   0   0 -10  119.31    6.70
   0   0  10   86.77    6.14
   0   0  10   98.91    6.57
   0   0  10  101.09    6.13
   0   0 -10  110.79    5.81
  -1   0 -10  290.92   11.51
  -1   0 -10  258.03   12.64
   1   0  10  267.54   11.92
   1   0  10  243.73   11.19
   1   0  10  247.35   11.44
  -2   0 -10   88.42    6.53
   2   0  10   90.67    5.67
   2   0  10   89.69    5.39
   2   0  10   85.40    5.62
   3   0  10    0.05    3.01
   3   0  10   -0.03    1.75
   3   0  10    2.11    1.86
   3   0  10   -0.23    1.80
  -3   0 -10   -1.77    2.07
   4   0  10   33.32    5.47
   4   0  10   35.39    3.58
   4   0  10   41.68    3.66
   4   0  10   35.08    3.51
   5   0  10   51.29    4.39
   5   0  10   56.55    4.54
   7  -1 -10   14.23    4.59
   6  -1 -10    1.40    2.97
   6  -1 -10    0.63    3.08
   5  -1 -10   56.74    6.36
   5  -1 -10   85.85    7.14
  -4   1  10  568.18   22.09
   4  -1 -10  575.68   23.66
   4  -1 -10  577.91   23.44
  -4   1  10  568.30   22.82
  -3   1  10   51.61    4.82
   3  -1 -10   65.96    4.63
  -3   1  10   65.72    5.06
  -3   1  10   62.44    5.47
   3  -1 -10   54.57    5.18
   3  -1 -10   61.79    5.69
   2  -1 -10  225.40   11.04
   2  -1 -10  222.87   11.25
  -2   1  10  224.50   10.85
   2  -1 -10  212.56   10.60
  -2   1  10  220.88   10.84
  -2   1  10  218.00   10.32
  -1   1  10 1294.16   46.35
   1  -1 -10 1197.17   44.29
   1  -1 -10 1268.48   49.56
  -1   1  10 1260.89   44.36
  -1   1  10 1234.09   44.29
   1  -1 -10 1294.69   44.61
   0   1  10  741.82   28.15
   0  -1 -10  782.41   27.90
   0   1  10  752.74   28.05
   0  -1 -10  786.21   31.81
   0  -1 -10  766.27   28.11
   0  -1 -10  711.92   31.69
   0   1  10  795.95   29.42
  -1  -1 -10    5.15    2.24
  -1  -1 -10    6.06    2.93
   1   1  10    3.60    2.18
  -1  -1 -10    5.43    2.25
   1   1  10    3.41    2.29
   1   1  10    4.29    2.17
   2   1  10  107.61    6.62
  -2  -1 -10  113.66    7.75
   2   1  10  111.32    6.67
   2   1  10  106.10    6.39
   3   1  10   49.32    4.22
  -3  -1 -10   48.96    5.87
   3   1  10   50.50    5.90
   3   1  10   47.33    4.35
   3   1  10   48.41    4.26
   4   1  10   12.32    4.64
   4   1  10   19.93    3.24
   4   1  10   26.71    3.27
   4   1  10   22.00    3.19
   5   1  10   12.38    2.84
   5   1  10   11.65    2.90
   7  -2 -10   15.14    4.78
   6  -2 -10   19.57    4.88
   6  -2 -10   19.82    4.90
   5  -2 -10   10.06    3.89
   5  -2 -10   21.60    4.47
  -4   2  10   42.43    4.82
   4  -2 -10   46.43    5.32
   4  -2 -10   41.92    5.42
  -4   2  10   34.49    3.82
   3  -2 -10  426.59   17.98
   3  -2 -10  394.00   17.69
   3  -2 -10  386.46   17.76
  -3   2  10  404.95   16.82
  -3   2  10  432.36   17.88
  -3   2  10  415.42   17.51
  -2   2  10   28.95    3.90
  -2   2  10   23.53    3.28
   2  -2 -10   23.66    3.94
  -2   2  10   25.15    3.58
   2  -2 -10   30.68    3.91
   2  -2 -10   32.53    3.83
  -1   2  10  375.39   15.77
   1  -2 -10  348.26   17.01
  -1   2  10  373.81   16.15
   1  -2 -10  391.56   15.84
   1  -2 -10  350.46   15.75
  -1   2  10  376.90   15.35
   0  -2 -10  409.77   15.97
   0   2  10  389.67   15.99
   0  -2 -10  384.94   16.14
   0   2  10  406.66   16.40
   0   2  10  378.45   16.74
   0  -2 -10  376.26   18.44
   1   2  10  349.08   15.12
   1   2  10  347.80   14.68
  -1  -2 -10  374.72   14.86
  -1  -2 -10  339.19   17.43
   1   2  10  347.45   15.46
  -1  -2 -10  366.10   17.16
   2   2  10    6.82    2.83
   2   2  10    9.50    2.66
   2   2  10   13.23    2.89
  -2  -2 -10    5.07    3.20
  -2  -2 -10   13.29    3.47
   3   2  10    5.45    3.50
   3   2  10    1.79    2.08
   3   2  10    3.98    2.24
  -3  -2 -10    5.26    3.03
   3   2  10    6.40    2.57
   4   2  10  146.26    8.08
   4   2  10  143.00    8.28
   4   2  10  141.93    8.23
   4   2  10  133.99   10.42
   5   2  10    9.33    2.99
   7  -3 -10   -3.00    3.16
   6  -3 -10    4.77    3.77
   6  -3 -10    9.74    3.99
   5  -3 -10    5.54    3.46
   5  -3 -10    6.68    3.47
   4  -3 -10   58.47    6.07
  -4   3  10   64.80    5.98
   4  -3 -10   67.36    6.72
   3  -3 -10   11.34    3.40
   3  -3 -10   11.47    2.81
  -3   3  10   17.74    3.12
  -3   3  10    9.83    3.08
   3  -3 -10    7.59    3.24
   2  -3 -10   60.10    5.39
   2  -3 -10   63.83    5.83
  -2   3  10   59.33    4.84
  -2   3  10   59.96    5.50
   2  -3 -10   52.83    5.31
  -2   3  10   53.41    5.01
  -1   3  10  635.48   25.60
   1  -3 -10  704.66   25.93
  -1   3  10  682.50   26.78
  -1   3  10  659.82   25.46
   1  -3 -10  668.60   28.66
   1  -3 -10  661.90   25.96
   0  -3 -10  830.75   32.32
   0  -3 -10  841.25   36.86
   0   3  10  896.40   34.02
   0   3  10  873.10   32.66
   0  -3 -10  958.45   32.59
   0   3  10  879.46   32.47
  -1  -3 -10  109.12    7.42
  -1  -3 -10   84.41    7.62
   1   3  10   96.80    6.74
   1   3  10   93.19    6.24
   1   3  10   94.75    6.80
  -1  -3 -10  105.61    6.71
  -2  -3 -10   61.74    6.28
   2   3  10   58.53    5.02
   2   3  10   49.34    4.99
   2   3  10   56.59    5.12
  -2  -3 -10   50.08    6.39
   3   3  10   18.17    3.37
  -3  -3 -10   20.67    5.12
   3   3  10   21.22    3.80
   3   3  10   20.93    3.64
   4   3  10   69.90    5.92
   4   3  10   79.13    6.29
   4   3  10   83.41    6.38
   5   3  10  114.49    7.61
   7  -4 -10    0.76    3.74
   6  -4 -10    0.75    3.70
   6  -4 -10    1.74    3.72
   5  -4 -10    3.34    3.51
   5  -4 -10   -0.88    3.03
   4  -4 -10   -1.25    2.54
   4  -4 -10    1.18    3.11
  -4   4  10    3.59    2.60
   3  -4 -10  196.99   10.59
   3  -4 -10  185.35   11.10
  -3   4  10  185.74   10.43
  -3   4  10  180.44    9.68
   3  -4 -10  177.18   10.44
   2  -4 -10   38.06    5.08
   2  -4 -10   38.68    4.74
  -2   4  10   25.25    3.97
   2  -4 -10   31.20    4.39
  -2   4  10   37.02    4.71
  -2   4  10   35.95    4.11
   1  -4 -10   26.74    3.98
  -1   4  10   27.03    4.02
   1  -4 -10   21.91    4.16
   1  -4 -10   27.67    4.28
  -1   4  10   11.37    3.41
  -1   4  10   22.33    3.59
   0  -4 -10   59.05    6.18
   0  -4 -10   65.04    5.73
   0   4  10   54.19    5.03
   0   4  10   48.93    5.35
   0   4  10   67.20    5.58
   1   4  10   32.30    4.41
   1   4  10   28.71    4.00
  -1  -4 -10   33.16    5.45
   1   4  10   29.05    4.07
  -1  -4 -10   26.60    4.37
  -1  -4 -10   30.20    4.13
  -2  -4 -10   85.27    7.49
   2   4  10   83.43    6.26
   2   4  10   89.49    6.70
  -2  -4 -10   77.53    7.98
   2   4  10   70.79    6.36
  -3  -4 -10   31.86    6.17
   3   4  10   26.99    4.52
   3   4  10   38.77    4.75
   3   4  10   27.44    4.16
   4   4  10    3.04    3.24
   4   4  10    1.88    2.72
   4   4  10    5.45    3.13
   6  -5 -10    5.02    4.07
   6  -5 -10    9.69    4.59
   5  -5 -10   59.04    7.10
   5  -5 -10   55.77    7.04
   4  -5 -10  111.53    8.53
   4  -5 -10  111.29    8.94
  -4   5  10  118.37    8.44
  -3   5  10  137.10    8.96
   3  -5 -10  129.68    8.96
   3  -5 -10  146.32    9.31
   3  -5 -10  143.51    9.58
   2  -5 -10   63.68    6.38
  -2   5  10   56.55    5.83
  -2   5  10   49.55    5.34
  -2   5  10   58.09    5.28
   2  -5 -10   56.77    5.87
   2  -5 -10   44.24    5.37
   1  -5 -10    0.47    2.57
  -1   5  10   -0.91    1.98
  -1   5  10    1.77    2.81
   1  -5 -10    1.61    2.75
   1  -5 -10    5.11    3.13
  -1   5  10    1.14    2.49
   0  -5 -10  367.30   17.41
   0   5  10  387.29   17.61
   0   5  10  397.75   17.25
   0   5  10  437.38   18.48
   0  -5 -10  397.29   20.02
   1   5  10   41.12    5.08
   1   5  10   38.69    4.73
  -1  -5 -10   49.21    5.90
   1   5  10   40.07    5.20
  -1  -5 -10   44.94    6.30
  -1  -5 -10   46.21    5.12
   2   5  10   42.88    5.05
   2   5  10   34.26    4.84
   2   5  10   43.10    5.56
  -2  -5 -10   46.09    6.87
   3   5  10   14.23    3.90
   3   5  10   20.69    4.23
   3   5  10   21.00    4.47
   4   5  10   32.98    4.96
   4   5  10   29.51    5.15
   6  -6 -10   -1.26    3.73
   5  -6 -10   -0.36    3.56
   5  -6 -10   -1.87    3.12
  -4   6  10   24.38    4.82
   4  -6 -10   35.62    5.92
   4  -6 -10   29.07    5.31
  -3   6  10  139.02    9.25
   3  -6 -10  126.73    9.37
   3  -6 -10  137.37   10.01
   3  -6 -10  129.64    9.30
  -2   6  10   28.19    4.92
  -2   6  10   20.69    3.92
   2  -6 -10   28.61    4.99
   2  -6 -10   30.41    4.84
   2  -6 -10   20.50    4.71
  -1   6  10   85.40    7.49
   1  -6 -10   74.71    7.04
   1  -6 -10   57.32    6.08
   1  -6 -10   87.80    7.69
  -1   6  10   91.78    6.90
  -1   6  10   83.59    6.77
   0  -6 -10   27.22    5.36
   0   6  10   23.45    4.13
   0   6  10   26.09    4.38
   0  -6 -10   33.88    5.01
   0   6  10   40.57    5.38
  -1  -6 -10   20.36    5.21
   1   6  10   14.63    4.25
   1   6  10   14.03    3.79
   1   6  10   15.96    3.95
   2   6  10    1.16    2.99
   2   6  10    2.10    3.05
   2   6  10    2.86    3.75
  -2  -6 -10   -0.44    3.57
   3   6  10    3.92    3.67
   3   6  10    7.25    3.57
   3   6  10    4.00    3.37
   4   6  10   13.14    4.65
   5  -7 -10   14.31    4.89
   5  -7 -10   15.23    5.11
   4  -7 -10   26.79    5.59
   4  -7 -10   13.97    4.73
   3  -7 -10   69.88    7.35
   3  -7 -10   85.66    8.22
   3  -7 -10   77.70    7.75
  -3   7  10   59.87    6.88
  -2   7  10    8.80    3.51
   2  -7 -10    4.49    3.32
   2  -7 -10   11.21    3.98
  -2   7  10    4.03    3.78
   2  -7 -10    6.16    4.03
  -1   7  10   14.46    4.47
   1  -7 -10   22.78    5.15
  -1   7  10   16.31    4.04
   1  -7 -10   12.16    4.25
   0  -7 -10  198.69   13.66
   0   7  10  217.33   12.43
   0  -7 -10  214.46   12.36
   0   7  10  217.65   12.00
   0   7  10  211.07   12.41
   1   7  10   48.90    6.05
   1   7  10   54.86    6.39
   1   7  10   49.65    6.65
   2   7  10   11.13    4.08
   2   7  10   21.60    5.20
   2   7  10   12.05    4.06
   3   7  10   -1.86    3.39
   4   7  10    6.96    4.53
   5  -8 -10    1.53    4.06
   4  -8 -10   30.82    6.20
   4  -8 -10   19.37    5.53
   3  -8 -10    0.27    3.70
   3  -8 -10    2.71    4.03
  -3   8  10    4.66    3.96
   3  -8 -10    4.31    4.08
   2  -8 -10  179.36   12.43
   2  -8 -10  196.58   12.10
  -2   8  10  192.96   12.43
   2  -8 -10  191.11   13.10
  -1   8  10    6.57    4.35
  -1   8  10    8.00    3.87
   1  -8 -10    6.66    4.05
   1  -8 -10   -7.14    2.98
   0   8  10   48.71    6.67
   0  -8 -10   54.37    6.96
   0   8  10   66.99    7.09
   0   8  10   51.49    6.45
   1   8  10   41.39    6.19
   1   8  10   36.18    5.92
   1   8  10   42.17    6.69
   2   8  10   -2.00    3.67
   2   8  10   -0.86    3.18
   3   8  10   25.36    5.95
   4  -9 -10   10.22    5.01
   4  -9 -10    3.68    4.49
  -3   9  10   42.64    6.84
   3  -9 -10   38.51    6.82
   3  -9 -10   31.33    6.72
   2  -9 -10   68.29    8.15
  -2   9  10   58.48    7.80
   1  -9 -10   27.38    5.96
  -1   9  10   26.17    5.76
   0   9  10    4.83    4.25
   0  -9 -10   -4.03    3.42
   0   9  10   -3.66    3.14
   1   9  10   83.25    8.76
   1   9  10   80.84    8.32
   2   9  10    1.36    4.13
  -3  10  10   16.87    5.45
   3 -10 -10    7.82    5.07
  -2  10  10   49.16    7.59
   2 -10 -10   51.69    7.85
   1 -10 -10    4.04    4.40
  -1  10  10   -0.44    4.54
   0  10  10   92.32    9.16
   0  10  10   98.15    9.98
  -2  11  10   21.42    6.69
   1 -11 -10   -1.42    4.48
   2  14 -11   33.50    7.16
  -1 -14  11   -3.08    3.71
   0  14 -11   14.24    4.59
   0 -14  11   20.24    5.54
   1 -14  11    5.83    4.27
  -1  14 -11    5.15    4.05
   2 -14  11    4.55    4.19
   3  13 -11   10.82    5.82
  -3 -13  11   20.58    6.29
  -2 -13  11   18.64    5.96
   2  13 -11   22.88    6.08
  -1 -13  11  151.42   10.98
   1  13 -11  136.30   11.12
  -1 -13  11  130.68   11.25
   0 -13  11    7.98    4.21
   0 -13  11    9.99    4.84
   0  13 -11   12.14    4.08
   0 -13  11    8.79    4.43
   1 -13  11   27.80    5.62
  -1  13 -11   31.44    5.48
   1 -13  11   24.73    5.56
   1 -13  11   25.29    5.67
   2 -13  11    2.96    3.80
  -2  13 -11    9.81    4.47
  -3  13 -11    0.13    3.69
   3 -13  11   -7.02    2.98
   4 -13  11   -2.24    3.63
   3  12 -11    0.31    4.02
  -3 -12  11   -4.04    3.83
  -2 -12  11   17.17    5.27
   2  12 -11   14.71    5.29
  -1 -12  11   92.86    8.94
  -1 -12  11   93.67    8.44
   1  12 -11   89.50    8.62
   0 -12  11  247.04   14.29
   0  12 -11  230.03   12.79
   0 -12  11  255.20   14.52
   0 -12  11  215.94   13.16
   1 -12  11   -1.68    3.23
   1 -12  11    5.82    3.62
  -1  12 -11   -4.04    2.39
   1 -12  11    2.15    3.21
   2 -12  11    5.87    3.37
   2 -12  11    5.13    3.85
   2 -12  11    7.78    3.86
  -2  12 -11    6.17    3.76
  -3  12 -11    6.62    3.88
   3 -12  11   13.01    4.15
   3 -12  11    8.89    3.57
   4 -12  11   16.83    4.32
   4  11 -11    1.59    4.12
  -4 -11  11    3.64    4.81
   4  11 -11   -4.82    3.19
   3  11 -11    4.29    4.13
  -3 -11  11    3.28    4.62
  -2 -11  11    1.46    3.47
   2  11 -11   -3.28    3.60
  -2 -11  11    3.05    3.75
  -1 -11  11    5.68    3.78
  -1 -11  11   11.29    3.87
   1  11 -11   12.32    4.54
  -1 -11  11    3.48    3.91
   0 -11  11   70.29    7.11
   0  11 -11   63.28    6.03
   0  11 -11   61.07    6.51
   0 -11  11   50.62    6.48
   0 -11  11   60.90    6.58
  -1  11 -11  120.40    8.56
   1 -11  11  112.94    8.43
   1 -11  11  107.58    8.46
   1 -11  11  112.02    9.00
   2 -11  11   57.38    6.06
   2 -11  11   52.66    6.21
  -2  11 -11   57.89    6.59
   2 -11  11   56.04    6.42
   3 -11  11   71.18    6.91
   3 -11  11   58.36    6.21
  -3  11 -11   70.46    7.65
   3 -11  11   56.78    6.01
   4 -11  11    1.24    3.00
  -4  11 -11    2.57    3.72
   4 -11  11    1.17    2.85
   5  10 -11   12.30    5.36
  -4 -10  11   34.18    6.25
   4  10 -11   38.40    6.26
   4  10 -11   31.62    6.42
   3  10 -11   45.78    6.85
   3  10 -11   49.44    6.48
  -3 -10  11   77.56    8.13
   2  10 -11   -0.63    3.20
  -2 -10  11   -3.00    2.60
  -2 -10  11    2.65    3.68
   1  10 -11    3.23    3.17
  -1 -10  11    5.45    3.37
  -1 -10  11    4.91    3.34
  -1 -10  11   -0.07    2.70
   0  10 -11   58.01    5.87
   0 -10  11   38.99    5.54
   0 -10  11   45.47    5.79
   0 -10  11   48.90    5.63
   0  10 -11   48.60    5.00
   1 -10  11    1.36    3.09
   1 -10  11    3.14    2.55
  -1  10 -11   -2.10    2.23
   1 -10  11   -2.37    2.64
   2 -10  11    1.82    2.87
  -2  10 -11    0.19    2.50
  -2  10 -11   -0.05    2.46
   2 -10  11    3.34    2.91
   2 -10  11    2.87    2.67
   3 -10  11  127.28    8.55
  -3  10 -11  130.66    9.88
   3 -10  11  129.91    8.42
   3 -10  11  137.16    9.08
  -4  10 -11   42.10    6.74
   4 -10  11   45.86    5.02
   4 -10  11   45.08    5.08
  -5  10 -11   -2.14    3.45
   5   9 -11   28.40    6.17
   5   9 -11   19.60    5.39
  -4  -9  11   49.37    7.06
   4   9 -11   51.99    7.12
   4   9 -11   63.34    7.11
   3   9 -11   30.36    5.16
   3   9 -11   26.84    5.46
  -3  -9  11   34.20    5.72
  -2  -9  11   40.36    5.90
  -2  -9  11   50.63    6.00
   2   9 -11   40.78    5.38
  -2  -9  11   52.55    5.69
   2   9 -11   34.25    5.42
  -1  -9  11   60.22    6.15
   1   9 -11   71.51    6.73
  -1  -9  11   79.19    7.11
  -1  -9  11   60.24    6.42
   0  -9  11  325.48   15.67
   0   9 -11  324.69   14.65
   0  -9  11  324.58   15.35
   0  -9  11  350.37   16.52
   0   9 -11  317.31   15.10
  -1   9 -11    6.61    2.72
   1  -9  11   13.30    3.53
   1  -9  11    5.59    2.77
   1  -9  11    9.97    3.57
  -2   9 -11   25.77    4.35
   2  -9  11   23.45    4.08
   2  -9  11   22.80    4.26
   2  -9  11   18.36    3.61
   3  -9  11    6.59    3.06
  -3   9 -11   10.43    3.85
   3  -9  11    1.32    2.36
   3  -9  11    8.61    3.16
   4  -9  11    0.78    2.41
   4  -9  11    5.67    2.97
  -4   9 -11   -7.19    2.70
   4  -9  11    1.22    2.61
  -5   9 -11   17.48    5.71
   5  -9  11   12.93    3.15
   6   8 -11   -6.19    3.83
   5   8 -11   48.59    7.32
   5   8 -11   42.71    6.56
  -4  -8  11   45.22    6.24
   4   8 -11   36.69    6.06
   4   8 -11   32.15    5.37
   3   8 -11   31.52    5.47
   3   8 -11   34.43    5.00
  -3  -8  11   22.30    4.90
  -3  -8  11   37.01    5.22
   2   8 -11    3.13    2.93
  -2  -8  11    1.68    3.07
  -2  -8  11   15.04    3.80
  -2  -8  11    4.11    3.04
   2   8 -11    3.73    3.05
   1   8 -11    4.64    2.18
  -1  -8  11    6.55    3.17
   1   8 -11    5.63    3.21
   1   8 -11    5.44    2.59
  -1  -8  11    2.27    2.49
  -1  -8  11    4.57    3.00
   0   8 -11  867.27   32.11
   0  -8  11  831.29   32.31
   0  -8  11  835.27   32.52
   0  -8  11  894.75   34.19
   0   8 -11  856.53   32.32
  -1   8 -11  392.91   16.88
   1  -8  11  363.84   16.29
   1  -8  11  406.93   16.97
   1  -8  11  361.32   17.17
   2  -8  11  123.52    7.40
   2  -8  11  124.52    8.01
  -2   8 -11  111.61    8.01
   2  -8  11  123.14    7.68
   3  -8  11   36.44    4.23
   3  -8  11   35.70    4.30
  -3   8 -11   42.80    5.59
   3  -8  11   34.92    4.03
   4  -8  11   18.14    3.27
  -4   8 -11   14.19    4.49
   4  -8  11   20.39    3.53
   5  -8  11   20.00    3.35
   5  -8  11   15.39    2.99
  -5   8 -11    7.86    4.49
   6   7 -11    4.44    4.37
   5   7 -11    6.80    4.06
   5   7 -11   10.72    4.25
   4   7 -11   49.82    6.03
   4   7 -11   48.99    6.66
  -4  -7  11   64.07    6.89
  -3  -7  11   63.85    6.69
  -3  -7  11   72.49    6.26
   3   7 -11   55.57    6.53
   3   7 -11   60.55    6.22
  -2  -7  11    4.64    2.61
  -2  -7  11   10.84    3.45
   2   7 -11   12.23    3.46
  -2  -7  11    8.12    3.19
   2   7 -11    9.86    3.45
   1   7 -11    7.87    2.03
  -1  -7  11    6.08    3.10
  -1  -7  11    3.24    2.44
  -1  -7  11    8.19    3.00
   1   7 -11    9.21    2.77
   1   7 -11    8.68    3.15
   0   7 -11  211.30    9.95
   0   7 -11  194.68   10.34
   0  -7  11  212.71   10.55
   0  -7  11  211.07   11.26
   0  -7  11  199.13   10.67
   1  -7  11   72.63    5.55
  -1   7 -11   76.44    5.47
  -1   7 -11   65.52    5.36
   1  -7  11   66.35    5.68
   1  -7  11   78.10    6.15
   2  -7  11   59.62    4.87
  -2   7 -11   52.51    5.50
   2  -7  11   53.33    5.03
   2  -7  11   62.11    5.17
   3  -7  11  182.77    8.83
   3  -7  11  170.75    9.28
   3  -7  11  172.99    8.94
  -3   7 -11  173.77   10.81
  -4   7 -11  105.28    9.07
   4  -7  11   99.38    6.55
   4  -7  11  100.58    6.10
  -5   7 -11   10.96    4.76
   5  -7  11   12.46    2.64
   5  -7  11   12.35    2.77
   6   6 -11   23.25    5.58
   6   6 -11   29.49    6.08
   5   6 -11    7.73    4.21
   5   6 -11    1.73    3.36
   4   6 -11   61.21    6.41
  -4  -6  11   59.58    6.46
   4   6 -11   72.37    7.32
   3   6 -11  271.08   13.40
  -3  -6  11  255.36   12.89
  -3  -6  11  276.61   13.82
   3   6 -11  266.46   13.80
  -2  -6  11  415.16   17.87
  -2  -6  11  419.02   18.28
   2   6 -11  411.09   15.40
   2   6 -11  391.80   17.83
  -2  -6  11  387.42   17.20
   2   6 -11  396.57   17.23
   1   6 -11    2.14    2.64
   1   6 -11   -0.58    2.14
  -1  -6  11    2.79    2.20
  -1  -6  11    5.06    2.67
  -1  -6  11    5.21    2.76
   1   6 -11    1.10    1.48
   0  -6  11   19.01    3.61
   0  -6  11   23.11    3.80
   0   6 -11   18.51    3.40
   0   6 -11   23.20    2.93
   0  -6  11   21.57    3.30
  -1   6 -11  365.03   15.83
   1  -6  11  375.73   15.58
  -1   6 -11  381.99   15.07
   1  -6  11  344.93   15.94
   1  -6  11  366.34   15.30
   2  -6  11    3.35    2.19
   2  -6  11   -0.32    2.05
   2  -6  11    0.52    1.86
  -2   6 -11   -0.92    2.15
   3  -6  11    1.64    1.88
  -3   6 -11    3.10    2.61
   3  -6  11    0.88    2.00
   3  -6  11   -0.23    2.04
   4  -6  11  152.71    7.66
  -4   6 -11  164.03   10.91
   4  -6  11  158.50    8.18
  -5   6 -11   21.06    5.29
   5  -6  11   23.29    3.04
   5  -6  11   25.46    2.96
   6   5 -11    6.06    3.91
   6   5 -11    6.56    4.28
   5   5 -11   40.49    5.94
   5   5 -11   38.78    5.56
   4   5 -11    7.03    3.32
  -3  -5  11   30.30    4.69
   3   5 -11   27.65    4.58
  -3  -5  11   34.47    4.44
   3   5 -11   36.27    4.62
  -3  -5  11   41.96    4.74
  -2  -5  11  357.52   15.92
  -2  -5  11  387.01   16.88
   2   5 -11  362.79   16.26
  -2  -5  11  377.14   16.56
   2   5 -11  370.50   15.96
  -1  -5  11   62.12    5.66
   1   5 -11   73.44    5.81
  -1  -5  11   67.12    5.31
   1   5 -11   75.78    4.26
  -1  -5  11   76.86    5.92
   1   5 -11   70.24    5.57
   0  -5  11  567.35   23.82
   0   5 -11  607.35   22.23
   0  -5  11  568.45   22.79
   0   5 -11  606.34   22.58
   0  -5  11  629.84   24.43
   0   5 -11  601.17   22.84
   0  -5  11  560.52   22.65
  -1   5 -11  480.79   20.03
   1  -5  11  505.79   20.53
   1  -5  11  511.21   19.60
  -1   5 -11  510.02   19.24
   1  -5  11  513.34   21.99
   1  -5  11  490.12   19.57
   2  -5  11   26.80    3.36
   2  -5  11   29.21    4.18
   2  -5  11   27.38    3.17
  -2   5 -11   24.06    3.79
   2  -5  11   21.86    3.24
   3  -5  11  145.10    7.18
   3  -5  11  142.76    7.51
  -3   5 -11  138.53    9.05
   3  -5  11  125.10    6.92
  -4   5 -11    1.84    2.94
   4  -5  11    5.34    2.19
   4  -5  11    5.15    1.95
   5  -5  11    1.29    1.71
   5  -5  11    4.38    1.99
   7   4 -11   39.10    6.69
   6   4 -11    3.27    3.80
   6   4 -11    2.73    4.04
   5   4 -11   54.99    6.62
   5   4 -11   44.25    5.73
   4   4 -11  318.54   15.19
  -4  -4  11  328.88   15.47
   4   4 -11  305.77   15.34
  -3  -4  11   32.57    4.57
   3   4 -11   24.48    4.48
  -3  -4  11   26.84    3.88
   3   4 -11   28.09    4.18
  -3  -4  11   26.14    3.84
  -2  -4  11   59.82    5.52
   2   4 -11   56.49    5.50
  -2  -4  11   73.17    5.85
   2   4 -11   71.30    5.53
  -2  -4  11   66.19    5.40
   1   4 -11   32.53    3.61
  -1  -4  11   21.84    3.67
   1   4 -11   26.00    2.18
   1   4 -11   28.65    3.88
  -1  -4  11   24.34    3.64
  -1  -4  11   19.19    3.23
   0   4 -11   -0.05    1.81
   0  -4  11    0.50    2.02
   0   4 -11   -0.41    1.53
   0   4 -11    0.11    2.12
   0  -4  11    2.37    2.29
   0  -4  11    0.37    2.22
   1  -4  11 1101.45   40.24
  -1   4 -11 1148.56   39.74
   1  -4  11 1114.37   40.18
  -1   4 -11 1126.63   41.56
   1  -4  11 1157.01   42.19
   1  -4  11 1197.48   46.54
   2  -4  11  134.95    7.14
   2  -4  11  119.51    7.08
  -2   4 -11  124.66    7.83
   2  -4  11  139.42    6.93
   2  -4  11  141.69    8.48
   3  -4  11  244.26   10.46
  -3   4 -11  229.12   12.54
   3  -4  11  243.43   10.39
   3  -4  11  247.76   10.99
   4  -4  11   18.96    2.60
   4  -4  11   18.68    4.31
   4  -4  11   18.54    2.66
   5  -4  11    2.16    1.78
   5  -4  11   -2.79    3.57
   5  -4  11    3.05    1.94
   7   3 -11   -5.57    3.24
   6   3 -11  177.23   11.67
   6   3 -11  161.95   10.91
   5   3 -11    4.77    3.71
   5   3 -11   -0.62    3.05
   4   3 -11   77.30    6.56
   4   3 -11   64.73    6.53
  -4  -3  11   77.11    6.70
   3   3 -11   17.93    3.60
   3   3 -11   22.31    4.14
  -3  -3  11   23.90    3.77
  -3  -3  11   21.11    3.84
  -3  -3  11   25.36    3.57
   2   3 -11  107.02    7.13
  -2  -3  11   98.76    6.83
  -2  -3  11  116.82    6.82
   2   3 -11   97.79    6.82
  -2  -3  11  106.89    7.13
  -1  -3  11    5.78    2.63
   1   3 -11    4.53    2.36
  -1  -3  11    6.21    2.55
  -1  -3  11    8.80    2.95
   1   3 -11    9.39    2.93
   0  -3  11    2.59    1.73
   0   3 -11    3.47    2.46
   0   3 -11    2.45    1.96
   0  -3  11    3.73    2.13
   0  -3  11   -0.70    1.94
   0  -3  11    4.72    2.59
   1  -3  11  430.45   17.21
   1  -3  11  381.21   16.25
  -1   3 -11  425.18   16.07
   1  -3  11  398.93   16.18
   2  -3  11    7.44    2.26
   2  -3  11    8.41    2.43
   2  -3  11    6.38    2.11
   3  -3  11   25.43    3.02
   3  -3  11   25.81    3.12
   3  -3  11   26.42    3.11
   4  -3  11  111.72    8.65
   4  -3  11  121.77    6.23
   4  -3  11  122.82    6.63
   5  -3  11   12.62    2.46
   5  -3  11   10.98    2.24
   5  -3  11   13.98    4.90
   7   2 -11  138.86   10.61
   6   2 -11    8.47    4.27
   6   2 -11    7.58    4.30
   5   2 -11    5.51    3.42
   5   2 -11    6.00    3.56
   4   2 -11   96.34    7.16
  -4  -2  11   93.85    7.25
   4   2 -11   97.17    7.81
   3   2 -11  209.97   11.46
  -3  -2  11  224.34   11.22
  -3  -2  11  216.43   11.18
   3   2 -11  222.52   11.12
  -3  -2  11  217.78   10.56
  -2  -2  11  520.36   20.74
  -2  -2  11  479.22   19.61
  -2  -2  11  482.47   20.04
   2   2 -11  501.06   19.88
   2   2 -11  493.28   20.14
   1   2 -11  536.11   20.34
  -1  -2  11  502.32   20.55
  -1  -2  11  522.49   21.37
  -1  -2  11  494.74   20.18
   1   2 -11  557.03   20.84
   0   2 -11    3.40    2.37
   0  -2  11    3.93    2.39
   0  -2  11   -0.56    1.89
   0  -2  11   -0.49    1.86
   0   2 -11    1.92    1.90
   1  -2  11   13.79    2.80
   1  -2  11   13.28    2.94
   1  -2  11   12.25    2.59
   2  -2  11  135.33    7.02
   2  -2  11  147.57    7.32
   2  -2  11  132.66    7.34
   3  -2  11   -2.74    1.61
   3  -2  11    2.88    1.99
   3  -2  11    0.77    1.72
   4  -2  11   -1.02    3.17
   4  -2  11    4.30    1.97
   4  -2  11    5.10    2.12
   5  -2  11   61.27    4.32
   5  -2  11   52.30    7.00
   5  -2  11   59.78    4.49
   7   1 -11    2.53    3.95
   6   1 -11  233.89   13.58
   6   1 -11  229.67   13.40
   5   1 -11    4.46    3.38
   5   1 -11   -0.54    2.65
  -4  -1  11  215.02   11.11
   4   1 -11  206.05   11.20
   4   1 -11  176.49   11.01
  -3  -1  11    6.79    2.93
   3   1 -11    8.38    3.43
  -3  -1  11    8.90    2.78
   3   1 -11    9.77    3.04
  -3  -1  11    6.86    2.61
  -2  -1  11    1.52    2.35
  -2  -1  11    3.05    2.19
  -2  -1  11   -0.01    1.99
   2   1 -11    5.59    2.53
   2   1 -11    8.92    2.95
   1   1 -11  409.66   17.45
  -1  -1  11  423.72   17.56
  -1  -1  11  412.91   17.07
   1   1 -11  449.14   17.32
  -1  -1  11  437.96   18.14
   0  -1  11  125.76    7.51
   0   1 -11  135.64    7.59
   0  -1  11  131.74    7.59
   0  -1  11  128.99    7.29
   0   1 -11  135.73    7.04
  -1   1 -11  649.31   23.04
   1  -1  11  614.21   23.33
   1  -1  11  609.84   24.31
   1  -1  11  607.51   23.19
   2  -1  11   49.31    4.28
   2  -1  11   54.64    4.47
   2  -1  11   56.59    4.43
   3  -1  11   49.32    4.19
   3  -1  11   52.74    4.41
   3  -1  11   57.86    4.35
   4  -1  11    1.95    2.01
   4  -1  11    0.81    3.50
   4  -1  11    4.21    2.15
   4  -1  11    3.33    2.08
   5  -1  11    0.48    1.88
   5  -1  11   -1.78    1.84
   7   0 -11   22.50    5.47
   6   0 -11   50.20    6.55
   6   0 -11   65.26    7.24
   5   0 -11    2.43    2.94
   5   0 -11    0.89    3.04
   4   0 -11  134.97    8.59
   4   0 -11  119.16    8.62
  -4   0  11  130.20    8.50
  -3   0  11  169.54    8.66
   3   0 -11  157.86    9.08
  -3   0  11  163.33    9.21
   3   0 -11  147.59    9.30
  -3   0  11  162.85    9.09
   2   0 -11   15.12    3.50
  -2   0  11   18.62    3.18
  -2   0  11   22.74    3.45
  -2   0  11   10.82    3.21
   2   0 -11   12.52    2.97
   1   0 -11  121.35    7.22
   1   0 -11  119.50    7.51
   1   0 -11  121.67    5.77
  -1   0  11  123.49    7.07
  -1   0  11  138.75    7.85
  -1   0  11  133.09    7.77
   0   0 -11    5.15    2.05
   0   0  11    1.03    1.99
   0   0 -11   -0.91    2.14
   0   0  11    1.72    2.40
   0   0  11    1.13    2.08
   0   0 -11    2.16    1.43
  -1   0 -11   27.71    3.38
  -1   0 -11   26.03    3.31
   1   0  11   17.38    2.92
   1   0  11   21.72    3.27
   1   0  11   27.20    3.70
   2   0  11  460.79   18.96
   2   0  11  499.23   20.03
  -2   0 -11  523.23   22.94
   2   0  11  474.35   19.03
   3   0  11  108.51    6.39
   3   0  11  114.03    6.73
   3   0  11  105.46    6.45
  -3   0 -11  105.83    8.19
   4   0  11   73.88    5.17
   4   0  11   58.77    5.07
   4   0  11   71.87    7.58
   4   0  11   71.87    5.22
   5   0  11   -0.51    2.11
   5   0  11   -1.52    1.92
   7  -1 -11   34.25    6.09
   6  -1 -11    1.61    3.41
   6  -1 -11   -1.34    3.38
   5  -1 -11   95.35    8.30
   5  -1 -11   95.54    8.07
  -4   1  11   -1.31    2.53
   4  -1 -11   -2.16    2.39
   4  -1 -11   -0.70    2.76
  -3   1  11   97.62    6.35
  -3   1  11   95.77    6.86
   3  -1 -11   92.82    7.24
  -3   1  11  100.68    7.06
   3  -1 -11   90.13    6.77
  -2   1  11   24.57    3.85
   2  -1 -11   21.94    3.46
  -2   1  11   20.31    3.29
   2  -1 -11   20.09    3.57
  -2   1  11   23.06    3.58
   2  -1 -11   22.16    4.00
   1  -1 -11    7.18    2.66
   1  -1 -11    6.84    2.41
   0  -1 -11    2.82    1.70
   0  -1 -11    1.83    2.37
   0   1  11    0.59    2.08
   0  -1 -11    8.45    2.63
   0   1  11    3.81    2.75
   0  -1 -11    6.65    2.28
   0   1  11   -0.58    1.95
   1   1  11    3.13    2.27
  -1  -1 -11    4.61    2.25
  -1  -1 -11    1.18    2.14
   1   1  11    5.35    2.72
   1   1  11    8.54    2.53
   2   1  11   -0.19    1.89
  -2  -1 -11   -1.76    2.03
   2   1  11    1.07    2.03
   2   1  11   -1.35    2.07
   3   1  11   98.52    6.23
  -3  -1 -11  106.56    8.25
   3   1  11   88.00    6.31
   3   1  11   97.50    6.53
   4   1  11   16.28    3.19
   4   1  11   16.41    3.21
   4   1  11   14.19    4.99
   4   1  11   22.38    3.50
   5   1  11   50.38    4.81
   7  -2 -11   13.12    4.80
   6  -2 -11  170.40   11.43
   6  -2 -11  169.28   11.50
   5  -2 -11   19.22    4.75
   5  -2 -11   30.13    5.21
   4  -2 -11    1.48    2.71
  -4   2  11   -1.76    2.21
   4  -2 -11    1.26    2.96
   3  -2 -11   45.37    5.24
  -3   2  11   50.83    4.90
  -3   2  11   54.93    5.41
   3  -2 -11   56.54    4.99
   3  -2 -11   49.73    5.71
  -2   2  11    7.76    2.95
   2  -2 -11    5.70    2.76
  -2   2  11    6.50    2.55
  -2   2  11    9.74    2.68
   2  -2 -11   13.70    3.21
   2  -2 -11    6.12    2.94
  -1   2  11  132.33    7.94
   1  -2 -11  139.31    8.16
  -1   2  11  132.58    8.09
  -1   2  11  111.37    7.13
   1  -2 -11  122.78    7.57
   1  -2 -11  118.74    8.19
   0   2  11  142.51    8.08
   0  -2 -11  158.60    8.55
   0   2  11  159.38    8.87
   0  -2 -11  138.54    8.40
   0   2  11  136.72    8.56
   0  -2 -11  140.29    9.47
  -1  -2 -11   19.16    3.32
   1   2  11    9.30    2.89
   1   2  11   11.15    3.29
   1   2  11    8.72    2.93
  -1  -2 -11   15.79    3.21
  -1  -2 -11   12.05    3.79
  -2  -2 -11    4.53    3.26
   2   2  11    6.82    2.66
  -2  -2 -11   11.20    3.32
   2   2  11    9.43    2.74
   2   2  11    6.89    2.90
   3   2  11   74.45    6.09
   3   2  11   90.11    6.66
   3   2  11   89.05    6.27
   4   2  11    0.02    2.34
   4   2  11    1.42    2.50
   4   2  11    7.43    3.12
   5   2  11    4.83    2.94
   7  -3 -11    4.90    4.10
   6  -3 -11    2.70    3.60
   6  -3 -11    0.89    3.54
   5  -3 -11  137.38    9.87
   5  -3 -11  137.37   10.05
  -4   3  11    5.99    3.13
   4  -3 -11    6.71    3.49
   4  -3 -11    4.54    3.16
  -3   3  11  206.61   11.41
   3  -3 -11  224.10   12.26
   3  -3 -11  195.73   11.16
  -3   3  11  214.28   10.63
   3  -3 -11  216.17   11.73
   2  -3 -11   20.74    3.84
   2  -3 -11   13.21    3.54
   2  -3 -11   14.76    3.82
  -2   3  11   13.98    3.27
  -2   3  11   13.22    3.57
  -2   3  11   16.93    3.24
  -1   3  11   40.55    4.87
  -1   3  11   36.09    4.31
  -1   3  11   38.89    4.71
   1  -3 -11   28.89    4.16
   1  -3 -11   35.52    4.94
   1  -3 -11   42.19    4.99
   0   3  11   42.37    4.96
   0   3  11   36.84    4.57
   0   3  11   49.18    4.84
   0  -3 -11   47.30    5.69
   0  -3 -11   43.19    4.87
   1   3  11    3.04    2.91
   1   3  11    2.96    2.29
   1   3  11    5.22    2.51
  -1  -3 -11    8.19    2.95
  -1  -3 -11    5.49    3.19
  -1  -3 -11    5.60    2.64
  -2  -3 -11  163.21   10.88
   2   3  11  161.05    9.05
   2   3  11  156.35    9.37
   2   3  11  165.95    9.46
  -2  -3 -11  159.42   11.35
   3   3  11    8.39    3.03
   3   3  11   11.54    3.52
   3   3  11    7.79    3.15
   4   3  11   19.69    3.92
   4   3  11   21.79    4.01
   4   3  11   21.88    4.33
   6  -4 -11   57.56    7.32
   6  -4 -11   50.57    7.06
   5  -4 -11   50.15    6.95
   5  -4 -11   79.08    7.87
   4  -4 -11   28.38    5.28
  -4   4  11   28.05    4.62
   4  -4 -11   30.98    5.21
  -3   4  11   96.17    7.88
  -3   4  11  111.03    7.31
   3  -4 -11  114.66    8.40
   3  -4 -11  126.98    8.35
   3  -4 -11  111.37    8.64
   2  -4 -11  300.44   15.49
  -2   4  11  286.55   13.77
  -2   4  11  313.11   14.68
  -2   4  11  296.33   14.48
   2  -4 -11  302.92   15.06
   2  -4 -11  293.92   14.50
   1  -4 -11    3.04    2.87
  -1   4  11    2.93    2.52
  -1   4  11   -0.67    2.12
   1  -4 -11    3.70    2.85
   1  -4 -11    1.38    2.45
  -1   4  11    1.66    2.70
   0  -4 -11    7.90    3.54
   0   4  11    8.76    2.97
   0  -4 -11    9.02    3.27
   0   4  11    6.60    2.88
   0   4  11    5.58    3.22
   1   4  11    2.71    2.46
  -1  -4 -11    5.71    3.50
   1   4  11    1.89    2.88
  -1  -4 -11   -0.58    2.65
   1   4  11    4.75    2.60
  -2  -4 -11    1.45    3.32
   2   4  11    4.28    2.65
   2   4  11   -0.39    2.47
   2   4  11    4.85    3.33
   3   4  11  266.42   13.81
   3   4  11  302.05   14.79
   3   4  11  303.80   14.49
   4   4  11   81.23    6.78
   4   4  11   79.21    7.04
   6  -5 -11   10.11    4.71
   5  -5 -11   33.96    6.22
   5  -5 -11   29.41    5.78
   4  -5 -11   38.94    6.17
   4  -5 -11   42.13    6.09
  -4   5  11   61.69    6.48
   3  -5 -11   25.07    4.74
   3  -5 -11   11.87    4.20
   3  -5 -11   19.96    4.23
  -3   5  11   13.31    4.30
  -2   5  11    7.64    3.61
  -2   5  11    3.37    2.77
   2  -5 -11    3.82    2.87
   2  -5 -11    0.45    2.63
   2  -5 -11    1.68    3.05
  -1   5  11   42.54    4.99
   1  -5 -11   41.08    5.78
  -1   5  11   37.21    5.37
   1  -5 -11   40.35    5.59
  -1   5  11   47.70    5.33
   0   5  11    5.41    3.73
   0  -5 -11   12.47    4.16
   0  -5 -11    9.56    3.57
   0   5  11   13.02    3.59
   0   5  11   12.81    3.56
   1   5  11    2.80    2.68
   1   5  11    2.69    2.98
  -1  -5 -11    4.67    3.69
  -1  -5 -11    2.59    3.31
   1   5  11    1.81    2.71
   2   5  11    9.93    3.60
   2   5  11    8.68    3.40
   2   5  11    4.56    3.62
  -2  -5 -11   12.22    4.83
   3   5  11   14.78    4.41
   3   5  11    5.60    3.22
   3   5  11    4.48    3.17
   4   5  11   29.27    5.15
   6  -6 -11   11.29    4.91
   5  -6 -11  109.44    9.95
   5  -6 -11  127.26   10.34
   4  -6 -11   13.15    4.67
   4  -6 -11   15.06    4.77
  -4   6  11   15.02    4.66
   3  -6 -11   27.49    5.58
   3  -6 -11   24.94    5.05
   3  -6 -11   32.51    5.38
  -3   6  11   30.07    5.33
  -2   6  11   40.74    5.89
   2  -6 -11   45.40    5.87
   2  -6 -11   47.44    6.12
   2  -6 -11   48.89    6.49
  -2   6  11   50.60    5.51
  -1   6  11   72.66    6.70
  -1   6  11   83.33    7.13
   1  -6 -11   70.53    7.60
   1  -6 -11   81.69    7.65
  -1   6  11   64.21    7.17
   0   6  11   91.31    7.99
   0  -6 -11   80.15    8.40
   0   6  11   76.70    7.05
   0  -6 -11   73.26    7.12
   0   6  11   85.29    7.21
   1   6  11   -5.63    2.51
  -1  -6 -11    3.58    3.98
   1   6  11   -2.33    2.37
   1   6  11   -0.33    3.47
   2   6  11   20.23    4.70
   2   6  11   16.26    4.77
   2   6  11   26.82    5.00
   3   6  11   18.65    5.08
   4   6  11   23.65    5.22
   5  -7 -11    3.21    4.05
   4  -7 -11   58.88    7.98
   4  -7 -11   62.74    7.75
   3  -7 -11   -0.37    3.59
  -3   7  11   -0.56    3.55
   3  -7 -11    2.70    3.92
   2  -7 -11   35.10    6.23
  -2   7  11   34.51    6.11
   2  -7 -11   44.92    6.59
  -1   7  11   10.33    4.12
   1  -7 -11    8.91    4.38
  -1   7  11    9.15    4.25
   1  -7 -11    9.59    4.48
   0   7  11    8.69    3.69
   0   7  11    7.84    3.71
   0  -7 -11    9.74    4.08
   0   7  11    3.23    4.03
   1   7  11   54.37    6.59
   1   7  11   64.55    7.24
   1   7  11   61.34    7.03
   2   7  11    4.82    3.58
   2   7  11    3.75    3.89
   3   7  11   56.27    7.23
   4  -8 -11   64.02    8.12
   4  -8 -11   71.24    8.79
   3  -8 -11   19.00    5.61
   3  -8 -11   26.19    5.80
  -3   8  11   13.12    4.82
   2  -8 -11    5.63    4.13
  -2   8  11   -0.90    4.01
  -1   8  11  156.60   11.34
   1  -8 -11  123.07   10.57
  -1   8  11  143.49   10.09
   0   8  11   46.89    6.30
   0  -8 -11   41.19    6.55
   0   8  11   52.17    7.07
   1   8  11    1.00    3.76
   1   8  11    3.02    4.07
   1   8  11    3.43    3.65
   2   8  11    0.42    4.20
   3  -9 -11   29.44    6.81
  -3   9  11   32.26    6.78
   2  -9 -11    5.03    4.26
  -2   9  11    8.31    5.00
   1  -9 -11   -3.93    3.63
  -1   9  11   -2.04    3.94
   0   9  11   10.34    4.37
   0   9  11    2.95    4.26
   1   9  11   -2.46    3.73
  -2  10  11    0.11    4.81
   2 -10 -11   -3.80    4.29
  -1  10  11   12.86    6.02
   1 -10 -11   24.33    6.46
   2  14 -12    7.13    5.49
  -1 -14  12    4.98    4.93
   0 -14  12   11.70    5.21
   0  14 -12    6.41    3.86
   1 -14  12    6.77    4.58
  -1  14 -12    8.33    4.17
  -3 -13  12   -9.40    3.93
   3  13 -12   -1.88    4.08
  -2 -13  12   16.31    5.81
   2  13 -12   14.99    5.52
  -1 -13  12   -2.61    3.33
  -1 -13  12    5.56    4.27
   0 -13  12    4.97    4.02
   0 -13  12    6.01    4.02
   0  13 -12    4.85    3.37
   0 -13  12    0.19    3.69
   1 -13  12    4.86    3.89
  -1  13 -12    4.99    3.80
   1 -13  12    7.01    4.46
  -2  13 -12    8.34    3.91
   2 -13  12   -2.05    3.24
   3 -13  12   -2.63    3.38
  -3 -12  12  211.25   14.60
   3  12 -12  221.87   14.69
  -2 -12  12   19.49    5.59
   2  12 -12   20.94    5.62
  -1 -12  12   41.62    6.46
   1  12 -12   36.45    5.16
   1  12 -12   39.77    6.29
  -1 -12  12   30.63    6.13
   0 -12  12   13.74    4.53
   0 -12  12   18.10    4.96
   0  12 -12   13.97    3.81
   0 -12  12   19.36    5.05
  -1  12 -12   -0.61    2.87
   1 -12  12    4.25    3.66
   1 -12  12   -2.53    2.55
   1 -12  12    0.75    3.42
  -2  12 -12    0.59    3.16
   2 -12  12    5.11    3.40
   2 -12  12    4.53    3.78
   3 -12  12   26.76    5.23
  -3  12 -12   29.31    5.98
   4  11 -12    2.12    4.42
  -4 -11  12    6.56    5.10
  -3 -11  12   17.46    5.63
   3  11 -12   15.63    5.33
  -2 -11  12  295.85   15.58
   2  11 -12  297.83   16.09
  -2 -11  12  280.51   16.11
   1  11 -12  103.23    8.79
  -1 -11  12  107.88    8.80
  -1 -11  12  122.29    9.90
  -1 -11  12  110.50    9.37
   1  11 -12  104.39    7.60
   0  11 -12   59.00    5.94
   0 -11  12   63.24    7.25
   0 -11  12   74.78    7.65
   0 -11  12   68.94    6.93
   1 -11  12   -0.04    2.95
   1 -11  12   -3.03    2.58
   1 -11  12    0.30    3.06
  -1  11 -12    1.49    2.69
   2 -11  12   -0.19    3.25
  -2  11 -12    1.95    2.98
   2 -11  12    4.82    3.46
   2 -11  12    6.23    3.33
   3 -11  12    2.89    3.00
  -3  11 -12    3.56    3.50
   3 -11  12    0.51    3.23
  -4  11 -12   71.96    8.81
  -4 -10  12   13.87    5.19
   4  10 -12   21.86    6.02
   4  10 -12   18.54    5.43
   3  10 -12  139.36   10.58
  -3 -10  12  131.07   10.58
  -2 -10  12   61.03    7.38
  -2 -10  12   66.45    6.96
   2  10 -12   57.81    7.19
  -1 -10  12  256.09   14.28
   1  10 -12  262.16   12.34
   1  10 -12  247.27   13.71
  -1 -10  12  232.05   13.63
  -1 -10  12  244.59   13.31
   0  10 -12   10.65    3.11
   0  10 -12   14.72    4.05
   0 -10  12    8.83    3.66
   0 -10  12   11.95    3.60
   0 -10  12    2.75    3.20
   1 -10  12  147.50    9.41
   1 -10  12  131.70    9.45
   1 -10  12  157.57   10.26
  -1  10 -12  139.99    9.22
   2 -10  12   44.31    5.26
   2 -10  12   49.96    5.90
   2 -10  12   33.49    5.10
  -2  10 -12   46.17    5.89
   3 -10  12   30.06    4.75
   3 -10  12   22.93    4.20
   3 -10  12   22.89    4.54
  -3  10 -12   22.94    5.06
  -4  10 -12   21.67    5.69
   4 -10  12   21.05    4.04
   5   9 -12  109.02   10.42
   5   9 -12  101.90    9.74
   4   9 -12   59.30    7.89
  -4  -9  12   62.23    7.75
   4   9 -12   64.19    7.52
  -3  -9  12   66.71    7.51
   3   9 -12   78.45    8.11
   3   9 -12   72.29    7.34
  -2  -9  12   -1.76    2.49
  -2  -9  12    1.66    2.94
   2   9 -12   -1.94    3.26
  -2  -9  12   -0.38    3.37
   1   9 -12   33.94    5.11
  -1  -9  12   41.04    5.76
   1   9 -12   43.93    4.28
  -1  -9  12   38.74    5.58
  -1  -9  12   36.72    5.02
   0  -9  12    5.53    3.10
   0  -9  12    1.41    2.54
   0   9 -12    3.37    2.18
   0   9 -12    2.99    2.87
   0  -9  12    5.73    3.25
   1  -9  12  178.86   10.27
  -1   9 -12  188.91   10.46
   1  -9  12  176.53   10.59
   1  -9  12  198.63   11.36
   2  -9  12   34.01    4.77
  -2   9 -12   31.29    4.82
   2  -9  12   33.67    4.69
   2  -9  12   30.36    4.29
   3  -9  12    3.70    3.00
   3  -9  12    5.86    2.77
  -3   9 -12    8.04    3.81
   3  -9  12    2.80    2.89
   4  -9  12   59.93    5.73
   4  -9  12   55.97    5.28
  -4   9 -12   60.18    7.40
   5  -9  12   17.00    3.50
  -5   9 -12   19.32    5.71
   5   8 -12    3.90    4.52
   5   8 -12    1.96    3.95
   4   8 -12  101.79    9.27
  -4  -8  12  106.34    9.19
  -3  -8  12   15.55    4.06
   3   8 -12    6.58    4.11
   3   8 -12   14.01    4.08
  -3  -8  12   18.32    4.90
   2   8 -12  403.42   18.86
  -2  -8  12  415.02   19.21
   2   8 -12  410.24   18.36
  -2  -8  12  417.63   18.69
  -2  -8  12  430.20   19.64
  -1  -8  12   15.74    3.94
  -1  -8  12   13.07    3.35
  -1  -8  12   14.38    3.73
   1   8 -12   17.92    4.05
   1   8 -12   10.76    2.42
   0   8 -12   84.56    6.67
   0  -8  12   70.60    6.67
   0  -8  12   81.68    6.38
   0  -8  12   89.32    7.00
   0   8 -12   79.47    5.84
   1  -8  12    3.13    2.75
  -1   8 -12    1.71    2.32
   1  -8  12    2.13    2.46
   1  -8  12    0.65    2.57
   2  -8  12   85.82    6.22
   2  -8  12   76.94    6.40
  -2   8 -12   68.37    6.55
   2  -8  12   89.91    6.80
   3  -8  12   -0.34    2.42
   3  -8  12    6.63    2.68
   3  -8  12    1.81    2.68
  -3   8 -12    4.29    3.20
   4  -8  12   39.69    4.58
   4  -8  12   40.91    4.29
  -4   8 -12   25.99    5.57
  -5   8 -12    6.61    4.30
   5  -8  12    5.67    2.70
   6   7 -12    8.84    5.01
   5   7 -12    8.68    4.41
   5   7 -12    2.69    4.07
   4   7 -12   26.12    5.68
   4   7 -12   32.17    5.50
  -4  -7  12   35.84    5.95
  -3  -7  12    5.70    3.18
   3   7 -12    6.61    3.84
   3   7 -12    5.40    3.17
  -3  -7  12    4.10    3.35
  -2  -7  12   21.69    4.43
  -2  -7  12   17.44    3.86
   2   7 -12   16.67    3.74
   2   7 -12   23.45    4.39
  -2  -7  12   24.18    4.34
   1   7 -12  188.42   10.72
   1   7 -12  187.51    8.87
  -1  -7  12  188.17   10.73
   1   7 -12  210.57   10.23
  -1  -7  12  189.31   11.04
  -1  -7  12  179.95   10.10
   0   7 -12  187.69    9.52
   0  -7  12  187.80   10.51
   0  -7  12  212.29   10.60
   0   7 -12  188.63   10.27
   0  -7  12  204.08   11.02
   1  -7  12    5.64    2.54
   1  -7  12    2.11    2.48
  -1   7 -12    6.70    2.73
   1  -7  12    9.10    3.21
   2  -7  12   63.11    5.46
  -2   7 -12   50.01    5.57
   2  -7  12   63.83    5.15
   2  -7  12   58.70    5.24
   3  -7  12   12.43    3.15
   3  -7  12   18.10    3.33
   3  -7  12   15.99    2.97
  -3   7 -12   13.51    3.84
   4  -7  12  147.95    8.25
  -4   7 -12  123.70    9.99
   4  -7  12  136.92    7.55
  -5   7 -12   44.72    7.14
   5  -7  12   34.71    3.70
   6   6 -12    2.93    3.98
   5   6 -12   21.68    5.37
   5   6 -12   22.44    5.29
   4   6 -12   40.39    5.73
  -4  -6  12   31.80    5.63
   4   6 -12   29.30    5.53
   3   6 -12   11.92    4.10
   3   6 -12   14.62    3.69
  -3  -6  12   13.55    4.09
  -3  -6  12   16.42    3.79
  -2  -6  12   99.96    7.35
  -2  -6  12   93.74    6.89
   2   6 -12   90.27    6.78
  -2  -6  12   98.23    7.43
   2   6 -12   85.97    7.17
  -1  -6  12    1.25    2.35
  -1  -6  12    3.95    2.83
   1   6 -12   -1.32    1.94
  -1  -6  12   -0.56    1.97
   1   6 -12    0.75    2.53
   1   6 -12    0.49    1.46
   0  -6  12  281.75   13.50
   0   6 -12  255.24   11.82
   0  -6  12  260.27   12.82
   0  -6  12  268.76   12.50
   0   6 -12  284.17   12.80
  -1   6 -12   37.73    4.11
   1  -6  12   33.86    4.24
   1  -6  12   31.38    4.15
   1  -6  12   30.11    3.75
   2  -6  12  161.37    8.87
   2  -6  12  152.75    8.14
   2  -6  12  142.78    8.28
  -2   6 -12  153.00    9.18
   3  -6  12   92.79    6.37
  -3   6 -12  107.18    8.07
   3  -6  12   97.55    5.99
   3  -6  12   93.72    6.26
  -4   6 -12   30.65    5.61
   4  -6  12   29.27    3.67
   4  -6  12   40.90    3.83
   5  -6  12   59.55    4.85
   5  -6  12   60.90    4.58
   6   5 -12   -0.82    3.31
   6   5 -12    0.69    3.90
   5   5 -12   17.90    4.89
   5   5 -12    9.05    3.85
  -4  -5  12  329.98   16.29
   4   5 -12  344.56   16.21
   4   5 -12  327.01   16.42
  -3  -5  12  176.46   10.67
   3   5 -12  181.09   10.33
  -3  -5  12  201.93   10.53
   3   5 -12  186.50   10.90
   2   5 -12   18.77    3.59
   2   5 -12   21.33    3.98
  -2  -5  12   18.41    3.64
  -2  -5  12   20.75    3.99
  -2  -5  12   16.75    3.87
   1   5 -12   82.40    4.54
   1   5 -12   67.77    5.91
  -1  -5  12   79.02    6.29
  -1  -5  12   88.19    6.50
  -1  -5  12   73.83    5.75
   1   5 -12   90.03    6.17
   0  -5  12   46.94    4.94
   0  -5  12   50.67    4.94
   0   5 -12   59.81    4.27
   0  -5  12   45.95    4.55
   0   5 -12   60.95    5.10
   1  -5  12    6.80    2.52
   1  -5  12    6.70    2.57
  -1   5 -12    6.68    2.39
   1  -5  12    2.77    2.49
   2  -5  12  346.91   15.35
  -2   5 -12  352.42   16.05
   2  -5  12  333.18   14.50
   2  -5  12  370.03   14.81
  -3   5 -12   84.56    7.24
   3  -5  12   85.06    5.52
   3  -5  12   90.47    5.74
   3  -5  12   86.68    5.87
   4  -5  12   25.25    3.32
   4  -5  12   20.12    2.97
   5  -5  12   15.33    2.66
   5  -5  12   16.25    2.87
   6   4 -12    7.98    4.22
   6   4 -12   -2.91    3.27
   5   4 -12   -0.31    3.15
   5   4 -12    2.83    3.72
   4   4 -12   19.47    4.45
   4   4 -12   22.22    4.36
  -4  -4  12   16.36    4.24
  -3  -4  12  526.03   22.07
  -3  -4  12  564.32   23.17
  -3  -4  12  538.42   22.58
   3   4 -12  539.76   22.73
   3   4 -12  540.97   22.38
  -2  -4  12   12.68    3.08
  -2  -4  12   17.22    3.63
   2   4 -12   12.50    3.27
  -2  -4  12    7.01    3.24
   2   4 -12   11.44    3.46
   1   4 -12  735.59   26.90
  -1  -4  12  718.30   27.28
   1   4 -12  714.05   27.25
  -1  -4  12  694.37   27.38
  -1  -4  12  708.40   28.45
   0  -4  12   73.68    6.07
   0  -4  12   89.06    5.99
   0   4 -12   92.70    6.31
   0   4 -12   86.49    5.05
   0  -4  12   80.17    6.12
   1  -4  12   20.49    3.38
  -1   4 -12   22.95    3.17
   1  -4  12   14.72    2.97
   1  -4  12   23.84    3.61
  -1   4 -12   24.51    3.26
   2  -4  12   11.64    2.79
   2  -4  12    7.68    2.41
  -2   4 -12   12.44    3.15
   2  -4  12   11.53    2.67
   3  -4  12   81.28    5.61
   3  -4  12   84.24    5.58
   3  -4  12   81.43    5.34
   4  -4  12   58.38    4.63
   4  -4  12   57.16    4.39
   5  -4  12   89.15    5.42
   5  -4  12   92.23    5.73
   7   3 -12    5.36    4.66
   6   3 -12   -1.64    3.27
   6   3 -12   -0.74    3.52
   5   3 -12   19.78    5.03
   5   3 -12   15.28    4.33
  -4  -3  12  138.12    9.21
   4   3 -12  130.87    9.36
   4   3 -12  129.64    9.01
  -3  -3  12   14.37    3.63
  -3  -3  12    8.48    2.90
   3   3 -12    5.94    3.52
  -3  -3  12    6.05    2.92
   3   3 -12   12.26    3.37
   2   3 -12  233.47   12.18
  -2  -3  12  227.20   12.02
  -2  -3  12  247.18   11.81
  -2  -3  12  255.92   12.45
   2   3 -12  259.20   12.04
  -1  -3  12  492.22   19.97
  -1  -3  12  527.83   21.32
   1   3 -12  492.18   19.89
  -1  -3  12  525.78   20.65
   1   3 -12  482.02   20.15
   0  -3  12 1500.13   52.16
   0  -3  12 1526.84   54.78
   0   3 -12 1516.61   51.89
   0  -3  12 1426.95   52.20
   1  -3  12    7.39    2.56
   1  -3  12    0.30    1.91
   1  -3  12    6.87    2.30
  -1   3 -12    5.68    2.13
   2  -3  12    6.82    2.53
   2  -3  12    5.62    2.30
   2  -3  12    6.26    2.27
   3  -3  12    4.92    2.27
   3  -3  12   10.93    2.50
   3  -3  12    7.13    2.40
   4  -3  12    3.86    2.23
   4  -3  12    0.07    2.07
   5  -3  12  196.66    9.04
   5  -3  12  203.11    9.63
   7   2 -12    9.16    4.87
   6   2 -12    2.32    3.78
   6   2 -12    4.89    4.15
  -5  -2  12    0.50    3.30
   5   2 -12    0.55    3.22
   5   2 -12   -0.71    3.36
   4   2 -12   45.67    5.44
   4   2 -12   41.88    5.78
  -4  -2  12   37.54    5.03
  -3  -2  12   60.79    5.23
  -3  -2  12   56.42    5.29
   3   2 -12   36.86    4.75
  -3  -2  12   49.55    5.45
   3   2 -12   48.26    5.58
  -2  -2  12    2.19    2.14
   2   2 -12    5.69    2.55
   2   2 -12    4.53    2.78
  -2  -2  12   -0.02    2.51
  -2  -2  12    2.67    2.34
   1   2 -12  499.06   19.24
   1   2 -12  470.84   19.45
  -1  -2  12  483.27   20.22
  -1  -2  12  468.28   19.45
  -1  -2  12  463.36   19.09
   0  -2  12   55.72    4.73
   0  -2  12   57.62    5.13
   0  -2  12   64.74    5.33
   0   2 -12   58.60    5.11
   1  -2  12  210.42   10.52
   1  -2  12  200.65    9.98
   1  -2  12  202.15    9.84
  -1   2 -12  221.53    9.87
   2  -2  12  101.88    6.03
   2  -2  12   91.91    6.15
   2  -2  12   89.40    6.18
   3  -2  12   19.21    3.10
   3  -2  12   24.17    3.13
   3  -2  12   27.91    3.44
   4  -2  12   55.13    4.50
   4  -2  12   61.70    4.94
   5  -2  12   19.37    3.00
   5  -2  12    9.19    2.59
   7   1 -12    3.09    4.08
   6   1 -12   -0.11    3.40
   6   1 -12    4.10    3.64
   5   1 -12    2.39    3.31
   5   1 -12    2.35    3.52
   4   1 -12  158.18   10.23
   4   1 -12  167.73   10.02
  -4  -1  12  167.18    9.89
  -3  -1  12  968.69   36.36
  -3  -1  12 1003.92   37.63
   3   1 -12  954.09   36.66
  -3  -1  12  999.00   36.03
   3   1 -12  935.65   36.38
  -2  -1  12    4.89    2.85
  -2  -1  12    1.62    2.35
   2   1 -12    1.52    2.51
   2   1 -12    6.69    2.61
  -2  -1  12    2.33    2.31
  -1  -1  12   28.14    3.67
   1   1 -12   38.49    4.11
  -1  -1  12   28.90    3.98
  -1  -1  12   29.56    4.35
   1   1 -12   28.77    4.06
   0  -1  12  404.95   16.68
   0  -1  12  416.41   17.59
   0  -1  12  394.94   16.86
   0   1 -12  402.10   16.77
  -1   1 -12    2.40    2.15
   1  -1  12    4.65    2.45
   1  -1  12    0.38    1.96
   1  -1  12    3.54    2.17
   2  -1  12    4.38    2.22
   2  -1  12    3.30    2.14
   2  -1  12    1.73    2.27
   3  -1  12  110.36    7.03
   3  -1  12  129.23    7.03
   3  -1  12  113.68    6.76
   4  -1  12    3.28    2.39
   4  -1  12    1.21    2.26
   5  -1  12    1.64    2.31
   7   0 -12   13.93    5.16
   6   0 -12   14.43    4.51
   6   0 -12   10.19    4.64
   5   0 -12    3.42    3.45
   5   0 -12    0.74    3.43
   4   0 -12    2.30    2.74
   4   0 -12   -2.88    3.02
  -4   0  12   -1.94    2.67
  -3   0  12    3.88    2.91
  -3   0  12    4.04    2.66
   3   0 -12    4.16    3.12
  -3   0  12    2.90    2.38
   3   0 -12   -0.43    2.47
  -2   0  12  620.64   24.36
   2   0 -12  587.87   23.97
   2   0 -12  643.19   24.75
  -2   0  12  560.25   23.54
  -2   0  12  651.83   25.25
  -1   0  12    9.53    3.24
   1   0 -12    8.40    3.00
   1   0 -12   10.96    2.88
  -1   0  12    2.02    2.23
  -1   0  12    4.49    2.50
   0   0  12 1318.12   47.65
   0   0  12 1333.71   47.88
   0   0 -12 1402.62   54.49
   0   0 -12 1339.74   47.53
   0   0  12 1355.05   49.97
   1   0  12  132.09    7.80
   1   0  12  116.53    7.22
  -1   0 -12  132.31    7.73
   1   0  12  125.65    7.74
  -1   0 -12  130.92    7.52
   2   0  12    9.92    2.96
  -2   0 -12   13.24    3.15
   2   0  12    7.21    2.59
   2   0  12   12.58    2.93
   3   0  12   48.55    4.62
  -3   0 -12   66.78    6.57
   3   0  12   48.72    4.58
   3   0  12   53.71    4.92
   4   0  12    6.83    2.62
   4   0  12    7.77    2.80
   4   0  12    4.03    2.55
   5   0  12   77.95    5.75
   7  -1 -12    0.22    3.91
   6  -1 -12   19.90    4.98
   6  -1 -12   11.27    4.59
   5  -1 -12   34.29    5.50
   5  -1 -12   49.72    6.35
  -4   1  12   47.48    5.53
   4  -1 -12   31.90    5.38
   4  -1 -12   43.85    5.49
   3  -1 -12  277.03   14.19
   3  -1 -12  274.04   13.74
  -3   1  12  293.50   13.02
  -3   1  12  263.80   13.37
  -2   1  12  134.47    8.40
  -2   1  12  107.84    8.18
   2  -1 -12  143.55    8.48
   2  -1 -12  122.68    7.90
  -2   1  12  117.88    7.51
   2  -1 -12  143.40    8.88
  -1   1  12   50.38    4.83
  -1   1  12   50.41    4.98
   1  -1 -12   49.57    5.42
  -1   1  12   41.61    4.86
   1  -1 -12   53.09    5.34
   1  -1 -12   55.56    5.02
   0  -1 -12  264.79   12.75
   0  -1 -12  288.20   13.21
   0   1  12  274.87   13.32
   0   1  12  276.45   12.70
   0   1  12  291.91   13.37
   0  -1 -12  261.11   14.51
   1   1  12  615.39   25.03
   1   1  12  582.59   23.78
   1   1  12  650.54   24.28
  -1  -1 -12  616.94   27.17
   2   1  12    5.12    2.39
   2   1  12    4.22    2.60
   2   1  12    6.19    2.47
  -2  -1 -12    2.04    2.35
   3   1  12   13.67    3.41
   3   1  12   12.21    3.14
   3   1  12   12.82    3.18
   4   1  12    8.28    2.94
   4   1  12    3.81    2.96
   4   1  12    7.07    2.78
   5   1  12    1.51    2.71
   6  -2 -12   -3.03    3.31
   6  -2 -12   -0.60    3.38
   5  -2 -12   41.20    6.30
   5  -2 -12   41.87    6.12
   4  -2 -12   19.39    4.40
   4  -2 -12   17.29    4.33
  -4   2  12   21.94    4.42
   3  -2 -12  277.80   14.07
  -3   2  12  250.40   12.55
  -3   2  12  261.07   13.31
   3  -2 -12  290.20   13.92
   2  -2 -12   37.24    4.75
   2  -2 -12   30.57    4.75
  -2   2  12   29.35    4.22
  -2   2  12   29.08    4.68
   2  -2 -12   35.60    4.54
  -2   2  12   29.92    4.12
   1  -2 -12  173.13    9.28
  -1   2  12  141.65    8.68
   1  -2 -12  164.13    9.53
  -1   2  12  151.34    9.32
   1  -2 -12  177.13   10.45
  -1   2  12  166.31    9.67
   0  -2 -12  134.20    8.29
   0  -2 -12  138.07    9.72
   0   2  12  140.83    8.81
   0   2  12  146.15    8.28
   0   2  12  138.94    8.71
   0  -2 -12  139.70    8.23
   1   2  12   -2.30    1.91
   1   2  12   -1.61    2.58
  -1  -2 -12    3.85    2.52
   1   2  12    1.95    2.25
  -1  -2 -12   -2.49    2.60
   2   2  12   17.28    3.68
   2   2  12   17.64    3.47
  -2  -2 -12   14.95    3.76
   2   2  12   13.31    3.17
   3   2  12   19.09    3.77
   3   2  12   17.76    3.64
   3   2  12   19.10    3.78
   4   2  12   -3.28    2.56
   4   2  12    2.42    2.81
   6  -3 -12   -4.97    3.06
   6  -3 -12    0.84    3.65
   5  -3 -12   22.67    5.47
   5  -3 -12   16.79    4.76
   4  -3 -12    2.86    3.11
   4  -3 -12    3.11    3.50
  -4   3  12    2.66    3.09
  -3   3  12   53.90    5.91
   3  -3 -12   57.95    6.12
  -3   3  12   58.60    5.60
   3  -3 -12   49.65    6.29
  -2   3  12  596.33   23.80
   2  -3 -12  529.10   24.10
  -2   3  12  607.97   24.28
  -2   3  12  601.60   24.90
   2  -3 -12  624.19   26.45
   2  -3 -12  573.46   24.16
  -1   3  12    1.54    2.78
   1  -3 -12    2.44    2.74
  -1   3  12    2.68    2.56
   1  -3 -12    3.54    3.08
   1  -3 -12   -0.15    2.52
  -1   3  12   -2.75    1.91
   0   3  12   41.25    4.80
   0  -3 -12   41.91    5.64
   0  -3 -12   42.07    4.82
   0   3  12   32.54    4.62
   0   3  12   38.43    4.99
   1   3  12  117.90    8.09
  -1  -3 -12   96.78    8.78
   1   3  12   99.07    7.24
   1   3  12  108.26    7.64
  -1  -3 -12  117.49    8.15
   2   3  12   20.76    3.73
   2   3  12   24.46    4.18
  -2  -3 -12   27.92    5.72
  -2  -3 -12   35.73    5.34
   2   3  12   25.96    4.54
   3   3  12   -1.86    2.49
   3   3  12   -0.28    2.56
   3   3  12   -2.67    2.81
   4   3  12   72.61    6.55
   4   3  12   78.72    6.66
   6  -4 -12   22.41    5.82
   5  -4 -12    7.34    4.30
   5  -4 -12   10.39    4.34
   4  -4 -12   24.74    5.24
   4  -4 -12   31.91    5.63
  -4   4  12   18.63    4.45
   3  -4 -12   25.80    4.83
  -3   4  12   30.10    5.07
   3  -4 -12   23.35    5.08
   2  -4 -12   10.42    3.59
   2  -4 -12   13.58    3.78
   2  -4 -12   13.75    4.24
  -2   4  12   18.32    4.36
  -2   4  12   12.19    3.53
  -2   4  12   12.93    3.58
  -1   4  12   97.44    7.37
   1  -4 -12   77.84    7.56
   1  -4 -12   77.48    7.05
  -1   4  12   80.39    7.09
  -1   4  12   88.63    6.69
   0   4  12   99.78    7.39
   0   4  12  114.57    7.96
   0  -4 -12  108.16    9.11
   0   4  12  107.55    8.19
   0  -4 -12  114.54    8.18
   1   4  12  167.93   10.12
  -1  -4 -12  151.53   11.45
   1   4  12  159.31    9.85
   1   4  12  146.23    9.24
   2   4  12    1.16    2.60
   2   4  12   -0.08    2.63
   2   4  12    0.72    3.12
  -2  -4 -12   -0.40    3.47
   3   4  12    0.78    2.91
   3   4  12    3.36    3.04
   3   4  12    0.26    3.32
   4   4  12   14.30    4.21
   6  -5 -12   13.15    5.34
   5  -5 -12   38.50    6.59
   5  -5 -12   32.27    6.40
  -4   5  12   27.70    5.29
   4  -5 -12   42.02    6.67
   4  -5 -12   35.39    6.12
  -3   5  12   24.02    4.85
   3  -5 -12   14.52    4.35
   3  -5 -12   18.48    4.94
   2  -5 -12  103.54    8.66
   2  -5 -12  103.79    8.32
   2  -5 -12   91.14    8.29
  -2   5  12  116.37    8.87
  -2   5  12   99.68    7.53
  -1   5  12    0.85    2.58
   1  -5 -12   -1.16    3.02
  -1   5  12   -0.67    2.46
  -1   5  12   -1.25    3.05
   1  -5 -12   -2.38    2.71
   0  -5 -12    6.68    4.01
   0  -5 -12    7.78    3.62
   0   5  12    6.34    3.19
   0   5  12    8.08    3.61
   0   5  12    6.72    3.27
   1   5  12  285.29   14.42
   1   5  12  243.54   13.11
  -1  -5 -12  241.12   15.93
   1   5  12  257.27   13.97
   2   5  12   28.54    4.89
   2   5  12   36.96    5.65
   2   5  12   31.68    5.23
   3   5  12    3.09    3.77
   3   5  12    6.44    3.49
   4   5  12    6.40    3.95
   5  -6 -12    5.75    4.42
   5  -6 -12    6.21    4.41
   4  -6 -12    1.11    3.89
   4  -6 -12    3.79    3.92
  -4   6  12   -0.91    3.51
  -3   6  12    2.23    3.57
   3  -6 -12    1.23    3.63
   3  -6 -12    6.11    3.79
  -2   6  12   14.77    4.17
   2  -6 -12    5.54    4.11
   2  -6 -12   15.85    4.79
  -2   6  12   21.65    5.26
  -1   6  12   42.90    5.72
   1  -6 -12   13.90    4.92
  -1   6  12   37.20    5.87
   1  -6 -12   28.76    5.48
   0   6  12    1.78    3.04
   0  -6 -12    0.12    3.36
   0  -6 -12    4.67    4.03
   0   6  12    0.49    2.76
   0   6  12    4.46    3.61
   1   6  12   44.21    6.46
   1   6  12   31.25    5.18
   1   6  12   29.87    5.29
   2   6  12   17.43    4.62
   2   6  12   18.59    4.98
   3   6  12    9.38    4.34
   5  -7 -12    4.34    4.87
   4  -7 -12    9.23    4.55
   4  -7 -12   12.18    5.24
   3  -7 -12    5.56    3.81
  -3   7  12   -2.93    3.72
   3  -7 -12   -5.42    3.43
  -2   7  12   27.79    5.83
   2  -7 -12   20.85    5.44
   2  -7 -12   23.90    5.69
  -1   7  12  111.10    8.69
   1  -7 -12  104.80    9.47
  -1   7  12  106.23    9.37
   0   7  12    8.48    4.79
   0   7  12    8.32    4.06
   0   7  12    8.98    3.93
   1   7  12    8.37    4.15
   1   7  12    9.35    4.39
   1   7  12    6.20    3.75
   2   7  12   49.41    7.19
   4  -8 -12   -1.31    3.99
   3  -8 -12    6.08    4.86
  -3   8  12    3.84    4.44
   2  -8 -12    8.40    4.75
  -2   8  12    2.12    4.22
  -1   8  12   46.79    7.40
  -1   8  12   47.08    6.72
   1  -8 -12   43.00    7.04
   0   8  12   50.89    7.56
   0   8  12   34.64    6.00
   1   8  12   43.12    7.18
   3  -9 -12    3.75    4.79
  -3   9  12   -2.05    4.56
   2  -9 -12   -0.73    4.37
  -2   9  12    3.03    4.57
  -1   9  12   79.91    8.96
   1  -9 -12   60.33    8.45
   0   9  12    3.72    4.82
  -1  14 -13  108.93    9.59
  -2 -13  13   -2.05    4.45
   2  13 -13    2.86    4.42
  -1 -13  13   -2.55    3.66
  -1 -13  13    5.21    4.36
   0 -13  13   72.18    8.49
   0 -13  13   66.93    8.02
  -1  13 -13    6.54    3.60
   1 -13  13    9.43    4.60
  -2  13 -13   46.73    6.79
   2 -13  13   41.98    6.55
   3 -13  13   10.67    4.46
  -3 -12  13   15.07    5.66
   3  12 -13   22.25    6.39
   2  12 -13   50.63    7.45
  -2 -12  13   45.72    7.35
   1  12 -13   37.58    6.34
  -1 -12  13   34.59    6.45
  -1 -12  13   43.84    6.37
   0 -12  13    0.52    3.78
   0 -12  13    0.41    3.69
   0  12 -13    2.10    2.93
   0 -12  13    0.71    3.47
  -1  12 -13   38.43    5.65
   1 -12  13   29.09    5.40
   1 -12  13   40.49    6.47
   1 -12  13   31.05    5.85
   2 -12  13   15.07    4.73
   2 -12  13   20.08    4.62
  -2  12 -13   15.89    4.95
  -3  12 -13   33.63    6.40
   3 -12  13   25.86    5.10
   4  11 -13   29.78    6.76
  -4 -11  13   29.60    6.77
  -3 -11  13   13.21    5.43
   3  11 -13   17.72    5.57
   2  11 -13    5.64    4.18
  -2 -11  13    6.29    3.81
  -2 -11  13    7.42    4.59
  -1 -11  13   24.61    5.85
  -1 -11  13   30.54    5.91
  -1 -11  13   22.41    5.09
   1  11 -13   21.94    5.21
   0 -11  13   -0.34    3.33
   0  11 -13    0.55    2.54
   0 -11  13   -2.66    3.28
   0 -11  13   -0.75    2.86
   1 -11  13  146.12   10.46
   1 -11  13  118.14    9.55
   1 -11  13  134.87    9.49
  -1  11 -13  130.52    9.18
  -2  11 -13    9.20    3.93
   2 -11  13    7.09    3.73
   2 -11  13    3.21    3.23
   2 -11  13    3.27    3.59
  -3  11 -13   29.13    5.86
   3 -11  13   25.42    4.77
   3 -11  13   15.64    4.19
   4  10 -13   48.63    7.52
  -4 -10  13   48.61    7.63
  -3 -10  13  148.90   11.57
   3  10 -13  161.84   11.90
  -2 -10  13   23.15    4.98
  -2 -10  13   24.42    5.47
   2  10 -13   22.92    5.55
   1  10 -13    6.01    4.12
  -1 -10  13    9.41    4.28
  -1 -10  13   15.91    4.32
  -1 -10  13   10.79    4.00
   0 -10  13   55.11    6.72
   0  10 -13   71.81    6.03
   0 -10  13   49.85    6.02
   0 -10  13   64.33    7.24
   1 -10  13   -3.10    2.72
   1 -10  13    3.11    3.13
  -1  10 -13   -0.13    2.56
   1 -10  13    0.06    2.79
   2 -10  13  126.23    9.11
   2 -10  13  155.65   10.28
  -2  10 -13  144.53   10.00
   2 -10  13  162.39    9.99
   3 -10  13    3.87    3.22
  -3  10 -13    5.38    3.63
   3 -10  13    4.42    3.33
   3 -10  13    4.29    3.07
  -4  10 -13   15.37    5.19
   5   9 -13    0.23    4.08
   4   9 -13   20.70    6.11
   4   9 -13   23.55    5.37
  -4  -9  13   28.58    6.09
  -3  -9  13   11.35    4.68
   3   9 -13    7.51    4.57
  -2  -9  13   29.86    5.07
   2   9 -13   24.27    5.16
  -2  -9  13   33.88    5.96
  -1  -9  13   79.03    7.65
   1   9 -13   73.89    7.25
  -1  -9  13   84.99    7.38
  -1  -9  13   65.84    7.04
   0  -9  13    7.73    3.29
   0   9 -13    9.12    2.83
   0  -9  13    7.57    3.80
   0  -9  13    3.29    3.12
  -1   9 -13  303.50   14.56
   1  -9  13  275.11   14.47
   1  -9  13  275.48   13.93
   1  -9  13  306.41   15.36
   2  -9  13   26.28    4.57
   2  -9  13   19.94    4.30
  -2   9 -13   18.02    4.23
   2  -9  13   16.90    3.72
   3  -9  13  198.04   11.00
   3  -9  13  176.35   10.15
   3  -9  13  173.20   10.04
  -3   9 -13  176.34   11.71
  -4   9 -13    6.47    4.45
   4  -9  13    1.40    2.62
   5   8 -13    4.01    4.40
   5   8 -13    2.22    3.92
   4   8 -13    7.68    4.13
  -4  -8  13    5.05    4.09
   4   8 -13    0.79    3.94
  -3  -8  13  113.39    8.52
  -3  -8  13  103.60    8.91
   3   8 -13  107.38    8.68
   3   8 -13  112.93    9.31
  -2  -8  13   47.43    5.60
  -2  -8  13   44.81    5.99
   2   8 -13   33.10    5.62
  -2  -8  13   51.68    6.32
  -1  -8  13   75.42    6.99
  -1  -8  13   67.95    6.71
  -1  -8  13   73.40    6.45
   1   8 -13   57.70    6.31
   0   8 -13  166.46    9.64
   0  -8  13  140.49    9.29
   0   8 -13  147.67    8.42
   0  -8  13  137.35    8.81
   0  -8  13  160.42    9.88
   1  -8  13    9.81    3.26
   1  -8  13    9.38    3.44
   1  -8  13   11.78    3.75
  -1   8 -13    8.76    3.01
  -2   8 -13    7.21    3.23
   2  -8  13    1.62    2.78
   2  -8  13    0.83    2.34
   2  -8  13    1.95    2.63
   3  -8  13    6.72    3.22
   3  -8  13    8.45    3.14
   3  -8  13    7.56    2.94
  -3   8 -13    9.47    3.64
   4  -8  13   19.76    3.69
   4  -8  13   15.03    3.30
  -4   8 -13   10.81    4.47
   5  -8  13   11.87    3.27
  -5   8 -13    9.57    4.78
   5   7 -13   10.74    4.74
   5   7 -13   32.78    6.52
   4   7 -13   31.81    5.57
  -4  -7  13   24.51    5.54
   4   7 -13   30.08    5.79
  -3  -7  13   80.66    7.12
  -3  -7  13   66.59    7.06
   3   7 -13   68.08    7.42
   3   7 -13   66.09    6.58
  -2  -7  13   79.59    7.18
  -2  -7  13   62.96    6.25
   2   7 -13   78.45    6.59
   2   7 -13   90.49    7.60
  -2  -7  13   72.99    7.08
   1   7 -13   14.23    3.89
  -1  -7  13   12.37    3.93
  -1  -7  13    9.57    3.39
  -1  -7  13   12.31    3.42
   0   7 -13  126.87    8.34
   0  -7  13  144.69    9.10
   0  -7  13  131.16    8.47
   0   7 -13  150.25    7.87
   0  -7  13  131.37    9.02
  -1   7 -13   37.84    4.42
   1  -7  13   32.70    4.17
   1  -7  13   43.85    4.91
   1  -7  13   32.29    4.54
   2  -7  13  225.57   11.51
  -2   7 -13  235.48   12.59
   2  -7  13  255.20   12.51
   2  -7  13  247.69   11.95
  -3   7 -13    1.74    3.03
   3  -7  13   -1.09    2.20
   3  -7  13    2.00    2.35
   3  -7  13    4.40    2.73
   4  -7  13   18.38    3.49
  -4   7 -13   17.82    4.77
   4  -7  13   17.14    3.26
   5  -7  13    7.96    2.64
  -5   7 -13   -0.46    3.77
   6   6 -13   59.26    8.16
   5   6 -13    5.19    3.75
   5   6 -13    7.37    4.38
   4   6 -13    8.81    3.88
  -4  -6  13   20.32    5.06
   4   6 -13    9.76    4.37
  -3  -6  13  153.97   10.27
  -3  -6  13  144.46    9.41
   3   6 -13  150.62    9.77
   3   6 -13  152.37   10.31
  -2  -6  13  130.35    8.97
  -2  -6  13  156.68    9.55
   2   6 -13  118.46    8.71
   2   6 -13  146.16    8.87
  -2  -6  13  132.05    8.72
  -1  -6  13   28.04    4.49
  -1  -6  13   20.81    4.14
   1   6 -13   29.29    4.54
  -1  -6  13   35.10    4.39
   0   6 -13    1.17    1.91
   0  -6  13   -0.84    2.53
   0  -6  13   -0.51    2.33
   0   6 -13    2.84    2.74
   0  -6  13    0.09    2.03
   1  -6  13   89.48    6.73
   1  -6  13   81.83    6.33
   1  -6  13   86.70    6.04
  -1   6 -13   90.28    6.30
   2  -6  13    8.63    2.91
  -2   6 -13    8.67    3.11
   2  -6  13   15.15    3.30
   2  -6  13   22.29    3.48
   3  -6  13  158.15    8.38
  -3   6 -13  139.08    9.93
   3  -6  13  159.71    8.47
   3  -6  13  149.39    8.70
   4  -6  13    6.16    2.53
  -4   6 -13    4.07    3.65
   4  -6  13    3.88    2.56
   5  -6  13    2.94    2.17
   6   5 -13   43.47    7.30
   5   5 -13    6.28    4.06
   5   5 -13   10.48    4.30
   4   5 -13    0.47    3.08
   4   5 -13   -2.91    2.68
  -4  -5  13    1.13    3.33
   3   5 -13  128.97    9.12
   3   5 -13  141.00    8.86
  -3  -5  13  128.78    9.13
  -3  -5  13  134.33    8.70
  -2  -5  13    3.87    2.99
   2   5 -13    4.54    3.15
  -2  -5  13    6.02    2.77
   2   5 -13    2.80    2.74
  -2  -5  13    0.60    2.45
  -1  -5  13    0.93    2.56
  -1  -5  13   -1.19    2.02
  -1  -5  13    0.24    2.28
   1   5 -13    2.03    2.62
   1   5 -13   -1.65    2.06
   0  -5  13   50.46    5.21
   0   5 -13   51.08    4.06
   0   5 -13   45.90    4.84
   0  -5  13   43.15    4.63
   0  -5  13   43.74    4.93
   1  -5  13    1.11    2.09
  -1   5 -13    3.57    2.32
   1  -5  13    4.26    2.76
   1  -5  13    4.93    2.66
   2  -5  13  133.86    7.73
   2  -5  13  142.47    8.43
   2  -5  13  143.04    8.14
  -2   5 -13  139.02    8.69
   3  -5  13    4.69    2.34
   3  -5  13    1.11    2.17
  -3   5 -13    1.92    2.68
   3  -5  13    4.99    2.60
   4  -5  13  213.36   10.58
   4  -5  13  215.09   10.06
   5  -5  13    3.88    2.27
   6   4 -13   83.60    8.46
   6   4 -13   68.79    8.34
   5   4 -13  217.14   12.79
   5   4 -13  195.53   12.81
   4   4 -13    1.82    3.49
   4   4 -13    6.27    3.47
  -4  -4  13    6.78    3.63
  -3  -4  13   53.38    5.45
   3   4 -13   56.29    5.78
  -3  -4  13   57.25    6.05
   3   4 -13   56.43    6.34
   2   4 -13   15.92    3.84
   2   4 -13   12.45    3.29
  -2  -4  13   15.70    3.69
  -2  -4  13   21.73    4.31
  -2  -4  13   20.10    3.60
   1   4 -13   48.28    5.29
  -1  -4  13   70.24    5.68
  -1  -4  13   48.81    5.36
  -1  -4  13   70.51    5.86
   1   4 -13   59.54    5.04
   0   4 -13  105.27    7.04
   0  -4  13  100.61    7.03
   0  -4  13   99.12    6.99
   0  -4  13  102.91    6.65
   1  -4  13   68.08    5.64
   1  -4  13   71.20    5.71
   1  -4  13   65.12    5.29
   2  -4  13    8.18    2.59
   2  -4  13   11.54    2.94
   3  -4  13   10.25    2.75
   3  -4  13    6.91    2.54
   3  -4  13    7.08    2.59
   4  -4  13    2.97    2.30
   4  -4  13    2.04    2.30
   5  -4  13   17.21    3.02
   6   3 -13   82.34    8.59
   6   3 -13   55.91    7.41
   5   3 -13   65.06    7.16
   5   3 -13   86.55    8.31
   4   3 -13   58.44    6.28
  -4  -3  13   67.46    6.64
   4   3 -13   51.56    6.41
  -3  -3  13  271.25   13.31
   3   3 -13  274.44   14.19
  -3  -3  13  292.53   14.22
   3   3 -13  271.06   13.71
   2   3 -13  107.62    7.66
   2   3 -13   98.25    6.97
  -2  -3  13   99.09    7.50
  -2  -3  13   98.45    6.91
  -2  -3  13  116.79    7.73
  -1  -3  13    3.05    2.35
   1   3 -13   15.19    3.45
  -1  -3  13   15.98    3.69
  -1  -3  13    7.38    2.85
   1   3 -13    9.92    2.82
   0   3 -13    1.33    2.23
   0  -3  13    2.20    2.28
   0  -3  13   -0.72    2.43
   0  -3  13    5.90    2.52
   1  -3  13  103.25    6.94
   1  -3  13  108.62    6.70
   1  -3  13   99.58    6.91
   2  -3  13  109.56    7.14
   2  -3  13  102.97    6.92
   2  -3  13  127.51    7.06
   3  -3  13  152.42    8.63
   3  -3  13  153.64    8.17
   3  -3  13  164.16    8.38
   4  -3  13   19.97    3.19
   4  -3  13   22.67    3.49
   5  -3  13    3.19    2.30
   6   2 -13    4.18    4.37
   6   2 -13   -0.95    3.70
   5   2 -13  117.09    9.87
  -5  -2  13  149.27    9.81
   5   2 -13  134.02    9.74
   4   2 -13    4.29    3.43
  -4  -2  13    1.58    2.91
   4   2 -13    5.08    3.26
   3   2 -13    0.94    2.37
   3   2 -13    0.52    2.83
  -3  -2  13    0.79    2.34
  -3  -2  13    0.33    2.67
  -2  -2  13  172.27   10.32
   2   2 -13  173.97    9.94
  -2  -2  13  199.83   10.75
  -2  -2  13  192.75    9.97
   2   2 -13  192.00   10.74
  -1  -2  13  103.55    7.00
  -1  -2  13  105.50    7.41
  -1  -2  13  121.49    7.91
   1   2 -13   97.40    7.26
   1   2 -13  112.37    7.14
   0  -2  13  143.57    8.41
   0   2 -13  123.15    7.85
   0  -2  13  137.35    8.26
   0  -2  13  129.53    7.80
   1  -2  13   37.21    4.12
   1  -2  13   42.22    4.49
   1  -2  13   45.65    4.68
   2  -2  13   77.98    5.81
   2  -2  13   74.84    5.68
   2  -2  13   65.31    5.39
   3  -2  13  131.16    7.69
   3  -2  13  123.18    7.40
   3  -2  13  128.16    7.26
   4  -2  13  217.83   10.88
   4  -2  13  217.81   10.35
   5  -2  13    3.03    2.49
   6   1 -13   52.18    7.02
   6   1 -13   39.47    6.55
   5   1 -13    4.93    4.11
   5   1 -13    1.93    3.34
   4   1 -13   33.13    5.58
  -4  -1  13   48.49    5.63
   4   1 -13   30.96    4.95
   3   1 -13   26.32    4.39
  -3  -1  13   28.52    4.22
  -3  -1  13   29.43    4.66
   3   1 -13   24.15    4.56
  -2  -1  13    2.12    2.38
   2   1 -13    0.37    2.44
  -2  -1  13    3.21    2.55
  -2  -1  13    1.87    2.73
   2   1 -13    0.76    2.81
  -1  -1  13  140.13    8.70
  -1  -1  13  135.56    8.49
   1   1 -13  143.63    8.11
   1   1 -13  135.19    8.60
  -1  -1  13  137.41    8.15
   0   1 -13    4.49    2.54
   0  -1  13   10.53    3.16
   0  -1  13    9.17    2.74
   1  -1  13   -1.38    1.98
   1  -1  13   -0.10    2.10
   1  -1  13   -0.09    2.42
   2  -1  13   20.24    3.49
   2  -1  13   25.83    3.89
   2  -1  13   22.12    3.41
   3  -1  13  158.29    8.59
   3  -1  13  156.69    8.58
   3  -1  13  159.49    9.02
   4  -1  13   12.80    3.17
   4  -1  13   14.55    3.25
   5  -1  13   67.09    5.43
   6   0 -13   -2.32    3.31
   6   0 -13    2.76    3.92
   5   0 -13   66.15    7.59
   5   0 -13   67.26    7.29
   4   0 -13   92.67    7.77
   4   0 -13  100.84    8.56
  -4   0  13   83.78    7.39
  -3   0  13    1.53    2.80
   3   0 -13   10.17    3.28
  -3   0  13    2.95    2.64
   3   0 -13    3.14    3.40
   2   0 -13    1.09    2.89
  -2   0  13   -1.09    2.06
  -2   0  13    3.41    2.99
   2   0 -13   -2.68    2.14
  -2   0  13    1.07    2.43
   1   0 -13   -0.25    2.13
  -1   0  13    1.99    2.44
  -1   0  13    3.02    2.33
  -1   0  13   -0.97    2.31
   1   0 -13   -0.69    2.44
   0   0  13   74.58    6.20
   0   0  13   87.84    6.67
   0   0  13   83.04    6.24
   0   0 -13   86.23    6.36
   1   0  13  195.99   10.41
   1   0  13  217.50   11.24
   1   0  13  218.21   10.94
   2   0  13    1.91    2.39
   2   0  13    1.30    2.19
   2   0  13   -0.12    2.41
   3   0  13   10.81    3.16
   3   0  13   13.42    3.32
   3   0  13   11.29    3.13
   4   0  13   74.77    6.04
   4   0  13   78.01    6.20
   6  -1 -13   12.02    4.76
   6  -1 -13   14.48    5.01
   5  -1 -13    9.23    4.18
   5  -1 -13   14.78    4.70
   4  -1 -13  112.23    9.21
   4  -1 -13  104.36    8.50
  -4   1  13  126.46    8.76
   3  -1 -13    1.75    2.74
   3  -1 -13    5.69    3.47
  -3   1  13   -1.14    2.93
  -3   1  13    1.42    2.42
   2  -1 -13  257.32   12.63
  -2   1  13  248.53   12.94
  -2   1  13  241.17   12.09
  -2   1  13  249.83   12.89
   2  -1 -13  247.18   12.92
  -1   1  13   10.39    3.15
  -1   1  13   17.25    4.03
   1  -1 -13   10.34    3.54
  -1   1  13   15.90    3.37
   0   1  13    4.21    2.61
   0   1  13    3.81    2.43
   0   1  13    2.79    2.69
   0  -1 -13    0.67    2.50
   1   1  13    2.95    2.52
   1   1  13   -5.06    2.27
   1   1  13   -1.88    2.04
   2   1  13   78.32    6.28
   2   1  13   80.42    6.58
   2   1  13   93.70    6.80
   3   1  13   38.70    4.78
   3   1  13   36.84    4.72
   3   1  13   44.39    4.83
   4   1  13   97.28    7.04
   4   1  13   95.64    6.97
   6  -2 -13   -2.90    3.52
   5  -2 -13   36.72    6.18
   5  -2 -13   30.54    5.73
   4  -2 -13  140.61   10.14
  -4   2  13  150.18    9.90
   4  -2 -13  164.95   10.99
   3  -2 -13    0.42    3.08
  -3   2  13    2.36    2.73
   3  -2 -13    4.20    2.90
  -3   2  13    4.49    3.38
  -2   2  13    4.13    2.70
  -2   2  13    5.26    2.70
  -2   2  13   10.29    3.62
   2  -2 -13    3.95    3.22
   2  -2 -13   -0.02    2.56
   2  -2 -13    4.40    2.94
   1  -2 -13  339.00   17.38
  -1   2  13  349.85   16.48
  -1   2  13  350.96   16.13
  -1   2  13  340.58   15.52
   1  -2 -13  336.68   16.08
   0   2  13  103.63    7.22
   0  -2 -13   95.92    7.14
   0  -2 -13  101.62    8.35
   0   2  13   99.70    7.67
   0   2  13   96.58    7.47
   1   2  13   77.98    6.45
   1   2  13   74.99    6.59
   1   2  13   87.10    6.78
   2   2  13   -0.03    2.38
   2   2  13   -3.26    1.88
   2   2  13   -2.18    2.78
   3   2  13   97.48    7.48
   3   2  13   93.17    7.12
   3   2  13   87.56    7.09
   4   2  13   39.87    5.07
   4   2  13   47.11    5.37
   6  -3 -13   11.06    4.88
   5  -3 -13   45.66    6.99
   5  -3 -13   34.64    5.99
   4  -3 -13    5.71    3.93
  -4   3  13    3.92    3.67
   4  -3 -13    2.88    3.59
   3  -3 -13  128.83    9.57
   3  -3 -13  134.65    9.17
  -3   3  13  123.99    9.08
  -2   3  13   68.32    6.46
   2  -3 -13   59.29    6.03
  -2   3  13   50.21    6.16
   2  -3 -13   65.59    6.94
  -2   3  13   63.61    5.97
   2  -3 -13   63.78    6.59
   1  -3 -13   37.23    5.20
   1  -3 -13   36.52    5.53
  -1   3  13   25.87    4.27
  -1   3  13   30.76    4.80
  -1   3  13   31.48    5.01
   0   3  13   46.89    5.48
   0  -3 -13   43.27    5.32
   0   3  13   42.17    5.58
   0   3  13   51.31    5.50
   0  -3 -13   44.43    6.17
   1   3  13   17.40    4.07
   1   3  13   18.95    4.41
   1   3  13   21.58    4.13
  -1  -3 -13   22.83    5.19
   2   3  13    1.78    2.55
   2   3  13    5.39    3.11
   2   3  13    4.82    3.29
   3   3  13    4.02    3.15
   3   3  13    2.03    3.19
   3   3  13    3.03    3.00
   4   3  13   66.97    6.54
   5  -4 -13    5.10    4.04
   5  -4 -13    5.33    4.50
   4  -4 -13  337.57   17.82
  -4   4  13  336.27   16.76
   4  -4 -13  306.18   16.92
  -3   4  13   29.52    5.47
   3  -4 -13   41.42    5.94
   3  -4 -13   38.02    6.01
   2  -4 -13   17.80    4.65
  -2   4  13   11.14    4.09
   2  -4 -13   26.08    4.82
  -2   4  13   15.04    3.86
   1  -4 -13   33.29    5.62
  -1   4  13   41.66    5.90
   1  -4 -13   34.30    5.28
  -1   4  13   40.19    5.31
  -1   4  13   35.85    4.98
   0   4  13   14.03    4.35
   0  -4 -13   16.59    4.81
   0   4  13   12.13    3.76
   0  -4 -13   12.82    4.04
   0   4  13   12.00    3.66
   1   4  13   32.99    5.38
   1   4  13   46.83    5.80
   1   4  13   42.45    5.49
  -1  -4 -13   42.17    6.91
   2   4  13   81.35    7.57
   2   4  13   91.11    7.82
   2   4  13   76.61    6.94
   3   4  13   -1.44    3.16
   3   4  13   -3.11    2.76
   4   4  13    1.08    3.68
   5  -5 -13   14.29    5.11
   5  -5 -13   12.29    4.96
   4  -5 -13   19.53    5.57
  -4   5  13   25.97    5.47
   4  -5 -13   39.20    6.67
   3  -5 -13  165.94   11.05
   3  -5 -13  148.14   11.19
  -3   5  13  164.11   10.84
  -2   5  13   12.62    3.89
   2  -5 -13   12.36    4.52
  -2   5  13   22.45    5.20
   2  -5 -13    7.92    4.08
  -1   5  13   97.93    8.05
   1  -5 -13  103.17    8.49
  -1   5  13  101.05    8.57
  -1   5  13   92.57    7.84
   1  -5 -13   84.93    8.88
   0   5  13   18.26    4.50
   0   5  13   14.98    4.76
   0  -5 -13   18.90    5.60
   0   5  13   23.37    4.63
   1   5  13   22.52    4.89
   1   5  13   22.71    5.33
   1   5  13   21.39    4.79
   2   5  13   12.87    4.04
   2   5  13    5.17    4.05
   3   5  13   38.13    6.15
   5  -6 -13   -0.57    4.14
   4  -6 -13   44.53    7.34
   4  -6 -13   57.85    7.70
  -4   6  13   62.62    7.51
  -3   6  13  110.80    9.49
   3  -6 -13  112.24   10.04
   2  -6 -13    4.73    4.10
   2  -6 -13    4.22    3.77
  -2   6  13    1.09    4.09
   1  -6 -13    1.86    3.73
  -1   6  13   -5.46    2.59
  -1   6  13   -0.03    3.60
   0   6  13   65.08    7.63
   0   6  13   59.33    6.85
   0   6  13   69.70    7.25
   1   6  13    4.07    4.03
   1   6  13    3.44    3.41
   1   6  13    3.26    3.40
   2   6  13    2.47    4.02
   4  -7 -13   32.08    6.91
   4  -7 -13   18.53    5.49
   3  -7 -13    5.64    4.76
  -3   7  13   20.75    5.63
   2  -7 -13   11.41    5.01
  -2   7  13   18.22    5.46
  -1   7  13   -0.75    4.02
   1  -7 -13   -0.58    4.00
  -1   7  13   -1.81    3.51
   0   7  13   18.18    5.42
   0   7  13    6.88    4.34
   1   7  13    3.18    4.32
   3  -8 -13   90.56   10.07
  -3   8  13  103.84   10.25
  -2   8  13    8.70    4.96
   2  -8 -13    4.90    4.75
  -1   8  13   -1.31    4.19
   1  -8 -13   -6.68    3.84
   0   8  13    8.91    4.87
   2  13 -14   59.23    8.47
  -1 -13  14   22.86    5.98
   0 -13  14   57.28    7.99
   1 -13  14    9.27    4.85
   2 -13  14   -1.79    3.66
  -2  13 -14    4.53    3.93
   3  12 -14   10.42    5.44
  -3 -12  14    3.69    4.89
   2  12 -14   38.81    7.06
  -2 -12  14   47.33    7.56
  -1 -12  14   56.39    7.78
  -1 -12  14   75.50    8.08
   0 -12  14   27.18    5.90
   0 -12  14   26.29    5.75
   0 -12  14   26.47    6.01
   1 -12  14   12.78    4.78
  -1  12 -14   12.33    4.00
   1 -12  14   14.21    4.44
  -2  12 -14   25.05    5.30
   2 -12  14   10.49    4.53
  -3  12 -14   26.05    6.02
   3 -12  14   28.16    5.23
  -4 -11  14   63.70    8.85
  -3 -11  14  121.92   10.91
   3  11 -14   79.70    9.01
   2  11 -14   38.31    6.61
  -2 -11  14   32.61    6.16
  -2 -11  14   20.96    5.69
  -1 -11  14   14.72    4.92
  -1 -11  14   11.51    4.56
  -1 -11  14    7.37    4.32
   0 -11  14  131.21   10.14
   0 -11  14  102.74    9.28
   0 -11  14  108.06    8.78
   1 -11  14    4.34    3.42
  -1  11 -14    7.16    3.57
   1 -11  14    5.43    4.00
   1 -11  14   -0.50    3.44
  -2  11 -14   -0.86    3.00
   2 -11  14    1.82    3.74
   2 -11  14   -0.67    2.91
  -3  11 -14   22.05    5.49
   3 -11  14   19.66    4.63
  -4 -10  14   24.24    6.47
   4  10 -14   40.12    7.33
   3  10 -14   54.60    7.52
  -3 -10  14   65.85    8.31
   2  10 -14   80.53    8.31
  -2 -10  14   68.95    8.26
  -2 -10  14   77.55    7.75
  -1 -10  14   49.09    6.32
  -1 -10  14   59.06    7.19
  -1 -10  14   60.28    7.19
   1  10 -14   64.67    7.06
   0 -10  14   16.97    4.86
   0 -10  14    6.65    4.04
   0 -10  14   10.69    3.85
   1 -10  14    1.53    3.12
  -1  10 -14    2.33    2.91
   1 -10  14    2.27    3.25
   1 -10  14    4.40    3.60
  -2  10 -14   63.53    6.96
   2 -10  14   61.72    6.57
   2 -10  14   62.78    6.86
   2 -10  14   63.60    6.46
   3 -10  14    4.36    3.14
  -3  10 -14    5.71    3.98
   3 -10  14   17.79    4.05
  -4  10 -14    1.91    3.85
  -4  -9  14   22.38    5.82
   4   9 -14   24.77    6.38
   3   9 -14  144.12   11.22
  -3  -9  14  146.75   11.29
  -2  -9  14   37.23    5.84
  -2  -9  14   42.28    6.50
   2   9 -14   31.28    5.90
  -1  -9  14  116.40    8.97
   1   9 -14  123.35    9.19
  -1  -9  14  128.92    9.65
  -1  -9  14  126.28    9.64
   0  -9  14  207.66   12.49
   0  -9  14  198.66   11.92
   0  -9  14  191.05   11.38
   1  -9  14  239.21   12.87
   1  -9  14  266.25   14.24
   1  -9  14  232.11   13.25
  -1   9 -14  262.18   13.28
   2  -9  14   28.92    4.98
   2  -9  14   32.98    5.07
  -2   9 -14   21.36    4.67
   2  -9  14   26.24    4.36
   3  -9  14    7.91    3.42
   3  -9  14    0.11    2.51
   3  -9  14   -0.59    2.71
  -3   9 -14    4.42    3.39
   4  -9  14   29.78    4.47
  -4   9 -14   22.23    5.65
   5   8 -14    3.41    4.25
   5   8 -14    5.43    4.70
   4   8 -14    2.27    3.64
   4   8 -14    5.99    4.34
  -4  -8  14    1.48    4.08
  -3  -8  14    5.17    4.36
   3   8 -14   -0.29    3.59
  -2  -8  14   15.16    4.75
   2   8 -14    7.40    4.06
  -2  -8  14   13.46    4.10
  -2  -8  14    9.63    3.56
  -1  -8  14  115.74    8.70
   1   8 -14  115.01    8.61
  -1  -8  14  126.82    9.22
  -1  -8  14   96.34    7.82
   0  -8  14   21.40    4.61
   0  -8  14   23.29    4.17
   0  -8  14   15.64    4.24
  -1   8 -14   53.11    5.55
   1  -8  14   64.20    5.99
   1  -8  14   56.97    6.23
   1  -8  14   58.26    6.10
   2  -8  14    4.88    3.08
  -2   8 -14    5.33    3.13
   2  -8  14    6.52    3.34
   2  -8  14    6.03    2.98
   3  -8  14    6.80    3.27
   3  -8  14    5.90    3.10
   3  -8  14    5.97    2.96
  -3   8 -14    2.88    3.29
  -4   8 -14   34.03    6.16
   4  -8  14   37.66    4.55
   5   7 -14    1.36    4.02
   5   7 -14   -1.52    4.18
   4   7 -14    1.86    3.50
   4   7 -14    5.82    4.46
  -4  -7  14    4.99    4.04
  -3  -7  14  133.82    9.37
  -3  -7  14  136.73    9.99
   3   7 -14  116.11    9.56
   3   7 -14  140.88    9.77
   2   7 -14  199.96   12.00
  -2  -7  14  216.10   11.85
  -2  -7  14  206.30   12.25
  -2  -7  14  200.46   12.09
  -1  -7  14    0.66    2.68
  -1  -7  14    1.63    2.79
   1   7 -14    2.03    3.03
  -1  -7  14    0.82    2.96
   0  -7  14   -1.68    2.66
   0  -7  14    4.14    2.84
   0  -7  14   11.84    3.49
  -1   7 -14   15.64    3.33
   1  -7  14   22.51    4.17
   1  -7  14   18.98    3.91
   1  -7  14   14.67    3.58
  -2   7 -14    2.93    2.93
   2  -7  14    3.56    3.07
   2  -7  14    0.41    2.33
   2  -7  14    6.76    2.97
   3  -7  14   -1.09    2.55
   3  -7  14    2.66    2.56
  -3   7 -14    6.56    3.72
   3  -7  14   10.42    3.22
  -4   7 -14   -2.14    3.09
   4  -7  14    1.53    2.51
   5   6 -14    0.80    3.78
   5   6 -14    2.50    3.68
   4   6 -14   11.01    4.77
   4   6 -14   10.62    4.40
  -4  -6  14   10.17    4.53
   3   6 -14  113.10    9.19
  -3  -6  14  120.10    8.57
  -3  -6  14  103.97    8.90
   3   6 -14  128.97    9.04
  -2  -6  14   32.73    4.87
  -2  -6  14   32.66    4.96
   2   6 -14   24.22    4.73
  -2  -6  14   33.59    5.26
  -1  -6  14   29.10    4.80
  -1  -6  14   36.07    4.75
   1   6 -14   26.71    4.44
  -1  -6  14   29.12    4.79
   0  -6  14  194.01   10.72
   0  -6  14  188.77   11.34
   0  -6  14  213.33   11.28
   0   6 -14  208.70   10.87
   1  -6  14  126.91    7.97
   1  -6  14  127.80    8.60
  -1   6 -14  129.08    7.90
   1  -6  14  128.62    8.37
   2  -6  14   71.97    6.18
   2  -6  14   73.78    5.78
  -2   6 -14   65.91    6.28
   2  -6  14   73.30    6.06
   3  -6  14   22.24    3.67
   3  -6  14   15.63    3.25
   3  -6  14   16.28    3.55
  -3   6 -14   18.75    4.27
   4  -6  14   13.09    3.25
   4  -6  14   14.21    3.13
   5  -6  14    0.36    2.33
   6   5 -14    9.56    4.87
   5   5 -14   19.82    4.94
   5   5 -14   16.84    5.07
   4   5 -14  141.37    9.93
   4   5 -14  119.36    9.65
  -4  -5  14  146.09   10.21
  -3  -5  14  194.46   11.40
   3   5 -14  204.45   12.04
   3   5 -14  198.04   11.35
  -3  -5  14  220.09   12.46
   2   5 -14  156.06    9.09
  -2  -5  14  141.57    9.53
   2   5 -14  157.22    9.69
  -2  -5  14  139.36    9.47
  -2  -5  14  144.97    9.07
  -1  -5  14   78.16    6.58
  -1  -5  14   76.00    6.26
  -1  -5  14   63.45    6.29
   1   5 -14   80.32    6.66
   0  -5  14   87.46    6.77
   0   5 -14   77.40    6.28
   0  -5  14   78.87    6.31
   0  -5  14   69.74    6.40
   1  -5  14  323.28   15.34
   1  -5  14  360.03   15.45
   1  -5  14  347.59   16.18
  -1   5 -14  351.24   15.28
   2  -5  14  274.41   12.55
   2  -5  14  262.30   12.31
   2  -5  14  246.35   12.77
   3  -5  14    3.67    2.69
   3  -5  14    2.20    2.33
   3  -5  14    6.61    2.82
   4  -5  14   13.85    3.12
   4  -5  14   12.81    3.28
   5  -5  14   14.58    3.06
   6   4 -14    2.65    4.22
   5   4 -14   19.77    5.34
   5   4 -14   25.96    5.57
   4   4 -14   10.54    3.97
  -4  -4  14   10.69    4.39
   4   4 -14   10.73    4.30
   3   4 -14   92.84    8.05
  -3  -4  14   85.78    7.73
   3   4 -14   88.33    7.22
  -3  -4  14   87.53    7.08
  -2  -4  14    2.97    2.95
  -2  -4  14    3.63    2.77
   2   4 -14    8.21    3.14
   2   4 -14    4.39    3.06
  -2  -4  14    3.54    2.64
  -1  -4  14    0.19    2.41
   1   4 -14    3.98    2.90
  -1  -4  14    2.98    2.81
  -1  -4  14   -3.72    1.98
   0  -4  14  332.60   15.03
   0  -4  14  349.62   15.63
   0   4 -14  336.78   15.01
   0  -4  14  319.97   15.71
   1  -4  14   15.71    3.52
   1  -4  14   10.23    3.30
   1  -4  14   14.36    3.28
   2  -4  14  111.15    7.25
   2  -4  14  111.11    7.44
   2  -4  14  128.44    7.90
   3  -4  14   12.34    3.00
   3  -4  14    6.24    2.73
   3  -4  14    9.91    3.01
   4  -4  14    2.30    2.51
   4  -4  14    3.11    2.72
   5  -4  14   25.53    3.53
   6   3 -14   18.60    5.51
  -5  -3  14    1.55    3.71
   5   3 -14    4.42    3.78
   5   3 -14   -0.66    3.80
   4   3 -14   13.32    4.67
   4   3 -14   14.91    4.26
  -4  -3  14    4.93    3.45
  -3  -3  14   12.46    3.59
  -3  -3  14    6.02    3.70
   3   3 -14    5.83    3.60
   3   3 -14    7.98    3.56
  -2  -3  14  448.85   19.99
  -2  -3  14  449.31   19.77
   2   3 -14  435.19   19.42
   2   3 -14  437.09   18.97
  -2  -3  14  448.79   19.11
  -1  -3  14   40.47    4.66
  -1  -3  14   41.89    5.30
   1   3 -14   43.66    4.97
  -1  -3  14   39.69    4.95
   0  -3  14   33.67    4.35
   0  -3  14   33.49    4.60
   0  -3  14   34.51    4.52
   0   3 -14   39.90    4.63
   1  -3  14   15.43    3.49
   1  -3  14   20.34    3.60
   1  -3  14   23.60    4.06
   2  -3  14   28.31    3.80
   2  -3  14   20.46    3.85
   2  -3  14   22.30    3.72
   3  -3  14   19.55    3.67
   3  -3  14   20.97    3.66
   3  -3  14   19.85    3.49
   4  -3  14   34.38    4.37
   4  -3  14   36.63    4.16
   5  -3  14   12.59    3.05
   6   2 -14    8.79    4.92
   5   2 -14    2.38    3.82
   5   2 -14    3.56    3.76
   4   2 -14   25.32    5.17
  -4  -2  14   21.57    4.70
   4   2 -14   26.92    4.96
   3   2 -14  281.74   14.22
  -3  -2  14  278.91   13.70
   3   2 -14  291.80   14.91
  -3  -2  14  276.11   14.42
  -2  -2  14  146.60    8.74
  -2  -2  14  142.46    9.17
   2   2 -14  137.61    8.79
  -2  -2  14  136.59    9.25
   2   2 -14  143.67    9.24
  -1  -2  14  194.88   10.81
  -1  -2  14  191.04   10.89
  -1  -2  14  180.40   10.10
   1   2 -14  188.11   10.54
   0  -2  14   11.24    3.02
   0  -2  14   12.55    3.47
   0   2 -14    8.02    3.12
   0  -2  14    7.07    2.89
   1  -2  14  285.87   13.26
   1  -2  14  278.39   13.59
   1  -2  14  267.89   12.84
   2  -2  14   51.05    5.21
   2  -2  14   52.41    4.97
   2  -2  14   63.24    5.54
   3  -2  14    0.55    2.43
   3  -2  14    6.49    2.87
   3  -2  14    4.10    2.66
   4  -2  14    3.29    2.69
   4  -2  14    2.86    2.61
   6   1 -14   24.26    6.00
   5   1 -14    4.89    3.94
   5   1 -14    5.01    4.20
   4   1 -14   17.70    4.74
  -4  -1  14   22.79    4.95
   4   1 -14   26.47    4.97
   3   1 -14   67.59    6.65
   3   1 -14   85.06    7.55
  -3  -1  14   85.70    7.67
  -3  -1  14   84.98    6.62
  -2  -1  14  191.44   11.08
   2   1 -14  193.23   11.28
  -2  -1  14  186.97   10.56
   2   1 -14  217.50   11.06
  -2  -1  14  185.52   11.16
  -1  -1  14   14.34    4.03
  -1  -1  14   12.40    3.38
   1   1 -14    9.71    3.47
  -1  -1  14   10.02    3.23
   0   1 -14   45.89    4.93
   0  -1  14   41.75    4.71
   0  -1  14   44.11    4.99
   0  -1  14   42.36    5.17
   1  -1  14    1.39    2.26
   1  -1  14    5.47    2.99
   1  -1  14    2.99    2.40
   2  -1  14   49.87    5.18
   2  -1  14   48.36    5.11
   2  -1  14   51.45    5.03
   3  -1  14   45.84    4.85
   3  -1  14   42.22    4.72
   3  -1  14   41.00    4.80
   4  -1  14   -0.34    2.49
   6   0 -14    5.08    4.23
   5   0 -14   17.81    5.06
   5   0 -14    3.31    3.92
  -4   0  14   21.68    4.90
   4   0 -14   19.02    5.02
   4   0 -14   17.08    4.64
  -3   0  14   11.07    3.38
   3   0 -14   12.45    4.17
  -3   0  14    9.66    3.77
   3   0 -14   10.43    3.64
   2   0 -14  179.53   10.99
  -2   0  14  195.57   11.08
   2   0 -14  196.87   10.68
  -2   0  14  184.60   10.31
  -2   0  14  195.01   11.14
  -1   0  14    4.13    2.72
   1   0 -14    3.54    3.04
  -1   0  14    4.18    2.60
  -1   0  14    3.12    2.92
   0   0 -14    0.25    2.59
   0   0  14    1.88    2.44
   0   0  14    2.10    2.43
   0   0  14    2.49    2.74
   1   0  14  162.39    9.62
   1   0  14  166.94    9.70
   1   0  14  148.10    8.92
   2   0  14   -0.88    2.52
   2   0  14    4.49    2.81
   2   0  14    8.31    3.02
   3   0  14   50.65    5.50
   3   0  14   59.14    5.54
   3   0  14   62.06    5.74
   4   0  14    0.78    2.61
   6  -1 -14   53.57    7.47
   5  -1 -14   -2.64    3.44
   5  -1 -14    0.95    3.60
   4  -1 -14   12.20    4.10
  -4   1  14   11.89    4.26
   4  -1 -14   10.70    4.55
  -3   1  14   -1.89    2.84
  -3   1  14   -0.88    2.56
   3  -1 -14    2.41    3.45
   3  -1 -14    1.36    2.90
  -2   1  14   10.44    3.73
   2  -1 -14    3.85    2.91
  -2   1  14    6.50    3.11
   2  -1 -14    6.30    3.54
  -2   1  14    8.03    3.22
  -1   1  14  215.55   11.14
   1  -1 -14  180.24   11.13
  -1   1  14  191.57   11.25
  -1   1  14  221.08   11.83
   0   1  14  130.59    8.40
   0  -1 -14  133.57    8.61
   0   1  14  129.74    8.63
   0   1  14  129.85    8.88
   1   1  14    0.89    2.50
   1   1  14    3.64    2.77
   1   1  14    0.47    2.65
   2   1  14   14.05    3.87
   2   1  14   13.92    3.63
   2   1  14   16.55    3.86
   3   1  14   -0.27    2.66
   3   1  14   -1.85    2.82
   3   1  14    2.80    2.82
   6  -2 -14   -4.54    3.52
   5  -2 -14    0.05    4.05
   5  -2 -14    5.79    3.96
   4  -2 -14   26.52    5.73
   4  -2 -14   12.95    4.41
  -4   2  14    8.57    4.08
   3  -2 -14    7.04    4.04
  -3   2  14    4.95    3.75
  -3   2  14    2.40    2.80
   3  -2 -14   10.11    3.94
  -2   2  14   75.49    7.09
  -2   2  14   74.27    6.45
   2  -2 -14   66.65    6.91
  -2   2  14   64.19    6.70
  -1   2  14    3.67    2.88
   1  -2 -14    5.22    3.31
  -1   2  14    4.83    2.92
   1  -2 -14    6.36    3.35
  -1   2  14    2.11    3.34
   0   2  14  196.69   11.18
   0   2  14  216.33   11.96
   0  -2 -14  201.11   11.21
   0   2  14  211.64   11.78
   1   2  14    1.57    2.63
   1   2  14    2.25    2.85
   1   2  14   -2.36    2.67
   2   2  14  147.65    9.56
   2   2  14  151.13    9.72
   2   2  14  135.29    9.15
   3   2  14    1.43    3.24
   3   2  14   -2.71    2.51
   5  -3 -14   -0.68    3.70
   5  -3 -14    1.16    3.85
   4  -3 -14   13.71    4.84
   4  -3 -14    9.96    4.01
  -4   3  14   11.78    4.60
   3  -3 -14    4.90    3.54
   3  -3 -14    8.62    4.40
  -3   3  14   12.83    4.30
   2  -3 -14    3.15    3.50
   2  -3 -14    3.36    3.42
  -2   3  14    3.65    3.63
  -1   3  14  113.02    8.22
   1  -3 -14  110.28    9.31
   1  -3 -14  106.23    8.61
  -1   3  14  108.10    8.28
  -1   3  14  102.94    8.35
   0  -3 -14    5.31    3.87
   0   3  14   -2.66    2.53
   0   3  14   -1.72    3.25
   0   3  14    3.25    3.01
   1   3  14   74.76    7.13
   1   3  14   78.01    7.38
  -1  -3 -14   73.89    8.58
   1   3  14   82.56    7.17
   2   3  14   18.03    4.24
   2   3  14   20.49    4.73
   2   3  14   18.57    4.31
   3   3  14   45.40    5.93
   4   3  14    6.57    4.05
   5  -4 -14   10.97    4.76
   5  -4 -14    6.54    4.14
   4  -4 -14    8.61    4.32
   4  -4 -14    1.44    3.80
  -4   4  14    6.01    4.16
   3  -4 -14    0.89    3.26
   3  -4 -14    2.31    3.63
  -3   4  14    2.18    3.80
  -2   4  14    3.28    3.11
  -2   4  14    4.04    3.71
   2  -4 -14    4.95    3.76
   2  -4 -14   -1.45    3.16
  -1   4  14   24.73    4.75
   1  -4 -14   38.73    6.09
  -1   4  14   38.76    5.60
  -1   4  14   25.39    5.32
   1  -4 -14   31.14    5.56
   0   4  14   33.71    5.41
   0  -4 -14   26.06    5.86
   0   4  14   31.31    5.09
   0   4  14   30.21    5.67
   1   4  14    1.87    3.48
   1   4  14   -3.72    2.65
   1   4  14    2.62    3.47
   2   4  14  126.32    9.20
   2   4  14  123.21    9.45
   3   4  14    2.38    3.72
   5  -5 -14   64.50    8.38
   4  -5 -14    8.12    4.42
   4  -5 -14    8.87    4.68
  -4   5  14   11.77    4.80
  -3   5  14   -2.89    3.56
   3  -5 -14   -1.11    3.65
   2  -5 -14   -1.54    3.32
  -2   5  14   -2.86    2.89
   2  -5 -14    1.23    3.85
  -2   5  14   -2.66    3.55
  -1   5  14   39.84    6.46
  -1   5  14   40.00    5.94
   1  -5 -14   41.97    6.48
   1  -5 -14   46.62    7.21
   0   5  14  173.94   11.59
   0   5  14  148.65   10.44
   0   5  14  182.24   11.73
   1   5  14    4.72    3.80
   1   5  14    3.52    3.59
   1   5  14    3.42    3.91
   2   5  14    2.21    3.96
   4  -6 -14   22.45    6.16
  -3   6  14   -1.53    3.70
   3  -6 -14   -0.89    3.81
   2  -6 -14   -1.67    3.79
  -2   6  14    9.29    4.43
  -1   6  14    7.61    4.58
  -1   6  14   17.74    4.91
   1  -6 -14   17.58    5.00
   0   6  14    3.01    3.62
   0   6  14    7.62    4.20
   0   6  14    3.62    3.98
   1   6  14   44.69    6.92
   2   6  14   -4.55    3.54
   3  -7 -14   11.60    5.05
  -3   7  14   17.92    5.61
   2  -7 -14   -2.43    3.94
  -2   7  14   -2.53    4.20
  -1   7  14   -2.93    3.38
  -1   7  14    4.26    4.61
   0   7  14   72.89    8.43
   2  -8 -14    0.40    4.66
   3  12 -15   -2.93    4.08
   2  12 -15   20.44    6.15
  -2 -12  15    6.22    5.09
  -1 -12  15   22.84    5.76
  -1 -12  15   15.28    5.29
   0 -12  15   23.29    5.93
   1 -12  15   53.12    7.15
   2 -12  15   14.44    4.74
   3 -12  15   43.30    6.24
  -4 -11  15    7.05    5.71
  -3 -11  15   42.86    7.43
   3  11 -15   39.61    7.02
  -2 -11  15    3.87    4.48
   2  11 -15   10.09    4.97
  -2 -11  15    4.47    4.26
  -1 -11  15   -1.69    3.98
  -1 -11  15   -2.80    2.95
   0 -11  15    4.68    4.03
   0 -11  15   -1.58    3.18
   0 -11  15    3.67    3.97
   1 -11  15   23.42    5.48
   1 -11  15   18.89    4.85
  -2  11 -15   51.88    6.63
   2 -11  15   55.11    6.73
  -3  11 -15   24.22    5.67
   3 -11  15   38.66    5.71
  -4 -10  15    4.64    4.94
   4  10 -15   -0.93    4.49
  -3 -10  15    3.90    4.36
   3  10 -15    8.57    4.94
   2  10 -15   19.45    5.58
  -2 -10  15   19.96    4.95
  -2 -10  15   23.51    5.95
  -1 -10  15   28.19    5.84
  -1 -10  15   18.21    5.38
  -1 -10  15   21.12    5.14
   0 -10  15   -1.50    2.93
   0 -10  15    0.72    3.53
   0 -10  15   -3.66    3.16
   1 -10  15   29.07    5.17
   1 -10  15   34.95    5.72
   1 -10  15   61.17    6.99
   2 -10  15    9.42    4.07
   2 -10  15   21.33    4.62
  -2  10 -15   14.32    4.32
   3 -10  15    4.66    3.50
  -3  10 -15    4.31    3.69
   4   9 -15   42.31    7.40
  -4  -9  15   46.89    7.66
  -3  -9  15   -1.03    3.81
   3   9 -15   -6.88    3.38
  -2  -9  15   37.88    5.83
  -2  -9  15   35.43    6.49
   2   9 -15   39.10    6.26
  -1  -9  15   68.75    6.94
  -1  -9  15   58.55    7.11
  -1  -9  15   66.27    7.55
   1   9 -15   61.73    7.17
   0  -9  15  110.16    9.00
   0  -9  15   80.22    7.89
   0  -9  15   79.17    7.41
   1  -9  15   12.84    3.75
   1  -9  15   22.70    4.94
   1  -9  15   19.56    4.85
   2  -9  15    3.14    3.02
  -2   9 -15    6.06    3.56
   2  -9  15    3.34    3.49
   2  -9  15    5.16    3.42
   3  -9  15   45.26    5.42
  -3   9 -15   47.20    6.64
   3  -9  15   41.59    5.37
  -4   9 -15    1.26    3.68
   5   8 -15   66.13    8.62
   4   8 -15   -1.45    4.02
  -4  -8  15    3.75    4.30
   3   8 -15   78.98    8.48
  -3  -8  15   71.50    8.15
  -2  -8  15  111.32    8.61
   2   8 -15  102.54    8.95
  -2  -8  15  106.01    9.10
  -1  -8  15   64.62    7.03
  -1  -8  15   55.13    6.16
   1   8 -15   63.10    6.77
  -1  -8  15   44.04    6.20
   0  -8  15   29.72    4.96
   0  -8  15   33.37    5.37
   0  -8  15   29.46    5.11
   1  -8  15  169.42   10.47
   1  -8  15  169.81   10.74
   1  -8  15  193.40   11.55
   2  -8  15   37.23    5.29
  -2   8 -15   38.49    5.51
   2  -8  15   42.16    5.19
   2  -8  15   47.54    5.68
  -3   8 -15   32.30    5.73
   3  -8  15   22.90    4.29
   3  -8  15   32.18    4.64
  -4   8 -15   61.56    7.64
   5   7 -15   39.10    7.20
   5   7 -15   28.41    6.24
   4   7 -15    7.61    4.55
   4   7 -15    5.63    4.08
  -4  -7  15   11.64    4.94
  -3  -7  15   -0.03    3.49
  -3  -7  15   -3.23    2.86
   3   7 -15   -1.39    3.64
  -2  -7  15   71.15    7.61
  -2  -7  15   73.79    7.33
   2   7 -15   65.86    7.17
  -2  -7  15   70.23    7.00
  -1  -7  15   23.02    4.41
  -1  -7  15   14.77    4.41
  -1  -7  15   28.17    5.00
   1   7 -15   14.70    4.28
   0  -7  15    7.66    3.37
   0  -7  15   17.69    4.37
   0  -7  15   18.03    4.45
   1  -7  15    4.20    2.88
   1  -7  15    0.26    2.88
   1  -7  15    3.20    3.09
   2  -7  15    3.72    2.98
  -2   7 -15    0.13    2.71
   2  -7  15    1.52    2.69
   2  -7  15    2.52    2.98
   3  -7  15  117.84    8.13
   3  -7  15  102.19    7.28
  -3   7 -15  103.96    8.74
   3  -7  15  112.97    7.70
   4  -7  15    9.15    3.21
   5   6 -15    6.03    4.50
   5   6 -15    3.30    4.03
   4   6 -15  130.86    9.82
  -4  -6  15  125.91   10.04
   4   6 -15  121.64   10.37
   3   6 -15   -0.38    3.61
  -3  -6  15   -2.52    3.48
  -3  -6  15    1.89    3.10
  -2  -6  15    4.54    3.37
  -2  -6  15   -2.07    2.50
  -2  -6  15   -2.12    2.69
   2   6 -15    4.32    3.73
  -1  -6  15   32.32    5.16
   1   6 -15   33.61    5.21
  -1  -6  15   38.80    5.10
  -1  -6  15   47.44    5.81
   0  -6  15    5.35    2.80
   0  -6  15    3.29    3.25
   0  -6  15    7.21    3.36
   1  -6  15   21.51    4.29
   1  -6  15   14.37    3.61
   1  -6  15   10.83    3.75
   2  -6  15   19.16    3.98
   2  -6  15   13.12    3.55
  -2   6 -15   10.52    3.47
   2  -6  15   15.76    3.74
   3  -6  15    1.12    2.73
   3  -6  15    1.45    2.66
   3  -6  15    7.11    3.02
   4  -6  15   37.80    4.35
   5   5 -15   98.88    9.13
   4   5 -15    2.28    3.85
   4   5 -15   -2.51    3.31
  -4  -5  15    0.13    3.55
   3   5 -15  117.52    8.60
   3   5 -15  101.28    8.88
  -3  -5  15  124.56    8.65
  -3  -5  15  123.42    9.32
  -2  -5  15   19.28    4.09
  -2  -5  15   18.64    4.49
  -2  -5  15   24.33    4.63
   2   5 -15   15.88    4.26
   1   5 -15   76.44    6.71
  -1  -5  15   68.26    6.64
  -1  -5  15   62.73    6.41
  -1  -5  15   67.85    6.16
   0  -5  15   48.45    5.54
   0  -5  15   41.91    5.04
   0  -5  15   39.83    5.33
   1  -5  15   69.76    6.35
   1  -5  15   71.47    6.39
   1  -5  15   69.61    5.95
   2  -5  15    3.69    2.78
   2  -5  15    7.54    3.06
   2  -5  15    7.15    3.26
   3  -5  15   13.68    3.60
   3  -5  15    9.05    3.08
   3  -5  15   13.65    3.53
   4  -5  15   22.60    3.74
   6   4 -15    5.80    4.61
   5   4 -15    2.65    3.93
   5   4 -15    1.97    4.18
   4   4 -15  247.38   14.05
  -4  -4  15  267.56   14.67
   4   4 -15  240.11   14.44
  -3  -4  15   24.61    5.19
   3   4 -15   36.56    5.25
   3   4 -15   41.13    6.01
  -3  -4  15   37.27    5.14
   2   4 -15  162.48   10.25
  -2  -4  15  149.86   10.15
  -2  -4  15  141.04    9.21
  -2  -4  15  152.54    9.95
  -1  -4  15   61.97    6.36
  -1  -4  15   57.79    5.77
   1   4 -15   61.53    6.25
  -1  -4  15   63.10    6.29
   0  -4  15  216.30   11.05
   0  -4  15  199.34   11.49
   0  -4  15  188.27   11.01
   1  -4  15  159.42    9.75
   1  -4  15  159.62    9.53
   1  -4  15  153.25    9.07
   2  -4  15   35.15    4.51
   2  -4  15   47.35    5.13
   2  -4  15   36.99    4.76
   3  -4  15  181.68    9.80
   3  -4  15  175.58   10.20
   3  -4  15  178.90    9.68
   4  -4  15   15.52    3.28
   6   3 -15   28.15    6.52
   5   3 -15    2.96    3.82
   5   3 -15    1.90    3.82
  -4  -3  15   46.26    6.25
   4   3 -15   37.42    5.91
   4   3 -15   47.98    6.71
  -3  -3  15   19.69    4.80
   3   3 -15   17.92    4.74
  -3  -3  15   16.40    3.95
   3   3 -15   19.78    4.38
   2   3 -15   41.12    5.54
  -2  -3  15   43.35    5.22
  -2  -3  15   34.60    5.55
  -2  -3  15   40.70    5.42
  -1  -3  15  114.75    8.17
  -1  -3  15  112.95    7.83
   1   3 -15  108.28    8.06
  -1  -3  15  107.94    8.34
   0  -3  15    4.98    2.87
   0  -3  15    5.10    3.31
   0  -3  15    1.47    2.49
   1  -3  15   12.78    3.68
   1  -3  15    8.66    3.05
   1  -3  15   13.18    3.57
   2  -3  15   -2.71    2.11
   2  -3  15    0.07    2.76
   2  -3  15    2.68    2.66
   3  -3  15   10.32    3.43
   3  -3  15    6.30    3.06
   3  -3  15    5.87    2.98
   4  -3  15  186.70    9.91
   6   2 -15   -3.19    4.07
   5   2 -15   27.01    6.02
   5   2 -15   27.50    5.89
   4   2 -15   72.82    7.55
  -4  -2  15   80.45    7.80
   4   2 -15   55.31    7.15
  -3  -2  15  312.73   14.89
   3   2 -15  294.52   14.99
  -3  -2  15  280.02   15.09
   3   2 -15  293.60   15.54
  -2  -2  15   12.50    3.79
   2   2 -15    3.87    3.44
  -2  -2  15    7.80    3.76
  -2  -2  15    4.89    2.90
  -1  -2  15   -0.06    2.15
  -1  -2  15    2.68    2.99
   1   2 -15    3.01    2.91
  -1  -2  15    1.30    2.56
   0  -2  15    8.99    3.06
   0  -2  15    9.64    3.17
   0  -2  15   13.01    3.74
   1  -2  15   20.74    4.08
   1  -2  15   20.15    3.74
   1  -2  15   19.08    3.87
   2  -2  15   80.72    6.74
   2  -2  15   88.95    6.75
   2  -2  15   81.70    6.50
   3  -2  15    5.24    3.00
   3  -2  15    3.73    3.07
   3  -2  15    4.77    3.01
   4  -2  15   -1.57    2.61
   6   1 -15    0.14    4.28
   5   1 -15   15.11    5.06
   5   1 -15   22.87    5.69
   4   1 -15   61.95    7.45
   4   1 -15   49.95    6.36
  -4  -1  15   63.14    7.20
  -3  -1  15   15.67    3.98
  -3  -1  15   18.48    4.96
   3   1 -15   21.12    5.01
   3   1 -15   17.28    4.26
  -2  -1  15    5.79    3.58
  -2  -1  15    3.58    2.89
  -2  -1  15    5.74    3.13
   2   1 -15   10.53    3.71
   1   1 -15   11.65    3.72
  -1  -1  15   13.61    3.45
  -1  -1  15    7.65    3.58
  -1  -1  15   17.44    3.92
   0  -1  15    4.72    2.75
   0  -1  15    0.30    2.32
   0  -1  15   -0.14    2.70
   1  -1  15  182.82   10.43
   1  -1  15  163.97    9.82
   1  -1  15  179.94   10.53
   2  -1  15   56.26    5.77
   2  -1  15   53.81    5.57
   2  -1  15   53.65    5.74
   3  -1  15   85.46    6.99
   3  -1  15   75.79    6.50
   3  -1  15   93.09    6.78
   6   0 -15    9.40    5.11
   5   0 -15    6.13    4.19
   5   0 -15    5.21    3.88
   4   0 -15   32.62    5.76
  -4   0  15   23.36    5.17
   4   0 -15   31.75    6.11
  -3   0  15  229.36   13.46
   3   0 -15  227.72   13.71
  -3   0  15  238.72   12.64
   3   0 -15  249.97   13.36
  -2   0  15   -4.61    2.74
   2   0 -15    1.18    3.03
  -2   0  15    4.52    2.91
  -2   0  15   -0.34    2.46
  -1   0  15   74.99    6.41
  -1   0  15   63.18    6.79
   1   0 -15   63.80    6.39
  -1   0  15   61.74    6.23
   0   0  15   14.89    4.05
   0   0  15   17.89    3.82
   0   0  15   17.37    4.07
   1   0  15   17.55    4.14
   1   0  15   24.09    4.61
   1   0  15   22.75    4.29
   2   0  15   83.90    7.10
   2   0  15   93.75    7.46
   2   0  15   91.47    7.16
   3   0  15    0.96    2.86
   3   0  15    0.13    2.90
   5  -1 -15   10.19    4.54
   5  -1 -15    5.61    4.46
   4  -1 -15   39.15    6.55
  -4   1  15   29.86    5.51
   4  -1 -15   29.35    5.65
  -3   1  15   39.29    6.05
   3  -1 -15   31.78    5.90
   3  -1 -15   39.13    5.71
  -2   1  15   -0.09    2.75
  -2   1  15    0.42    2.71
   2  -1 -15   -2.11    2.97
  -2   1  15   -3.73    2.80
   1  -1 -15  113.04    8.39
  -1   1  15  115.77    8.58
  -1   1  15  105.64    8.40
  -1   1  15  102.09    7.71
   0   1  15   36.61    5.62
   0   1  15   35.75    5.10
   0   1  15   30.85    5.02
   1   1  15    2.69    3.36
   1   1  15    1.76    2.84
   1   1  15   -0.69    2.64
   2   1  15   19.80    4.43
   2   1  15   23.30    4.49
   2   1  15   18.85    4.19
   3   1  15    0.34    2.83
   3   1  15    5.13    3.23
   5  -2 -15    0.37    3.67
   5  -2 -15   -1.87    3.80
   4  -2 -15    4.35    3.92
   4  -2 -15   -3.24    3.34
  -4   2  15    0.28    3.37
   3  -2 -15  176.10   12.12
  -3   2  15  208.46   12.56
   2  -2 -15  162.99   10.73
  -2   2  15  138.69   10.17
  -2   2  15  126.91    8.97
  -1   2  15   -1.88    3.09
   1  -2 -15    0.50    3.26
  -1   2  15   -1.44    2.77
  -1   2  15    1.80    2.91
   0   2  15   16.93    4.69
   0   2  15   16.49    4.39
   0   2  15   19.16    4.31
   1   2  15   -2.16    2.72
   1   2  15    4.58    3.44
   1   2  15   -0.83    2.81
   2   2  15    1.53    3.45
   2   2  15    2.02    2.95
   2   2  15   -1.63    2.75
   3   2  15    7.79    4.02
   5  -3 -15   57.36    8.06
   5  -3 -15   39.47    6.85
   4  -3 -15   24.37    5.53
  -4   3  15   32.60    5.98
   4  -3 -15   33.65    6.51
  -3   3  15  188.51   12.27
   3  -3 -15  174.10   12.33
   2  -3 -15   46.72    6.55
  -2   3  15   62.27    7.31
  -2   3  15   51.93    6.18
   1  -3 -15   17.51    4.75
  -1   3  15   12.48    3.97
  -1   3  15   12.54    4.10
   1  -3 -15   12.99    4.67
  -1   3  15   14.48    4.52
   0   3  15   33.88    5.52
   0   3  15   30.84    5.77
   0   3  15   38.95    5.45
   1   3  15   -0.09    3.00
   1   3  15   -2.53    2.74
   1   3  15    2.95    3.46
   2   3  15   34.99    5.88
   2   3  15   41.27    5.85
   3   3  15    1.86    3.84
  -4   4  15   -4.26    3.63
   4  -4 -15    6.75    4.79
   3  -4 -15   19.59    5.44
  -3   4  15   18.61    5.40
  -2   4  15  119.21    8.96
   2  -4 -15  113.90    9.90
  -2   4  15  122.42   10.05
  -1   4  15   26.88    5.09
   1  -4 -15   21.22    5.25
   1  -4 -15   24.90    5.98
  -1   4  15   17.77    4.84
   0   4  15   14.22    4.44
   0   4  15   12.95    4.89
   0   4  15   11.07    4.11
   1   4  15   22.37    5.24
   1   4  15   26.41    5.76
   1   4  15   24.88    5.32
   2   4  15   13.62    4.64
   4  -5 -15    9.77    4.80
  -4   5  15   -0.09    4.07
   3  -5 -15   66.22    8.43
  -3   5  15   66.47    8.31
  -2   5  15   14.45    5.29
   2  -5 -15   19.97    5.41
  -1   5  15   -0.12    3.15
  -1   5  15   -0.12    3.76
   1  -5 -15    6.26    4.38
   0   5  15   20.90    5.45
   0   5  15   17.48    4.91
   0   5  15   22.20    5.48
   1   5  15    9.23    4.58
   2   5  15    2.86    4.25
  -3   6  15    1.28    4.10
   3  -6 -15   -0.77    4.47
  -2   6  15   38.26    6.81
   2  -6 -15   28.40    6.60
  -1   6  15    4.74    4.16
  -1   6  15   11.92    5.10
   0   6  15    2.60    3.95
   2  -7 -15   46.18    7.80
  -1 -12  16   33.01    6.87
   0 -12  16    7.31    4.69
   1 -12  16   25.97    6.02
   2 -12  16    4.11    4.23
  -3 -11  16   12.94    5.98
   3  11 -16   15.63    6.15
  -2 -11  16  157.55   12.25
  -1 -11  16    2.19    4.05
  -1 -11  16   -1.11    3.56
   0 -11  16  150.20   11.07
   1 -11  16   13.79    4.92
   2 -11  16   64.74    7.35
   3 -11  16    2.47    3.76
  -4 -10  16    2.37    4.94
  -3 -10  16    5.74    5.05
   3  10 -16    5.99    4.79
   2  10 -16    3.32    4.51
  -2 -10  16   10.02    5.05
  -2 -10  16   12.07    4.63
  -1 -10  16   15.19    5.16
  -1 -10  16    7.16    4.21
  -1 -10  16    4.22    4.08
   0 -10  16   12.44    4.83
   0 -10  16   10.87    4.36
   0 -10  16    3.98    3.85
   1 -10  16  135.77    9.68
   1 -10  16  119.03    9.60
   2 -10  16    4.69    3.68
   3 -10  16   11.85    4.21
  -4  -9  16   -3.08    3.88
   4   9 -16   -1.08    4.39
  -3  -9  16   23.86    6.32
   3   9 -16   16.70    5.68
  -2  -9  16   14.06    5.21
  -2  -9  16   11.59    4.49
   2   9 -16   12.27    4.86
  -1  -9  16   19.16    4.92
  -1  -9  16   18.91    5.22
  -1  -9  16   21.48    5.32
   0  -9  16   51.90    6.87
   0  -9  16   41.03    5.95
   0  -9  16   40.23    6.26
   1  -9  16   14.30    4.67
   1  -9  16   19.17    4.87
   1  -9  16    9.62    3.93
   2  -9  16   49.40    6.26
   2  -9  16   49.05    5.96
   3  -9  16   29.26    4.97
  -3   9 -16   17.85    5.17
   4   8 -16   20.87    6.18
  -4  -8  16   13.10    5.67
  -3  -8  16   30.45    6.47
   3   8 -16   18.80    5.74
  -2  -8  16  238.60   13.85
   2   8 -16  243.90   14.13
  -2  -8  16  235.73   14.43
  -1  -8  16   32.83    5.80
  -1  -8  16   49.79    6.67
  -1  -8  16   34.00    5.40
   0  -8  16   93.78    8.37
   0  -8  16  102.53    8.40
   0  -8  16  115.60    9.10
   1  -8  16    3.11    3.26
   1  -8  16    0.36    3.16
   1  -8  16    0.44    3.14
   2  -8  16   23.63    4.46
   2  -8  16   21.50    4.65
   2  -8  16   20.09    4.63
  -3   8 -16   11.91    4.45
   3  -8  16    7.00    3.38
   3  -8  16   19.23    4.23
   5   7 -16    7.08    5.12
   4   7 -16    4.36    4.47
  -4  -7  16   -5.35    3.71
  -3  -7  16   41.47    6.61
   3   7 -16   29.01    5.98
  -2  -7  16   34.33    6.13
  -2  -7  16   41.67    5.91
   2   7 -16   25.09    5.51
  -1  -7  16   95.19    8.45
   1   7 -16   87.12    7.74
  -1  -7  16   88.83    8.30
  -1  -7  16   86.14    7.64
   0  -7  16    5.79    3.37
   0  -7  16    1.33    2.95
   0  -7  16    0.83    2.73
   1  -7  16  198.67   11.54
   1  -7  16  205.59   12.16
   1  -7  16  182.30   11.04
   2  -7  16    6.04    3.36
   2  -7  16    6.71    3.34
   2  -7  16    8.13    3.70
   3  -7  16   50.72    5.51
   3  -7  16   57.31    5.83
   5   6 -16    0.87    4.45
   5   6 -16    3.02    4.38
  -4  -6  16   17.71    5.38
   4   6 -16   17.01    5.55
   3   6 -16   -1.84    3.88
  -3  -6  16   -2.48    3.00
  -3  -6  16   -2.62    3.27
   2   6 -16   33.84    5.68
  -2  -6  16   16.85    4.98
  -2  -6  16   33.37    5.51
  -2  -6  16   18.34    4.58
  -1  -6  16   26.84    5.21
  -1  -6  16   27.48    4.79
  -1  -6  16   35.22    5.53
   1   6 -16   34.16    5.37
   0  -6  16    9.45    3.85
   0  -6  16    7.01    3.45
   0  -6  16    8.79    3.51
   1  -6  16   27.96    4.96
   1  -6  16   26.88    4.56
   1  -6  16   31.17    5.08
   2  -6  16  110.75    8.20
   2  -6  16  134.07    9.04
   2  -6  16  116.40    8.17
   3  -6  16    2.62    2.94
   3  -6  16    2.61    3.16
   5   5 -16    3.62    4.32
   5   5 -16   11.99    5.05
   4   5 -16   18.72    5.45
   4   5 -16   18.05    5.06
  -4  -5  16   12.24    4.78
  -3  -5  16   25.34    5.76
   3   5 -16   23.23    5.34
  -3  -5  16   36.10    5.49
  -2  -5  16   82.27    7.63
  -2  -5  16   62.14    7.06
   2   5 -16   68.75    7.30
  -2  -5  16   71.92    6.99
   1   5 -16    9.99    3.66
  -1  -5  16   10.22    3.56
  -1  -5  16   16.11    4.20
  -1  -5  16   13.77    4.24
   0  -5  16  133.44    9.04
   0  -5  16  153.51    9.96
   0  -5  16  145.36    9.75
   1  -5  16    7.69    3.56
   1  -5  16   10.67    3.73
   1  -5  16   11.16    3.65
   2  -5  16   27.40    4.57
   2  -5  16   35.84    4.97
   2  -5  16   30.88    4.68
   3  -5  16   56.90    5.87
   3  -5  16   61.87    5.92
   5   4 -16   -1.84    3.39
   5   4 -16    3.83    4.40
   4   4 -16   27.25    5.52
   4   4 -16   36.21    6.52
  -4  -4  16   17.86    5.32
   3   4 -16   -0.72    3.36
  -3  -4  16    2.12    3.76
  -3  -4  16   -0.27    2.75
   2   4 -16   86.92    7.85
  -2  -4  16   71.86    6.70
  -2  -4  16   67.16    7.16
  -2  -4  16   75.80    7.66
  -1  -4  16  209.72   12.04
  -1  -4  16  216.00   12.72
   1   4 -16  225.28   12.42
  -1  -4  16  234.78   12.93
   0  -4  16    2.81    3.40
   0  -4  16    0.58    2.66
   0  -4  16   -0.40    2.52
   1  -4  16  153.82    9.68
   1  -4  16  148.43    9.16
   1  -4  16  142.18    9.64
   2  -4  16   11.30    3.62
   2  -4  16   15.71    3.98
   2  -4  16   13.09    3.60
   3  -4  16   -1.13    3.00
   3  -4  16    1.52    2.76
   5   3 -16    8.60    4.92
   5   3 -16    7.78    4.50
  -4  -3  16    0.57    3.59
   4   3 -16    2.34    3.36
   4   3 -16    4.29    4.10
   3   3 -16   -0.32    3.21
  -3  -3  16    4.00    3.21
  -3  -3  16    3.23    3.58
  -2  -3  16    1.86    3.41
  -2  -3  16    7.00    3.57
   2   3 -16   -0.73    3.02
  -2  -3  16    6.35    3.30
  -1  -3  16   41.37    5.99
  -1  -3  16   39.11    5.26
   1   3 -16   47.04    5.74
  -1  -3  16   30.32    5.00
   0  -3  16   91.46    7.59
   0  -3  16   86.41    7.49
   0  -3  16   88.28    7.20
   1  -3  16   44.04    5.24
   1  -3  16   36.44    5.30
   1  -3  16   32.81    4.97
   2  -3  16   87.96    7.24
   2  -3  16   93.03    7.40
   2  -3  16  102.14    7.31
   3  -3  16   12.96    3.59
   3  -3  16   30.18    4.37
   5   2 -16   18.92    5.80
   5   2 -16   18.16    5.31
  -4  -2  16    0.88    3.67
   4   2 -16   -2.28    3.42
   4   2 -16    1.87    3.87
   3   2 -16    4.95    3.82
  -3  -2  16    9.74    3.77
  -3  -2  16   14.29    4.75
  -2  -2  16   -2.96    2.90
  -2  -2  16    1.15    2.88
  -2  -2  16    6.36    3.38
   2   2 -16    3.25    3.59
  -1  -2  16   36.46    5.18
   1   2 -16   38.15    5.40
  -1  -2  16   46.26    5.84
  -1  -2  16   27.50    5.23
   0  -2  16    0.10    3.01
   0  -2  16    1.80    2.71
   0  -2  16    3.51    2.87
   1  -2  16   -0.78    2.56
   1  -2  16   -0.21    2.88
   1  -2  16    0.02    2.82
   2  -2  16  154.50    9.50
   2  -2  16  150.51    9.61
   2  -2  16  162.21    9.97
   3  -2  16   61.17    5.82
   3  -2  16   44.79    5.39
   5   1 -16   60.43    7.79
   5   1 -16   66.96    8.50
   4   1 -16   14.93    4.85
  -4  -1  16   11.66    4.40
   4   1 -16   11.49    4.41
   3   1 -16   13.05    4.64
  -3  -1  16   17.88    5.04
  -3  -1  16   12.29    4.11
   2   1 -16   40.99    6.02
  -2  -1  16   55.28    5.87
  -2  -1  16   42.28    6.12
  -2  -1  16   39.98    5.66
  -1  -1  16    7.56    3.53
  -1  -1  16   13.66    4.28
  -1  -1  16   10.67    3.75
   1   1 -16   17.45    4.36
   0  -1  16   42.69    5.41
   0  -1  16   40.15    5.55
   0  -1  16   33.67    5.32
   1  -1  16   97.05    7.93
   1  -1  16   99.35    7.42
   1  -1  16  100.65    7.98
   2  -1  16    8.13    3.44
   2  -1  16    0.26    2.92
   2  -1  16    2.13    3.14
   3  -1  16    4.72    3.34
   3  -1  16    0.99    3.14
   5   0 -16    9.84    4.93
   5   0 -16    2.61    4.67
   4   0 -16   21.95    5.60
  -4   0  16   38.14    6.17
   4   0 -16   23.67    5.50
  -3   0  16   11.39    4.59
   3   0 -16    6.98    4.32
   2   0 -16    3.54    3.81
  -2   0  16   10.44    4.35
  -2   0  16    9.10    3.58
   1   0 -16   44.00    6.00
  -1   0  16   50.02    6.32
  -1   0  16   61.88    6.46
  -1   0  16   32.09    5.08
   0   0  16   67.44    6.78
   0   0  16   61.01    6.42
   0   0  16   68.38    6.89
   1   0  16   13.77    4.06
   1   0  16   13.15    3.94
   1   0  16   16.48    4.45
   2   0  16   10.76    3.87
   2   0  16    7.87    3.77
   2   0  16    9.34    3.78
   3   0  16   40.98    5.50
   5  -1 -16   32.21    6.54
   5  -1 -16   35.14    6.95
  -4   1  16    6.85    4.43
   4  -1 -16    9.11    4.36
   4  -1 -16    4.91    4.31
   3  -1 -16    3.45    3.96
  -3   1  16   -0.63    3.53
  -2   1  16    9.79    3.79
   2  -1 -16    5.27    4.21
  -2   1  16   14.15    4.52
  -1   1  16    4.96    3.38
  -1   1  16    6.85    3.77
   1  -1 -16    8.86    3.90
  -1   1  16    9.35    3.74
   0   1  16   79.13    7.62
   0   1  16   84.65    7.93
   0   1  16   74.64    7.06
   1   1  16  128.97    9.56
   1   1  16  133.66    9.30
   1   1  16  130.44    9.41
   2   1  16   28.84    5.00
   2   1  16   24.37    5.08
   3   1  16   35.18    5.52
   5  -2 -16   15.57    5.54
   4  -2 -16   -3.07    3.57
  -4   2  16    1.47    3.72
  -3   2  16    7.84    4.65
   3  -2 -16   10.17    4.62
  -2   2  16    5.56    4.08
  -2   2  16    2.11    3.31
   2  -2 -16    3.18    3.92
   1  -2 -16   -5.19    3.12
  -1   2  16    3.27    3.91
  -1   2  16    1.85    3.13
  -1   2  16    6.67    3.44
   0   2  16   65.26    7.54
   0   2  16   71.06    7.41
   0   2  16   74.53    7.29
   1   2  16   -4.67    2.69
   1   2  16    0.01    3.40
   1   2  16   -0.27    3.10
   2   2  16   21.63    5.11
   3   2  16   47.51    6.26
   4  -3 -16  102.38   10.05
  -4   3  16  108.01    9.96
   3  -3 -16   31.09    6.49
  -3   3  16   25.56    6.20
  -2   3  16    8.76    4.51
  -2   3  16    5.48    3.92
   2  -3 -16    2.77    4.00
  -1   3  16    3.76    3.56
  -1   3  16    6.76    3.88
  -1   3  16    4.63    4.26
   0   3  16    3.51    3.99
   0   3  16    6.82    3.94
   0   3  16    1.64    3.53
   1   3  16   81.32    7.82
   1   3  16   71.47    7.80
   2   3  16    3.90    4.00
  -4   4  16    6.95    4.82
   4  -4 -16    4.66    4.82
  -3   4  16    2.77    4.30
   3  -4 -16    5.99    4.61
   2  -4 -16   -2.26    3.69
  -2   4  16    2.64    4.06
  -1   4  16    2.92    3.47
  -1   4  16    2.04    3.90
   0   4  16   80.44    8.26
   0   4  16   60.59    7.13
   0   4  16   64.09    7.87
   1   4  16   53.66    7.26
  -4   5  16   39.84    7.45
  -3   5  16   30.75    6.78
   3  -5 -16   31.92    6.95
   2  -5 -16    5.78    4.23
  -2   5  16   10.29    5.02
  -1   5  16   -5.49    3.00
  -1   5  16   -8.40    3.43
   0   5  16    0.15    4.25
   2  -6 -16   10.12    5.57
  -2 -11  17   -2.48    4.41
  -1 -11  17    3.00    4.58
   0 -11  17   10.09    4.76
   1 -11  17   45.29    6.88
   2 -11  17   -2.19    3.57
   3  10 -17   19.93    6.13
  -3 -10  17   27.64    6.63
  -2 -10  17   -1.98    4.15
  -2 -10  17    4.87    4.41
  -1 -10  17   -1.19    3.69
  -1 -10  17   -0.30    3.72
   0 -10  17   -0.98    3.82
   0 -10  17    3.09    3.80
   1 -10  17    7.28    4.24
   2 -10  17   57.93    6.98
   3 -10  17   10.93    4.35
  -4  -9  17   15.04    6.14
  -3  -9  17   25.60    6.75
   3   9 -17   12.82    5.22
  -2  -9  17   -2.33    4.05
  -2  -9  17   -0.13    3.42
   2   9 -17    6.41    4.19
  -1  -9  17  149.12   11.61
  -1  -9  17  158.01   10.90
  -1  -9  17  144.84   11.33
   0  -9  17   34.30    5.77
   0  -9  17   26.97    5.54
   0  -9  17   26.11    5.83
   1  -9  17    1.54    3.77
   1  -9  17    2.31    3.23
   2  -9  17    0.62    3.39
   3  -9  17    0.77    3.52
  -4  -8  17    1.95    4.66
   4   8 -17    7.20    5.06
  -3  -8  17   44.19    7.31
   3   8 -17   37.20    6.91
  -2  -8  17    2.31    3.94
   2   8 -17    6.23    4.22
  -2  -8  17    6.27    3.98
  -1  -8  17   22.66    5.55
  -1  -8  17   24.26    5.62
  -1  -8  17   15.41    4.48
   0  -8  17   49.85    6.29
   0  -8  17   42.32    6.49
   0  -8  17   61.18    7.19
   1  -8  17    0.21    3.46
   1  -8  17   -1.20    3.00
   1  -8  17    3.19    3.53
   2  -8  17    3.41    3.28
   2  -8  17    3.73    3.65
   3  -8  17   -1.05    3.41
   4   7 -17   91.02    9.77
  -4  -7  17  104.31    9.98
   3   7 -17   29.72    6.20
  -3  -7  17   33.96    6.67
  -2  -7  17   25.71    5.94
  -2  -7  17   26.86    5.30
   2   7 -17   26.70    5.85
  -1  -7  17   -3.10    2.93
  -1  -7  17   -0.73    2.87
  -1  -7  17   -0.66    3.51
   0  -7  17    0.38    2.97
   0  -7  17    8.86    4.10
   0  -7  17    3.89    3.42
   1  -7  17   11.79    4.31
   1  -7  17   14.78    4.32
   1  -7  17   16.99    4.57
   2  -7  17   43.84    5.56
   2  -7  17   36.38    5.45
   3  -7  17    0.07    3.12
   4   6 -17    5.95    4.87
  -4  -6  17   11.17    5.39
  -3  -6  17  181.75   12.36
   3   6 -17  172.46   12.35
  -2  -6  17   33.68    6.10
   2   6 -17   42.02    6.38
  -2  -6  17   30.02    5.51
  -1  -6  17  118.20    9.52
  -1  -6  17  105.04    8.46
  -1  -6  17  102.56    9.11
   0  -6  17   20.33    4.48
   0  -6  17   27.61    5.33
   0  -6  17   12.39    4.46
   1  -6  17    3.07    3.24
   1  -6  17   -1.79    3.13
   1  -6  17    2.66    3.02
   2  -6  17   27.86    4.81
   2  -6  17   29.96    4.90
   3  -6  17   27.50    4.81
   5   5 -17    2.06    4.39
   4   5 -17   -1.48    3.61
  -4  -5  17    0.55    3.82
   3   5 -17  133.46   10.38
  -3  -5  17  146.99   10.92
   2   5 -17   -7.03    2.92
  -2  -5  17    0.78    3.64
  -2  -5  17   -4.26    2.70
  -1  -5  17    2.71    3.18
  -1  -5  17    0.69    3.30
  -1  -5  17    1.12    3.25
   0  -5  17  148.83   10.19
   0  -5  17  145.23    9.83
   0  -5  17  135.85    9.69
   1  -5  17   53.51    6.27
   1  -5  17   68.88    6.94
   1  -5  17   56.07    6.20
   2  -5  17   10.37    3.65
   2  -5  17   14.04    4.01
   2  -5  17    9.30    3.93
   3  -5  17    9.99    3.82
   5   4 -17   34.20    7.07
  -4  -4  17   19.14    5.41
   4   4 -17   26.87    6.22
   3   4 -17   -1.56    3.43
  -3  -4  17   -2.16    3.65
   2   4 -17  132.04    9.66
  -2  -4  17  133.21    9.18
  -2  -4  17  110.24    9.20
  -2  -4  17  121.65    9.67
  -1  -4  17    7.05    3.38
  -1  -4  17    3.77    3.53
  -1  -4  17    0.35    3.26
   0  -4  17   -3.40    2.67
   0  -4  17    0.61    3.04
   0  -4  17    1.87    3.51
   1  -4  17   32.72    5.22
   1  -4  17   25.10    4.61
   1  -4  17   20.65    4.75
   2  -4  17   -0.36    3.01
   2  -4  17    0.74    3.13
   2  -4  17    5.16    3.19
   3  -4  17    3.18    3.23
   5   3 -17    8.68    5.15
  -4  -3  17   10.34    4.69
   4   3 -17    0.35    3.93
   3   3 -17  179.64   12.41
  -3  -3  17  203.58   12.73
  -2  -3  17   90.96    8.01
   2   3 -17   88.13    8.15
  -2  -3  17   96.83    8.66
  -2  -3  17   83.52    8.30
  -1  -3  17    6.81    3.74
  -1  -3  17    7.39    3.46
  -1  -3  17   12.59    3.93
   1   3 -17    9.18    3.94
   0  -3  17   20.96    4.54
   0  -3  17   13.73    4.24
   0  -3  17   20.71    4.37
   1  -3  17   10.82    3.73
   1  -3  17   10.60    3.98
   1  -3  17    4.97    3.47
   2  -3  17   42.56    5.44
   2  -3  17   44.42    5.70
   3  -3  17   72.38    6.61
   5   2 -17   19.44    5.97
   4   2 -17   -0.10    3.63
  -4  -2  17    0.48    3.71
  -3  -2  17    0.58    3.92
   3   2 -17   -3.70    3.45
  -2  -2  17  187.89   11.90
   2   2 -17  163.66   11.29
  -2  -2  17  161.19   10.87
   1   2 -17    0.13    3.01
  -1  -2  17    2.34    3.12
  -1  -2  17   -0.77    2.85
  -1  -2  17    6.28    4.11
   0  -2  17   69.44    6.72
   0  -2  17   75.18    7.36
   0  -2  17   71.32    7.20
   1  -2  17   -0.73    3.18
   1  -2  17   -0.41    2.94
   1  -2  17    1.46    2.96
   2  -2  17    2.68    3.39
   2  -2  17    4.07    3.25
   3  -2  17   33.48    5.27
   5   1 -17    2.87    4.66
  -4  -1  17   -4.57    3.46
   4   1 -17   -4.20    3.74
  -3  -1  17   10.58    4.60
   3   1 -17    1.73    3.92
  -2  -1  17   37.14    6.22
  -2  -1  17   31.00    5.19
   2   1 -17   30.80    5.84
  -1  -1  17    9.18    4.36
  -1  -1  17    3.70    3.35
  -1  -1  17    7.73    3.47
   0  -1  17    6.63    3.51
   0  -1  17    5.50    3.45
   0  -1  17    0.73    3.58
   1  -1  17   13.23    4.16
   1  -1  17   12.22    4.06
   1  -1  17   10.99    4.27
   2  -1  17    4.91    3.49
   2  -1  17    4.42    3.43
   3  -1  17   -1.35    3.06
   5   0 -17   31.86    6.92
  -4   0  17    8.08    4.66
   4   0 -17    5.26    4.39
   3   0 -17    9.21    4.46
  -3   0  17   11.82    5.01
  -2   0  17    6.38    3.72
  -2   0  17    5.52    4.45
   2   0 -17    1.29    3.66
  -1   0  17    1.92    3.29
  -1   0  17    3.52    4.00
  -1   0  17    0.59    3.32
   0   0  17    1.72    3.24
   0   0  17    4.87    3.67
   0   0  17    4.92    3.83
   1   0  17    7.54    4.23
   1   0  17   15.20    4.45
   1   0  17   24.32    5.09
   2   0  17   17.50    4.68
   3   0  17   -2.43    3.27
   4  -1 -17    4.29    4.40
  -4   1  17   11.40    5.26
   3  -1 -17    6.45    4.54
  -3   1  17    2.11    4.31
  -2   1  17  148.36   11.29
   2  -1 -17  178.74   11.66
  -2   1  17  142.64   10.16
  -1   1  17   13.44    4.20
  -1   1  17   13.34    4.50
  -1   1  17    8.05    4.33
   0   1  17    8.36    4.20
   0   1  17    7.47    4.09
   0   1  17   10.00    3.91
   1   1  17    1.36    3.90
   1   1  17    0.86    3.42
   2   1  17   -0.39    3.68
   3   1  17   15.34    4.81
  -4   2  17   21.16    6.17
   4  -2 -17   24.55    6.12
   3  -2 -17    0.25    4.06
  -3   2  17    0.25    3.99
  -2   2  17   -4.35    3.30
  -2   2  17    1.36    3.20
   2  -2 -17   -0.06    3.92
  -1   2  17  118.82   10.26
  -1   2  17  148.94   10.29
  -1   2  17  129.11   10.26
   0   2  17    0.13    3.33
   0   2  17    1.05    3.52
   0   2  17   -1.88    3.78
   1   2  17   34.38    6.14
   2   2  17    5.34    4.12
   4  -3 -17    0.48    4.66
  -4   3  17    3.05    4.15
  -3   3  17    3.35    4.29
   3  -3 -17    2.28    4.32
  -2   3  17   34.40    6.61
   2  -3 -17   28.38    6.26
  -1   3  17    2.17    4.20
  -1   3  17    8.25    4.10
   0   3  17   14.86    5.20
   1   3  17   -6.19    3.48
  -4   4  17   42.32    7.64
  -3   4  17   -0.94    4.44
   3  -4 -17   -1.25    3.94
   2  -4 -17   26.10    6.23
  -2   4  17   27.54    6.74
  -1   4  17    6.48    4.26
   0   4  17   13.62    5.16
   3  10 -18    2.74    5.04
  -2 -10  18   -0.14    4.20
  -1 -10  18   89.82    9.64
   0 -10  18   35.65    6.69
   1 -10  18   55.73    7.50
   2 -10  18   -1.37    3.68
  -3  -9  18   19.37    6.16
   3   9 -18   16.72    5.68
  -2  -9  18   13.17    5.28
  -2  -9  18   18.14    5.26
  -1  -9  18    3.32    3.98
  -1  -9  18   14.28    5.03
  -1  -9  18   -1.26    3.54
   0  -9  18   49.81    7.20
   1  -9  18    6.31    4.19
   2  -9  18   18.31    5.10
  -4  -8  18   -0.44    4.79
   3   8 -18   21.79    6.29
  -3  -8  18   26.48    6.65
  -2  -8  18    5.30    4.01
  -2  -8  18    7.78    4.74
  -1  -8  18   54.25    7.43
  -1  -8  18   42.83    7.03
  -1  -8  18   35.75    6.06
   0  -8  18   22.37    5.13
   0  -8  18   20.27    5.11
   1  -8  18   41.18    6.25
   2  -8  18    0.89    3.61
   4   7 -18    2.11    4.48
  -4  -7  18   -1.64    4.65
   3   7 -18   14.60    5.40
  -3  -7  18   13.70    5.30
  -2  -7  18   53.50    7.60
  -2  -7  18   75.36    7.82
   2   7 -18   74.12    8.21
  -1  -7  18   17.26    5.04
  -1  -7  18   16.71    4.73
  -1  -7  18   23.54    5.60
   0  -7  18    6.34    3.92
   0  -7  18    1.34    3.43
   0  -7  18    0.13    3.43
   1  -7  18   25.46    5.17
   1  -7  18   22.60    5.16
   2  -7  18   15.51    4.76
  -4  -6  18    6.61    4.88
   4   6 -18   -0.71    4.06
  -3  -6  18    0.41    4.21
   3   6 -18    1.28    4.19
   2   6 -18   -0.15    3.78
  -2  -6  18    2.71    3.80
  -2  -6  18    1.74    3.50
  -1  -6  18    2.13    3.46
  -1  -6  18    2.65    3.70
  -1  -6  18    1.65    3.80
   0  -6  18  178.30   11.69
   0  -6  18  146.35   10.92
   0  -6  18  173.91   11.13
   1  -6  18   24.39    5.03
   1  -6  18   39.12    5.86
   2  -6  18   36.74    5.68
  -4  -5  18    0.98    4.36
   4   5 -18    2.79    4.15
  -3  -5  18   -4.08    3.49
   3   5 -18   -0.67    3.59
   2   5 -18   13.94    4.83
  -2  -5  18   19.50    5.07
  -2  -5  18   14.51    4.48
  -1  -5  18   15.34    4.22
  -1  -5  18    5.85    4.13
  -1  -5  18    3.57    3.63
   0  -5  18    0.35    3.35
   0  -5  18    3.62    3.56
   0  -5  18    4.34    3.58
   1  -5  18  161.89   10.63
   1  -5  18  164.76   10.77
   2  -5  18    4.34    3.63
   4   4 -18   -1.20    3.93
  -4  -4  18   -4.92    3.40
   3   4 -18    1.63    4.03
  -3  -4  18   -4.52    3.32
   2   4 -18   40.19    6.34
  -2  -4  18   63.87    7.74
  -2  -4  18   69.58    7.20
  -1  -4  18    8.65    4.36
  -1  -4  18    4.55    3.63
  -1  -4  18    3.97    3.75
   0  -4  18   45.08    6.00
   0  -4  18   42.14    6.16
   0  -4  18   37.62    6.17
   1  -4  18    9.79    4.19
   1  -4  18   10.75    4.32
   1  -4  18    8.03    3.87
   2  -4  18   53.74    6.30
   3  -4  18    4.54    3.72
  -4  -3  18    9.85    5.08
   4   3 -18   18.44    5.89
  -3  -3  18    1.27    4.05
   3   3 -18    5.31    4.41
  -2  -3  18   40.44    6.73
  -2  -3  18   29.71    5.52
   2   3 -18   31.24    5.94
  -1  -3  18   22.76    4.96
  -1  -3  18   23.30    5.22
  -1  -3  18   14.45    4.78
   0  -3  18   54.97    6.69
   0  -3  18   58.93    6.67
   0  -3  18   46.65    6.58
   1  -3  18    2.36    3.14
   1  -3  18   -1.07    3.40
   2  -3  18   11.57    4.27
   3  -3  18   40.19    5.62
   4   2 -18   77.57    8.96
  -4  -2  18   95.14    9.50
  -3  -2  18   -0.72    3.94
   3   2 -18    8.55    4.18
  -2  -2  18   -1.04    3.68
   2   2 -18    0.45    3.61
  -2  -2  18   -3.26    3.05
  -1  -2  18    4.29    3.36
  -1  -2  18    3.35    4.13
  -1  -2  18   13.41    4.56
   0  -2  18   19.31    4.90
   0  -2  18   20.15    5.11
   0  -2  18   32.18    5.47
   1  -2  18  142.73    9.99
   1  -2  18  121.50    9.35
   2  -2  18   17.58    4.72
   3  -2  18    0.22    3.52
  -4  -1  18   34.73    6.60
   4   1 -18   26.52    6.80
   3   1 -18   36.12    6.59
  -3  -1  18   50.07    7.21
  -2  -1  18    0.48    3.98
  -2  -1  18    8.51    3.73
   2   1 -18    4.39    4.14
  -1  -1  18    1.29    3.56
  -1  -1  18    0.39    3.77
  -1  -1  18   -2.18    2.91
   0  -1  18   10.19    4.19
   0  -1  18    9.98    4.62
   0  -1  18   14.65    4.36
   1  -1  18   -0.51    3.37
   1  -1  18    9.57    4.26
   2  -1  18   73.14    7.49
   3  -1  18   -2.34    3.35
  -4   0  18   50.34    7.36
   4   0 -18   35.72    7.05
   3   0 -18    1.40    4.24
  -3   0  18   -1.32    3.82
   2   0 -18    0.30    3.78
  -2   0  18    0.64    4.29
  -2   0  18    0.08    3.36
  -1   0  18   21.70    5.07
  -1   0  18   21.38    5.54
  -1   0  18   28.09    5.88
   0   0  18   -1.03    3.34
   0   0  18    2.48    4.04
   0   0  18    1.19    3.29
   1   0  18   21.82    5.31
   2   0  18    0.75    3.60
   4  -1 -18    5.52    5.02
  -4   1  18    5.21    5.02
  -3   1  18   18.97    6.00
   3  -1 -18   30.24    6.41
  -2   1  18    4.69    3.82
  -2   1  18   -1.49    3.59
   2  -1 -18    2.20    4.17
  -1   1  18   15.08    4.72
  -1   1  18    5.64    4.47
   0   1  18   -2.70    3.86
   0   1  18   -2.61    3.17
   1   1  18   33.81    6.21
   2   1  18    1.41    4.12
  -4   2  18   19.38    6.02
   3  -2 -18   43.79    7.34
  -3   2  18   49.12    7.81
  -2   2  18   16.24    5.36
  -2   2  18    7.61    4.53
   2  -2 -18   15.53    5.56
  -1   2  18    4.28    4.56
  -1   2  18    0.97    3.89
   0   2  18   12.80    5.07
   1   2  18    6.92    4.69
   3  -3 -18   20.24    6.32
  -3   3  18   22.56    6.36
  -2   3  18    5.75    4.64
  -1   3  18    1.35    4.61
  -1  -9  19   -0.49    4.29
   0  -9  19    7.49    4.68
   1  -9  19   -2.73    3.93
   3   8 -19   45.21    7.82
  -2  -8  19   24.58    6.61
  -1  -8  19   58.60    7.93
   0  -8  19   -3.50    3.62
   1  -8  19    8.75    4.82
   2  -8  19    6.72    4.33
   3   7 -19   -2.30    4.23
  -3  -7  19   -5.78    4.17
  -2  -7  19   75.24    8.34
  -2  -7  19   61.10    8.41
  -1  -7  19    7.73    4.03
  -1  -7  19    7.03    4.51
   0  -7  19   40.90    6.60
   1  -7  19   29.91    5.80
   2  -7  19   13.94    4.75
  -4  -6  19   13.92    5.73
   3   6 -19    3.41    4.80
  -3  -6  19    2.70    4.21
  -2  -6  19   22.01    5.60
  -2  -6  19   14.42    4.93
  -1  -6  19   -0.88    3.91
  -1  -6  19   -1.99    3.29
  -1  -6  19   -3.50    3.30
   0  -6  19    2.89    4.12
   0  -6  19    7.80    4.28
   1  -6  19    4.30    3.77
   2  -6  19   17.16    4.88
  -4  -5  19    3.23    4.81
   4   5 -19    0.19    4.44
  -3  -5  19   45.72    7.36
   3   5 -19   50.58    7.60
  -2  -5  19   64.44    7.61
  -2  -5  19   85.47    9.02
  -1  -5  19  134.19   10.13
  -1  -5  19  140.08   11.06
  -1  -5  19  163.40   11.66
   0  -5  19   -1.23    3.33
   0  -5  19    2.12    4.07
   1  -5  19    1.62    3.74
   2  -5  19   -1.10    3.32
   4   4 -19   10.08    5.44
  -4  -4  19    7.24    5.23
   3   4 -19   -4.92    3.57
  -3  -4  19    1.01    4.20
  -2  -4  19   36.44    6.77
  -2  -4  19   36.54    6.05
  -1  -4  19   43.14    6.44
  -1  -4  19   51.97    7.14
  -1  -4  19   41.76    6.72
   0  -4  19   64.15    7.31
   0  -4  19   49.15    7.07
   1  -4  19    5.76    4.26
   2  -4  19    0.70    3.57
  -4  -3  19   27.68    6.77
   4   3 -19   29.99    7.01
  -3  -3  19   -5.32    3.63
   3   3 -19    6.83    4.34
  -2  -3  19    0.97    3.45
  -2  -3  19    0.14    3.86
  -1  -3  19   34.65    6.40
  -1  -3  19   43.56    6.60
  -1  -3  19   49.77    6.66
   0  -3  19    4.73    3.83
   0  -3  19   18.31    5.00
   1  -3  19   35.30    5.90
   2  -3  19   44.76    6.12
   4   2 -19   10.54    5.51
  -4  -2  19    1.23    4.48
   3   2 -19   15.99    5.28
  -3  -2  19   10.81    5.39
  -2  -2  19    6.19    3.89
  -2  -2  19    0.80    3.71
  -1  -2  19   -4.15    2.89
  -1  -2  19   -0.74    4.09
  -1  -2  19    6.48    4.02
   0  -2  19    0.80    3.67
   0  -2  19   -0.50    3.49
   1  -2  19    4.70    4.21
   2  -2  19    1.13    3.67
  -4  -1  19    9.57    5.40
   4   1 -19   12.28    5.61
   3   1 -19   -0.35    4.41
  -3  -1  19    3.88    4.23
  -2  -1  19    2.86    3.83
  -2  -1  19    4.25    4.64
  -1  -1  19  114.57    9.79
  -1  -1  19  119.26   10.15
  -1  -1  19  119.26   10.50
   0  -1  19   59.20    7.43
   1  -1  19   11.27    4.58
   2  -1  19   -1.17    3.69
  -3   0  19   -2.29    4.32
   3   0 -19    9.14    5.19
  -2   0  19    6.03    4.86
  -2   0  19   -1.89    3.60
  -1   0  19    8.51    4.93
   0   0  19   51.10    7.30
   1   0  19   30.47    6.21
  -3   1  19    8.51    5.44
   3  -1 -19    1.55    4.66
  -2   1  19   -0.29    4.40
  -1   1  19   10.26    5.39
   0   1  19   32.58    6.79
  -1  -7  20    1.50    4.33
   0  -7  20   22.58    5.97
  -2  -6  20    0.45    4.39
  -1  -6  20   25.99    6.17
   0  -6  20    0.27    4.01
   1  -6  20   17.77    5.40
   3   5 -20    4.58    4.79
  -2  -5  20    2.85    4.43
  -1  -5  20    1.43    4.28
   0  -5  20    3.85    4.06
   1  -5  20   20.82    5.54
   3   4 -20   40.41    7.06
  -3  -4  20   32.24    7.13
  -2  -4  20   19.65    5.89
  -1  -4  20   19.45    5.79
   0  -4  20    6.06    4.52
   1  -4  20    8.17    4.66
   3   3 -20    2.62    4.41
  -3  -3  20   -2.93    4.05
  -2  -3  20   16.30    5.49
  -1  -3  20   14.34    5.38
   0  -3  20    2.69    4.27
   1  -3  20   20.32    5.38
   3   2 -20   47.73    7.83
  -2  -2  20    0.17    4.24
  -1  -2  20    0.67    4.37
   0  -2  20   11.44    5.23
   3   1 -20   23.93    6.23
  -1  -1  20    1.87    4.06
   0   0   0    0.00    0.00
;
_shelx_hkl_checksum              14402
_shelx_res_file
;
    shelx.res created by SHELXL-2014/7
TITL file DDJOB.res = = DIRDIF output for SHELX
CELL  0.71073   5.1371   9.5237  12.9884  106.521   96.067   95.618
ZERR     2.00   0.0002   0.0004   0.0006    0.002    0.002    0.002
LATT   1
SFAC  S    O    C    N    H
UNIT  8 16 4 8 20
MERG   2
OMIT     0.00  56.00
OMIT     0   1   0
OMIT     0   0   1
OMIT     0  -1   1
DFIX 0.86 N1 H1A N1 H1B N2 H2A N2 H2B N3 H3A N3 H3B N4 H4A N4 H4B
DFIX 0.86 O7 H7 O3 H3
EQIV $1 -x+1, -y+1, -z
HTAB N4 S4_$1
HTAB N4 S1
HTAB N4 O6_$1
HTAB N3 O5
EQIV $2 x+1, y, z
HTAB N3 O7_$2
HTAB N1 S3
HTAB N1 O4
HTAB N1 S2
EQIV $3 -x+1, -y+1, -z+1
HTAB N1 O4_$3
EQIV $4 -x+2, -y+1, -z+1
HTAB N3 O2_$4
EQIV $5 x, y-1, z
HTAB N2 O5_$5
HTAB N2 O1
EQIV $6 -x, -y, -z+1
HTAB O3 S3_$6
HTAB O3 O1_$6
HTAB N4 S4
HTAB N4 O6
EQIV $7 -x+1, -y+2, -z
HTAB O7 S4_$7
HTAB O7 O8_$7
HTAB N4 S4_$1
HTAB N4 S1
HTAB N4 O6_$1
HTAB N3 O5
HTAB N3 O7_$2
HTAB N1 S3
HTAB N1 O4
HTAB N1 S2
HTAB N1 O4_$3
HTAB N3 O2_$4
HTAB N2 O5_$5
HTAB N2 O1
HTAB O3 S3_$6
HTAB O3 O1_$6
HTAB N4 S4
HTAB N4 O6
HTAB O7 S4_$7
HTAB O7 O8_$7
ACTA
BOND
BOND   $H
WPDB  -1
L.S.  10
WGHT    0.041800    0.730200
FVAR       0.98621
S3    1    0.226625    0.200423    0.544023    11.00000    0.02332    0.01849 =
         0.02794    0.00665    0.00473   -0.00014
S4    1    0.656639    0.822346    0.030037    11.00000    0.02697    0.02641 =
         0.02779    0.00914    0.00312    0.00393
S1    1    0.989319    0.253479    0.225952    11.00000    0.03958    0.02944 =
         0.03262    0.00812    0.01459    0.00530
S2    1    1.169364    0.465011    0.286801    11.00000    0.03080    0.03645 =
         0.03426    0.01822   -0.00456   -0.00324
O3    2   -0.071783    0.190921    0.550637    11.00000    0.02520    0.02720 =
         0.04102    0.01103    0.01005    0.00204
O6    2    0.666549    0.665932   -0.010738    11.00000    0.05606    0.02664 =
         0.04832    0.00351   -0.00726    0.00422
O1    2    0.263179    0.075836    0.450475    11.00000    0.03947    0.02090 =
         0.04248    0.00400    0.01716    0.00316
O4    2    0.295218    0.338729    0.522018    11.00000    0.04234    0.01876 =
         0.05220    0.01197    0.01959    0.00041
N2    4    0.653235    0.105455    0.303714    11.00000    0.04314    0.02208 =
         0.03204    0.00573    0.01027    0.00243
O5    2    0.827904    0.889836    0.130950    11.00000    0.04621    0.03885 =
         0.03383   -0.00212   -0.00430    0.00945
O2    2    0.362039    0.191157    0.643961    11.00000    0.03991    0.05824 =
         0.03863    0.02074   -0.00846   -0.00441
N3    4    1.164539    0.684768    0.207350    11.00000    0.04025    0.03470 =
         0.03606    0.01829   -0.00855   -0.00550
N1    4    0.697336    0.355028    0.387243    11.00000    0.03857    0.02112 =
         0.03273    0.00864    0.01349    0.00689
O7    2    0.369279    0.838646    0.049943    11.00000    0.02865    0.05878 =
         0.08502    0.04162    0.01613    0.01201
N4    4    0.816570    0.503902    0.131175    11.00000    0.03941    0.04327 =
         0.04877    0.01882   -0.01725   -0.00683
O8    2    0.707688    0.894572   -0.052023    11.00000    0.07462    0.05697 =
         0.04771    0.03119    0.03084    0.02401
C2    3    1.030706    0.557784    0.198047    11.00000    0.02714    0.03306 =
         0.02520    0.01089    0.00106    0.00224
C1    3    0.756933    0.240758    0.316042    11.00000    0.02856    0.02459 =
         0.02394    0.00997    0.00281    0.00651
H4A   5    0.744097    0.417673    0.116766    11.00000    0.04704
H3A   5    1.111937    0.743486    0.172699    11.00000    0.03858
H1A   5    0.584725    0.340046    0.427381    11.00000    0.02708
H1B   5    0.767226    0.441682    0.393653    11.00000    0.04056
H3B   5    1.302836    0.715295    0.253716    11.00000    0.05119
H2A   5    0.710333    0.035987    0.259087    11.00000    0.03982
H2B   5    0.530209    0.091182    0.341249    11.00000    0.04227
H3    5   -0.138702    0.107957    0.552829    11.00000    0.08740
H4B   5    0.748963    0.553029    0.091378    11.00000    0.07307
H7    5    0.328659    0.925072    0.056802    11.00000    0.08109
HKLF 4
REM  file DDJOB.res = = DIRDIF output for SHELX
REM R1 =  0.0357 for    2625 Fo > 4sig(Fo)  and  0.0394 for all    2892 data
REM    203 parameters refined using     10 restraints
END
WGHT      0.0420      0.7227
REM Highest difference peak  0.342,  deepest hole -0.532,  1-sigma level  0.090
Q1    1   0.7349  0.8468  0.1531  11.00000  0.05    0.34
Q2    1   0.0442  0.7614 -0.0587  11.00000  0.05    0.28
Q3    1   0.6293  0.3035  0.1781  11.00000  0.05    0.28
Q4    1   0.5447  0.3848  0.5390  11.00000  0.05    0.27
Q5    1   0.3372  0.2810  0.6668  11.00000  0.05    0.25
Q6    1   0.5907  0.6675  0.0327  11.00000  0.05    0.25
Q7    1   0.6701  0.7338 -0.0004  11.00000  0.05    0.24
Q8    1   0.9868  0.5941  0.0015  11.00000  0.05    0.24
Q9    1   0.6511  0.3794 -0.0158  11.00000  0.05    0.24
Q10   1   0.1856  0.1540  0.3771  11.00000  0.05    0.24
Q11   1   0.9258 -0.0273  0.3157  11.00000  0.05    0.23
Q12   1  -0.2546  0.2892  0.5713  11.00000  0.05    0.22
Q13   1   0.1424  0.4091  0.4520  11.00000  0.05    0.22
Q14   1   0.3501  0.9643 -0.0492  11.00000  0.05    0.22
Q15   1   0.9276  0.3356  0.0764  11.00000  0.05    0.22
Q16   1   0.3821  0.0032  0.4749  11.00000  0.05    0.22
Q17   1   0.3012  0.3543  0.7031  11.00000  0.05    0.22
Q18   1   0.0239 -0.0049  0.3595  11.00000  0.05    0.22
Q19   1   0.5691  0.8528  0.1858  11.00000  0.05    0.21
Q20   1  -0.0831  0.3005  0.5372  11.00000  0.05    0.21
;
_shelx_res_checksum              19467
loop_
_space_group_symop_operation_xyz
'x, y, z'
'-x, -y, -z'
loop_
_atom_site_type_symbol
_atom_site_label
_atom_site_fract_x
_atom_site_fract_y
_atom_site_fract_z
_atom_site_U_iso_or_equiv
_atom_site_adp_type
_atom_site_calc_flag
_atom_site_occupancy
S S3 0.22662(11) 0.20042(6) 0.54402(4) 0.02342(14) Uani d 1
S S4 0.65664(11) 0.82235(6) 0.03004(5) 0.02686(14) Uani d 1
S S1 0.98932(13) 0.25348(7) 0.22595(5) 0.03335(16) Uani d 1
S S2 1.16936(12) 0.46501(7) 0.28680(5) 0.03345(16) Uani d 1
O O3 -0.0718(3) 0.19092(19) 0.55064(15) 0.0307(4) Uani d 1
O O6 0.6665(5) 0.6659(2) -0.01074(18) 0.0465(5) Uani d 1
O O1 0.2632(4) 0.07584(18) 0.45047(15) 0.0346(4) Uani d 1
O O4 0.2952(4) 0.33873(18) 0.52202(16) 0.0368(4) Uani d 1
N N2 0.6532(5) 0.1055(2) 0.30371(18) 0.0327(5) Uani d 1
O O5 0.8279(4) 0.8898(2) 0.13095(16) 0.0428(5) Uani d 1
O O2 0.3620(4) 0.1912(2) 0.64396(17) 0.0461(5) Uani d 1
N N3 1.1645(5) 0.6848(3) 0.20735(19) 0.0372(5) Uani d 1
N N1 0.6973(4) 0.3550(2) 0.38724(18) 0.0298(4) Uani d 1
O O7 0.3693(4) 0.8386(3) 0.0499(2) 0.0522(6) Uani d 1
N N4 0.8166(5) 0.5039(3) 0.1312(2) 0.0454(6) Uani d 1
O O8 0.7077(5) 0.8946(3) -0.05202(18) 0.0538(6) Uani d 1
C C2 1.0307(5) 0.5578(3) 0.19805(19) 0.0283(5) Uani d 1
C C1 0.7569(5) 0.2408(2) 0.31604(18) 0.0250(4) Uani d 1
H H4A 0.744(6) 0.418(2) 0.117(3) 0.047(10) Uiso d 1
H H3A 1.112(6) 0.743(3) 0.173(2) 0.039(8) Uiso d 1
H H1A 0.585(5) 0.340(3) 0.427(2) 0.027(7) Uiso d 1
H H1B 0.767(6) 0.442(2) 0.394(3) 0.041(9) Uiso d 1
H H3B 1.303(5) 0.715(4) 0.254(2) 0.051(10) Uiso d 1
H H2A 0.710(6) 0.036(3) 0.259(2) 0.040(8) Uiso d 1
H H2B 0.530(5) 0.091(4) 0.341(2) 0.042(9) Uiso d 1
H H3 -0.139(9) 0.108(3) 0.553(4) 0.087(15) Uiso d 1
H H4B 0.749(8) 0.553(4) 0.091(3) 0.073(13) Uiso d 1
H H7 0.329(9) 0.925(3) 0.057(4) 0.081(15) Uiso d 1
loop_
_atom_site_aniso_label
_atom_site_aniso_U_11
_atom_site_aniso_U_22
_atom_site_aniso_U_33
_atom_site_aniso_U_12
_atom_site_aniso_U_13
_atom_site_aniso_U_23
S3 0.0233(3) 0.0185(2) 0.0279(3) -0.00014(18) 0.0047(2) 0.0066(2)
S4 0.0270(3) 0.0264(3) 0.0278(3) 0.0039(2) 0.0031(2) 0.0091(2)
S1 0.0396(3) 0.0294(3) 0.0326(3) 0.0053(2) 0.0146(3) 0.0081(2)
S2 0.0308(3) 0.0365(3) 0.0343(3) -0.0032(2) -0.0046(2) 0.0182(3)
O3 0.0252(8) 0.0272(8) 0.0410(10) 0.0020(7) 0.0101(7) 0.0110(7)
O6 0.0561(13) 0.0266(9) 0.0483(12) 0.0042(8) -0.0073(10) 0.0035(8)
O1 0.0395(10) 0.0209(8) 0.0425(10) 0.0032(7) 0.0172(8) 0.0040(7)
O4 0.0423(10) 0.0188(8) 0.0522(11) 0.0004(7) 0.0196(9) 0.0120(7)
N2 0.0431(12) 0.0221(10) 0.0320(11) 0.0024(9) 0.0103(9) 0.0057(8)
O5 0.0462(11) 0.0388(10) 0.0338(10) 0.0094(9) -0.0043(8) -0.0021(8)
O2 0.0399(11) 0.0582(13) 0.0386(11) -0.0044(9) -0.0085(8) 0.0207(10)
N3 0.0403(13) 0.0347(11) 0.0361(12) -0.0055(9) -0.0085(10) 0.0183(10)
N1 0.0386(12) 0.0211(9) 0.0327(11) 0.0069(8) 0.0135(9) 0.0086(8)
O7 0.0286(10) 0.0588(14) 0.0850(17) 0.0120(9) 0.0161(10) 0.0416(13)
N4 0.0394(13) 0.0433(14) 0.0488(15) -0.0068(11) -0.0173(11) 0.0188(12)
O8 0.0746(16) 0.0570(13) 0.0477(12) 0.0240(12) 0.0308(11) 0.0312(11)
C2 0.0271(11) 0.0331(12) 0.0252(11) 0.0022(9) 0.0011(9) 0.0109(9)
C1 0.0286(11) 0.0246(10) 0.0239(10) 0.0065(8) 0.0028(8) 0.0100(8)
loop_
_atom_type_symbol
_atom_type_description
_atom_type_scat_dispersion_real
_atom_type_scat_dispersion_imag
_atom_type_scat_source
S S 0.1246 0.1234 'International Tables Vol C Tables 4.2.6.8 and 6.1.1.4'
O O 0.0106 0.0060 'International Tables Vol C Tables 4.2.6.8 and 6.1.1.4'
C C 0.0033 0.0016 'International Tables Vol C Tables 4.2.6.8 and 6.1.1.4'
N N 0.0061 0.0033 'International Tables Vol C Tables 4.2.6.8 and 6.1.1.4'
H H 0.0000 0.0000 'International Tables Vol C Tables 4.2.6.8 and 6.1.1.4'
loop_
_geom_angle_atom_site_label_1
_geom_angle_atom_site_label_2
_geom_angle_atom_site_label_3
_geom_angle
O2 S3 O4 114.18(13)
O2 S3 O1 111.76(13)
O4 S3 O1 109.77(11)
O2 S3 O3 108.85(12)
O4 S3 O3 104.91(11)
O1 S3 O3 106.89(10)
O5 S4 O6 112.33(12)
O5 S4 O8 112.41(15)
O6 S4 O8 110.66(14)
O5 S4 O7 108.55(14)
O6 S4 O7 105.97(14)
O8 S4 O7 106.52(13)
C1 S1 S2 103.40(8)
C2 S2 S1 104.56(9)
S3 O3 H3 113(3)
C1 N2 H2A 118(2)
C1 N2 H2B 119(2)
H2A N2 H2B 123(3)
C2 N3 H3A 123(2)
C2 N3 H3B 119(2)
H3A N3 H3B 118(3)
C1 N1 H1A 117.7(19)
C1 N1 H1B 122(2)
H1A N1 H1B 121(3)
S4 O7 H7 114(3)
C2 N4 H4A 124(2)
C2 N4 H4B 121(3)
H4A N4 H4B 114(4)
N4 C2 N3 123.5(2)
N4 C2 S2 122.9(2)
N3 C2 S2 113.63(18)
N1 C1 N2 123.5(2)
N1 C1 S1 123.21(18)
N2 C1 S1 113.31(18)
loop_
_geom_bond_atom_site_label_1
_geom_bond_atom_site_label_2
_geom_bond_distance
S3 O2 1.436(2)
S3 O4 1.4441(17)
S3 O1 1.4803(18)
S3 O3 1.5397(18)
S4 O5 1.4393(19)
S4 O6 1.440(2)
S4 O8 1.456(2)
S4 O7 1.540(2)
S1 C1 1.777(2)
S1 S2 2.0282(9)
S2 C2 1.774(2)
O3 H3 0.840(19)
N2 C1 1.304(3)
N2 H2A 0.846(18)
N2 H2B 0.861(18)
N3 C2 1.299(3)
N3 H3A 0.858(18)
N3 H3B 0.849(18)
N1 C1 1.298(3)
N1 H1A 0.847(17)
N1 H1B 0.845(18)
O7 H7 0.851(19)
N4 C2 1.289(3)
N4 H4A 0.828(18)
N4 H4B 0.859(19)
loop_
_geom_hbond_atom_site_label_D
_geom_hbond_atom_site_label_H
_geom_hbond_atom_site_label_A
_geom_hbond_site_symmetry_A
_geom_hbond_distance_DH
_geom_hbond_distance_HA
_geom_hbond_distance_DA
_geom_hbond_angle_DHA
N4 H4A O6 2_665 0.828(18) 2.33(3) 2.860(3) 123(3)
N3 H3A O5 . 0.858(18) 2.24(2) 3.032(3) 153(3)
N3 H3A O7 1_655 0.858(18) 2.48(3) 3.048(3) 125(3)
N1 H1A O4 . 0.847(17) 2.028(18) 2.866(3) 170(3)
N1 H1B O4 2_666 0.845(18) 2.14(3) 2.813(3) 136(3)
N3 H3B O2 2_766 0.849(18) 2.017(19) 2.861(3) 173(3)
N2 H2A O5 1_545 0.846(18) 2.033(19) 2.868(3) 169(3)
N2 H2B O1 . 0.861(18) 2.099(19) 2.955(3) 172(3)
O3 H3 O1 2_556 0.840(19) 1.79(2) 2.628(2) 175(5)
N4 H4B O6 . 0.859(19) 1.97(2) 2.815(3) 168(4)
O7 H7 O8 2_675 0.851(19) 1.76(2) 2.602(3) 168(5)
N4 H4A O6 2_665 0.828(18) 2.33(3) 2.860(3) 123(3)
N3 H3A O5 . 0.858(18) 2.24(2) 3.032(3) 153(3)
N3 H3A O7 1_655 0.858(18) 2.48(3) 3.048(3) 125(3)
N1 H1A O4 . 0.847(17) 2.028(18) 2.866(3) 170(3)
N1 H1B O4 2_666 0.845(18) 2.14(3) 2.813(3) 136(3)
N3 H3B O2 2_766 0.849(18) 2.017(19) 2.861(3) 173(3)
N2 H2A O5 1_545 0.846(18) 2.033(19) 2.868(3) 169(3)
N2 H2B O1 . 0.861(18) 2.099(19) 2.955(3) 172(3)
O3 H3 O1 2_556 0.840(19) 1.79(2) 2.628(2) 175(5)
N4 H4B O6 . 0.859(19) 1.97(2) 2.815(3) 168(4)
O7 H7 O8 2_675 0.851(19) 1.76(2) 2.602(3) 168(5)

_cod_database_fobs_code 1550276
