#------------------------------------------------------------------------------
#$Date: 2018-10-11 01:29:22 +0300 (Thu, 11 Oct 2018) $
#$Revision: 211368 $
#$URL: file:///home/coder/svn-repositories/cod/cif/1/55/00/1550022.cif $
#------------------------------------------------------------------------------
#
# This file is available in the Crystallography Open Database (COD),
# http://www.crystallography.net/
#
# All data on this site have been placed in the public domain by the
# contributors.
#
data_1550022
loop_
_publ_author_name
'Sieuw, Louis'
'Jouhara, Alia'
'Quarez, Eric'
'Auger, Chloe'
'Gohy, Jean-Fran\,cois'
'Poizot, Philippe'
'Vlad, Alexandru'
_publ_section_title
;
 H-bond Stabilized Quinone Electrode Material for Li-Organic Batteries:
 the Strength of Weak Bonds
;
_journal_name_full               'Chemical Science'
_journal_paper_doi               10.1039/C8SC02995D
_journal_year                    2018
_chemical_formula_moiety         'C6 H6 N2 O2'
_chemical_formula_sum            'C6 H6 N2 O2'
_chemical_formula_weight         138.1
_chemical_name_systematic        ' ?'
_space_group_IT_number           14
_symmetry_cell_setting           monoclinic
_symmetry_Int_Tables_number      14
_symmetry_space_group_name_Hall  '-P 2yn'
_symmetry_space_group_name_H-M   'P 1 21/n 1'
_audit_update_record
;
2018-07-05 deposited with the CCDC.
2018-10-09 downloaded from the CCDC.
;
_cell_angle_alpha                90
_cell_angle_beta                 101.9740(17)
_cell_angle_gamma                90
_cell_formula_units_Z            2
_cell_length_a                   5.2532(4)
_cell_length_b                   5.3210(3)
_cell_length_c                   10.9671(7)
_cell_measurement_temperature    295
_cell_volume                     299.89(3)
_diffrn_ambient_temperature      295
_diffrn_radiation_probe          x-ray
_diffrn_radiation_type           synchrotron
_diffrn_radiation_wavelength     0.7458
_exptl_absorpt_coefficient_mu    0.127
_exptl_crystal_density_diffrn    1.5297
_exptl_crystal_F_000             144
_pd_instr_location               ' ?'
_pd_meas_2theta_range_inc        0.012
_pd_meas_2theta_range_max        41.529
_pd_meas_2theta_range_min        2.517
_pd_meas_number_of_points        3155
_pd_proc_2theta_range_inc        0.012
_pd_proc_2theta_range_max        41.393
_pd_proc_2theta_range_min        2.517
_pd_proc_ls_background_function
'Manual background combined with 5 Legendre polynoms'
_pd_proc_ls_pref_orient_corr     none
_pd_proc_ls_profile_function     Pseudo-Voigt
_pd_proc_ls_prof_R_factor        0.0111
_pd_proc_ls_prof_wR_expected     0.0010
_pd_proc_ls_prof_wR_factor       0.0203
_refine_diff_density_max         0.31
_refine_diff_density_min         -0.32
_refine_ls_goodness_of_fit_all   20.77
_refine_ls_hydrogen_treatment    constr
_refine_ls_number_constraints    0
_refine_ls_number_parameters     35
_refine_ls_number_restraints     1
_refine_ls_R_factor_all          0.0665
_refine_ls_R_factor_gt           0.0664
_refine_ls_shift/su_max          0.0069
_refine_ls_shift/su_mean         0.0015
_refine_ls_weighting_scheme      sigma
_refine_ls_wR_factor_all         0.1059
_refine_ls_wR_factor_gt          0.1059
_cod_data_source_file            c8sc02995d2.cif
_cod_data_source_block           I
_cod_depositor_comments
;
The following automatic conversions were performed:

'_diffrn_radiation_probe' value 'X-ray' changed to 'x-ray' according
to
/home/data/users/saulius/crontab/automatic-downloads/rss-feeds/RSC/lib/dictionaries/cif_core.dic
dictionary named 'cif_core.dic' version 2.4.2 from 2011-04-26.

Automatic conversion script
Id: cif_fix_values 4973 2017-02-22 13:04:09Z antanas 
;
_cod_original_cell_volume        299.88(4)
_cod_database_code               1550022
loop_
_space_group_symop_id
_space_group_symop_operation_xyz
1 x,y,z
2 -x+1/2,y+1/2,-z+1/2
3 -x,-y,-z
4 x+1/2,-y+1/2,z+1/2
loop_
_atom_site_label
_atom_site_type_symbol
_atom_site_fract_x
_atom_site_fract_y
_atom_site_fract_z
_atom_site_adp_type
_atom_site_U_iso_or_equiv
_atom_site_site_symmetry_multiplicity
_atom_site_occupancy
_atom_site_calc_flag
C1 C 0.7345(7) 0.6385(7) 0.5557(2) Uiso 0.0095(9) 4 1 d
C2 C 0.6036(7) 0.6539(7) 0.41723(18) Uiso 0.0095(9) 4 1 d
C3 C 0.6178(7) 0.4827(6) 0.6292(3) Uiso 0.0095(9) 4 1 d
N1 N 0.7102(8) 0.8061(7) 0.35128(19) Uiso 0.0263(13) 4 1 d
O1 O 0.9392(5) 0.7595(4) 0.5889(2) Uiso 0.0262(10) 4 1 d
H1 H 0.677482 0.79196 0.270498 Uiso 0.0315 4 1 d
H2 H 0.814793 0.923131 0.387532 Uiso 0.0315 4 1 d
H3 H 0.694696 0.469265 0.716383 Uiso 0.0114 4 1 d
loop_
_atom_type_symbol
_atom_type_scat_dispersion_real
_atom_type_scat_dispersion_imag
_atom_type_scat_source
C 0.0039 0.0019 'International Tables Vol C tables 4.2.6.8 and 6.1.1.1'
H 0.0000 0.0000 'International Tables Vol C tables 4.2.6.8 and 6.1.1.1'
N 0.0075 0.0038 'International Tables Vol C tables 4.2.6.8 and 6.1.1.1'
O 0.0128 0.0069 'International Tables Vol C tables 4.2.6.8 and 6.1.1.1'
loop_
_geom_angle_atom_site_label_1
_geom_angle_atom_site_label_2
_geom_angle_atom_site_label_3
_geom_angle_site_symmetry_1
_geom_angle_site_symmetry_3
_geom_angle
C2 C1 C3 . . 116.5(3)
C2 C1 O1 . . 116.4(3)
C3 C1 O1 . . 127.0(3)
C1 C2 C3 . 3_666 120.6(3)
C1 C2 N1 . . 115.6(3)
C3 C2 N1 3_666 . 123.8(3)
C1 C3 C2 . 3_666 122.9(3)
C1 C3 H3 . . 118.57
C2 C3 H3 3_666 . 118.57
C2 N1 H1 . . 120
C2 N1 H2 . . 120
H1 N1 H2 . . 120
loop_
_geom_bond_atom_site_label_1
_geom_bond_atom_site_label_2
_geom_bond_site_symmetry_2
_geom_bond_distance
C1 C2 . 1.534(3)
C1 C3 . 1.385(5)
C1 O1 . 1.241(4)
C2 C3 3_666 1.376(5)
C2 N1 . 1.289(5)
C3 H3 . 0.96
N1 H1 . 0.87
N1 H2 . 0.87
loop_
_geom_hbond_atom_site_label_D
_geom_hbond_atom_site_label_H
_geom_hbond_atom_site_label_A
_geom_hbond_site_symmetry_A
_geom_hbond_distance_DH
_geom_hbond_distance_HA
_geom_hbond_distance_DA
_geom_hbond_angle_DHA
N1 H1 O1 4_464 0.87 2.14 2.955(3) 155.95
N1 H2 O1 . 0.87 2.34 2.645(3) 101.04
N1 H2 O1 3_776 0.87 2.11 2.943(4) 160.33
loop_
_pd_proc_point_id
_pd_proc_2theta_corrected
_pd_proc_intensity_net
_pd_calc_intensity_net
_pd_proc_ls_weight
1 2.5272 2390.21 2403.85 4.19
2 2.5395 2397.55 2404.82 4.20
3 2.5519 2395.02 2405.80 4.17
4 2.5643 2397.80 2406.77 4.18
5 2.5766 2399.80 2407.74 4.17
6 2.5890 2395.27 2408.72 4.16
7 2.6014 2402.66 2409.69 4.16
8 2.6138 2409.47 2410.67 4.15
9 2.6261 2411.85 2411.64 4.15
10 2.6385 2416.63 2412.62 4.13
11 2.6509 2410.51 2413.59 4.13
12 2.6632 2393.32 2414.56 4.08
13 2.6756 2382.42 2415.54 4.07
14 2.6880 2383.32 2416.52 4.05
15 2.7003 2393.20 2417.49 4.05
16 2.7127 2409.79 2418.46 4.06
17 2.7251 2422.70 2419.44 4.08
18 2.7374 2422.42 2420.41 4.08
19 2.7498 2400.20 2421.39 4.03
20 2.7622 2407.78 2422.36 4.04
21 2.7745 2420.76 2423.33 4.05
22 2.7869 2430.95 2424.31 4.05
23 2.7993 2432.54 2425.29 4.05
24 2.8117 2429.78 2426.26 4.04
25 2.8240 2416.66 2427.23 4.01
26 2.8364 2410.39 2428.21 3.99
27 2.8488 2402.23 2429.19 3.98
28 2.8611 2419.84 2430.16 3.98
29 2.8735 2432.23 2432.91 3.99
30 2.8859 2449.42 2435.67 4.00
31 2.8982 2440.74 2438.41 3.98
32 2.9106 2443.73 2441.17 3.97
33 2.9230 2425.45 2443.93 3.94
34 2.9353 2430.59 2446.67 3.95
35 2.9477 2427.00 2449.43 3.92
36 2.9601 2450.63 2452.19 3.95
37 2.9724 2439.02 2454.93 3.92
38 2.9848 2434.25 2457.69 3.90
39 2.9972 2455.00 2460.45 3.92
40 3.0096 2468.03 2463.22 3.93
41 3.0219 2473.89 2465.96 3.94
42 3.0343 2478.46 2468.72 3.93
43 3.0467 2470.49 2471.48 3.93
44 3.0590 2477.17 2474.22 3.91
45 3.0714 2488.28 2476.98 3.92
46 3.0838 2493.52 2479.74 3.91
47 3.0961 2503.05 2482.48 3.92
48 3.1085 2492.09 2485.24 3.90
49 3.1209 2484.77 2488.01 3.87
50 3.1332 2470.34 2490.75 3.86
51 3.1456 2485.86 2491.68 3.86
52 3.1580 2491.67 2492.21 3.87
53 3.1704 2505.14 2492.75 3.87
54 3.1827 2504.49 2493.28 3.87
55 3.1951 2511.07 2493.82 3.86
56 3.2075 2509.83 2494.35 3.86
57 3.2198 2502.50 2494.88 3.85
58 3.2322 2507.14 2495.42 3.85
59 3.2446 2510.81 2495.96 3.85
60 3.2569 2506.22 2496.49 3.82
61 3.2693 2500.94 2497.02 3.81
62 3.2817 2502.79 2497.56 3.81
63 3.2940 2491.41 2498.09 3.80
64 3.3064 2489.81 2498.63 3.79
65 3.3188 2497.66 2498.38 3.80
66 3.3311 2519.79 2498.08 3.82
67 3.3435 2516.32 2497.78 3.81
68 3.3559 2509.40 2497.48 3.80
69 3.3683 2478.10 2497.18 3.75
70 3.3806 2456.08 2496.88 3.72
71 3.3930 2458.12 2496.58 3.72
72 3.4054 2474.03 2496.28 3.73
73 3.4177 2475.99 2495.98 3.72
74 3.4301 2490.51 2495.68 3.72
75 3.4425 2497.94 2495.38 3.71
76 3.4548 2498.12 2495.08 3.70
77 3.4672 2480.79 2494.78 3.68
78 3.4796 2489.69 2495.13 3.69
79 3.4919 2486.23 2497.03 3.67
80 3.5043 2503.94 2498.95 3.68
81 3.5167 2520.80 2500.87 3.69
82 3.5290 2539.59 2502.77 3.71
83 3.5414 2540.67 2504.69 3.70
84 3.5538 2540.68 2506.61 3.70
85 3.5662 2542.78 2508.53 3.70
86 3.5785 2547.68 2510.44 3.70
87 3.5909 2536.12 2512.36 3.69
88 3.6033 2519.45 2514.28 3.66
89 3.6156 2516.07 2516.18 3.65
90 3.6280 2510.83 2517.65 3.63
91 3.6404 2516.14 2518.30 3.63
92 3.6527 2526.79 2518.94 3.63
93 3.6651 2532.52 2519.59 3.63
94 3.6775 2534.11 2520.25 3.64
95 3.6898 2520.10 2520.89 3.61
96 3.7022 2514.28 2521.54 3.61
97 3.7146 2518.71 2522.19 3.60
98 3.7270 2536.68 2522.84 3.61
99 3.7393 2554.10 2523.49 3.62
100 3.7517 2539.03 2524.14 3.60
101 3.7641 2537.43 2524.79 3.59
102 3.7764 2545.39 2525.44 3.59
103 3.7888 2554.30 2526.09 3.60
104 3.8012 2554.01 2526.74 3.59
105 3.8135 2547.70 2527.38 3.59
106 3.8259 2545.51 2528.03 3.58
107 3.8383 2525.81 2528.73 3.56
108 3.8506 2537.20 2530.21 3.56
109 3.8630 2542.94 2531.70 3.56
110 3.8754 2527.13 2533.19 3.54
111 3.8877 2510.65 2534.67 3.51
112 3.9001 2505.67 2536.16 3.51
113 3.9125 2529.25 2537.65 3.53
114 3.9249 2530.14 2539.14 3.53
115 3.9372 2537.93 2540.61 3.52
116 3.9496 2530.98 2542.10 3.51
117 3.9620 2539.00 2543.59 3.51
118 3.9743 2532.74 2545.07 3.50
119 3.9867 2545.48 2546.56 3.51
120 3.9991 2542.96 2548.05 3.50
121 4.0114 2546.93 2549.53 3.50
122 4.0238 2551.88 2551.02 3.50
123 4.0362 2548.40 2551.80 3.50
124 4.0485 2545.63 2552.28 3.49
125 4.0609 2548.06 2552.76 3.49
126 4.0733 2547.45 2553.25 3.48
127 4.0857 2525.10 2553.74 3.44
128 4.0980 2527.30 2554.22 3.44
129 4.1104 2524.46 2554.70 3.43
130 4.1228 2524.74 2555.19 3.42
131 4.1351 2550.59 2555.67 3.44
132 4.1475 2566.38 2556.16 3.45
133 4.1599 2563.20 2556.64 3.44
134 4.1722 2548.72 2557.12 3.42
135 4.1846 2548.31 2557.61 3.42
136 4.1970 2543.60 2558.10 3.41
137 4.2093 2544.31 2558.58 3.42
138 4.2217 2551.33 2559.38 3.42
139 4.2341 2558.97 2560.72 3.42
140 4.2464 2562.02 2562.05 3.41
141 4.2588 2550.53 2563.40 3.39
142 4.2712 2558.29 2564.74 3.40
143 4.2836 2570.70 2566.08 3.40
144 4.2959 2575.21 2567.41 3.41
145 4.3083 2567.98 2568.76 3.39
146 4.3207 2566.31 2570.10 3.39
147 4.3330 2576.03 2571.43 3.40
148 4.3454 2573.14 2572.78 3.39
149 4.3578 2567.23 2574.12 3.38
150 4.3701 2562.85 2575.45 3.37
151 4.3825 2568.32 2576.80 3.37
152 4.3949 2573.87 2577.79 3.37
153 4.4072 2572.09 2577.33 3.37
154 4.4196 2583.22 2576.86 3.37
155 4.4320 2577.75 2576.39 3.36
156 4.4443 2581.56 2575.93 3.36
157 4.4567 2577.85 2575.46 3.35
158 4.4691 2582.69 2574.99 3.35
159 4.4815 2571.10 2574.53 3.33
160 4.4938 2568.22 2574.06 3.33
161 4.5062 2574.25 2573.59 3.33
162 4.5186 2576.43 2573.13 3.33
163 4.5309 2567.81 2572.66 3.31
164 4.5433 2570.40 2572.20 3.31
165 4.5557 2567.62 2571.73 3.31
166 4.5680 2569.88 2571.27 3.30
167 4.5804 2568.54 2570.80 3.31
168 4.5928 2560.59 2570.33 3.34
169 4.6051 2556.42 2569.70 3.37
170 4.6175 2571.71 2567.99 3.41
171 4.6299 2580.61 2566.28 3.44
172 4.6423 2575.67 2564.57 3.45
173 4.6546 2559.19 2562.87 3.45
174 4.6670 2548.19 2561.16 3.45
175 4.6794 2540.83 2559.46 3.44
176 4.6917 2550.14 2557.76 3.47
177 4.7041 2555.18 2556.05 3.48
178 4.7165 2553.70 2554.34 3.50
179 4.7288 2560.05 2552.65 3.51
180 4.7412 2556.77 2550.94 3.52
181 4.7536 2542.60 2549.23 3.51
182 4.7659 2534.27 2547.53 3.50
183 4.7783 2530.73 2546.98 3.52
184 4.7907 2553.06 2547.61 3.54
185 4.8030 2552.98 2548.24 3.56
186 4.8154 2544.29 2548.88 3.55
187 4.8278 2538.74 2549.51 3.55
188 4.8402 2555.36 2550.15 3.57
189 4.8525 2552.12 2550.78 3.57
190 4.8649 2548.41 2551.42 3.57
191 4.8773 2525.45 2552.05 3.55
192 4.8896 2533.33 2552.68 3.56
193 4.9020 2533.26 2553.32 3.56
194 4.9144 2546.51 2553.95 3.59
195 4.9267 2549.46 2554.59 3.60
196 4.9391 2552.99 2555.22 3.61
197 4.9515 2550.63 2555.86 3.62
198 4.9638 2556.11 2556.49 3.62
199 4.9762 2561.72 2557.12 3.63
200 4.9886 2565.57 2557.76 3.64
201 5.0009 2553.09 2558.06 3.64
202 5.0133 2558.56 2558.23 3.64
203 5.0257 2558.19 2558.40 3.65
204 5.0381 2550.01 2558.58 3.65
205 5.0504 2554.57 2558.75 3.66
206 5.0628 2558.27 2558.92 3.64
207 5.0752 2565.23 2559.09 3.57
208 5.0875 2553.33 2559.26 3.52
209 5.0999 2536.42 2559.43 3.47
210 5.1123 2541.00 2559.60 3.46
211 5.1246 2565.53 2559.78 3.46
212 5.1370 2591.27 2559.95 3.47
213 5.1494 2597.21 2560.12 3.45
214 5.1617 2590.13 2560.29 3.43
215 5.1741 2578.53 2560.46 3.41
216 5.1865 2577.27 2560.63 3.40
217 5.1989 2588.06 2560.81 3.40
218 5.2112 2582.35 2560.98 3.38
219 5.2236 2570.96 2561.15 3.37
220 5.2360 2559.71 2561.32 3.35
221 5.2483 2548.41 2561.49 3.32
222 5.2607 2555.15 2561.90 3.32
223 5.2731 2568.36 2562.30 3.32
224 5.2854 2556.38 2562.70 3.31
225 5.2978 2550.16 2563.10 3.28
226 5.3102 2561.37 2563.50 3.29
227 5.3225 2574.91 2563.90 3.29
228 5.3349 2571.71 2564.31 3.29
229 5.3473 2570.34 2564.71 3.28
230 5.3596 2559.11 2565.11 3.27
231 5.3720 2550.23 2565.51 3.25
232 5.3844 2562.74 2565.91 3.26
233 5.3968 2576.84 2566.32 3.27
234 5.4091 2599.21 2566.72 3.27
235 5.4215 2596.04 2567.12 3.27
236 5.4339 2589.99 2567.52 3.25
237 5.4462 2576.10 2567.92 3.23
238 5.4586 2571.44 2568.32 3.23
239 5.4710 2561.60 2568.73 3.21
240 5.4833 2564.65 2568.47 3.21
241 5.4957 2574.86 2567.51 3.21
242 5.5081 2582.89 2566.55 3.22
243 5.5204 2576.42 2565.60 3.20
244 5.5328 2576.79 2564.65 3.20
245 5.5452 2575.66 2563.69 3.19
246 5.5575 2587.30 2562.74 3.20
247 5.5699 2595.93 2561.78 3.20
248 5.5823 2595.92 2560.83 3.19
249 5.5947 2590.53 2559.87 3.18
250 5.6070 2565.05 2558.92 3.15
251 5.6194 2561.80 2557.96 3.15
252 5.6318 2566.42 2557.00 3.14
253 5.6441 2569.83 2556.06 3.14
254 5.6565 2561.47 2555.10 3.13
255 5.6689 2543.37 2554.14 3.11
256 5.6812 2539.00 2553.43 3.10
257 5.6936 2553.20 2553.94 3.11
258 5.7060 2558.40 2554.45 3.11
259 5.7183 2566.43 2554.95 3.11
260 5.7307 2575.47 2555.46 3.12
261 5.7431 2571.29 2555.97 3.11
262 5.7555 2574.89 2556.48 3.11
263 5.7678 2573.06 2556.98 3.11
264 5.7802 2567.56 2557.49 3.10
265 5.7926 2566.57 2558.00 3.10
266 5.8049 2569.85 2558.50 3.09
267 5.8173 2582.89 2559.01 3.09
268 5.8297 2587.12 2559.52 3.09
269 5.8420 2584.92 2560.03 3.08
270 5.8544 2580.90 2560.54 3.07
271 5.8668 2587.55 2561.04 3.08
272 5.8791 2588.66 2561.55 3.08
273 5.8915 2586.92 2562.06 3.06
274 5.9039 2582.26 2562.57 3.06
275 5.9162 2579.30 2563.07 3.06
276 5.9286 2573.60 2563.58 3.05
277 5.9410 2570.12 2564.09 3.04
278 5.9534 2561.88 2564.60 3.03
279 5.9657 2563.51 2565.70 3.03
280 5.9781 2567.01 2566.82 3.02
281 5.9905 2567.96 2567.93 3.02
282 6.0028 2558.26 2569.03 3.00
283 6.0152 2563.69 2570.14 3.01
284 6.0276 2572.51 2571.25 3.01
285 6.0399 2574.80 2572.36 3.01
286 6.0523 2574.98 2573.47 3.01
287 6.0647 2576.05 2574.58 3.01
288 6.0770 2565.88 2575.68 3.00
289 6.0894 2556.90 2576.80 2.98
290 6.1018 2566.75 2577.91 2.99
291 6.1141 2583.97 2579.01 3.00
292 6.1265 2593.79 2580.12 3.00
293 6.1389 2582.93 2581.24 2.99
294 6.1513 2574.70 2582.35 2.98
295 6.1636 2578.63 2583.45 2.98
296 6.1760 2580.20 2583.44 2.98
297 6.1884 2592.31 2583.23 2.98
298 6.2007 2593.20 2583.02 2.98
299 6.2131 2581.17 2582.82 2.97
300 6.2255 2573.54 2582.61 2.96
301 6.2378 2580.22 2582.40 2.96
302 6.2502 2590.61 2582.20 2.96
303 6.2626 2593.85 2581.99 2.96
304 6.2749 2597.74 2581.79 2.96
305 6.2873 2586.99 2581.58 2.95
306 6.2997 2588.80 2581.37 2.95
307 6.3121 2583.82 2581.17 2.94
308 6.3244 2587.20 2580.96 2.94
309 6.3368 2583.78 2580.75 2.94
310 6.3492 2585.59 2580.55 2.94
311 6.3615 2577.81 2580.34 2.93
312 6.3739 2575.36 2580.13 2.92
313 6.3863 2577.42 2579.93 2.92
314 6.3986 2571.91 2579.72 2.91
315 6.4110 2575.42 2579.51 2.91
316 6.4234 2576.87 2579.28 2.91
317 6.4357 2586.75 2579.05 2.91
318 6.4481 2582.39 2578.81 2.90
319 6.4605 2569.30 2578.58 2.89
320 6.4728 2563.88 2578.35 2.88
321 6.4852 2574.60 2578.11 2.88
322 6.4976 2572.61 2577.88 2.88
323 6.5100 2561.57 2577.64 2.87
324 6.5223 2565.84 2577.41 2.87
325 6.5347 2569.66 2577.18 2.86
326 6.5471 2574.80 2576.95 2.87
327 6.5594 2572.26 2576.71 2.86
328 6.5718 2569.95 2576.48 2.86
329 6.5842 2567.38 2576.25 2.86
330 6.5965 2571.55 2576.01 2.86
331 6.6089 2569.86 2575.78 2.85
332 6.6213 2569.67 2575.55 2.85
333 6.6336 2575.35 2576.25 2.85
334 6.6460 2588.12 2577.16 2.85
335 6.6584 2590.89 2578.06 2.86
336 6.6707 2583.94 2578.96 2.85
337 6.6831 2581.08 2579.87 2.84
338 6.6955 2583.71 2580.78 2.84
339 6.7079 2579.84 2581.68 2.84
340 6.7202 2574.75 2582.58 2.83
341 6.7326 2578.11 2583.49 2.83
342 6.7450 2578.86 2584.39 2.83
343 6.7573 2581.62 2585.29 2.82
344 6.7697 2582.73 2586.20 2.82
345 6.7821 2590.39 2587.11 2.82
346 6.7944 2600.81 2588.00 2.83
347 6.8068 2598.03 2588.91 2.83
348 6.8192 2588.87 2589.82 2.82
349 6.8315 2582.59 2590.70 2.81
350 6.8439 2594.24 2590.69 2.82
351 6.8563 2603.58 2590.68 2.82
352 6.8687 2606.54 2590.67 2.82
353 6.8810 2605.85 2590.66 2.82
354 6.8934 2618.27 2590.65 2.84
355 6.9058 2626.97 2590.64 2.85
356 6.9181 2634.33 2590.63 2.86
357 6.9305 2632.58 2590.62 2.87
358 6.9429 2635.86 2590.61 2.88
359 6.9552 2643.50 2590.60 2.91
360 6.9676 2647.19 2590.59 2.96
361 6.9800 2646.41 2590.58 2.98
362 6.9923 2641.18 2590.57 3.00
363 7.0047 2633.85 2590.56 3.02
364 7.0171 2633.41 2590.55 3.04
365 7.0294 2628.83 2590.54 3.04
366 7.0418 2633.43 2590.53 3.06
367 7.0542 2635.66 2590.52 3.06
368 7.0666 2613.10 2590.51 3.04
369 7.0789 2580.21 2590.50 3.00
370 7.0913 2580.34 2591.11 3.00
371 7.1037 2619.94 2592.23 3.04
372 7.1160 2628.94 2593.34 3.04
373 7.1284 2619.27 2594.46 3.02
374 7.1408 2610.23 2595.58 3.00
375 7.1531 2621.70 2596.69 2.98
376 7.1655 2619.54 2597.81 2.94
377 7.1779 2620.64 2598.93 2.91
378 7.1902 2605.97 2600.04 2.88
379 7.2026 2598.25 2601.16 2.86
380 7.2150 2591.26 2602.64 2.84
381 7.2273 2598.25 2603.76 2.83
382 7.2397 2608.81 2604.90 2.83
383 7.2521 2617.63 2606.03 2.84
384 7.2645 2611.22 2607.16 2.83
385 7.2768 2604.44 2608.29 2.82
386 7.2892 2606.09 2609.43 2.81
387 7.3016 2611.67 2610.56 2.82
388 7.3139 2612.12 2611.69 2.81
389 7.3263 2608.84 2612.83 2.80
390 7.3387 2620.38 2613.97 2.80
391 7.3510 2617.38 2615.10 2.80
392 7.3634 2616.34 2616.24 2.79
393 7.3758 2618.17 2617.38 2.79
394 7.3881 2625.95 2618.52 2.79
395 7.4005 2623.45 2619.67 2.78
396 7.4129 2615.42 2620.81 2.77
397 7.4253 2607.52 2622.11 2.76
398 7.4376 2623.47 2623.79 2.77
399 7.4500 2630.57 2625.48 2.77
400 7.4624 2631.79 2627.18 2.76
401 7.4747 2627.58 2628.86 2.76
402 7.4871 2631.86 2630.56 2.76
403 7.4995 2636.18 2632.27 2.76
404 7.5118 2640.85 2633.96 2.76
405 7.5242 2641.07 2635.68 2.76
406 7.5366 2647.52 2637.39 2.76
407 7.5489 2647.22 2639.10 2.76
408 7.5613 2643.93 2640.83 2.75
409 7.5737 2640.31 2642.56 2.75
410 7.5860 2642.74 2644.29 2.74
411 7.5984 2643.50 2646.04 2.74
412 7.6108 2641.46 2647.80 2.74
413 7.6232 2632.78 2649.57 2.73
414 7.6355 2646.01 2651.34 2.73
415 7.6479 2661.54 2653.14 2.74
416 7.6603 2673.66 2654.95 2.74
417 7.6726 2670.94 2656.77 2.74
418 7.6850 2660.65 2658.63 2.73
419 7.6974 2654.85 2660.51 2.72
420 7.7097 2662.07 2662.41 2.72
421 7.7221 2665.31 2664.37 2.72
422 7.7345 2669.14 2666.36 2.71
423 7.7468 2671.46 2668.40 2.72
424 7.7592 2671.63 2670.52 2.71
425 7.7716 2670.55 2672.73 2.71
426 7.7839 2668.60 2675.03 2.70
427 7.7963 2672.38 2677.46 2.71
428 7.8087 2677.82 2679.98 2.71
429 7.8211 2685.20 2682.73 2.70
430 7.8334 2677.64 2685.75 2.70
431 7.8458 2677.82 2689.23 2.69
432 7.8582 2685.62 2693.68 2.70
433 7.8705 2697.20 2701.35 2.70
434 7.8829 2707.60 2721.68 2.70
435 7.8953 2724.31 2783.79 2.71
436 7.9076 2803.44 2954.26 2.74
437 7.9200 3076.64 3351.94 2.87
438 7.9324 3854.04 4105.92 3.21
439 7.9447 5173.20 5243.97 3.71
440 7.9571 6862.10 6577.46 4.27
441 7.9695 8029.96 7570.01 4.62
442 7.9819 7962.76 7636.61 4.60
443 7.9942 6738.10 6702.65 4.22
444 8.0066 5172.75 5282.28 3.70
445 8.0190 3861.72 4033.66 3.19
446 8.0313 3116.66 3266.53 2.86
447 8.0437 2846.00 2906.22 2.73
448 8.0561 2756.03 2775.06 2.69
449 8.0684 2730.14 2735.87 2.67
450 8.0808 2709.40 2725.12 2.66
451 8.0932 2709.83 2722.05 2.65
452 8.1055 2714.66 2721.06 2.66
453 8.1179 2711.12 2720.82 2.65
454 8.1303 2707.83 2721.01 2.65
455 8.1426 2715.37 2721.48 2.66
456 8.1550 2716.61 2722.17 2.65
457 8.1674 2716.70 2723.88 2.65
458 8.1798 2733.80 2725.98 2.66
459 8.1921 2747.95 2728.15 2.66
460 8.2045 2749.77 2730.42 2.66
461 8.2169 2742.13 2733.55 2.65
462 8.2292 2744.20 2735.94 2.65
463 8.2416 2750.45 2738.39 2.65
464 8.2540 2748.02 2740.88 2.64
465 8.2663 2742.22 2743.38 2.63
466 8.2787 2741.96 2745.93 2.63
467 8.2911 2742.98 2748.50 2.63
468 8.3034 2745.85 2751.07 2.62
469 8.3158 2758.38 2753.69 2.62
470 8.3282 2766.17 2756.33 2.63
471 8.3406 2770.21 2758.99 2.62
472 8.3529 2767.65 2761.69 2.62
473 8.3653 2775.57 2764.62 2.62
474 8.3777 2775.38 2768.12 2.61
475 8.3900 2761.38 2772.98 2.59
476 8.4024 2756.72 2780.44 2.59
477 8.4148 2781.28 2791.47 2.60
478 8.4271 2811.43 2805.32 2.61
479 8.4395 2826.30 2818.90 2.62
480 8.4519 2826.59 2826.80 2.61
481 8.4642 2820.19 2825.66 2.61
482 8.4766 2815.53 2817.61 2.60
483 8.4890 2815.85 2808.33 2.60
484 8.5013 2807.52 2802.28 2.59
485 8.5137 2812.37 2800.27 2.60
486 8.5261 2809.62 2801.10 2.59
487 8.5385 2815.20 2803.28 2.59
488 8.5508 2815.81 2805.92 2.60
489 8.5632 2816.69 2808.74 2.60
490 8.5756 2811.77 2811.61 2.59
491 8.5879 2811.48 2814.48 2.59
492 8.6003 2819.23 2817.93 2.60
493 8.6127 2828.57 2822.07 2.60
494 8.6250 2839.95 2826.21 2.61
495 8.6374 2830.03 2830.41 2.60
496 8.6498 2834.65 2834.64 2.60
497 8.6621 2836.85 2838.87 2.61
498 8.6745 2834.64 2843.19 2.60
499 8.6869 2838.35 2847.56 2.61
500 8.6992 2847.53 2851.95 2.61
501 8.7116 2856.19 2856.20 2.62
502 8.7240 2867.46 2860.41 2.62
503 8.7364 2871.00 2864.72 2.62
504 8.7487 2883.13 2868.78 2.63
505 8.7611 2895.76 2873.39 2.63
506 8.7735 2905.13 2878.18 2.63
507 8.7858 2905.46 2883.18 2.63
508 8.7982 2909.36 2888.53 2.63
509 8.8106 2914.85 2894.27 2.63
510 8.8229 2929.49 2900.49 2.63
511 8.8353 2939.17 2907.44 2.63
512 8.8477 2949.65 2915.43 2.63
513 8.8600 2972.49 2925.51 2.64
514 8.8724 3013.44 2942.80 2.65
515 8.8848 3101.60 2987.29 2.69
516 8.8972 3292.00 3123.24 2.77
517 8.9095 3664.07 3500.45 2.92
518 8.9219 4512.43 4386.11 3.24
519 8.9343 6081.84 6046.56 3.76
520 8.9466 8284.65 8455.82 4.38
521 8.9590 10772.20 11068.90 4.99
522 8.9714 12299.30 12716.80 5.33
523 8.9837 12042.60 12414.20 5.27
524 8.9961 10164.70 10294.40 4.84
525 9.0085 7729.30 7517.72 4.22
526 9.0208 5693.85 5255.39 3.62
527 9.0332 4355.95 3902.50 3.16
528 9.0456 3672.38 3293.10 2.91
529 9.0579 3327.81 3076.96 2.76
530 9.0703 3172.36 3011.95 2.70
531 9.0827 3083.97 2994.20 2.65
532 9.0951 3041.41 2988.96 2.63
533 9.1074 3027.51 2987.26 2.63
534 9.1198 3027.50 2987.00 2.63
535 9.1322 3013.07 2987.61 2.62
536 9.1445 3003.22 2988.81 2.61
537 9.1569 3002.44 2990.47 2.61
538 9.1693 3002.19 2992.47 2.60
539 9.1816 3001.88 2994.71 2.60
540 9.1940 2990.62 2997.23 2.59
541 9.2064 2994.06 2999.87 2.59
542 9.2187 2996.58 3003.04 2.59
543 9.2311 3012.01 3006.51 2.59
544 9.2435 3018.76 3010.08 2.60
545 9.2558 3028.59 3013.70 2.60
546 9.2682 3038.49 3017.41 2.60
547 9.2806 3035.75 3021.17 2.60
548 9.2930 3033.38 3024.98 2.60
549 9.3053 3021.73 3028.79 2.58
550 9.3177 3025.02 3032.68 2.59
551 9.3301 3023.07 3036.58 2.58
552 9.3424 3028.79 3040.49 2.58
553 9.3548 3032.94 3044.45 2.58
554 9.3672 3049.82 3048.42 2.59
555 9.3795 3055.52 3052.39 2.59
556 9.3919 3064.14 3056.39 2.59
557 9.4043 3066.09 3060.42 2.59
558 9.4166 3073.84 3064.42 2.60
559 9.4290 3076.23 3068.47 2.60
560 9.4414 3077.95 3072.52 2.59
561 9.4538 3081.01 3076.59 2.59
562 9.4661 3083.24 3080.63 2.59
563 9.4785 3078.25 3084.71 2.59
564 9.4909 3083.74 3088.15 2.59
565 9.5032 3088.21 3091.01 2.59
566 9.5156 3102.93 3093.91 2.59
567 9.5280 3106.89 3096.81 2.59
568 9.5403 3112.49 3099.69 2.59
569 9.5527 3110.20 3102.60 2.58
570 9.5651 3120.96 3105.51 2.59
571 9.5774 3116.56 3108.41 2.59
572 9.5898 3112.51 3111.33 2.58
573 9.6022 3114.22 3114.26 2.58
574 9.6145 3132.79 3117.17 2.59
575 9.6269 3139.07 3120.11 2.59
576 9.6393 3132.67 3123.05 2.59
577 9.6517 3134.31 3125.99 2.58
578 9.6640 3145.01 3128.92 2.59
579 9.6764 3151.67 3131.88 2.59
580 9.6888 3150.76 3134.84 2.59
581 9.7011 3148.50 3137.79 2.58
582 9.7135 3148.69 3140.77 2.58
583 9.7259 3139.62 3143.78 2.57
584 9.7382 3144.62 3146.61 2.58
585 9.7506 3157.56 3150.27 2.58
586 9.7630 3163.30 3153.95 2.58
587 9.7753 3160.99 3157.62 2.57
588 9.7877 3163.54 3161.35 2.58
589 9.8001 3169.21 3165.11 2.58
590 9.8124 3174.07 3168.88 2.58
591 9.8248 3168.08 3172.76 2.57
592 9.8372 3172.50 3176.77 2.57
593 9.8496 3173.51 3181.24 2.57
594 9.8619 3184.11 3186.69 2.57
595 9.8743 3187.08 3196.46 2.57
596 9.8867 3198.66 3221.56 2.58
597 9.8990 3221.75 3277.64 2.58
598 9.9114 3278.51 3380.79 2.60
599 9.9238 3358.87 3526.03 2.63
600 9.9361 3443.92 3670.69 2.66
601 9.9485 3503.75 3749.10 2.68
602 9.9609 3493.26 3713.20 2.68
603 9.9732 3413.64 3586.24 2.64
604 9.9856 3334.41 3434.37 2.61
605 9.9980 3268.40 3315.98 2.58
606 10.0103 3219.06 3248.76 2.57
607 10.0227 3192.56 3219.30 2.55
608 10.0351 3189.32 3209.72 2.54
609 10.0475 3201.32 3207.80 2.55
610 10.0598 3200.90 3208.22 2.55
611 10.0722 3210.81 3209.20 2.55
612 10.0846 3212.70 3207.99 2.55
613 10.0969 3210.53 3206.86 2.55
614 10.1093 3204.40 3205.79 2.54
615 10.1217 3206.37 3204.74 2.55
616 10.1340 3199.42 3203.74 2.53
617 10.1464 3199.65 3202.74 2.53
618 10.1588 3204.21 3201.77 2.53
619 10.1711 3203.97 3200.81 2.53
620 10.1835 3208.89 3199.85 2.54
621 10.1959 3216.41 3198.91 2.54
622 10.2082 3216.37 3197.98 2.54
623 10.2206 3208.47 3197.04 2.53
624 10.2330 3205.02 3196.11 2.53
625 10.2454 3198.89 3195.19 2.52
626 10.2577 3202.04 3194.27 2.52
627 10.2701 3198.38 3193.35 2.51
628 10.2825 3185.02 3192.44 2.51
629 10.2948 3188.22 3191.31 2.51
630 10.3072 3205.63 3190.10 2.52
631 10.3196 3206.35 3188.89 2.51
632 10.3319 3195.27 3187.69 2.50
633 10.3443 3186.69 3186.48 2.50
634 10.3567 3185.95 3185.27 2.50
635 10.3690 3191.02 3184.08 2.50
636 10.3814 3200.93 3182.87 2.50
637 10.3938 3197.02 3181.67 2.50
638 10.4062 3193.91 3180.46 2.50
639 10.4185 3187.88 3179.27 2.49
640 10.4309 3190.33 3178.07 2.49
641 10.4433 3184.04 3176.86 2.48
642 10.4556 3184.14 3175.67 2.49
643 10.4680 3179.57 3174.47 2.48
644 10.4804 3182.09 3173.27 2.48
645 10.4927 3182.91 3172.08 2.50
646 10.5051 3175.99 3170.88 2.52
647 10.5175 3171.55 3169.68 2.54
648 10.5298 3169.86 3168.49 2.55
649 10.5422 3162.32 3167.29 2.55
650 10.5546 3158.44 3166.09 2.56
651 10.5670 3164.16 3164.69 2.57
652 10.5793 3160.18 3161.08 2.57
653 10.5917 3162.38 3157.42 2.58
654 10.6041 3154.43 3153.76 2.58
655 10.6164 3154.10 3150.13 2.59
656 10.6288 3158.29 3146.48 2.59
657 10.6412 3157.42 3142.82 2.60
658 10.6535 3151.64 3139.19 2.60
659 10.6659 3150.12 3135.54 2.61
660 10.6783 3147.31 3131.88 2.61
661 10.6906 3142.25 3128.25 2.61
662 10.7030 3135.63 3124.60 2.62
663 10.7154 3113.83 3120.89 2.60
664 10.7278 3121.08 3117.24 2.61
665 10.7401 3112.58 3113.62 2.61
666 10.7525 3099.13 3109.96 2.61
667 10.7649 3096.11 3106.31 2.61
668 10.7772 3097.61 3102.68 2.61
669 10.7896 3095.51 3099.03 2.62
670 10.8020 3107.36 3095.38 2.63
671 10.8143 3108.16 3091.75 2.63
672 10.8267 3095.18 3088.55 2.63
673 10.8391 3084.29 3084.91 2.63
674 10.8514 3077.52 3081.31 2.62
675 10.8638 3084.32 3078.53 2.63
676 10.8762 3084.78 3075.91 2.64
677 10.8885 3075.80 3073.31 2.64
678 10.9009 3076.15 3070.69 2.64
679 10.9133 3087.32 3071.38 2.65
680 10.9257 3080.03 3068.88 2.65
681 10.9380 3062.44 3066.40 2.64
682 10.9504 3050.97 3063.91 2.63
683 10.9628 3054.57 3061.43 2.60
684 10.9751 3053.69 3058.97 2.58
685 10.9875 3047.67 3056.51 2.56
686 10.9999 3047.52 3054.06 2.55
687 11.0122 3047.20 3051.64 2.54
688 11.0246 3045.64 3049.21 2.53
689 11.0370 3042.95 3046.79 2.52
690 11.0493 3036.95 3044.41 2.51
691 11.0617 3032.22 3040.76 2.51
692 11.0741 3036.16 3036.74 2.50
693 11.0864 3039.24 3032.77 2.50
694 11.0988 3038.90 3028.79 2.49
695 11.1112 3033.60 3024.83 2.49
696 11.1236 3029.05 3020.90 2.48
697 11.1359 3020.06 3017.03 2.47
698 11.1483 3002.29 3013.16 2.46
699 11.1607 2996.90 3009.32 2.45
700 11.1730 2991.97 3005.56 2.44
701 11.1854 2986.42 3001.82 2.44
702 11.1978 2978.14 2998.14 2.43
703 11.2101 2980.35 2994.56 2.43
704 11.2225 2978.92 2991.07 2.43
705 11.2349 2975.53 2988.50 2.42
706 11.2472 2971.88 2987.83 2.42
707 11.2596 2972.75 2989.96 2.41
708 11.2720 2978.23 2998.83 2.41
709 11.2844 3007.57 3019.72 2.42
710 11.2967 3059.71 3054.49 2.44
711 11.3091 3096.81 3096.43 2.46
712 11.3214 3127.48 3127.35 2.46
713 11.3338 3128.13 3129.94 2.46
714 11.3462 3096.33 3101.86 2.44
715 11.3586 3052.40 3058.97 2.43
716 11.3709 3010.07 3020.00 2.40
717 11.3833 2975.98 2993.77 2.39
718 11.3957 2951.45 2980.48 2.38
719 11.4080 2937.84 2975.59 2.37
720 11.4204 2932.47 2974.90 2.36
721 11.4328 2925.69 2976.28 2.36
722 11.4451 2927.45 2976.85 2.36
723 11.4575 2927.16 2977.35 2.35
724 11.4699 2928.90 2980.32 2.35
725 11.4822 2936.37 2989.55 2.35
726 11.4946 2961.51 3019.34 2.36
727 11.5070 3027.40 3112.38 2.38
728 11.5194 3215.47 3364.61 2.46
729 11.5317 3723.94 3913.05 2.64
730 11.5441 4648.08 4857.00 2.95
731 11.5565 5851.80 6054.38 3.30
732 11.5688 6915.76 7067.67 3.58
733 11.5812 7296.34 7457.87 3.68
734 11.5936 7167.12 7265.13 3.64
735 11.6059 7190.91 7373.91 3.64
736 11.6183 8941.84 9235.47 4.06
737 11.6307 13823.50 14126.10 5.06
738 11.6430 22228.30 21828.60 6.40
739 11.6554 30398.80 29955.20 7.48
740 11.6678 34296.90 34379.70 7.93
741 11.6801 32503.40 32460.50 7.72
742 11.6925 25274.10 25403.30 6.80
743 11.7049 16554.00 16943.50 5.50
744 11.7173 10006.10 10140.40 4.27
745 11.7296 5814.01 6034.34 3.25
746 11.7420 4017.21 4046.46 2.70
747 11.7544 3264.01 3272.19 2.43
748 11.7667 3014.73 3011.49 2.33
749 11.7791 2918.00 2919.58 2.29
750 11.7915 2871.96 2876.44 2.28
751 11.8038 2824.68 2847.71 2.26
752 11.8162 2803.14 2824.60 2.25
753 11.8286 2780.80 2805.07 2.24
754 11.8409 2757.85 2788.24 2.22
755 11.8533 2742.28 2773.23 2.21
756 11.8657 2731.34 2759.73 2.21
757 11.8781 2721.50 2747.40 2.21
758 11.8904 2709.20 2736.09 2.20
759 11.9028 2703.18 2725.43 2.20
760 11.9152 2690.20 2715.38 2.18
761 11.9275 2683.30 2705.89 2.18
762 11.9399 2676.69 2696.73 2.17
763 11.9523 2668.37 2687.91 2.17
764 11.9646 2653.50 2679.19 2.16
765 11.9770 2639.73 2669.53 2.16
766 11.9894 2628.53 2660.08 2.15
767 12.0017 2629.25 2650.89 2.15
768 12.0141 2624.19 2641.76 2.15
769 12.0265 2617.34 2632.77 2.14
770 12.0389 2614.70 2624.07 2.14
771 12.0512 2592.51 2615.37 2.13
772 12.0636 2578.62 2606.68 2.12
773 12.0760 2563.63 2598.08 2.11
774 12.0883 2565.10 2589.61 2.11
775 12.1007 2571.05 2581.11 2.11
776 12.1131 2570.73 2572.69 2.11
777 12.1254 2556.99 2564.39 2.11
778 12.1378 2539.25 2556.06 2.10
779 12.1502 2531.76 2547.77 2.09
780 12.1625 2520.29 2539.58 2.08
781 12.1749 2513.32 2531.36 2.08
782 12.1873 2509.12 2523.17 2.07
783 12.1996 2504.34 2515.07 2.07
784 12.2120 2501.06 2506.93 2.07
785 12.2244 2494.07 2500.88 2.06
786 12.2368 2492.60 2494.91 2.06
787 12.2491 2496.17 2489.00 2.07
788 12.2615 2495.26 2483.06 2.06
789 12.2739 2488.23 2477.14 2.06
790 12.2862 2480.97 2471.79 2.06
791 12.2986 2470.71 2465.91 2.05
792 12.3110 2464.12 2460.05 2.04
793 12.3233 2453.61 2454.25 2.03
794 12.3357 2446.01 2448.42 2.03
795 12.3481 2435.01 2442.16 2.03
796 12.3604 2430.53 2436.41 2.02
797 12.3728 2421.20 2430.63 2.02
798 12.3852 2420.81 2424.86 2.02
799 12.3976 2414.03 2419.09 2.01
800 12.4099 2413.58 2413.39 2.01
801 12.4223 2408.87 2407.65 2.01
802 12.4347 2403.78 2398.65 2.01
803 12.4470 2390.17 2393.08 2.00
804 12.4594 2380.55 2387.48 1.99
805 12.4718 2374.65 2381.88 1.99
806 12.4841 2375.16 2376.34 1.98
807 12.4965 2366.77 2370.77 1.98
808 12.5089 2364.97 2365.20 1.97
809 12.5212 2358.46 2359.60 1.97
810 12.5336 2356.64 2353.90 1.97
811 12.5460 2349.28 2348.23 1.96
812 12.5583 2344.42 2342.62 1.95
813 12.5707 2334.61 2337.00 1.95
814 12.5831 2328.02 2331.41 1.95
815 12.5955 2322.60 2325.86 1.94
816 12.6078 2325.13 2320.41 1.94
817 12.6202 2321.10 2314.98 1.94
818 12.6326 2313.77 2309.64 1.94
819 12.6449 2304.02 2304.45 1.93
820 12.6573 2291.17 2299.36 1.92
821 12.6697 2287.94 2295.44 1.92
822 12.6820 2298.85 2292.17 1.92
823 12.6944 2299.93 2289.64 1.92
824 12.7068 2298.80 2289.64 1.92
825 12.7191 2302.98 2298.20 1.92
826 12.7315 2339.80 2333.11 1.94
827 12.7439 2436.06 2431.80 1.98
828 12.7563 2646.29 2644.86 2.05
829 12.7686 2988.14 2989.41 2.18
830 12.7810 3404.27 3398.10 2.33
831 12.7933 3701.46 3694.54 2.43
832 12.8057 3718.92 3719.25 2.43
833 12.8181 3476.10 3458.93 2.35
834 12.8305 3091.60 3065.97 2.22
835 12.8428 2725.33 2707.47 2.08
836 12.8552 2489.48 2457.93 1.99
837 12.8676 2336.36 2320.76 1.92
838 12.8799 2260.11 2258.81 1.89
839 12.8923 2233.23 2233.86 1.87
840 12.9047 2227.88 2223.89 1.88
841 12.9170 2224.59 2219.13 1.87
842 12.9294 2231.65 2216.59 1.88
843 12.9418 2242.33 2216.67 1.88
844 12.9541 2273.04 2223.85 1.89
845 12.9665 2345.94 2255.28 1.92
846 12.9789 2503.55 2360.67 1.98
847 12.9912 2841.66 2643.62 2.11
848 13.0036 3441.98 3256.37 2.32
849 13.0160 4322.56 4266.98 2.61
850 13.0284 5290.04 5476.33 2.88
851 13.0407 5956.07 6382.15 3.06
852 13.0531 6046.20 6506.62 3.07
853 13.0655 5489.14 5784.62 2.93
854 13.0778 4537.99 4658.34 2.66
855 13.0902 3583.89 3594.34 2.36
856 13.1026 2913.23 2849.30 2.12
857 13.1149 2506.91 2435.97 1.97
858 13.1273 2305.34 2244.35 1.89
859 13.1397 2212.91 2169.00 1.85
860 13.1520 2168.01 2140.49 1.83
861 13.1644 2129.40 2126.97 1.81
862 13.1768 2112.22 2117.92 1.80
863 13.1892 2103.63 2110.31 1.80
864 13.2015 2101.29 2103.46 1.80
865 13.2139 2090.32 2097.01 1.80
866 13.2263 2085.34 2090.91 1.79
867 13.2386 2080.45 2085.12 1.79
868 13.2510 2080.66 2080.06 1.79
869 13.2634 2071.83 2075.16 1.79
870 13.2757 2059.08 2070.44 1.78
871 13.2881 2056.48 2065.78 1.78
872 13.3005 2046.18 2061.20 1.77
873 13.3128 2041.82 2056.74 1.76
874 13.3252 2038.90 2052.29 1.76
875 13.3376 2038.51 2047.90 1.76
876 13.3500 2035.83 2043.54 1.76
877 13.3623 2031.08 2039.26 1.76
878 13.3747 2024.02 2034.97 1.75
879 13.3871 2017.55 2030.70 1.75
880 13.3994 2014.00 2026.49 1.75
881 13.4118 2010.12 2022.27 1.74
882 13.4242 2004.44 2018.06 1.74
883 13.4365 2002.46 2013.90 1.74
884 13.4489 2000.45 2009.73 1.74
885 13.4613 1993.57 2005.56 1.73
886 13.4736 1987.72 2001.43 1.73
887 13.4860 1981.04 1997.29 1.72
888 13.4984 1980.50 1993.15 1.72
889 13.5108 1978.51 1989.01 1.72
890 13.5231 1974.71 1984.92 1.72
891 13.5355 1970.69 1980.80 1.72
892 13.5479 1968.85 1976.68 1.72
893 13.5602 1958.43 1972.61 1.71
894 13.5726 1948.02 1968.50 1.70
895 13.5850 1948.17 1964.23 1.70
896 13.5973 1944.10 1960.17 1.70
897 13.6097 1937.97 1956.08 1.69
898 13.6221 1933.76 1952.00 1.69
899 13.6344 1936.97 1947.94 1.69
900 13.6468 1937.55 1943.86 1.69
901 13.6592 1938.28 1939.78 1.69
902 13.6715 1931.91 1935.74 1.69
903 13.6839 1929.36 1931.66 1.69
904 13.6963 1925.69 1927.59 1.69
905 13.7087 1919.81 1923.51 1.68
906 13.7210 1914.67 1919.47 1.68
907 13.7334 1909.71 1915.40 1.67
908 13.7458 1904.68 1911.34 1.67
909 13.7581 1900.92 1907.30 1.67
910 13.7705 1896.07 1903.23 1.66
911 13.7829 1895.86 1899.17 1.66
912 13.7952 1893.87 1895.14 1.66
913 13.8076 1887.01 1891.07 1.66
914 13.8200 1884.16 1887.01 1.66
915 13.8323 1882.41 1882.49 1.65
916 13.8447 1877.36 1878.44 1.65
917 13.8571 1873.34 1874.40 1.65
918 13.8695 1874.57 1870.45 1.65
919 13.8818 1872.31 1867.25 1.65
920 13.8942 1869.11 1864.03 1.64
921 13.9066 1863.52 1860.80 1.64
922 13.9189 1850.09 1857.61 1.63
923 13.9313 1841.11 1854.38 1.63
924 13.9437 1847.31 1851.16 1.63
925 13.9560 1852.73 1847.96 1.63
926 13.9684 1844.32 1844.74 1.63
927 13.9808 1836.03 1841.52 1.62
928 13.9931 1836.00 1838.32 1.62
929 14.0055 1834.39 1835.10 1.62
930 14.0179 1825.81 1831.87 1.61
931 14.0302 1812.87 1828.67 1.61
932 14.0426 1809.58 1825.45 1.61
933 14.0550 1815.19 1822.23 1.61
934 14.0674 1816.07 1819.00 1.61
935 14.0797 1812.38 1815.81 1.60
936 14.0921 1811.45 1812.58 1.60
937 14.1044 1810.99 1809.39 1.60
938 14.1168 1802.84 1806.16 1.60
939 14.1292 1792.97 1802.94 1.59
940 14.1416 1792.60 1799.72 1.59
941 14.1539 1788.43 1796.52 1.59
942 14.1663 1787.27 1793.30 1.59
943 14.1787 1787.65 1790.07 1.59
944 14.1910 1783.03 1786.88 1.58
945 14.2034 1777.99 1783.65 1.58
946 14.2158 1773.24 1780.43 1.58
947 14.2281 1774.34 1777.38 1.58
948 14.2405 1771.80 1774.16 1.57
949 14.2529 1768.02 1770.94 1.57
950 14.2652 1762.56 1767.75 1.57
951 14.2776 1762.65 1764.53 1.57
952 14.2900 1762.46 1761.31 1.57
953 14.3024 1761.22 1758.10 1.56
954 14.3147 1753.50 1754.90 1.56
955 14.3271 1753.12 1751.69 1.56
956 14.3395 1746.19 1748.48 1.56
957 14.3518 1746.64 1745.30 1.56
958 14.3642 1747.74 1742.13 1.56
959 14.3766 1748.33 1739.02 1.56
960 14.3889 1741.49 1736.03 1.55
961 14.4013 1733.59 1733.11 1.55
962 14.4137 1729.44 1730.22 1.55
963 14.4260 1725.56 1727.23 1.54
964 14.4384 1723.99 1723.99 1.54
965 14.4508 1722.26 1720.54 1.54
966 14.4631 1720.85 1717.05 1.54
967 14.4755 1715.57 1713.58 1.53
968 14.4879 1704.85 1710.81 1.53
969 14.5003 1703.11 1708.20 1.52
970 14.5126 1700.22 1705.66 1.52
971 14.5250 1697.84 1703.13 1.52
972 14.5374 1696.34 1700.62 1.52
973 14.5497 1698.66 1698.12 1.52
974 14.5621 1695.87 1695.61 1.52
975 14.5745 1695.65 1693.30 1.52
976 14.5868 1696.18 1690.82 1.52
977 14.5992 1694.26 1688.33 1.52
978 14.6116 1685.29 1685.83 1.51
979 14.6239 1678.79 1683.36 1.51
980 14.6363 1674.70 1680.88 1.51
981 14.6487 1676.46 1678.40 1.51
982 14.6611 1670.79 1675.92 1.50
983 14.6734 1666.53 1673.46 1.50
984 14.6858 1670.40 1671.00 1.50
985 14.6982 1664.21 1668.53 1.49
986 14.7105 1659.14 1666.10 1.49
987 14.7229 1659.39 1663.66 1.49
988 14.7353 1660.38 1661.22 1.49
989 14.7476 1658.78 1658.82 1.49
990 14.7600 1657.70 1656.41 1.49
991 14.7724 1656.36 1654.01 1.49
992 14.7847 1658.72 1651.66 1.49
993 14.7971 1655.12 1649.31 1.49
994 14.8095 1649.81 1646.98 1.48
995 14.8219 1645.81 1644.70 1.48
996 14.8342 1644.38 1642.47 1.48
997 14.8466 1643.03 1640.28 1.48
998 14.8590 1643.23 1638.28 1.48
999 14.8713 1634.94 1636.80 1.47
1000 14.8837 1626.29 1635.45 1.46
1001 14.8961 1623.62 1634.30 1.46
1002 14.9084 1630.41 1633.55 1.46
1003 14.9208 1633.19 1633.76 1.47
1004 14.9332 1637.78 1637.12 1.47
1005 14.9455 1655.39 1650.29 1.48
1006 14.9579 1699.28 1690.61 1.49
1007 14.9703 1803.16 1789.69 1.54
1008 14.9827 1986.95 1981.68 1.62
1009 14.9950 2260.32 2262.27 1.72
1010 15.0074 2526.69 2558.81 1.82
1011 15.0198 2681.40 2735.30 1.87
1012 15.0321 2625.53 2696.58 1.85
1013 15.0445 2406.79 2472.33 1.77
1014 15.0569 2152.04 2185.46 1.67
1015 15.0692 1919.82 1940.63 1.58
1016 15.0816 1770.23 1772.42 1.52
1017 15.0940 1679.85 1676.71 1.48
1018 15.1063 1636.29 1630.43 1.46
1019 15.1187 1607.96 1610.32 1.44
1020 15.1311 1597.40 1601.84 1.44
1021 15.1434 1592.97 1597.66 1.43
1022 15.1558 1593.64 1594.65 1.43
1023 15.1682 1590.95 1592.62 1.43
1024 15.1805 1584.10 1590.35 1.43
1025 15.1929 1581.70 1588.20 1.43
1026 15.2053 1580.24 1586.07 1.42
1027 15.2177 1584.62 1584.12 1.43
1028 15.2300 1582.41 1582.40 1.42
1029 15.2424 1583.79 1580.95 1.42
1030 15.2548 1592.30 1579.91 1.43
1031 15.2671 1602.45 1579.73 1.43
1032 15.2795 1619.88 1582.00 1.44
1033 15.2919 1653.03 1592.30 1.45
1034 15.3042 1723.04 1625.14 1.48
1035 15.3166 1836.37 1713.87 1.53
1036 15.3290 2025.09 1906.12 1.61
1037 15.3413 2286.79 2227.73 1.71
1038 15.3537 2580.60 2634.64 1.81
1039 15.3661 2838.80 2974.07 1.90
1040 15.3784 2923.41 3074.63 1.93
1041 15.3908 2797.06 2885.88 1.88
1042 15.4032 2516.07 2524.48 1.78
1043 15.4156 2192.99 2156.83 1.67
1044 15.4279 1935.95 1879.19 1.56
1045 15.4403 1752.69 1703.55 1.49
1046 15.4527 1652.61 1609.90 1.44
1047 15.4650 1601.85 1566.90 1.42
1048 15.4774 1578.81 1548.64 1.41
1049 15.4898 1562.69 1540.60 1.40
1050 15.5021 1550.12 1536.05 1.40
1051 15.5145 1541.41 1532.52 1.39
1052 15.5269 1534.07 1529.39 1.39
1053 15.5393 1528.33 1526.48 1.38
1054 15.5516 1520.66 1523.76 1.38
1055 15.5640 1516.11 1521.14 1.38
1056 15.5764 1515.36 1518.62 1.38
1057 15.5887 1514.51 1516.42 1.37
1058 15.6011 1518.69 1514.76 1.38
1059 15.6135 1513.88 1513.16 1.38
1060 15.6258 1509.04 1511.64 1.37
1061 15.6382 1508.97 1510.16 1.37
1062 15.6506 1504.22 1508.73 1.37
1063 15.6629 1499.92 1507.38 1.36
1064 15.6753 1501.26 1506.07 1.36
1065 15.6877 1502.74 1504.82 1.36
1066 15.7000 1504.06 1503.65 1.36
1067 15.7124 1499.01 1502.54 1.36
1068 15.7248 1494.34 1501.53 1.36
1069 15.7372 1496.22 1500.61 1.36
1070 15.7495 1495.52 1499.81 1.36
1071 15.7619 1495.57 1499.15 1.36
1072 15.7743 1489.01 1498.68 1.35
1073 15.7866 1487.97 1497.99 1.35
1074 15.7990 1489.79 1497.56 1.35
1075 15.8114 1490.89 1497.48 1.35
1076 15.8237 1493.54 1497.91 1.35
1077 15.8361 1493.93 1498.93 1.35
1078 15.8485 1500.15 1501.47 1.35
1079 15.8608 1503.17 1506.96 1.35
1080 15.8732 1517.16 1521.16 1.36
1081 15.8856 1561.13 1560.69 1.38
1082 15.8979 1660.15 1665.81 1.42
1083 15.9103 1897.71 1918.92 1.52
1084 15.9227 2403.69 2433.41 1.71
1085 15.9350 3346.90 3282.52 2.01
1086 15.9474 4613.41 4403.45 2.36
1087 15.9598 5917.73 5468.50 2.67
1088 15.9722 6628.88 6022.10 2.83
1089 15.9845 6327.91 5788.56 2.76
1090 15.9969 5244.14 4898.65 2.52
1091 16.0093 3927.21 3794.86 2.17
1092 16.0216 2825.32 2860.98 1.85
1093 16.0340 2202.22 2231.95 1.63
1094 16.0464 1940.04 1918.72 1.53
1095 16.0587 1939.48 1878.17 1.53
1096 16.0711 2102.00 2057.79 1.59
1097 16.0835 2322.16 2370.91 1.67
1098 16.0959 2492.69 2668.96 1.73
1099 16.1082 2539.31 2788.74 1.74
1100 16.1206 2434.23 2660.99 1.70
1101 16.1330 2238.20 2362.60 1.63
1102 16.1453 2004.79 2040.08 1.54
1103 16.1577 1806.81 1780.70 1.47
1104 16.1701 1669.87 1610.25 1.42
1105 16.1824 1577.66 1514.22 1.39
1106 16.1948 1523.41 1465.90 1.38
1107 16.2072 1484.82 1443.91 1.36
1108 16.2195 1463.09 1434.05 1.36
1109 16.2319 1444.84 1428.56 1.35
1110 16.2443 1432.29 1424.56 1.35
1111 16.2566 1424.96 1421.13 1.35
1112 16.2690 1421.38 1417.95 1.35
1113 16.2814 1419.05 1414.96 1.35
1114 16.2937 1412.90 1412.16 1.35
1115 16.3061 1405.36 1409.46 1.35
1116 16.3185 1400.48 1406.87 1.35
1117 16.3309 1397.25 1404.37 1.35
1118 16.3432 1396.03 1401.96 1.35
1119 16.3556 1393.52 1398.68 1.35
1120 16.3680 1392.81 1395.35 1.35
1121 16.3803 1389.11 1392.10 1.35
1122 16.3927 1383.05 1388.87 1.35
1123 16.4051 1378.58 1385.67 1.35
1124 16.4174 1374.50 1382.53 1.35
1125 16.4298 1370.14 1379.40 1.35
1126 16.4422 1369.62 1376.30 1.35
1127 16.4545 1373.78 1373.25 1.35
1128 16.4669 1378.13 1370.23 1.36
1129 16.4793 1376.18 1367.25 1.36
1130 16.4917 1367.41 1364.37 1.35
1131 16.5040 1364.36 1362.99 1.35
1132 16.5164 1367.44 1362.99 1.36
1133 16.5288 1371.95 1364.65 1.36
1134 16.5411 1376.87 1369.90 1.36
1135 16.5535 1390.31 1381.36 1.37
1136 16.5659 1408.19 1399.97 1.38
1137 16.5782 1421.85 1422.00 1.39
1138 16.5906 1430.47 1439.78 1.40
1139 16.6030 1441.63 1446.32 1.40
1140 16.6153 1454.19 1444.44 1.39
1141 16.6277 1471.75 1448.75 1.39
1142 16.6401 1487.73 1475.95 1.39
1143 16.6524 1508.31 1529.85 1.40
1144 16.6648 1535.34 1594.45 1.41
1145 16.6772 1546.32 1636.78 1.41
1146 16.6895 1541.12 1630.70 1.40
1147 16.7019 1511.50 1578.25 1.38
1148 16.7143 1469.46 1506.82 1.36
1149 16.7267 1426.06 1442.75 1.34
1150 16.7390 1388.82 1397.18 1.32
1151 16.7514 1364.77 1368.82 1.31
1152 16.7638 1350.65 1353.35 1.30
1153 16.7761 1345.29 1345.75 1.29
1154 16.7885 1342.65 1341.99 1.29
1155 16.8009 1341.70 1340.05 1.29
1156 16.8132 1336.44 1337.85 1.28
1157 16.8256 1332.34 1336.07 1.28
1158 16.8380 1336.51 1334.63 1.28
1159 16.8504 1340.69 1334.01 1.28
1160 16.8627 1346.29 1335.62 1.28
1161 16.8751 1356.34 1342.59 1.29
1162 16.8875 1363.02 1359.69 1.29
1163 16.8998 1381.81 1390.26 1.29
1164 16.9122 1401.99 1431.70 1.30
1165 16.9246 1413.71 1470.31 1.31
1166 16.9369 1414.03 1487.63 1.31
1167 16.9493 1406.77 1473.91 1.30
1168 16.9617 1395.60 1437.07 1.30
1169 16.9740 1372.66 1395.03 1.28
1170 16.9864 1346.25 1359.76 1.27
1171 16.9988 1330.47 1335.33 1.26
1172 17.0111 1318.39 1320.38 1.25
1173 17.0235 1305.92 1312.27 1.25
1174 17.0359 1302.56 1307.45 1.25
1175 17.0483 1302.84 1304.74 1.24
1176 17.0606 1301.48 1302.54 1.24
1177 17.0730 1294.42 1300.60 1.24
1178 17.0854 1295.84 1298.74 1.24
1179 17.0977 1295.30 1296.93 1.24
1180 17.1101 1291.94 1295.13 1.23
1181 17.1225 1293.42 1293.40 1.23
1182 17.1348 1294.21 1291.99 1.23
1183 17.1472 1283.39 1290.55 1.23
1184 17.1596 1278.48 1289.11 1.22
1185 17.1719 1280.87 1287.70 1.22
1186 17.1843 1280.87 1286.28 1.22
1187 17.1967 1282.58 1284.87 1.22
1188 17.2090 1284.14 1283.47 1.22
1189 17.2214 1283.97 1282.07 1.22
1190 17.2338 1280.85 1280.67 1.22
1191 17.2461 1274.29 1279.30 1.22
1192 17.2585 1271.92 1277.91 1.21
1193 17.2709 1269.07 1276.53 1.21
1194 17.2833 1269.44 1275.16 1.21
1195 17.2956 1269.00 1273.80 1.21
1196 17.3080 1272.99 1272.44 1.21
1197 17.3204 1270.46 1271.08 1.21
1198 17.3327 1270.81 1269.74 1.21
1199 17.3451 1265.47 1268.78 1.20
1200 17.3575 1262.94 1267.45 1.20
1201 17.3698 1261.93 1266.14 1.20
1202 17.3822 1262.64 1264.83 1.20
1203 17.3946 1261.05 1263.52 1.20
1204 17.4070 1257.44 1262.23 1.20
1205 17.4193 1252.70 1260.95 1.19
1206 17.4317 1252.82 1259.74 1.19
1207 17.4441 1255.36 1258.48 1.19
1208 17.4564 1254.85 1257.23 1.19
1209 17.4688 1254.42 1256.00 1.19
1210 17.4812 1251.85 1254.92 1.19
1211 17.4935 1249.73 1253.91 1.18
1212 17.5059 1245.00 1252.92 1.18
1213 17.5183 1241.61 1251.95 1.18
1214 17.5306 1243.52 1251.02 1.18
1215 17.5430 1246.05 1250.07 1.18
1216 17.5554 1246.41 1249.20 1.18
1217 17.5677 1242.74 1248.37 1.17
1218 17.5801 1240.02 1247.58 1.17
1219 17.5925 1237.77 1246.84 1.17
1220 17.6048 1238.27 1246.16 1.17
1221 17.6172 1240.77 1245.55 1.17
1222 17.6296 1235.29 1245.03 1.17
1223 17.6420 1235.68 1244.60 1.17
1224 17.6543 1236.05 1244.26 1.17
1225 17.6667 1235.63 1244.04 1.17
1226 17.6791 1236.48 1244.01 1.17
1227 17.6914 1239.79 1244.19 1.17
1228 17.7038 1242.13 1244.64 1.17
1229 17.7162 1245.46 1245.44 1.17
1230 17.7285 1250.15 1246.71 1.17
1231 17.7409 1255.32 1248.63 1.17
1232 17.7533 1261.19 1251.54 1.17
1233 17.7657 1272.72 1256.18 1.18
1234 17.7780 1293.83 1264.63 1.19
1235 17.7904 1330.16 1283.79 1.20
1236 17.8028 1396.73 1333.71 1.23
1237 17.8151 1531.34 1462.91 1.29
1238 17.8275 1823.51 1770.35 1.41
1239 17.8399 2397.35 2388.90 1.61
1240 17.8522 3393.18 3395.87 1.92
1241 17.8646 4741.55 4706.55 2.27
1242 17.8770 6107.00 5949.79 2.58
1243 17.8893 6929.88 6632.96 2.75
1244 17.9017 6883.26 6470.06 2.74
1245 17.9141 6000.60 5578.15 2.55
1246 17.9264 4683.57 4386.54 2.25
1247 17.9388 3477.39 3280.34 1.94
1248 17.9512 2563.72 2477.08 1.67
1249 17.9635 2041.08 1996.11 1.49
1250 17.9759 1770.33 1747.53 1.38
1251 17.9883 1647.23 1628.37 1.33
1252 18.0007 1563.53 1551.23 1.30
1253 18.0130 1492.16 1474.78 1.27
1254 18.0254 1418.94 1397.18 1.23
1255 18.0378 1355.51 1331.92 1.21
1256 18.0501 1309.89 1285.57 1.18
1257 18.0625 1283.47 1256.09 1.17
1258 18.0749 1269.71 1240.06 1.16
1259 18.0872 1265.81 1234.43 1.16
1260 18.0996 1275.87 1238.12 1.17
1261 18.1120 1292.37 1253.40 1.17
1262 18.1244 1335.02 1288.23 1.19
1263 18.1367 1420.53 1362.64 1.23
1264 18.1491 1581.08 1522.62 1.30
1265 18.1615 1876.65 1837.34 1.41
1266 18.1738 2382.94 2356.31 1.59
1267 18.1862 3045.11 3043.92 1.80
1268 18.1986 3669.94 3696.31 1.97
1269 18.2109 4002.97 4030.48 2.06
1270 18.2233 3859.60 3885.64 2.02
1271 18.2357 3339.72 3358.58 1.88
1272 18.2480 2718.29 2738.62 1.70
1273 18.2604 2197.83 2244.84 1.52
1274 18.2728 1908.06 1955.21 1.42
1275 18.2851 1771.95 1825.87 1.36
1276 18.2975 1723.00 1765.25 1.34
1277 18.3099 1682.66 1696.47 1.33
1278 18.3222 1610.59 1591.37 1.30
1279 18.3346 1501.37 1468.45 1.25
1280 18.3470 1394.13 1360.13 1.21
1281 18.3594 1300.83 1281.17 1.17
1282 18.3717 1246.27 1230.48 1.14
1283 18.3841 1208.40 1200.09 1.12
1284 18.3965 1186.85 1183.28 1.11
1285 18.4088 1171.34 1174.42 1.10
1286 18.4212 1163.81 1169.49 1.10
1287 18.4336 1161.53 1166.39 1.10
1288 18.4459 1158.71 1164.24 1.10
1289 18.4583 1154.26 1162.99 1.09
1290 18.4707 1152.63 1163.43 1.09
1291 18.4830 1152.14 1166.91 1.09
1292 18.4954 1152.33 1174.98 1.09
1293 18.5078 1151.97 1187.63 1.09
1294 18.5201 1151.86 1201.64 1.09
1295 18.5325 1154.73 1211.31 1.09
1296 18.5449 1153.68 1211.23 1.09
1297 18.5573 1151.59 1200.90 1.09
1298 18.5696 1149.98 1185.41 1.09
1299 18.5820 1145.37 1170.31 1.08
1300 18.5944 1141.49 1158.71 1.08
1301 18.6067 1138.00 1150.94 1.08
1302 18.6191 1135.45 1146.05 1.08
1303 18.6315 1138.68 1143.54 1.08
1304 18.6438 1146.15 1142.53 1.08
1305 18.6562 1152.95 1142.72 1.08
1306 18.6686 1170.61 1144.86 1.09
1307 18.6810 1197.19 1151.92 1.10
1308 18.6933 1237.51 1171.50 1.12
1309 18.7057 1300.49 1219.82 1.15
1310 18.7181 1397.81 1320.21 1.19
1311 18.7304 1524.88 1489.04 1.24
1312 18.7428 1674.53 1716.13 1.30
1313 18.7552 1814.73 1938.06 1.35
1314 18.7675 1906.73 2062.91 1.39
1315 18.7799 1901.14 2031.16 1.39
1316 18.7923 1795.69 1862.52 1.35
1317 18.8046 1628.32 1644.57 1.28
1318 18.8170 1448.08 1450.01 1.21
1319 18.8294 1316.45 1310.47 1.15
1320 18.8417 1232.41 1222.83 1.11
1321 18.8541 1187.25 1171.78 1.09
1322 18.8665 1155.55 1144.95 1.08
1323 18.8788 1133.98 1132.23 1.07
1324 18.8912 1122.72 1126.48 1.06
1325 18.9036 1118.23 1123.98 1.06
1326 18.9160 1115.47 1122.92 1.05
1327 18.9283 1114.60 1122.66 1.05
1328 18.9407 1114.79 1122.82 1.05
1329 18.9531 1113.67 1122.93 1.05
1330 18.9654 1116.48 1122.32 1.05
1331 18.9778 1118.92 1120.86 1.06
1332 18.9902 1118.64 1119.06 1.05
1333 19.0025 1118.03 1117.53 1.05
1334 19.0149 1118.03 1116.90 1.05
1335 19.0273 1124.82 1118.21 1.06
1336 19.0396 1141.44 1124.33 1.06
1337 19.0520 1170.71 1142.80 1.08
1338 19.0644 1226.81 1190.20 1.10
1339 19.0768 1333.40 1293.47 1.15
1340 19.0891 1515.19 1477.87 1.22
1341 19.1015 1764.64 1745.89 1.32
1342 19.1139 2040.96 2038.82 1.42
1343 19.1262 2245.99 2248.63 1.48
1344 19.1386 2271.34 2280.82 1.49
1345 19.1510 2112.75 2119.68 1.44
1346 19.1633 1848.72 1854.39 1.34
1347 19.1757 1580.89 1589.70 1.24
1348 19.1881 1380.50 1386.92 1.16
1349 19.2004 1251.68 1253.88 1.10
1350 19.2128 1181.26 1172.93 1.07
1351 19.2252 1141.46 1128.03 1.06
1352 19.2375 1125.15 1105.30 1.05
1353 19.2499 1110.24 1094.35 1.04
1354 19.2623 1095.84 1088.99 1.03
1355 19.2746 1086.47 1085.87 1.03
1356 19.2870 1084.30 1083.51 1.03
1357 19.2994 1082.49 1081.45 1.02
1358 19.3118 1080.83 1079.53 1.02
1359 19.3241 1077.07 1077.79 1.02
1360 19.3365 1072.71 1076.82 1.02
1361 19.3489 1070.80 1075.92 1.02
1362 19.3612 1070.03 1075.10 1.02
1363 19.3736 1071.61 1074.32 1.02
1364 19.3860 1068.93 1073.58 1.01
1365 19.3983 1064.91 1072.89 1.01
1366 19.4107 1062.19 1072.23 1.01
1367 19.4231 1062.55 1071.59 1.01
1368 19.4355 1065.65 1070.98 1.01
1369 19.4478 1066.56 1070.39 1.01
1370 19.4602 1063.27 1069.83 1.01
1371 19.4726 1062.82 1069.29 1.01
1372 19.4849 1063.71 1068.77 1.01
1373 19.4973 1062.48 1068.27 1.01
1374 19.5097 1058.88 1067.81 1.00
1375 19.5220 1061.80 1067.37 1.01
1376 19.5344 1067.97 1066.98 1.01
1377 19.5468 1069.14 1066.63 1.01
1378 19.5591 1068.23 1066.37 1.01
1379 19.5715 1065.69 1066.37 1.01
1380 19.5839 1066.92 1066.99 1.01
1381 19.5962 1068.85 1068.64 1.01
1382 19.6086 1073.19 1072.94 1.01
1383 19.6210 1086.98 1083.57 1.01
1384 19.6333 1111.81 1106.36 1.02
1385 19.6457 1161.82 1148.31 1.05
1386 19.6581 1233.82 1210.77 1.08
1387 19.6705 1326.64 1282.60 1.12
1388 19.6828 1394.81 1339.54 1.15
1389 19.6952 1412.43 1357.46 1.15
1390 19.7076 1377.91 1327.62 1.14
1391 19.7199 1297.88 1266.72 1.10
1392 19.7323 1215.31 1200.58 1.07
1393 19.7447 1152.62 1147.37 1.04
1394 19.7570 1108.90 1111.43 1.02
1395 19.7694 1082.88 1089.07 1.01
1396 19.7818 1071.06 1076.32 1.00
1397 19.7941 1066.84 1069.73 1.00
1398 19.8065 1065.59 1066.67 1.00
1399 19.8189 1063.30 1065.49 1.00
1400 19.8312 1061.04 1065.26 0.99
1401 19.8436 1060.87 1065.64 0.99
1402 19.8560 1065.81 1066.62 1.00
1403 19.8684 1078.88 1068.89 1.00
1404 19.8807 1094.49 1074.35 1.01
1405 19.8931 1107.20 1087.23 1.01
1406 19.9055 1134.45 1114.45 1.03
1407 19.9178 1189.57 1163.46 1.05
1408 19.9302 1271.01 1238.54 1.08
1409 19.9426 1377.32 1332.63 1.13
1410 19.9549 1475.34 1428.79 1.17
1411 19.9673 1542.49 1513.42 1.19
1412 19.9797 1573.61 1581.36 1.20
1413 19.9921 1582.43 1635.34 1.21
1414 20.0044 1577.99 1667.01 1.20
1415 20.0168 1569.42 1652.99 1.20
1416 20.0292 1537.20 1577.26 1.19
1417 20.0415 1461.83 1458.45 1.16
1418 20.0539 1364.18 1335.21 1.12
1419 20.0663 1273.29 1240.14 1.08
1420 20.0786 1202.55 1183.72 1.05
1421 20.0910 1162.43 1159.61 1.03
1422 20.1034 1143.08 1156.83 1.02
1423 20.1157 1134.69 1161.65 1.02
1424 20.1281 1128.79 1161.81 1.02
1425 20.1405 1121.91 1150.84 1.02
1426 20.1528 1111.53 1131.18 1.02
1427 20.1652 1097.68 1109.65 1.01
1428 20.1776 1082.41 1091.97 1.01
1429 20.1899 1071.04 1079.74 1.02
1430 20.2023 1063.50 1071.93 1.02
1431 20.2147 1059.75 1067.24 1.02
1432 20.2271 1061.56 1064.42 1.02
1433 20.2394 1064.12 1062.86 1.03
1434 20.2518 1062.78 1061.96 1.03
1435 20.2642 1060.11 1061.39 1.03
1436 20.2765 1062.17 1060.96 1.03
1437 20.2889 1062.43 1060.60 1.03
1438 20.3013 1056.69 1060.28 1.03
1439 20.3136 1053.15 1059.99 1.03
1440 20.3260 1055.48 1059.73 1.03
1441 20.3384 1056.22 1059.49 1.03
1442 20.3508 1057.78 1059.29 1.04
1443 20.3631 1057.94 1059.12 1.04
1444 20.3755 1058.64 1058.98 1.04
1445 20.3879 1058.80 1058.89 1.04
1446 20.4002 1055.90 1058.85 1.04
1447 20.4126 1055.67 1058.75 1.04
1448 20.4250 1059.66 1058.78 1.04
1449 20.4373 1067.93 1059.19 1.05
1450 20.4497 1074.43 1060.61 1.05
1451 20.4621 1079.56 1064.52 1.06
1452 20.4744 1090.64 1073.75 1.06
1453 20.4868 1115.87 1092.96 1.08
1454 20.4992 1154.36 1126.57 1.10
1455 20.5115 1201.54 1174.71 1.12
1456 20.5239 1257.13 1231.35 1.15
1457 20.5363 1301.09 1283.70 1.17
1458 20.5486 1328.51 1321.76 1.18
1459 20.5610 1329.58 1347.26 1.18
1460 20.5734 1317.32 1369.61 1.17
1461 20.5857 1301.35 1391.71 1.17
1462 20.5981 1293.68 1401.05 1.16
1463 20.6105 1284.16 1379.36 1.16
1464 20.6229 1266.46 1322.93 1.15
1465 20.6352 1236.35 1249.49 1.14
1466 20.6476 1197.26 1180.38 1.12
1467 20.6600 1155.65 1128.57 1.10
1468 20.6723 1120.10 1094.74 1.08
1469 20.6847 1094.80 1073.85 1.07
1470 20.6971 1078.77 1061.75 1.06
1471 20.7094 1068.86 1055.42 1.06
1472 20.7218 1067.03 1052.96 1.06
1473 20.7342 1066.14 1053.74 1.06
1474 20.7466 1063.49 1058.17 1.06
1475 20.7589 1066.54 1067.02 1.06
1476 20.7713 1080.30 1080.38 1.07
1477 20.7837 1102.47 1095.68 1.08
1478 20.7960 1119.80 1107.80 1.09
1479 20.8084 1122.15 1111.66 1.09
1480 20.8208 1110.63 1105.12 1.08
1481 20.8331 1093.54 1091.38 1.08
1482 20.8455 1080.40 1075.94 1.07
1483 20.8579 1067.51 1063.09 1.06
1484 20.8702 1053.94 1054.09 1.06
1485 20.8826 1045.58 1048.20 1.05
1486 20.8950 1038.95 1044.53 1.05
1487 20.9073 1037.31 1042.22 1.05
1488 20.9197 1038.94 1040.60 1.05
1489 20.9321 1041.64 1039.54 1.05
1490 20.9444 1039.05 1038.74 1.05
1491 20.9568 1036.05 1038.04 1.05
1492 20.9692 1034.38 1037.41 1.05
1493 20.9816 1030.42 1036.75 1.05
1494 20.9939 1029.73 1036.20 1.05
1495 21.0063 1030.11 1035.71 1.05
1496 21.0187 1032.35 1035.34 1.05
1497 21.0310 1034.06 1035.24 1.05
1498 21.0434 1038.98 1035.84 1.06
1499 21.0558 1040.83 1038.19 1.06
1500 21.0681 1043.07 1044.34 1.06
1501 21.0805 1056.28 1057.70 1.07
1502 21.0929 1074.43 1081.67 1.08
1503 21.1052 1110.83 1116.58 1.09
1504 21.1176 1157.46 1157.27 1.12
1505 21.1300 1207.53 1191.07 1.14
1506 21.1424 1226.42 1204.21 1.15
1507 21.1547 1210.55 1190.67 1.14
1508 21.1671 1165.38 1156.81 1.12
1509 21.1795 1113.76 1117.16 1.10
1510 21.1918 1075.81 1083.58 1.08
1511 21.2042 1050.63 1059.45 1.07
1512 21.2166 1037.32 1043.87 1.06
1513 21.2289 1031.49 1034.31 1.06
1514 21.2413 1027.03 1028.52 1.06
1515 21.2537 1027.61 1025.17 1.06
1516 21.2661 1028.78 1023.25 1.06
1517 21.2784 1028.12 1022.06 1.06
1518 21.2908 1023.66 1021.19 1.06
1519 21.3032 1024.64 1021.12 1.06
1520 21.3155 1026.57 1021.51 1.06
1521 21.3279 1026.22 1021.94 1.06
1522 21.3403 1023.61 1022.40 1.06
1523 21.3526 1020.92 1022.89 1.06
1524 21.3650 1020.96 1023.42 1.06
1525 21.3774 1020.35 1023.99 1.06
1526 21.3897 1020.69 1024.61 1.06
1527 21.4021 1020.84 1024.30 1.06
1528 21.4145 1023.03 1023.89 1.06
1529 21.4268 1028.08 1023.70 1.06
1530 21.4392 1030.08 1024.01 1.06
1531 21.4516 1040.17 1025.57 1.07
1532 21.4639 1047.69 1030.10 1.07
1533 21.4763 1061.38 1041.18 1.08
1534 21.4887 1084.88 1064.42 1.09
1535 21.5010 1133.02 1105.82 1.12
1536 21.5134 1203.66 1169.29 1.16
1537 21.5258 1293.38 1249.91 1.21
1538 21.5382 1390.54 1333.74 1.27
1539 21.5505 1452.27 1401.64 1.30
1540 21.5629 1468.07 1439.85 1.32
1541 21.5753 1448.28 1442.53 1.31
1542 21.5876 1400.09 1412.57 1.30
1543 21.6000 1330.16 1354.61 1.27
1544 21.6124 1247.62 1278.02 1.23
1545 21.6247 1169.93 1199.01 1.20
1546 21.6371 1108.73 1131.04 1.17
1547 21.6495 1066.74 1081.58 1.15
1548 21.6619 1045.57 1049.37 1.14
1549 21.6742 1034.77 1029.77 1.14
1550 21.6866 1020.47 1017.98 1.14
1551 21.6990 1007.36 1011.10 1.13
1552 21.7113 1002.57 1007.15 1.13
1553 21.7237 1002.93 1004.75 1.13
1554 21.7361 1001.57 1003.16 1.14
1555 21.7484 1000.53 1001.90 1.14
1556 21.7608 1002.68 1000.78 1.14
1557 21.7732 1007.52 999.73 1.15
1558 21.7855 1006.46 998.73 1.15
1559 21.7979 998.55 997.74 1.15
1560 21.8103 992.94 996.78 1.15
1561 21.8226 994.46 995.70 1.15
1562 21.8350 997.36 994.62 1.16
1563 21.8474 1000.41 993.55 1.16
1564 21.8597 1001.52 992.51 1.16
1565 21.8721 1003.55 991.48 1.17
1566 21.8845 1000.84 990.45 1.17
1567 21.8969 994.98 989.44 1.17
1568 21.9092 989.67 988.44 1.17
1569 21.9216 986.99 987.45 1.17
1570 21.9340 989.65 986.46 1.15
1571 21.9463 989.29 985.91 1.14
1572 21.9587 992.50 985.80 1.14
1573 21.9711 993.99 985.79 1.14
1574 21.9834 997.23 985.71 1.14
1575 21.9958 998.60 985.66 1.13
1576 22.0082 997.64 985.64 1.13
1577 22.0206 1001.07 985.69 1.13
1578 22.0329 1006.37 985.93 1.13
1579 22.0453 1013.96 986.56 1.13
1580 22.0577 1020.87 988.17 1.14
1581 22.0700 1030.44 991.84 1.14
1582 22.0824 1039.70 999.37 1.14
1583 22.0948 1051.33 1012.56 1.15
1584 22.1071 1064.10 1031.71 1.16
1585 22.1195 1082.08 1054.52 1.17
1586 22.1319 1103.54 1074.70 1.18
1587 22.1442 1118.13 1084.73 1.18
1588 22.1566 1117.05 1080.46 1.18
1589 22.1690 1107.12 1063.71 1.18
1590 22.1813 1090.05 1041.90 1.17
1591 22.1937 1069.79 1021.79 1.15
1592 22.2061 1039.45 1006.89 1.14
1593 22.2184 1018.23 997.19 1.12
1594 22.2308 1006.04 991.11 1.12
1595 22.2432 1002.10 987.43 1.11
1596 22.2556 995.99 985.29 1.11
1597 22.2679 989.93 984.11 1.11
1598 22.2803 988.88 983.48 1.11
1599 22.2927 986.83 983.13 1.10
1600 22.3050 981.57 982.90 1.10
1601 22.3174 982.78 982.72 1.10
1602 22.3298 980.66 982.56 1.10
1603 22.3421 980.45 981.99 1.10
1604 22.3545 981.38 981.34 1.10
1605 22.3669 979.00 980.69 1.09
1606 22.3792 978.22 980.05 1.09
1607 22.3916 976.02 979.41 1.09
1608 22.4040 973.90 978.87 1.09
1609 22.4164 974.71 978.25 1.08
1610 22.4287 977.41 977.64 1.08
1611 22.4411 977.38 977.02 1.08
1612 22.4535 977.91 976.41 1.08
1613 22.4658 976.14 975.81 1.08
1614 22.4782 970.89 975.21 1.08
1615 22.4906 968.81 974.62 1.07
1616 22.5029 971.10 974.03 1.07
1617 22.5153 975.34 973.45 1.08
1618 22.5277 974.25 972.87 1.08
1619 22.5400 970.30 972.31 1.07
1620 22.5524 969.89 971.75 1.07
1621 22.5648 973.58 971.17 1.07
1622 22.5772 975.52 970.64 1.08
1623 22.5895 975.39 970.13 1.08
1624 22.6019 974.06 969.73 1.07
1625 22.6143 970.96 970.06 1.07
1626 22.6266 975.88 970.52 1.08
1627 22.6390 980.95 971.23 1.08
1628 22.6514 984.98 972.55 1.08
1629 22.6637 991.00 975.23 1.08
1630 22.6761 997.86 980.71 1.09
1631 22.6885 1005.84 991.03 1.09
1632 22.7008 1022.54 1008.06 1.10
1633 22.7132 1054.17 1032.54 1.12
1634 22.7256 1092.23 1061.42 1.14
1635 22.7379 1123.30 1087.56 1.15
1636 22.7503 1135.56 1102.79 1.16
1637 22.7627 1127.53 1101.03 1.15
1638 22.7750 1101.17 1083.35 1.14
1639 22.7874 1068.53 1056.79 1.12
1640 22.7998 1031.58 1030.40 1.11
1641 22.8122 1007.22 1009.73 1.09
1642 22.8245 988.92 995.92 1.08
1643 22.8369 982.98 987.38 1.08
1644 22.8493 979.36 982.50 1.08
1645 22.8616 974.91 980.02 1.08
1646 22.8740 974.47 979.24 1.08
1647 22.8864 974.99 979.69 1.08
1648 22.8987 977.09 981.78 1.08
1649 22.9111 981.57 987.74 1.08
1650 22.9235 992.09 1001.85 1.09
1651 22.9359 1006.97 1031.57 1.10
1652 22.9482 1045.07 1086.17 1.12
1653 22.9606 1123.08 1173.94 1.16
1654 22.9730 1260.54 1291.47 1.23
1655 22.9853 1436.22 1417.52 1.31
1656 22.9977 1588.86 1520.12 1.38
1657 23.0101 1645.10 1566.67 1.40
1658 23.0224 1585.64 1548.88 1.37
1659 23.0348 1475.56 1488.35 1.33
1660 23.0472 1384.40 1420.38 1.28
1661 23.0595 1355.43 1365.54 1.27
1662 23.0719 1347.60 1318.93 1.27
1663 23.0843 1319.22 1266.82 1.25
1664 23.0966 1261.00 1203.61 1.23
1665 23.1090 1180.81 1136.09 1.19
1666 23.1214 1107.14 1077.40 1.15
1667 23.1337 1050.76 1034.79 1.12
1668 23.1461 1020.52 1007.06 1.10
1669 23.1585 1002.50 990.61 1.09
1670 23.1709 987.20 981.92 1.08
1671 23.1832 973.58 979.50 1.08
1672 23.1956 975.20 983.61 1.08
1673 23.2080 987.27 995.33 1.08
1674 23.2203 1013.25 1014.68 1.10
1675 23.2327 1056.61 1039.61 1.12
1676 23.2451 1112.33 1063.95 1.15
1677 23.2574 1161.93 1079.44 1.18
1678 23.2698 1166.87 1080.01 1.18
1679 23.2822 1128.07 1065.00 1.16
1680 23.2945 1066.15 1040.85 1.13
1681 23.3069 1013.85 1015.85 1.10
1682 23.3193 986.33 996.15 1.08
1683 23.3317 976.60 983.62 1.08
1684 23.3440 970.14 978.28 1.07
1685 23.3564 974.00 981.00 1.08
1686 23.3688 985.27 996.01 1.08
1687 23.3811 1009.96 1030.93 1.10
1688 23.3935 1054.48 1096.36 1.12
1689 23.4059 1129.03 1198.31 1.16
1690 23.4182 1247.90 1328.84 1.22
1691 23.4306 1382.00 1463.85 1.28
1692 23.4430 1481.76 1561.48 1.33
1693 23.4553 1500.07 1585.03 1.34
1694 23.4677 1422.38 1524.42 1.30
1695 23.4801 1285.96 1404.41 1.24
1696 23.4924 1145.48 1270.98 1.17
1697 23.5048 1048.50 1157.09 1.12
1698 23.5172 1000.09 1076.33 1.09
1699 23.5295 978.71 1024.86 1.08
1700 23.5419 968.34 992.72 1.07
1701 23.5543 958.77 972.91 1.07
1702 23.5667 954.17 960.97 1.07
1703 23.5790 950.32 954.13 1.06
1704 23.5914 950.22 950.31 1.06
1705 23.6038 952.37 948.17 1.06
1706 23.6161 952.02 946.84 1.06
1707 23.6285 949.06 945.82 1.06
1708 23.6409 949.03 944.95 1.06
1709 23.6532 946.31 944.15 1.06
1710 23.6656 947.65 943.39 1.06
1711 23.6780 944.06 942.66 1.06
1712 23.6904 942.58 941.97 1.06
1713 23.7027 944.07 941.32 1.06
1714 23.7151 942.18 940.70 1.06
1715 23.7275 938.90 940.16 1.06
1716 23.7398 938.25 939.80 1.06
1717 23.7522 938.62 939.46 1.06
1718 23.7646 940.50 939.14 1.06
1719 23.7769 938.81 938.84 1.06
1720 23.7893 941.82 938.58 1.06
1721 23.8017 945.79 938.35 1.06
1722 23.8140 950.10 938.17 1.06
1723 23.8264 947.95 938.08 1.06
1724 23.8388 941.98 938.20 1.06
1725 23.8511 941.04 938.76 1.06
1726 23.8635 942.65 940.30 1.06
1727 23.8759 946.33 943.82 1.06
1728 23.8883 953.63 950.76 1.07
1729 23.9006 968.67 962.51 1.07
1730 23.9130 989.52 979.83 1.08
1731 23.9254 1020.23 1000.93 1.10
1732 23.9377 1053.74 1021.23 1.12
1733 23.9501 1074.36 1035.38 1.13
1734 23.9625 1073.42 1039.62 1.13
1735 23.9748 1055.17 1036.01 1.12
1736 23.9872 1028.58 1032.89 1.11
1737 23.9996 1021.10 1041.41 1.10
1738 24.0119 1042.71 1068.66 1.11
1739 24.0243 1097.27 1113.71 1.14
1740 24.0367 1175.71 1164.91 1.18
1741 24.0490 1253.28 1203.81 1.22
1742 24.0614 1289.85 1214.29 1.24
1743 24.0738 1254.51 1189.66 1.22
1744 24.0861 1169.39 1139.11 1.18
1745 24.0985 1073.34 1080.14 1.13
1746 24.1109 1004.80 1028.94 1.09
1747 24.1233 969.47 992.26 1.07
1748 24.1356 951.07 969.46 1.06
1749 24.1480 937.32 956.49 1.06
1750 24.1604 930.58 950.11 1.05
1751 24.1727 934.90 947.95 1.05
1752 24.1851 935.20 947.90 1.05
1753 24.1975 935.82 948.09 1.05
1754 24.2098 939.61 947.08 1.06
1755 24.2222 941.82 944.34 1.06
1756 24.2346 939.50 940.45 1.06
1757 24.2470 934.09 936.47 1.05
1758 24.2593 928.27 933.19 1.05
1759 24.2717 926.11 930.83 1.05
1760 24.2841 928.73 929.23 1.05
1761 24.2964 927.06 928.17 1.05
1762 24.3088 927.01 927.65 1.05
1763 24.3212 927.77 927.35 1.05
1764 24.3335 930.39 927.22 1.05
1765 24.3459 932.85 927.19 1.05
1766 24.3583 932.61 927.27 1.05
1767 24.3706 933.72 927.42 1.05
1768 24.3830 933.70 927.67 1.05
1769 24.3954 930.39 928.00 1.05
1770 24.4077 937.11 928.47 1.06
1771 24.4201 945.59 929.20 1.06
1772 24.4325 945.32 930.47 1.06
1773 24.4448 944.91 932.86 1.06
1774 24.4572 951.78 937.90 1.06
1775 24.4696 961.62 948.64 1.07
1776 24.4820 981.36 970.43 1.08
1777 24.4943 1012.58 1010.37 1.10
1778 24.5067 1062.89 1076.43 1.12
1779 24.5191 1138.90 1170.38 1.16
1780 24.5314 1238.57 1281.79 1.21
1781 24.5438 1351.86 1389.84 1.27
1782 24.5562 1438.17 1464.94 1.31
1783 24.5685 1456.18 1486.88 1.32
1784 24.5809 1416.22 1458.42 1.30
1785 24.5933 1353.70 1406.02 1.27
1786 24.6056 1318.71 1364.49 1.25
1787 24.6180 1331.17 1352.29 1.26
1788 24.6304 1385.56 1365.77 1.28
1789 24.6428 1437.72 1384.01 1.31
1790 24.6551 1437.91 1383.07 1.31
1791 24.6675 1378.27 1349.38 1.28
1792 24.6799 1288.45 1285.14 1.24
1793 24.6922 1200.88 1205.24 1.19
1794 24.7046 1127.33 1125.32 1.16
1795 24.7170 1063.71 1058.54 1.12
1796 24.7293 1018.11 1010.01 1.10
1797 24.7417 985.10 977.35 1.08
1798 24.7541 968.13 956.73 1.07
1799 24.7664 953.24 944.08 1.06
1800 24.7788 943.78 936.23 1.06
1801 24.7912 938.01 931.50 1.06
1802 24.8035 931.20 928.74 1.05
1803 24.8159 927.71 927.13 1.05
1804 24.8283 929.07 926.18 1.05
1805 24.8406 927.71 925.58 1.05
1806 24.8530 928.48 925.12 1.05
1807 24.8654 925.97 924.76 1.05
1808 24.8778 930.76 924.43 1.05
1809 24.8901 930.47 924.16 1.05
1810 24.9025 924.10 923.91 1.05
1811 24.9149 922.58 923.69 1.05
1812 24.9272 925.34 923.53 1.05
1813 24.9396 927.72 923.68 1.05
1814 24.9520 922.30 923.85 1.05
1815 24.9643 921.77 924.04 1.05
1816 24.9767 922.59 924.28 1.05
1817 24.9891 922.23 924.57 1.05
1818 25.0015 921.95 924.95 1.05
1819 25.0138 925.89 925.53 1.05
1820 25.0262 929.53 926.56 1.05
1821 25.0386 931.63 928.50 1.05
1822 25.0509 931.19 932.10 1.05
1823 25.0633 933.65 938.46 1.05
1824 25.0757 937.52 948.46 1.05
1825 25.0880 946.28 962.07 1.05
1826 25.1004 960.61 977.90 1.06
1827 25.1128 976.30 992.29 1.07
1828 25.1251 983.71 1000.98 1.07
1829 25.1375 981.21 1001.02 1.07
1830 25.1499 974.75 992.30 1.07
1831 25.1622 965.87 978.28 1.06
1832 25.1746 955.53 963.36 1.05
1833 25.1870 946.30 951.16 1.05
1834 25.1993 935.89 942.80 1.04
1835 25.2117 928.72 937.60 1.04
1836 25.2241 927.36 934.57 1.04
1837 25.2365 928.23 932.86 1.04
1838 25.2488 925.55 931.99 1.03
1839 25.2612 920.28 931.72 1.03
1840 25.2736 920.91 931.94 1.03
1841 25.2859 924.00 932.71 1.03
1842 25.2983 922.97 934.34 1.03
1843 25.3107 926.74 937.52 1.03
1844 25.3230 933.49 943.40 1.04
1845 25.3354 947.81 953.65 1.05
1846 25.3478 966.88 969.59 1.06
1847 25.3601 992.55 990.99 1.07
1848 25.3725 1025.16 1015.63 1.09
1849 25.3849 1071.05 1038.15 1.11
1850 25.3973 1108.27 1052.40 1.13
1851 25.4096 1124.75 1054.53 1.14
1852 25.4220 1105.95 1045.82 1.13
1853 25.4344 1068.09 1033.11 1.11
1854 25.4467 1038.18 1025.71 1.09
1855 25.4591 1030.40 1030.32 1.09
1856 25.4715 1037.46 1048.71 1.09
1857 25.4838 1056.21 1076.93 1.10
1858 25.4962 1073.72 1108.20 1.11
1859 25.5086 1084.78 1134.38 1.12
1860 25.5209 1089.11 1149.72 1.12
1861 25.5333 1089.38 1152.92 1.12
1862 25.5457 1090.66 1145.70 1.12
1863 25.5581 1093.46 1130.96 1.12
1864 25.5704 1087.42 1110.45 1.12
1865 25.5828 1067.23 1084.37 1.11
1866 25.5952 1043.86 1054.84 1.10
1867 25.6075 1026.94 1026.54 1.09
1868 25.6199 1012.72 1004.20 1.08
1869 25.6323 1004.15 992.06 1.08
1870 25.6446 1010.64 993.33 1.08
1871 25.6570 1029.08 1012.93 1.09
1872 25.6694 1061.47 1059.79 1.11
1873 25.6817 1125.47 1146.13 1.14
1874 25.6941 1245.34 1286.90 1.20
1875 25.7065 1450.63 1488.07 1.29
1876 25.7188 1742.37 1737.75 1.42
1877 25.7312 2068.15 2008.95 1.54
1878 25.7436 2341.80 2252.43 1.64
1879 25.7559 2472.70 2417.80 1.69
1880 25.7683 2459.47 2474.18 1.68
1881 25.7807 2350.79 2413.87 1.65
1882 25.7931 2189.09 2256.35 1.59
1883 25.8054 1990.40 2035.66 1.51
1884 25.8178 1754.23 1784.68 1.42
1885 25.8302 1518.59 1543.92 1.32
1886 25.8425 1314.17 1345.51 1.23
1887 25.8549 1170.57 1198.82 1.16
1888 25.8673 1085.51 1101.71 1.12
1889 25.8796 1037.82 1041.83 1.09
1890 25.8920 1007.57 1005.13 1.08
1891 25.9044 987.05 982.78 1.07
1892 25.9168 971.16 969.26 1.06
1893 25.9291 961.62 961.39 1.05
1894 25.9415 953.00 957.20 1.05
1895 25.9539 947.07 955.59 1.04
1896 25.9662 952.49 956.03 1.05
1897 25.9786 953.21 958.50 1.05
1898 25.9910 950.15 963.19 1.05
1899 26.0033 954.82 969.97 1.05
1900 26.0157 961.99 978.12 1.05
1901 26.0281 962.04 985.88 1.05
1902 26.0404 965.06 990.98 1.05
1903 26.0528 967.60 991.74 1.06
1904 26.0652 966.88 987.71 1.05
1905 26.0775 955.97 980.37 1.05
1906 26.0899 949.79 972.04 1.05
1907 26.1023 948.70 964.89 1.04
1908 26.1146 946.68 959.94 1.04
1909 26.1270 944.51 957.13 1.04
1910 26.1394 944.80 955.06 1.04
1911 26.1518 945.99 954.73 1.04
1912 26.1641 952.93 957.05 1.05
1913 26.1765 965.04 964.08 1.05
1914 26.1889 980.80 979.43 1.06
1915 26.2012 1002.24 1007.85 1.07
1916 26.2136 1040.86 1054.99 1.09
1917 26.2260 1100.93 1123.10 1.13
1918 26.2383 1172.25 1207.28 1.16
1919 26.2507 1251.93 1295.92 1.20
1920 26.2631 1331.19 1368.74 1.24
1921 26.2755 1375.21 1406.88 1.26
1922 26.2878 1362.34 1401.95 1.25
1923 26.3002 1312.06 1360.93 1.23
1924 26.3126 1246.16 1303.07 1.20
1925 26.3249 1191.36 1248.53 1.17
1926 26.3373 1160.14 1206.30 1.15
1927 26.3497 1153.43 1176.41 1.15
1928 26.3620 1152.21 1154.15 1.15
1929 26.3744 1151.46 1135.67 1.15
1930 26.3868 1143.18 1119.68 1.15
1931 26.3991 1131.40 1104.46 1.14
1932 26.4115 1114.60 1086.63 1.13
1933 26.4239 1090.02 1063.74 1.12
1934 26.4362 1056.82 1036.27 1.10
1935 26.4486 1017.40 1006.83 1.08
1936 26.4610 982.56 979.79 1.06
1937 26.4733 961.10 958.26 1.05
1938 26.4857 953.94 942.64 1.05
1939 26.4981 942.88 932.17 1.06
1940 26.5104 933.88 925.32 1.07
1941 26.5228 922.33 920.61 1.07
1942 26.5352 916.52 917.23 1.07
1943 26.5476 917.96 914.68 1.08
1944 26.5599 918.72 912.70 1.08
1945 26.5723 914.11 911.08 1.09
1946 26.5847 910.44 909.66 1.09
1947 26.5970 908.32 908.40 1.09
1948 26.6094 907.70 907.22 1.10
1949 26.6218 910.99 906.46 1.10
1950 26.6341 909.26 906.26 1.11
1951 26.6465 908.00 906.16 1.11
1952 26.6589 906.63 906.24 1.11
1953 26.6712 910.08 906.67 1.12
1954 26.6836 908.42 907.78 1.12
1955 26.6960 908.38 910.09 1.12
1956 26.7084 910.46 914.25 1.13
1957 26.7207 915.84 920.84 1.13
1958 26.7331 921.24 930.11 1.14
1959 26.7455 929.84 941.34 1.15
1960 26.7578 940.92 952.61 1.16
1961 26.7702 950.03 961.53 1.17
1962 26.7826 950.68 965.45 1.17
1963 26.7949 949.14 963.09 1.18
1964 26.8073 943.90 955.04 1.18
1965 26.8197 943.50 943.66 1.18
1966 26.8321 937.40 931.88 1.18
1967 26.8444 927.05 922.00 1.17
1968 26.8568 918.44 914.73 1.17
1969 26.8692 908.44 909.95 1.15
1970 26.8815 904.46 906.99 1.13
1971 26.8939 905.26 905.41 1.12
1972 26.9063 911.25 904.62 1.12
1973 26.9186 915.71 904.24 1.12
1974 26.9310 914.52 904.18 1.11
1975 26.9434 915.82 904.36 1.11
1976 26.9557 914.49 904.58 1.11
1977 26.9681 915.98 905.13 1.11
1978 26.9805 916.66 905.94 1.10
1979 26.9928 920.99 907.12 1.10
1980 27.0052 928.75 909.43 1.11
1981 27.0176 935.24 913.85 1.11
1982 27.0299 946.58 922.31 1.11
1983 27.0423 962.41 938.08 1.12
1984 27.0547 980.43 965.12 1.13
1985 27.0671 1012.52 1006.97 1.15
1986 27.0794 1056.16 1063.62 1.17
1987 27.0918 1113.88 1130.73 1.20
1988 27.1042 1172.16 1195.81 1.23
1989 27.1165 1210.59 1242.19 1.25
1990 27.1289 1221.24 1256.27 1.25
1991 27.1413 1196.63 1232.13 1.24
1992 27.1536 1148.74 1177.80 1.21
1993 27.1660 1091.38 1109.54 1.18
1994 27.1784 1043.88 1045.40 1.15
1995 27.1907 1008.01 996.18 1.13
1996 27.2031 981.93 962.85 1.11
1997 27.2155 963.20 942.43 1.10
1998 27.2279 948.72 930.19 1.09
1999 27.2402 937.34 922.66 1.08
2000 27.2526 933.15 917.78 1.08
2001 27.2650 926.38 914.71 1.08
2002 27.2773 918.05 912.94 1.07
2003 27.2897 918.54 912.05 1.07
2004 27.3021 921.93 911.72 1.07
2005 27.3144 923.08 911.70 1.07
2006 27.3268 920.13 911.88 1.07
2007 27.3392 916.88 912.22 1.07
2008 27.3515 915.22 912.77 1.07
2009 27.3639 918.85 913.70 1.07
2010 27.3763 926.04 915.22 1.07
2011 27.3886 928.41 917.61 1.07
2012 27.4010 930.47 921.19 1.07
2013 27.4134 933.55 926.14 1.07
2014 27.4257 943.73 932.48 1.08
2015 27.4381 954.92 940.29 1.09
2016 27.4505 967.17 949.63 1.09
2017 27.4629 978.42 960.83 1.10
2018 27.4752 993.75 974.33 1.11
2019 27.4876 1018.26 990.96 1.12
2020 27.5000 1045.09 1010.97 1.13
2021 27.5123 1068.53 1034.39 1.15
2022 27.5247 1077.61 1061.51 1.15
2023 27.5371 1081.18 1091.62 1.16
2024 27.5494 1081.80 1122.54 1.16
2025 27.5618 1091.37 1150.37 1.16
2026 27.5742 1104.25 1168.09 1.17
2027 27.5866 1114.94 1169.10 1.17
2028 27.5989 1114.90 1151.00 1.17
2029 27.6113 1101.60 1117.31 1.17
2030 27.6237 1073.42 1076.76 1.15
2031 27.6360 1037.51 1038.26 1.13
2032 27.6484 1014.87 1005.91 1.12
2033 27.6608 995.73 980.86 1.11
2034 27.6731 974.76 962.09 1.09
2035 27.6855 954.91 948.05 1.08
2036 27.6979 939.97 938.12 1.07
2037 27.7102 931.95 931.86 1.07
2038 27.7226 928.09 928.83 1.07
2039 27.7350 925.09 928.84 1.06
2040 27.7473 921.52 931.74 1.06
2041 27.7597 923.52 937.15 1.06
2042 27.7721 927.15 944.68 1.07
2043 27.7844 932.71 953.45 1.07
2044 27.7968 942.76 961.64 1.07
2045 27.8092 950.46 966.84 1.08
2046 27.8216 947.74 967.19 1.08
2047 27.8339 941.43 962.29 1.07
2048 27.8463 932.06 953.32 1.07
2049 27.8587 926.93 942.81 1.06
2050 27.8710 924.84 933.19 1.06
2051 27.8834 927.93 925.64 1.06
2052 27.8958 920.29 920.45 1.06
2053 27.9081 917.89 917.10 1.06
2054 27.9205 918.62 914.88 1.06
2055 27.9329 920.88 913.31 1.06
2056 27.9453 919.10 912.12 1.06
2057 27.9576 921.24 911.19 1.06
2058 27.9700 924.17 910.44 1.06
2059 27.9823 916.11 909.86 1.05
2060 27.9947 907.36 909.44 1.05
2061 28.0071 908.35 909.22 1.05
2062 28.0195 911.89 909.30 1.05
2063 28.0318 913.94 909.94 1.05
2064 28.0442 915.65 911.87 1.05
2065 28.0566 915.13 914.58 1.05
2066 28.0689 916.54 917.94 1.05
2067 28.0813 920.17 921.65 1.06
2068 28.0937 920.77 925.00 1.06
2069 28.1060 923.20 927.18 1.06
2070 28.1184 919.95 927.63 1.05
2071 28.1308 918.35 926.21 1.05
2072 28.1432 922.56 923.41 1.06
2073 28.1555 922.79 920.15 1.06
2074 28.1679 920.96 917.20 1.05
2075 28.1803 920.51 915.03 1.05
2076 28.1926 914.89 913.69 1.05
2077 28.2050 911.41 913.00 1.05
2078 28.2174 915.26 912.75 1.05
2079 28.2297 915.70 912.76 1.05
2080 28.2421 910.94 912.99 1.05
2081 28.2545 919.00 913.42 1.05
2082 28.2668 922.23 914.04 1.05
2083 28.2792 917.85 914.86 1.05
2084 28.2916 918.39 915.77 1.05
2085 28.3039 924.21 916.66 1.05
2086 28.3163 924.26 917.39 1.05
2087 28.3287 919.25 917.86 1.04
2088 28.3410 915.05 918.09 1.04
2089 28.3534 918.02 918.22 1.04
2090 28.3658 924.82 918.52 1.04
2091 28.3782 921.51 919.23 1.04
2092 28.3905 914.87 920.46 1.04
2093 28.4029 916.38 922.20 1.04
2094 28.4153 917.79 924.14 1.04
2095 28.4276 920.84 925.84 1.04
2096 28.4400 926.90 926.89 1.04
2097 28.4524 931.03 926.98 1.04
2098 28.4647 927.07 926.14 1.04
2099 28.4771 923.21 924.68 1.04
2100 28.4895 924.06 923.07 1.04
2101 28.5019 921.02 921.71 1.03
2102 28.5142 919.60 920.80 1.03
2103 28.5266 921.61 920.33 1.03
2104 28.5390 926.21 920.18 1.03
2105 28.5513 930.05 920.25 1.04
2106 28.5637 929.91 920.43 1.04
2107 28.5761 928.46 920.68 1.04
2108 28.5884 923.07 921.00 1.03
2109 28.6008 921.27 921.36 1.03
2110 28.6132 924.61 921.78 1.03
2111 28.6255 925.86 922.22 1.03
2112 28.6379 926.22 922.59 1.03
2113 28.6503 933.08 923.09 1.04
2114 28.6626 935.99 923.81 1.04
2115 28.6750 935.30 924.97 1.04
2116 28.6874 941.03 926.98 1.04
2117 28.6997 944.80 930.50 1.04
2118 28.7121 951.13 936.69 1.05
2119 28.7245 965.79 947.16 1.05
2120 28.7369 973.00 963.92 1.06
2121 28.7492 988.38 988.82 1.07
2122 28.7616 1018.02 1023.78 1.08
2123 28.7740 1049.01 1068.54 1.10
2124 28.7863 1082.87 1119.93 1.12
2125 28.7987 1121.23 1172.80 1.13
2126 28.8111 1162.55 1217.86 1.16
2127 28.8234 1198.91 1245.33 1.17
2128 28.8358 1219.07 1248.28 1.18
2129 28.8482 1213.51 1224.34 1.18
2130 28.8606 1176.35 1178.48 1.16
2131 28.8729 1119.17 1121.80 1.13
2132 28.8853 1058.04 1065.39 1.10
2133 28.8977 1006.79 1018.45 1.07
2134 28.9100 979.26 984.71 1.06
2135 28.9224 965.29 962.62 1.05
2136 28.9348 957.94 949.34 1.05
2137 28.9471 953.39 941.66 1.04
2138 28.9595 948.24 937.29 1.04
2139 28.9719 946.85 935.30 1.04
2140 28.9842 947.90 935.58 1.04
2141 28.9966 950.29 938.55 1.04
2142 29.0090 958.78 944.89 1.05
2143 29.0213 973.27 955.13 1.05
2144 29.0337 987.57 969.60 1.06
2145 29.0461 1003.84 987.63 1.07
2146 29.0585 1025.11 1007.75 1.08
2147 29.0708 1050.91 1028.09 1.10
2148 29.0832 1070.62 1048.04 1.11
2149 29.0956 1087.22 1068.11 1.11
2150 29.1079 1103.39 1090.32 1.12
2151 29.1203 1126.81 1117.23 1.13
2152 29.1327 1157.44 1148.11 1.15
2153 29.1450 1189.75 1177.63 1.16
2154 29.1574 1207.17 1197.65 1.17
2155 29.1698 1197.06 1199.33 1.17
2156 29.1821 1166.64 1178.92 1.15
2157 29.1945 1119.78 1139.38 1.13
2158 29.2069 1071.23 1090.28 1.10
2159 29.2192 1030.02 1043.06 1.08
2160 29.2316 1003.25 1004.83 1.07
2161 29.2440 983.72 978.94 1.06
2162 29.2563 968.52 964.25 1.05
2163 29.2687 964.16 957.54 1.05
2164 29.2811 969.92 955.91 1.05
2165 29.2935 972.33 957.15 1.05
2166 29.3058 967.07 959.93 1.05
2167 29.3182 960.48 963.58 1.04
2168 29.3306 962.95 967.58 1.05
2169 29.3429 964.29 971.38 1.05
2170 29.3553 960.48 974.28 1.04
2171 29.3677 957.76 975.32 1.04
2172 29.3800 953.52 973.68 1.04
2173 29.3924 946.49 969.08 1.04
2174 29.4048 944.60 962.15 1.04
2175 29.4171 940.95 954.35 1.03
2176 29.4295 938.86 947.05 1.03
2177 29.4419 939.03 941.26 1.03
2178 29.4543 935.17 937.26 1.03
2179 29.4666 929.99 934.88 1.03
2180 29.4790 933.36 933.85 1.03
2181 29.4914 939.85 933.79 1.03
2182 29.5037 942.54 934.57 1.03
2183 29.5161 943.60 936.13 1.03
2184 29.5285 947.95 938.37 1.04
2185 29.5408 952.61 941.07 1.04
2186 29.5532 960.67 943.93 1.04
2187 29.5656 967.03 946.54 1.05
2188 29.5779 967.05 948.63 1.05
2189 29.5903 965.45 950.26 1.04
2190 29.6027 960.94 952.01 1.04
2191 29.6150 956.97 955.03 1.04
2192 29.6274 956.81 961.14 1.04
2193 29.6398 965.50 972.54 1.04
2194 29.6522 979.69 991.60 1.05
2195 29.6645 1002.47 1019.92 1.06
2196 29.6769 1039.84 1058.20 1.08
2197 29.6893 1091.44 1103.59 1.11
2198 29.7016 1154.06 1149.36 1.14
2199 29.7140 1211.30 1186.99 1.17
2200 29.7264 1230.05 1206.44 1.18
2201 29.7387 1203.58 1201.57 1.16
2202 29.7511 1149.96 1172.60 1.14
2203 29.7635 1085.29 1126.96 1.11
2204 29.7758 1032.73 1076.70 1.08
2205 29.7882 996.18 1031.57 1.06
2206 29.8006 972.05 998.01 1.05
2207 29.8130 961.87 977.09 1.04
2208 29.8253 953.21 966.75 1.04
2209 29.8377 951.91 963.84 1.04
2210 29.8501 960.77 965.87 1.04
2211 29.8624 969.80 970.85 1.04
2212 29.8748 979.83 977.27 1.05
2213 29.8872 990.64 983.51 1.06
2214 29.8995 992.22 987.93 1.06
2215 29.9119 991.95 989.38 1.06
2216 29.9243 985.49 987.28 1.05
2217 29.9366 970.42 982.12 1.04
2218 29.9490 963.12 974.88 1.04
2219 29.9614 962.35 966.90 1.04
2220 29.9738 957.60 959.36 1.04
2221 29.9861 949.88 953.11 1.03
2222 29.9985 945.69 948.36 1.03
2223 30.0108 945.35 945.15 1.03
2224 30.0232 942.34 943.15 1.03
2225 30.0356 937.24 942.15 1.03
2226 30.0480 940.91 941.75 1.03
2227 30.0603 946.29 942.00 1.03
2228 30.0727 943.08 942.97 1.03
2229 30.0851 938.29 944.59 1.03
2230 30.0974 937.36 946.60 1.02
2231 30.1098 940.24 948.65 1.03
2232 30.1222 940.40 950.23 1.03
2233 30.1345 939.73 950.86 1.03
2234 30.1469 943.34 950.31 1.03
2235 30.1593 940.82 948.66 1.03
2236 30.1717 941.02 946.32 1.03
2237 30.1840 941.48 943.97 1.03
2238 30.1964 936.59 942.11 1.02
2239 30.2088 936.86 941.22 1.02
2240 30.2211 947.53 941.47 1.03
2241 30.2335 955.30 942.98 1.03
2242 30.2459 952.32 945.73 1.03
2243 30.2582 955.30 949.56 1.03
2244 30.2706 967.94 954.11 1.04
2245 30.2830 976.85 958.72 1.04
2246 30.2953 982.16 962.46 1.05
2247 30.3077 979.22 964.54 1.05
2248 30.3201 974.12 964.35 1.04
2249 30.3324 967.20 961.89 1.04
2250 30.3448 957.74 957.67 1.03
2251 30.3572 947.10 952.62 1.03
2252 30.3695 944.95 947.73 1.03
2253 30.3819 940.27 943.58 1.02
2254 30.3943 935.92 940.51 1.02
2255 30.4067 936.14 938.46 1.02
2256 30.4190 936.60 937.20 1.02
2257 30.4314 937.40 936.46 1.02
2258 30.4438 939.99 936.21 1.02
2259 30.4561 942.05 936.34 1.02
2260 30.4685 941.31 936.71 1.02
2261 30.4809 942.89 937.41 1.02
2262 30.4932 945.70 938.70 1.03
2263 30.5056 946.35 941.04 1.03
2264 30.5180 947.63 945.25 1.03
2265 30.5304 950.99 952.53 1.03
2266 30.5427 957.53 964.38 1.03
2267 30.5551 973.37 982.55 1.04
2268 30.5675 992.79 1007.81 1.05
2269 30.5798 1020.15 1039.13 1.06
2270 30.5922 1054.77 1073.83 1.08
2271 30.6046 1095.72 1106.09 1.10
2272 30.6169 1133.51 1128.95 1.12
2273 30.6293 1141.60 1136.90 1.13
2274 30.6417 1115.85 1127.07 1.11
2275 30.6540 1075.19 1101.89 1.09
2276 30.6664 1024.29 1067.42 1.07
2277 30.6788 989.52 1032.02 1.05
2278 30.6911 970.87 1002.48 1.04
2279 30.7035 962.26 981.48 1.03
2280 30.7159 960.03 969.21 1.03
2281 30.7282 952.08 963.65 1.03
2282 30.7406 951.82 962.08 1.03
2283 30.7530 954.42 962.25 1.03
2284 30.7654 949.91 962.54 1.03
2285 30.7777 948.43 961.95 1.02
2286 30.7901 953.85 960.12 1.03
2287 30.8025 952.21 957.18 1.03
2288 30.8148 945.46 953.72 1.02
2289 30.8272 946.60 950.38 1.02
2290 30.8396 947.64 947.79 1.02
2291 30.8519 938.81 946.29 1.02
2292 30.8643 940.32 946.01 1.02
2293 30.8767 943.49 946.39 1.02
2294 30.8890 945.08 948.02 1.02
2295 30.9014 947.73 951.08 1.02
2296 30.9138 952.42 955.49 1.03
2297 30.9261 962.13 960.85 1.03
2298 30.9385 977.39 966.53 1.04
2299 30.9509 997.53 971.42 1.05
2300 30.9633 998.87 974.46 1.05
2301 30.9756 993.68 974.94 1.05
2302 30.9880 982.99 972.84 1.04
2303 31.0004 965.85 968.88 1.03
2304 31.0127 966.63 964.29 1.03
2305 31.0251 977.27 960.03 1.04
2306 31.0375 982.91 956.63 1.04
2307 31.0498 990.16 953.91 1.06
2308 31.0622 985.69 951.34 1.07
2309 31.0746 967.99 948.45 1.07
2310 31.0870 952.77 945.09 1.07
2311 31.0993 950.59 941.53 1.08
2312 31.1117 947.29 938.13 1.09
2313 31.1241 942.34 935.21 1.09
2314 31.1364 934.92 933.01 1.09
2315 31.1488 929.67 931.41 1.09
2316 31.1612 933.10 930.27 1.10
2317 31.1735 935.75 929.45 1.11
2318 31.1859 931.43 928.78 1.11
2319 31.1983 927.18 928.23 1.11
2320 31.2106 931.35 927.81 1.12
2321 31.2230 933.79 927.54 1.13
2322 31.2354 930.04 927.48 1.13
2323 31.2477 925.08 927.69 1.13
2324 31.2601 930.03 928.20 1.14
2325 31.2725 934.60 928.98 1.14
2326 31.2848 933.08 929.90 1.15
2327 31.2972 931.01 930.75 1.15
2328 31.3096 933.29 931.28 1.16
2329 31.3220 933.53 931.24 1.16
2330 31.3343 936.68 930.51 1.17
2331 31.3467 940.02 929.17 1.17
2332 31.3591 934.87 927.47 1.17
2333 31.3714 924.15 925.82 1.17
2334 31.3838 925.15 924.88 1.18
2335 31.3962 939.04 924.85 1.17
2336 31.4085 944.37 925.88 1.15
2337 31.4209 939.02 928.23 1.14
2338 31.4333 942.23 932.06 1.13
2339 31.4456 942.83 937.32 1.13
2340 31.4580 939.31 943.74 1.12
2341 31.4704 942.99 950.55 1.12
2342 31.4828 948.12 956.65 1.12
2343 31.4951 953.99 960.85 1.12
2344 31.5075 965.58 962.41 1.12
2345 31.5199 965.41 961.20 1.12
2346 31.5322 957.11 958.07 1.11
2347 31.5446 956.43 954.46 1.11
2348 31.5570 959.34 951.89 1.10
2349 31.5693 962.33 951.32 1.10
2350 31.5817 972.13 952.83 1.10
2351 31.5941 977.51 955.87 1.10
2352 31.6064 970.80 959.65 1.10
2353 31.6188 967.06 963.73 1.10
2354 31.6312 969.13 967.99 1.10
2355 31.6436 973.38 972.64 1.10
2356 31.6559 978.57 977.63 1.10
2357 31.6683 986.80 982.43 1.10
2358 31.6806 991.96 985.69 1.10
2359 31.6930 994.63 985.90 1.10
2360 31.7054 991.05 981.95 1.10
2361 31.7178 977.85 973.85 1.09
2362 31.7301 962.12 963.00 1.08
2363 31.7425 951.64 951.26 1.07
2364 31.7549 943.95 940.69 1.06
2365 31.7672 939.26 932.53 1.06
2366 31.7796 937.60 926.88 1.06
2367 31.7920 937.73 923.42 1.05
2368 31.8043 932.66 921.44 1.05
2369 31.8167 931.95 920.29 1.05
2370 31.8291 930.87 919.55 1.04
2371 31.8414 927.32 919.02 1.04
2372 31.8538 927.43 918.61 1.04
2373 31.8662 922.92 918.31 1.04
2374 31.8786 920.30 918.14 1.03
2375 31.8909 923.67 918.60 1.04
2376 31.9033 924.22 919.39 1.04
2377 31.9157 924.84 920.46 1.04
2378 31.9280 926.04 921.92 1.04
2379 31.9404 925.84 924.00 1.03
2380 31.9528 925.95 926.83 1.03
2381 31.9651 927.91 930.47 1.03
2382 31.9775 935.91 934.90 1.04
2383 31.9899 941.91 939.73 1.04
2384 32.0022 939.40 944.34 1.04
2385 32.0146 940.39 948.11 1.04
2386 32.0270 947.84 950.38 1.04
2387 32.0394 951.64 950.91 1.04
2388 32.0517 953.83 949.97 1.04
2389 32.0641 951.11 948.29 1.04
2390 32.0765 946.78 946.92 1.04
2391 32.0888 944.84 946.69 1.04
2392 32.1012 948.76 947.95 1.04
2393 32.1136 964.15 950.59 1.05
2394 32.1259 981.77 954.10 1.06
2395 32.1383 984.85 957.93 1.06
2396 32.1507 974.38 961.46 1.05
2397 32.1630 962.90 964.27 1.04
2398 32.1754 960.22 966.13 1.04
2399 32.1878 962.60 966.78 1.04
2400 32.2001 966.21 966.07 1.04
2401 32.2125 970.74 963.97 1.05
2402 32.2249 974.45 960.65 1.05
2403 32.2372 970.92 956.55 1.05
2404 32.2496 955.62 952.14 1.04
2405 32.2620 942.99 948.00 1.03
2406 32.2744 934.61 944.53 1.03
2407 32.2867 932.23 941.97 1.02
2408 32.2991 932.20 940.28 1.02
2409 32.3115 933.34 939.36 1.02
2410 32.3238 932.19 939.07 1.02
2411 32.3362 932.28 939.28 1.02
2412 32.3486 927.93 939.93 1.02
2413 32.3609 929.87 940.99 1.02
2414 32.3733 937.19 942.47 1.02
2415 32.3857 935.54 944.34 1.02
2416 32.3981 932.49 946.48 1.02
2417 32.4104 939.97 948.70 1.02
2418 32.4228 946.91 950.82 1.03
2419 32.4352 953.33 952.62 1.03
2420 32.4475 949.56 954.04 1.03
2421 32.4599 945.28 955.24 1.03
2422 32.4723 946.55 956.61 1.03
2423 32.4846 943.74 958.70 1.02
2424 32.4970 941.29 962.15 1.02
2425 32.5094 946.09 967.24 1.03
2426 32.5217 947.97 973.42 1.03
2427 32.5341 960.28 981.54 1.03
2428 32.5465 973.47 991.01 1.04
2429 32.5588 984.79 1000.83 1.05
2430 32.5712 1000.02 1009.99 1.05
2431 32.5836 1021.20 1017.21 1.06
2432 32.5959 1032.39 1021.48 1.07
2433 32.6083 1025.09 1022.32 1.07
2434 32.6207 1014.93 1019.71 1.06
2435 32.6331 1013.13 1014.13 1.06
2436 32.6454 1011.98 1006.35 1.06
2437 32.6578 1005.52 996.87 1.05
2438 32.6702 993.57 986.42 1.05
2439 32.6825 980.04 975.95 1.04
2440 32.6949 964.06 966.34 1.03
2441 32.7073 955.51 958.64 1.03
2442 32.7196 947.69 953.51 1.02
2443 32.7320 943.64 950.93 1.02
2444 32.7444 942.03 950.47 1.02
2445 32.7568 945.33 951.29 1.02
2446 32.7691 951.55 952.40 1.02
2447 32.7815 952.33 952.89 1.02
2448 32.7938 942.81 952.15 1.02
2449 32.8062 936.80 949.96 1.01
2450 32.8186 936.41 946.54 1.01
2451 32.8310 939.03 942.45 1.02
2452 32.8433 942.37 938.41 1.02
2453 32.8557 934.30 934.90 1.01
2454 32.8681 931.24 932.24 1.01
2455 32.8804 931.65 931.04 1.01
2456 32.8928 930.57 930.65 1.01
2457 32.9052 934.43 930.89 1.01
2458 32.9175 932.74 931.60 1.01
2459 32.9299 931.69 932.64 1.01
2460 32.9423 934.44 933.88 1.01
2461 32.9546 935.39 935.12 1.01
2462 32.9670 940.58 936.21 1.01
2463 32.9794 940.07 936.99 1.01
2464 32.9918 939.32 937.46 1.01
2465 33.0041 936.91 937.80 1.01
2466 33.0165 939.28 938.44 1.01
2467 33.0289 940.80 939.99 1.01
2468 33.0412 943.01 943.09 1.01
2469 33.0536 944.65 948.32 1.01
2470 33.0660 952.64 955.91 1.02
2471 33.0783 963.08 965.54 1.02
2472 33.0907 977.23 976.66 1.03
2473 33.1031 988.94 988.04 1.04
2474 33.1155 999.50 998.29 1.04
2475 33.1278 999.72 1006.02 1.04
2476 33.1402 997.51 1010.39 1.04
2477 33.1525 996.21 1011.06 1.04
2478 33.1649 986.35 1008.44 1.03
2479 33.1773 987.01 1003.49 1.03
2480 33.1897 982.94 997.41 1.03
2481 33.2020 980.10 991.52 1.03
2482 33.2144 988.57 986.80 1.03
2483 33.2268 983.30 984.04 1.03
2484 33.2391 982.81 983.33 1.03
2485 33.2515 992.56 984.03 1.04
2486 33.2639 996.41 985.03 1.04
2487 33.2762 1001.80 985.07 1.04
2488 33.2886 1009.62 983.16 1.04
2489 33.3010 1011.16 978.87 1.05
2490 33.3133 1009.15 972.50 1.04
2491 33.3257 995.05 964.58 1.04
2492 33.3381 976.04 956.20 1.03
2493 33.3505 961.45 948.36 1.02
2494 33.3628 948.20 941.89 1.01
2495 33.3752 945.57 937.02 1.01
2496 33.3876 941.00 933.75 1.01
2497 33.3999 936.30 931.80 1.00
2498 33.4123 931.85 930.78 1.00
2499 33.4247 932.14 930.38 1.00
2500 33.4370 930.83 930.59 1.00
2501 33.4494 932.89 931.29 1.00
2502 33.4618 935.85 932.40 1.00
2503 33.4741 933.97 933.97 1.00
2504 33.4865 936.03 936.02 1.00
2505 33.4989 941.61 938.43 1.01
2506 33.5112 946.99 940.96 1.01
2507 33.5236 945.39 943.33 1.01
2508 33.5360 941.25 945.14 1.00
2509 33.5484 941.57 946.17 1.00
2510 33.5607 944.98 946.36 1.01
2511 33.5731 946.78 946.00 1.01
2512 33.5855 949.74 945.66 1.01
2513 33.5978 949.50 946.08 1.01
2514 33.6102 951.51 948.03 1.01
2515 33.6226 957.33 952.05 1.01
2516 33.6349 957.22 958.31 1.01
2517 33.6473 964.06 966.63 1.02
2518 33.6597 974.27 976.24 1.02
2519 33.6720 985.82 985.88 1.03
2520 33.6844 998.67 994.28 1.03
2521 33.6968 1006.02 1000.01 1.04
2522 33.7092 1006.59 1002.15 1.04
2523 33.7215 1008.11 1000.60 1.04
2524 33.7339 1001.29 996.01 1.03
2525 33.7463 985.13 989.76 1.03
2526 33.7586 975.72 983.47 1.02
2527 33.7710 972.09 978.19 1.02
2528 33.7834 960.03 974.42 1.01
2529 33.7957 952.34 971.99 1.01
2530 33.8081 958.50 970.31 1.01
2531 33.8205 963.80 968.92 1.01
2532 33.8328 965.79 967.65 1.01
2533 33.8452 973.68 966.59 1.02
2534 33.8576 972.68 965.97 1.02
2535 33.8700 963.34 965.98 1.01
2536 33.8823 960.98 966.65 1.01
2537 33.8947 955.53 967.87 1.01
2538 33.9070 952.34 969.41 1.01
2539 33.9194 958.34 971.01 1.01
2540 33.9318 964.44 972.46 1.01
2541 33.9442 966.96 973.64 1.01
2542 33.9565 969.42 974.61 1.01
2543 33.9689 972.43 975.55 1.01
2544 33.9813 960.48 976.66 1.01
2545 33.9936 956.25 978.16 1.01
2546 34.0060 959.24 980.33 1.01
2547 34.0184 968.59 983.46 1.01
2548 34.0307 974.46 987.98 1.02
2549 34.0431 971.10 994.30 1.01
2550 34.0555 976.64 1002.32 1.02
2551 34.0679 997.82 1011.27 1.03
2552 34.0802 1008.20 1019.56 1.03
2553 34.0926 1008.31 1025.42 1.03
2554 34.1050 1011.24 1027.06 1.03
2555 34.1173 1003.99 1023.68 1.03
2556 34.1297 992.43 1015.61 1.02
2557 34.1421 986.97 1004.52 1.02
2558 34.1544 984.62 992.84 1.02
2559 34.1668 978.76 982.56 1.02
2560 34.1792 975.06 975.22 1.01
2561 34.1915 970.07 971.17 1.01
2562 34.2039 966.99 969.80 1.01
2563 34.2163 959.78 970.07 1.00
2564 34.2286 960.70 970.79 1.01
2565 34.2410 970.49 971.04 1.01
2566 34.2534 973.73 970.34 1.01
2567 34.2657 967.27 968.74 1.01
2568 34.2781 959.17 966.63 1.00
2569 34.2905 964.23 964.70 1.01
2570 34.3029 968.83 963.64 1.01
2571 34.3152 968.85 963.90 1.01
2572 34.3276 965.73 965.60 1.01
2573 34.3400 960.36 968.49 1.00
2574 34.3523 960.12 971.97 1.00
2575 34.3647 962.83 975.39 1.00
2576 34.3771 969.00 977.99 1.01
2577 34.3894 970.96 979.22 1.01
2578 34.4018 968.73 978.86 1.01
2579 34.4142 970.63 976.93 1.01
2580 34.4266 968.18 973.79 1.01
2581 34.4389 962.28 969.99 1.00
2582 34.4513 963.72 965.97 1.00
2583 34.4637 963.27 962.24 1.00
2584 34.4760 964.17 959.16 1.00
2585 34.4884 962.22 956.83 1.00
2586 34.5008 960.64 955.28 1.00
2587 34.5131 960.98 954.42 1.00
2588 34.5255 956.34 954.09 1.00
2589 34.5379 952.57 954.13 1.00
2590 34.5502 952.80 954.23 1.00
2591 34.5626 958.08 954.53 1.00
2592 34.5750 962.32 955.18 1.00
2593 34.5873 966.06 956.37 1.00
2594 34.5997 963.95 958.43 1.00
2595 34.6121 959.38 961.78 1.00
2596 34.6244 960.17 966.86 1.00
2597 34.6368 972.00 974.24 1.01
2598 34.6492 981.71 984.22 1.01
2599 34.6616 988.41 996.77 1.01
2600 34.6739 996.60 1011.26 1.02
2601 34.6863 1011.34 1026.95 1.03
2602 34.6987 1026.42 1042.36 1.03
2603 34.7110 1040.78 1056.07 1.04
2604 34.7234 1051.67 1067.27 1.04
2605 34.7358 1053.26 1075.44 1.05
2606 34.7481 1052.58 1080.79 1.04
2607 34.7605 1050.42 1084.14 1.04
2608 34.7729 1055.70 1086.18 1.05
2609 34.7853 1064.51 1087.40 1.05
2610 34.7976 1077.65 1088.11 1.06
2611 34.8100 1094.28 1088.93 1.06
2612 34.8223 1104.12 1091.15 1.07
2613 34.8347 1100.47 1096.92 1.07
2614 34.8471 1089.12 1108.37 1.06
2615 34.8595 1093.84 1126.55 1.06
2616 34.8718 1118.83 1150.15 1.08
2617 34.8842 1167.38 1175.93 1.10
2618 34.8966 1230.09 1198.02 1.13
2619 34.9089 1291.21 1210.23 1.15
2620 34.9213 1311.29 1208.04 1.16
2621 34.9337 1273.01 1189.77 1.15
2622 34.9460 1197.54 1158.10 1.11
2623 34.9584 1116.64 1118.32 1.07
2624 34.9708 1049.68 1077.78 1.04
2625 34.9831 1017.32 1042.91 1.02
2626 34.9955 1002.85 1016.55 1.02
2627 35.0079 989.91 999.46 1.01
2628 35.0203 979.84 989.85 1.00
2629 35.0326 974.79 984.92 1.00
2630 35.0450 972.08 981.89 1.00
2631 35.0574 964.29 978.91 1.00
2632 35.0697 960.79 975.23 0.99
2633 35.0821 963.34 970.90 1.00
2634 35.0945 961.63 966.60 0.99
2635 35.1068 960.25 963.06 0.99
2636 35.1192 962.79 960.75 0.99
2637 35.1316 963.95 959.88 0.99
2638 35.1440 958.59 960.34 0.99
2639 35.1563 959.74 961.81 0.99
2640 35.1687 962.18 963.85 0.99
2641 35.1811 970.74 965.97 0.99
2642 35.1934 970.46 967.68 0.99
2643 35.2058 961.29 968.60 1.01
2644 35.2182 963.67 968.48 1.02
2645 35.2305 966.11 967.28 1.04
2646 35.2429 968.86 965.17 1.05
2647 35.2553 969.16 962.50 1.05
2648 35.2676 961.51 959.69 1.05
2649 35.2800 962.64 957.09 1.06
2650 35.2924 960.45 954.97 1.07
2651 35.3047 952.32 953.46 1.07
2652 35.3171 955.12 952.55 1.07
2653 35.3295 958.66 952.21 1.08
2654 35.3418 953.04 952.37 1.08
2655 35.3542 950.72 953.05 1.08
2656 35.3666 948.83 954.36 1.09
2657 35.3790 948.43 956.51 1.09
2658 35.3913 956.16 959.77 1.10
2659 35.4037 967.95 964.56 1.11
2660 35.4161 973.97 971.23 1.12
2661 35.4284 973.42 980.01 1.12
2662 35.4408 985.69 991.18 1.13
2663 35.4532 1004.67 1004.65 1.15
2664 35.4655 1026.19 1019.89 1.17
2665 35.4779 1036.44 1036.40 1.18
2666 35.4903 1041.90 1052.89 1.19
2667 35.5026 1059.17 1067.71 1.20
2668 35.5150 1083.17 1079.46 1.21
2669 35.5274 1107.81 1086.56 1.19
2670 35.5398 1124.97 1088.16 1.19
2671 35.5521 1118.36 1084.49 1.17
2672 35.5645 1092.48 1076.86 1.15
2673 35.5769 1063.92 1067.65 1.13
2674 35.5892 1046.47 1059.62 1.11
2675 35.6016 1036.54 1054.65 1.10
2676 35.6140 1033.28 1053.26 1.09
2677 35.6263 1034.43 1054.23 1.09
2678 35.6387 1051.72 1055.18 1.10
2679 35.6511 1071.71 1053.44 1.10
2680 35.6634 1073.99 1047.17 1.10
2681 35.6758 1062.31 1035.82 1.10
2682 35.6882 1043.25 1020.52 1.08
2683 35.7005 1016.11 1003.69 1.07
2684 35.7129 988.83 987.51 1.05
2685 35.7253 972.08 974.00 1.04
2686 35.7377 969.55 964.09 1.04
2687 35.7500 966.79 957.70 1.03
2688 35.7624 957.80 954.03 1.03
2689 35.7748 954.71 952.18 1.02
2690 35.7871 954.53 951.30 1.02
2691 35.7995 949.74 950.78 1.02
2692 35.8119 954.78 950.30 1.02
2693 35.8242 954.30 949.78 1.02
2694 35.8366 950.00 949.23 1.02
2695 35.8490 956.06 948.71 1.02
2696 35.8613 953.34 948.30 1.02
2697 35.8737 947.40 948.01 1.01
2698 35.8861 948.18 947.87 1.01
2699 35.8984 945.84 947.72 1.01
2700 35.9108 948.40 947.55 1.01
2701 35.9232 947.76 947.61 1.01
2702 35.9355 941.60 947.98 1.01
2703 35.9479 950.88 948.82 1.01
2704 35.9603 949.18 950.27 1.01
2705 35.9727 950.74 952.52 1.01
2706 35.9850 957.09 955.65 1.02
2707 35.9974 958.60 959.77 1.02
2708 36.0098 957.73 964.74 1.01
2709 36.0221 954.89 970.30 1.01
2710 36.0345 967.11 976.10 1.02
2711 36.0469 975.58 981.62 1.02
2712 36.0592 978.09 986.36 1.02
2713 36.0716 978.83 990.09 1.02
2714 36.0840 983.48 992.74 1.02
2715 36.0964 981.02 994.71 1.02
2716 36.1087 982.78 996.76 1.02
2717 36.1211 988.01 999.99 1.02
2718 36.1335 996.87 1005.55 1.03
2719 36.1458 1002.08 1014.30 1.03
2720 36.1582 1010.90 1026.70 1.03
2721 36.1706 1032.40 1042.08 1.05
2722 36.1829 1073.77 1058.56 1.07
2723 36.1953 1120.46 1073.82 1.09
2724 36.2077 1163.36 1084.71 1.11
2725 36.2200 1174.26 1088.64 1.11
2726 36.2324 1162.43 1084.26 1.11
2727 36.2448 1131.53 1071.75 1.09
2728 36.2572 1100.12 1053.05 1.08
2729 36.2695 1066.45 1031.44 1.06
2730 36.2819 1037.84 1009.83 1.04
2731 36.2942 1019.43 991.24 1.03
2732 36.3066 1007.77 977.00 1.03
2733 36.3190 995.70 967.87 1.02
2734 36.3314 990.86 963.59 1.02
2735 36.3437 984.36 963.48 1.01
2736 36.3561 981.56 966.80 1.01
2737 36.3685 983.24 973.05 1.01
2738 36.3808 990.35 981.89 1.02
2739 36.3932 988.55 993.42 1.01
2740 36.4056 999.55 1007.58 1.02
2741 36.4179 1012.86 1024.17 1.03
2742 36.4303 1026.58 1043.19 1.03
2743 36.4427 1048.85 1064.02 1.04
2744 36.4551 1083.43 1085.99 1.06
2745 36.4674 1116.01 1108.04 1.08
2746 36.4798 1155.01 1129.49 1.09
2747 36.4922 1185.80 1148.94 1.11
2748 36.5045 1199.14 1164.99 1.11
2749 36.5169 1194.18 1176.68 1.11
2750 36.5293 1183.78 1182.97 1.11
2751 36.5416 1168.71 1183.49 1.10
2752 36.5540 1177.41 1178.32 1.10
2753 36.5664 1188.42 1167.88 1.11
2754 36.5787 1193.12 1153.03 1.11
2755 36.5911 1191.20 1134.50 1.11
2756 36.6035 1174.84 1113.79 1.10
2757 36.6158 1151.61 1092.73 1.09
2758 36.6282 1106.82 1072.92 1.07
2759 36.6406 1076.86 1056.18 1.05
2760 36.6529 1062.90 1043.55 1.04
2761 36.6653 1047.07 1034.79 1.04
2762 36.6777 1043.36 1029.08 1.03
2763 36.6901 1043.83 1024.94 1.03
2764 36.7024 1038.19 1020.96 1.03
2765 36.7148 1033.11 1016.12 1.03
2766 36.7272 1026.28 1010.19 1.02
2767 36.7395 1013.96 1003.61 1.02
2768 36.7519 1009.69 996.94 1.02
2769 36.7643 1004.44 990.77 1.01
2770 36.7766 997.36 985.41 1.01
2771 36.7890 1004.22 980.78 1.01
2772 36.8014 1002.76 976.91 1.01
2773 36.8137 990.47 973.95 1.00
2774 36.8261 980.75 972.11 1.00
2775 36.8385 976.28 971.66 1.00
2776 36.8509 981.92 972.55 1.00
2777 36.8632 992.18 974.31 1.00
2778 36.8756 990.96 976.04 1.00
2779 36.8880 986.86 976.61 1.00
2780 36.9003 989.28 975.03 1.00
2781 36.9127 981.31 970.72 1.00
2782 36.9251 973.17 963.83 0.99
2783 36.9374 964.23 955.23 0.99
2784 36.9498 954.15 945.99 0.98
2785 36.9622 937.20 937.43 0.97
2786 36.9745 929.16 930.46 0.97
2787 36.9869 932.54 925.28 0.97
2788 36.9993 931.11 921.83 0.97
2789 37.0116 921.75 919.65 0.96
2790 37.0240 915.40 918.15 0.96
2791 37.0364 915.04 916.91 0.96
2792 37.0488 910.94 915.54 0.96
2793 37.0611 918.67 913.96 0.96
2794 37.0735 926.73 912.39 0.97
2795 37.0859 918.05 911.01 0.96
2796 37.0982 916.31 910.02 0.96
2797 37.1106 920.11 909.61 0.96
2798 37.1230 922.30 910.05 0.96
2799 37.1353 925.53 911.64 0.96
2800 37.1477 926.31 914.83 0.96
2801 37.1601 926.33 920.03 0.96
2802 37.1724 933.62 927.55 0.97
2803 37.1848 944.54 937.68 0.97
2804 37.1972 946.86 950.16 0.97
2805 37.2096 955.76 964.28 0.98
2806 37.2219 968.45 978.74 0.98
2807 37.2343 982.85 992.26 0.99
2808 37.2467 998.03 1003.14 1.00
2809 37.2590 1003.65 1010.15 1.00
2810 37.2714 999.49 1012.85 1.00
2811 37.2838 1004.59 1011.48 1.00
2812 37.2961 1002.08 1007.15 1.00
2813 37.3085 1001.03 1001.21 1.00
2814 37.3209 992.79 994.98 0.99
2815 37.3332 988.59 989.19 0.99
2816 37.3456 990.05 983.83 0.99
2817 37.3580 986.18 978.69 0.99
2818 37.3703 967.99 973.78 0.98
2819 37.3827 954.58 969.43 0.97
2820 37.3951 949.05 966.70 0.97
2821 37.4075 942.93 966.80 0.97
2822 37.4198 944.18 970.54 0.97
2823 37.4322 958.21 977.92 0.97
2824 37.4446 971.57 987.72 0.98
2825 37.4569 984.45 997.72 0.99
2826 37.4693 1010.31 1005.52 1.00
2827 37.4817 1016.43 1008.67 1.00
2828 37.4940 1013.00 1005.82 1.00
2829 37.5064 1009.98 996.85 1.00
2830 37.5188 991.68 983.12 0.99
2831 37.5311 967.31 967.07 0.98
2832 37.5435 949.91 950.94 0.97
2833 37.5559 938.77 936.88 0.96
2834 37.5683 933.93 925.88 0.96
2835 37.5806 930.19 918.03 0.96
2836 37.5930 917.34 912.55 0.95
2837 37.6053 907.15 908.61 0.95
2838 37.6177 908.94 905.35 0.95
2839 37.6301 911.20 902.29 0.95
2840 37.6425 896.51 899.30 0.94
2841 37.6548 893.54 896.56 0.94
2842 37.6672 901.47 894.37 0.94
2843 37.6796 902.47 893.24 0.94
2844 37.6919 898.52 893.57 0.94
2845 37.7043 892.53 895.66 0.94
2846 37.7167 893.11 899.49 0.94
2847 37.7290 890.45 904.63 0.93
2848 37.7414 894.06 910.39 0.94
2849 37.7538 901.16 915.68 0.94
2850 37.7662 903.40 919.34 0.94
2851 37.7785 903.42 920.40 0.94
2852 37.7909 899.28 918.28 0.94
2853 37.8033 901.95 912.98 0.94
2854 37.8156 904.87 905.20 0.94
2855 37.8280 903.13 895.94 0.94
2856 37.8404 895.73 886.56 0.94
2857 37.8527 893.75 878.28 0.93
2858 37.8651 883.23 871.73 0.93
2859 37.8775 877.44 867.30 0.93
2860 37.8898 875.14 864.98 0.92
2861 37.9022 867.95 864.50 0.92
2862 37.9146 871.55 865.66 0.92
2863 37.9270 879.97 868.30 0.93
2864 37.9393 879.04 872.38 0.93
2865 37.9517 880.94 878.09 0.93
2866 37.9640 881.76 885.45 0.93
2867 37.9764 895.54 894.64 0.93
2868 37.9888 910.83 905.41 0.94
2869 38.0012 905.93 917.15 0.94
2870 38.0135 906.56 928.78 0.94
2871 38.0259 908.48 939.13 0.94
2872 38.0383 912.63 946.54 0.94
2873 38.0506 918.34 949.57 0.94
2874 38.0630 925.37 947.30 0.95
2875 38.0754 923.33 939.51 0.95
2876 38.0877 915.25 927.09 0.94
2877 38.1001 905.15 911.46 0.94
2878 38.1125 897.37 894.85 0.93
2879 38.1248 881.03 879.43 0.92
2880 38.1372 866.48 866.40 0.92
2881 38.1496 860.74 856.62 0.91
2882 38.1620 851.96 850.07 0.91
2883 38.1743 860.62 846.22 0.91
2884 38.1867 858.48 844.25 0.91
2885 38.1991 852.32 843.42 0.91
2886 38.2114 852.05 843.10 0.91
2887 38.2238 848.18 842.89 0.90
2888 38.2362 843.70 842.53 0.90
2889 38.2485 843.60 841.92 0.90
2890 38.2609 834.00 841.07 0.90
2891 38.2733 833.15 840.00 0.90
2892 38.2856 841.96 838.79 0.90
2893 38.2980 840.24 837.52 0.90
2894 38.3104 834.97 836.31 0.90
2895 38.3227 840.90 835.27 0.90
2896 38.3351 845.77 834.45 0.90
2897 38.3475 839.55 833.97 0.90
2898 38.3599 828.97 833.90 0.89
2899 38.3722 829.05 834.30 0.89
2900 38.3846 833.84 835.26 0.89
2901 38.3970 837.54 836.80 0.90
2902 38.4093 840.50 838.93 0.90
2903 38.4217 837.81 841.59 0.90
2904 38.4341 845.51 844.62 0.90
2905 38.4464 846.59 847.75 0.90
2906 38.4588 851.74 850.76 0.90
2907 38.4712 860.09 853.38 0.90
2908 38.4835 861.63 855.42 0.90
2909 38.4959 861.26 856.89 0.90
2910 38.5083 851.49 857.90 0.89
2911 38.5207 853.78 858.67 0.90
2912 38.5330 860.13 859.49 0.90
2913 38.5454 861.89 860.58 0.90
2914 38.5578 864.02 862.06 0.90
2915 38.5701 861.35 863.88 0.89
2916 38.5825 861.11 866.01 0.89
2917 38.5949 858.72 868.33 0.89
2918 38.6072 862.32 870.74 0.89
2919 38.6196 853.51 873.18 0.88
2920 38.6320 840.95 875.40 0.88
2921 38.6443 844.55 876.97 0.88
2922 38.6567 851.15 877.33 0.88
2923 38.6691 852.49 875.83 0.88
2924 38.6814 851.09 872.06 0.88
2925 38.6938 850.40 865.94 0.88
2926 38.7062 847.04 857.96 0.87
2927 38.7186 835.04 849.03 0.87
2928 38.7309 824.41 840.37 0.86
2929 38.7433 825.63 832.84 0.86
2930 38.7557 831.94 827.14 0.87
2931 38.7680 824.99 823.43 0.86
2932 38.7804 827.77 821.37 0.86
2933 38.7928 829.92 820.40 0.87
2934 38.8051 830.11 819.85 0.87
2935 38.8175 827.28 819.10 0.86
2936 38.8299 825.24 817.78 0.86
2937 38.8422 819.45 815.75 0.86
2938 38.8546 816.37 813.09 0.86
2939 38.8670 818.19 810.09 0.86
2940 38.8794 813.19 807.07 0.86
2941 38.8917 815.42 804.33 0.86
2942 38.9041 807.20 801.99 0.85
2943 38.9165 803.26 800.14 0.85
2944 38.9288 803.17 798.74 0.85
2945 38.9412 806.23 797.67 0.85
2946 38.9536 810.38 796.84 0.86
2947 38.9659 804.69 796.16 0.87
2948 38.9783 796.19 795.55 0.88
2949 38.9907 794.64 794.98 0.89
2950 39.0030 795.75 794.73 0.90
2951 39.0154 789.93 794.56 0.91
2952 39.0278 794.52 794.51 0.92
2953 39.0401 800.59 794.66 0.93
2954 39.0525 798.07 795.09 0.93
2955 39.0649 800.56 795.89 0.94
2956 39.0773 800.96 797.21 0.95
2957 39.0896 799.14 799.09 0.95
2958 39.1020 799.37 801.58 0.96
2959 39.1144 796.28 804.63 0.96
2960 39.1267 804.87 808.04 0.97
2961 39.1391 821.27 811.61 0.99
2962 39.1515 824.26 815.02 1.00
2963 39.1638 828.39 817.95 1.00
2964 39.1762 826.99 820.32 1.01
2965 39.1886 818.01 822.11 1.01
2966 39.2009 821.72 823.57 1.02
2967 39.2133 816.84 825.16 1.02
2968 39.2257 816.41 827.38 1.02
2969 39.2381 818.90 830.61 1.03
2970 39.2504 821.04 834.87 1.03
2971 39.2628 826.33 839.88 1.04
2972 39.2751 821.84 844.80 1.04
2973 39.2875 828.38 848.70 1.05
2974 39.2999 835.12 850.48 1.06
2975 39.3123 847.96 849.40 1.07
2976 39.3246 843.86 845.19 1.07
2977 39.3370 836.92 838.04 1.07
2978 39.3494 840.36 828.80 1.08
2979 39.3617 829.31 818.76 1.08
2980 39.3741 810.09 809.03 1.07
2981 39.3865 803.13 800.87 1.07
2982 39.3988 804.22 795.09 1.07
2983 39.4112 795.02 792.02 1.07
2984 39.4236 790.60 791.81 1.07
2985 39.4359 791.03 794.29 1.08
2986 39.4483 796.42 799.20 1.09
2987 39.4607 793.14 806.10 1.09
2988 39.4731 795.74 814.46 1.10
2989 39.4854 807.17 823.44 1.11
2990 39.4978 822.18 832.28 1.13
2991 39.5102 854.40 839.84 1.15
2992 39.5225 874.96 845.02 1.17
2993 39.5349 887.01 847.03 1.18
2994 39.5473 888.79 845.35 1.19
2995 39.5596 865.13 840.10 1.18
2996 39.5720 837.04 831.87 1.16
2997 39.5844 819.75 821.81 1.16
2998 39.5968 809.95 811.25 1.15
2999 39.6091 809.95 801.47 1.16
3000 39.6215 807.99 793.14 1.16
3001 39.6338 796.20 786.76 1.16
3002 39.6462 779.84 782.23 1.15
3003 39.6586 779.69 779.34 1.16
3004 39.6710 781.11 777.75 1.16
3005 39.6833 773.22 777.18 1.16
3006 39.6957 771.49 777.42 1.17
3007 39.7081 763.31 778.43 1.17
3008 39.7204 761.25 780.12 1.17
3009 39.7328 767.27 782.49 1.18
3010 39.7452 783.99 785.40 1.20
3011 39.7575 788.95 788.59 1.21
3012 39.7699 789.68 791.79 1.21
3013 39.7823 799.65 794.60 1.22
3014 39.7946 798.97 796.64 1.23
3015 39.8070 788.59 797.63 1.23
3016 39.8194 783.00 797.38 1.23
3017 39.8318 781.92 795.93 1.23
3018 39.8441 777.68 793.51 1.23
3019 39.8565 768.98 790.47 1.23
3020 39.8689 780.75 787.26 1.25
3021 39.8812 785.00 784.36 1.26
3022 39.8936 772.42 782.10 1.25
3023 39.9060 768.24 780.70 1.25
3024 39.9183 765.81 780.22 1.26
3025 39.9307 762.67 780.49 1.26
3026 39.9431 763.88 781.28 1.27
3027 39.9554 761.47 782.27 1.27
3028 39.9678 767.15 783.25 1.28
3029 39.9802 763.01 784.03 1.28
3030 39.9925 757.97 784.51 1.29
3031 40.0049 768.87 784.67 1.30
3032 40.0173 778.75 784.49 1.32
3033 40.0297 784.13 783.92 1.33
3034 40.0420 786.88 782.90 1.34
3035 40.0544 794.17 781.29 1.35
3036 40.0668 793.33 779.02 1.35
3037 40.0791 791.94 776.10 1.36
3038 40.0915 781.84 772.59 1.36
3039 40.1039 765.25 768.77 1.35
3040 40.1162 771.30 764.98 1.36
3041 40.1286 766.28 761.48 1.36
3042 40.1410 760.53 758.56 1.37
3043 40.1533 748.58 756.36 1.36
3044 40.1657 753.62 754.88 1.37
3045 40.1781 755.06 754.12 1.38
3046 40.1905 758.87 754.00 1.39
3047 40.2028 769.19 754.49 1.41
3048 40.2152 769.03 755.64 1.42
3049 40.2276 770.49 757.56 1.42
3050 40.2399 761.78 760.40 1.42
3051 40.2523 764.11 764.43 1.43
3052 40.2647 758.35 769.82 1.44
3053 40.2770 756.62 776.61 1.44
3054 40.2894 761.93 784.83 1.45
3055 40.3018 763.67 794.10 1.46
3056 40.3141 773.15 803.74 1.48
3057 40.3265 789.38 813.07 1.51
3058 40.3389 806.81 820.99 1.53
3059 40.3512 817.06 826.43 1.55
3060 40.3636 806.14 828.66 1.55
3061 40.3760 811.21 827.16 1.56
3062 40.3884 817.34 821.99 1.58
3063 40.4007 813.50 813.88 1.58
3064 40.4131 802.91 803.83 1.58
3065 40.4255 802.36 793.38 1.59
3066 40.4378 793.53 784.14 1.59
3067 40.4502 780.94 777.22 1.59
3068 40.4626 773.97 773.57 1.59
3069 40.4749 764.36 773.49 1.59
3070 40.4873 767.51 776.79 1.60
3071 40.4997 781.00 782.88 1.63
3072 40.5120 790.39 790.82 1.65
3073 40.5244 813.55 799.80 1.68
3074 40.5368 828.16 808.89 1.71
3075 40.5492 830.17 817.41 1.72
3076 40.5615 838.70 824.95 1.74
3077 40.5739 835.41 831.62 1.75
3078 40.5863 814.70 837.63 1.74
3079 40.5986 807.65 843.30 1.74
3080 40.6110 817.18 849.04 1.77
3081 40.6234 824.37 854.80 1.79
3082 40.6357 819.53 860.12 1.79
3083 40.6481 815.80 864.25 1.80
3084 40.6605 838.46 866.14 1.84
3085 40.6728 854.95 864.91 1.87
3086 40.6852 863.54 860.07 1.90
3087 40.6976 869.46 851.74 1.92
3088 40.7099 861.34 840.81 1.92
3089 40.7223 846.90 828.27 1.92
3090 40.7347 834.05 815.46 1.92
3091 40.7470 821.22 803.43 1.93
3092 40.7594 815.86 792.53 1.94
3093 40.7718 804.58 782.97 1.94
3094 40.7842 807.97 774.60 1.96
3095 40.7965 808.93 767.25 1.97
3096 40.8089 789.32 760.61 1.97
3097 40.8213 762.26 754.69 1.95
3098 40.8336 757.77 749.55 1.96
3099 40.8460 750.56 745.15 1.97
3100 40.8584 738.74 741.55 1.97
3101 40.8707 738.12 738.70 1.99
3102 40.8831 737.87 736.39 2.01
3103 40.8955 743.43 734.49 2.04
3104 40.9079 763.36 732.84 2.09
3105 40.9202 750.61 731.31 2.09
3106 40.9326 722.71 729.83 2.07
3107 40.9449 726.61 728.43 2.10
3108 40.9573 722.21 727.10 2.11
3109 40.9697 716.74 726.27 2.13
3110 40.9821 723.74 726.45 2.16
3111 40.9944 731.04 726.84 2.20
3112 41.0068 745.14 727.47 2.25
3113 41.0192 748.19 728.30 2.28
3114 41.0315 729.30 729.32 2.28
3115 41.0439 744.94 730.53 2.33
3116 41.0563 751.78 731.92 2.37
3117 41.0686 727.61 733.48 2.36
3118 41.0810 733.51 735.26 2.41
3119 41.0934 724.51 737.26 2.42
3120 41.1057 733.44 739.51 2.47
3121 41.1181 749.12 742.05 2.54
3122 41.1305 760.88 744.84 2.60
3123 41.1429 737.19 747.82 2.59
3124 41.1552 718.98 750.83 2.60
3125 41.1676 729.86 753.76 2.67
3126 41.1800 751.24 756.34 2.75
3127 41.1923 767.91 758.34 2.83
3128 41.2047 773.85 759.61 2.90
3129 41.2171 770.22 760.07 2.94
3130 41.2294 766.68 759.79 2.99
3131 41.2418 765.97 759.00 3.05
3132 41.2542 751.85 758.09 3.09
3133 41.2666 732.92 757.75 3.12
3134 41.2789 749.87 759.22 3.23
3135 41.2913 755.83 761.92 3.32
3136 41.3036 758.40 766.08 3.41
3137 41.3160 764.43 771.86 3.52
3138 41.3284 750.45 779.18 3.59
3139 41.3408 754.66 787.77 3.70
3140 41.3531 764.96 797.11 3.85
3141 41.3655 739.48 806.74 3.92
3142 41.3779 761.98 815.85 4.12
3143 41.3902 779.12 823.63 4.34
3144 41.4026 774.47 829.55 4.51
loop_
_pd_proc_info_excluded_regions
'from 41.4 to 42.000'
loop_
_restr_distance_atom_site_label_1
_restr_distance_atom_site_label_2
_restr_distance_target
_restr_distance_target_weight_param
C1 C2 1.527 0.001
