#------------------------------------------------------------------------------
#$Date: 2019-04-05 02:19:40 +0300 (Fri, 05 Apr 2019) $
#$Revision: 214493 $
#$URL: file:///home/coder/svn-repositories/cod/cif/1/55/08/1550841.cif $
#------------------------------------------------------------------------------
#
# This file is available in the Crystallography Open Database (COD),
# http://www.crystallography.net/
#
# All data on this site have been placed in the public domain by the
# contributors.
#
data_1550841
loop_
_publ_author_name
'Marquez, Carlos'
'Simonov, Arkadiy'
'Wharmby, Michael T.'
'Van Goethem, C\'edric'
'Vankelecom, Ivo F.J.'
'Bueken, Bart'
'Krajnc, Andra\<z'
'Mali, Gregor'
'De Vos, Dirk'
'De Baerdemaeker, Trees'
_publ_section_title
;
 Layered Zn2[Co(CN)6](CH3COO) double metal cyanide: a two-dimensional DMC
 phase with excellent catalytic performance
;
_journal_name_full               'Chemical Science'
_journal_paper_doi               10.1039/C9SC00527G
_journal_year                    2019
_chemical_formula_moiety         '	C8 Co N6 O4 Zn2, 2(O)'
_chemical_formula_sum            'C8 Co N6 O6 Zn2'
_chemical_formula_weight         465.85
_space_group_IT_number           11
_symmetry_cell_setting           monoclinic
_symmetry_space_group_name_Hall  '-P 2yb'
_symmetry_space_group_name_H-M   'P 1 21/m 1'
_audit_update_record
;
2019-01-29 deposited with the CCDC.    2019-04-04 downloaded from the CCDC.
;
_cell_angle_alpha                90
_cell_angle_beta                 94.6701(19)
_cell_angle_gamma                90
_cell_formula_units_Z            2
_cell_length_a                   12.3804(3)
_cell_length_b                   7.50396(16)
_cell_length_c                   8.4883(2)
_cell_measurement_temperature    298
_cell_volume                     785.96(3)
_diffrn_ambient_temperature      298
_diffrn_measurement_device_type  'P02.1, PETRA III, DESY, Hamburg, Germany'
_diffrn_radiation_probe          x-ray
_diffrn_radiation_type           synchrotron
_diffrn_radiation_wavelength     0.20738
_exptl_crystal_density_diffrn    1.969
_exptl_crystal_density_meas      ?
_exptl_crystal_density_method    'Not measured'
_pd_meas_number_of_points        2241
_pd_proc_2theta_range_inc        0.005
_pd_proc_2theta_range_max        11.70000
_pd_proc_2theta_range_min        0.50000
_pd_proc_ls_prof_R_factor        0.0164
_pd_proc_ls_prof_wR_expected     0.0292
_pd_proc_ls_prof_wR_factor       0.0236
_refine_ls_goodness_of_fit_all   0.80719
_refine_ls_R_I_factor            0.0131
_refine_ls_shift/su_max          0.0201812699
_reflns_d_resolution_high        12.33935
_reflns_d_resolution_low         0.97583
_reflns_number_total             972
_cod_data_source_file            c9sc00527g2.cif
_cod_data_source_block           outputcif
_cod_depositor_comments
;
The following automatic conversions were performed:

'_exptl_crystal_density_meas' value 'Not measured' was changed to '?'
- the value is perceived as not measured.

Automatic conversion script
Id: cif_fix_values 4973 2017-02-22 13:04:09Z antanas 
;
_cod_original_cell_volume        785.97(4)
_cod_original_sg_symbol_H-M      'P 21/m'
_cod_database_code               1550841
loop_
_symmetry_equiv_pos_as_xyz
'x, y, z '
'-x, y+1/2, -z '
'x, -y+1/2, z '
'-x, -y, -z '
loop_
_atom_site_label
_atom_site_type_symbol
_atom_site_symmetry_multiplicity
_atom_site_fract_x
_atom_site_fract_y
_atom_site_fract_z
_atom_site_occupancy
_atom_site_B_iso_or_equiv
Zn1 Zn 0 0.0872(2) 0.25 0.3226(4) 1 0.50(4)
Zn2 Zn 0 0.3649(2) 0.25 0.6823(4) 1 0.50(4)
Co1 Co 0 0.7438(3) 0.25 0.9543(4) 1 0.50(4)
C10 C 0 0.1017(19) 0.25 0.669(3) 1 0.9(2)
C11 C 0 0.0851(19) 0.25 0.833(3) 1 0.9(2)
O10 O 0 0.0372(12) 0.25 0.5377(17) 1 0.9(2)
O11 O 0 0.1933(10) 0.25 0.5969(18) 1 0.9(2)
C20 C 0 0.2018(13) -0.073(2) 0.169(2) 1 0.81(14)
N20 N 0 0.1655(11) 0.0368(15) 0.2402(14) 1 0.81(14)
C21 C 0 -0.130(2) 0.25 0.909(3) 1 0.81(14)
N21 N 0 -0.0521(15) 0.25 0.172(2) 1 0.81(14)
C22 C 0 0.3045(12) 0.577(2) 0.9192(18) 1 0.81(14)
N22 N 0 0.3392(10) 0.4616(17) 0.8526(17) 1 0.81(14)
C23 C 0 0.6149(17) 0.25 0.835(3) 1 0.81(14)
N23 N 0 0.5383(17) 0.25 0.753(2) 1 0.81(14)
Ow1 O 0 0.3931(9) 0.0634(14) 0.4912(14) 1 4.0(4)
Ow10 O 0 0.4265(13) 0.25 0.210(2) 1 3.3(3)
Ow11 O 0 0.2416(13) 0.75 0.538(2) 1 3.3(3)
loop_
_geom_angle_atom_site_label_1
_geom_angle_atom_site_label_2
_geom_angle_atom_site_label_3
_geom_angle
_geom_angle_site_symmetry_1
_geom_angle_site_symmetry_2
_geom_angle_site_symmetry_3
N20 Zn1 O10 120.950 1_555 1_555 1_555
N20 Zn1 N20 104.412 3_555 1_555 1_555
N20 Zn1 O10 120.950 3_555 1_555 1_555
N21 Zn1 N20 100.702 1_555 1_555 3_555
N21 Zn1 N20 100.702 1_555 1_555 1_555
N21 Zn1 O10 105.303 1_555 1_555 1_555
O11 Zn1 N21 154.019 1_555 1_555 1_555
O11 Zn1 N20 95.101 1_555 1_555 3_555
O11 Zn1 N20 95.101 1_555 1_555 1_555
O11 Zn1 O10 48.716 1_555 1_555 1_555
C10 Zn1 O11 27.014 1_555 1_555 1_555
C10 Zn1 N21 127.005 1_555 1_555 1_555
C10 Zn1 N20 110.770 1_555 1_555 3_555
C10 Zn1 N20 110.770 1_555 1_555 1_555
C10 Zn1 O10 21.702 1_555 1_555 1_555
C20 Zn1 C10 115.028 1_555 1_555 1_555
C20 Zn1 O11 99.237 1_555 1_555 1_555
C20 Zn1 N21 97.227 1_555 1_555 1_555
C20 Zn1 N20 102.765 1_555 1_555 3_555
C20 Zn1 N20 4.293 1_555 1_555 1_555
C20 Zn1 O10 124.696 1_555 1_555 1_555
C20 Zn1 C20 100.845 3_555 1_555 1_555
C20 Zn1 C10 115.028 3_555 1_555 1_555
C20 Zn1 O11 99.237 3_555 1_555 1_555
C20 Zn1 N21 97.227 3_555 1_555 1_555
C20 Zn1 N20 4.293 3_555 1_555 3_555
C20 Zn1 N20 102.765 3_555 1_555 1_555
C20 Zn1 O10 124.696 3_555 1_555 1_555
N22 Zn2 N23 90.632 3_555 1_555 1_555
N22 Zn2 N22 93.059 1_555 1_555 3_555
N22 Zn2 N23 90.632 1_555 1_555 1_555
O11 Zn2 N22 91.684 1_555 1_555 1_555
O11 Zn2 N22 91.684 1_555 1_555 3_555
O11 Zn2 N23 176.634 1_555 1_555 1_555
Ow1 Zn2 O11 87.919 3_555 1_555 1_555
Ow1 Zn2 N22 93.774 3_555 1_555 1_555
Ow1 Zn2 N22 173.164 3_555 1_555 3_555
Ow1 Zn2 N23 89.491 3_555 1_555 1_555
Ow1 Zn2 Ow1 79.393 1_555 1_555 3_555
Ow1 Zn2 O11 87.919 1_555 1_555 1_555
Ow1 Zn2 N22 173.164 1_555 1_555 1_555
Ow1 Zn2 N22 93.774 1_555 1_555 3_555
Ow1 Zn2 N23 89.491 1_555 1_555 1_555
C22 Co1 C21 120.302 2_647 1_555 1_655
C22 Co1 C22 91.218 4_667 1_555 2_647
C22 Co1 C21 120.302 4_667 1_555 1_655
C23 Co1 C22 90.743 1_555 1_555 4_667
C23 Co1 C22 90.743 1_555 1_555 2_647
C23 Co1 C21 132.779 1_555 1_555 1_655
C20 Co1 C23 91.623 2_656 1_555 1_555
C20 Co1 C22 88.503 2_656 1_555 4_667
C20 Co1 C22 177.621 2_656 1_555 2_647
C20 Co1 C21 57.984 2_656 1_555 1_655
C20 Co1 C20 91.678 4_656 1_555 2_656
C20 Co1 C23 91.623 4_656 1_555 1_555
C20 Co1 C22 177.621 4_656 1_555 4_667
C20 Co1 C22 88.503 4_656 1_555 2_647
C20 Co1 C21 57.984 4_656 1_555 1_655
N23 Co1 C20 90.507 1_555 1_555 4_656
N23 Co1 C20 90.507 1_555 1_555 2_656
N23 Co1 C23 1.603 1_555 1_555 1_555
N23 Co1 C22 91.864 1_555 1_555 4_667
N23 Co1 C22 91.864 1_555 1_555 2_647
N23 Co1 C21 131.176 1_555 1_555 1_655
N22 Co1 N23 89.933 2_647 1_555 1_555
N22 Co1 C20 86.962 2_647 1_555 4_656
N22 Co1 C20 178.574 2_647 1_555 2_656
N22 Co1 C23 88.844 2_647 1_555 1_555
N22 Co1 C22 92.838 2_647 1_555 4_667
N22 Co1 C22 2.481 2_647 1_555 2_647
N22 Co1 C21 120.811 2_647 1_555 1_655
N22 Co1 N22 94.395 4_667 1_555 2_647
N22 Co1 N23 89.933 4_667 1_555 1_555
N22 Co1 C20 178.574 4_667 1_555 4_656
N22 Co1 C20 86.962 4_667 1_555 2_656
N22 Co1 C23 88.844 4_667 1_555 1_555
N22 Co1 C22 2.481 4_667 1_555 4_667
N22 Co1 C22 92.838 4_667 1_555 2_647
N22 Co1 C21 120.811 4_667 1_555 1_655
N20 Co1 N22 178.253 4_656 1_555 4_667
N20 Co1 N22 86.684 4_656 1_555 2_647
N20 Co1 N23 91.443 4_656 1_555 1_555
N20 Co1 C20 0.977 4_656 1_555 4_656
N20 Co1 C20 91.949 4_656 1_555 2_656
N20 Co1 C23 92.553 4_656 1_555 1_555
N20 Co1 C22 176.658 4_656 1_555 4_667
N20 Co1 C22 88.193 4_656 1_555 2_647
N20 Co1 C21 57.444 4_656 1_555 1_655
N20 Co1 N20 92.205 2_656 1_555 4_656
N20 Co1 N22 86.684 2_656 1_555 4_667
N20 Co1 N22 178.253 2_656 1_555 2_647
N20 Co1 N23 91.443 2_656 1_555 1_555
N20 Co1 C20 91.949 2_656 1_555 4_656
N20 Co1 C20 0.977 2_656 1_555 2_656
N20 Co1 C23 92.553 2_656 1_555 1_555
N20 Co1 C22 88.193 2_656 1_555 4_667
N20 Co1 C22 176.658 2_656 1_555 2_647
N20 Co1 C21 57.444 2_656 1_555 1_655
N21 Co1 N20 90.273 1_656 1_555 2_656
N21 Co1 N20 90.273 1_656 1_555 4_656
N21 Co1 N22 88.386 1_656 1_555 4_667
N21 Co1 N22 88.386 1_656 1_555 2_647
N21 Co1 N23 177.526 1_656 1_555 1_555
N21 Co1 C20 91.217 1_656 1_555 4_656
N21 Co1 C20 91.217 1_656 1_555 2_656
N21 Co1 C23 175.923 1_656 1_555 1_555
N21 Co1 C22 86.407 1_656 1_555 4_667
N21 Co1 C22 86.407 1_656 1_555 2_647
N21 Co1 C21 51.298 1_656 1_555 1_655
O11 C10 O10 95.246 1_555 1_555 1_555
C11 C10 O11 130.202 1_555 1_555 1_555
C11 C10 O10 134.553 1_555 1_555 1_555
Zn1 C10 C11 168.228 1_555 1_555 1_555
Zn1 C10 O11 61.570 1_555 1_555 1_555
Zn1 C10 O10 33.675 1_555 1_555 1_555
O11 C11 C10 24.013 1_555 1_555 1_555
O10 C11 O11 45.804 1_555 1_555 1_555
O10 C11 C10 21.791 1_555 1_555 1_555
C21 C11 O10 94.472 1_555 1_555 1_555
C21 C11 O11 140.276 1_555 1_555 1_555
C21 C11 C10 116.263 1_555 1_555 1_555
O11 O10 C10 42.666 1_555 1_555 1_555
Zn1 O10 O11 81.957 1_555 1_555 1_555
Zn1 O10 C10 124.623 1_555 1_555 1_555
C11 O10 Zn1 148.278 1_555 1_555 1_555
C11 O10 O11 66.322 1_555 1_555 1_555
C11 O10 C10 23.656 1_555 1_555 1_555
O10 O11 C10 42.089 1_555 1_555 1_555
Zn2 O11 O10 175.550 1_555 1_555 1_555
Zn2 O11 C10 133.461 1_555 1_555 1_555
C11 O11 Zn2 107.675 1_555 1_555 1_555
C11 O11 O10 67.874 1_555 1_555 1_555
C11 O11 C10 25.786 1_555 1_555 1_555
Zn1 O11 C11 117.201 1_555 1_555 1_555
Zn1 O11 Zn2 135.123 1_555 1_555 1_555
Zn1 O11 O10 49.327 1_555 1_555 1_555
Zn1 O11 C10 91.416 1_555 1_555 1_555
Ow1 O11 Zn1 95.763 1_555 1_555 1_555
Ow1 O11 C11 137.606 1_555 1_555 1_555
Ow1 O11 Zn2 46.096 1_555 1_555 1_555
Ow1 O11 O10 137.253 1_555 1_555 1_555
Ow1 O11 C10 151.547 1_555 1_555 1_555
Ow1 O11 Ow1 54.839 3_555 1_555 1_555
Ow1 O11 Zn1 95.763 3_555 1_555 1_555
Ow1 O11 C11 137.606 3_555 1_555 1_555
Ow1 O11 Zn2 46.096 3_555 1_555 1_555
Ow1 O11 O10 137.253 3_555 1_555 1_555
Ow1 O11 C10 151.547 3_555 1_555 1_555
N22 O11 Ow1 90.047 3_555 1_555 3_555
N22 O11 Ow1 62.291 3_555 1_555 1_555
N22 O11 Zn1 147.822 3_555 1_555 1_555
N22 O11 C11 76.198 3_555 1_555 1_555
N22 O11 Zn2 44.155 3_555 1_555 1_555
N22 O11 O10 132.697 3_555 1_555 1_555
N22 O11 C10 98.385 3_555 1_555 1_555
N22 O11 N22 60.764 1_555 1_555 3_555
N22 O11 Ow1 62.291 1_555 1_555 3_555
N22 O11 Ow1 90.047 1_555 1_555 1_555
N22 O11 Zn1 147.822 1_555 1_555 1_555
N22 O11 C11 76.198 1_555 1_555 1_555
N22 O11 Zn2 44.155 1_555 1_555 1_555
N22 O11 O10 132.697 1_555 1_555 1_555
N22 O11 C10 98.385 1_555 1_555 1_555
C21 C20 N20 123.799 2_546 1_555 1_555
Co1 C20 C21 54.744 2_646 1_555 2_546
Co1 C20 N20 177.430 2_646 1_555 1_555
C22 C20 Co1 45.191 3_554 1_555 2_646
C22 C20 C21 86.992 3_554 1_555 2_546
C22 C20 N20 133.942 3_554 1_555 1_555
C23 C20 C22 59.766 2_646 1_555 3_554
C23 C20 Co1 43.697 2_646 1_555 2_646
C23 C20 C21 91.417 2_646 1_555 2_546
C23 C20 N20 138.744 2_646 1_555 1_555
C20 C20 C23 59.693 3_545 1_555 2_646
C20 C20 C22 89.328 3_545 1_555 3_554
C20 C20 Co1 44.161 3_545 1_555 2_646
C20 C20 C21 38.705 3_545 1_555 2_546
C20 C20 N20 136.497 3_545 1_555 1_555
Zn1 C20 C20 140.423 1_555 1_555 3_545
Zn1 C20 C23 144.378 1_555 1_555 2_646
Zn1 C20 C22 128.592 1_555 1_555 3_554
Zn1 C20 Co1 169.891 1_555 1_555 2_646
Zn1 C20 C21 121.587 1_555 1_555 2_546
Zn1 C20 N20 7.667 1_555 1_555 1_555
Zn1 N20 C20 168.041 1_555 1_555 1_555
C21 N20 Zn1 141.299 2_546 1_555 1_555
C21 N20 C20 34.180 2_546 1_555 1_555
Co1 N20 C21 33.283 2_646 1_555 2_546
Co1 N20 Zn1 166.541 2_646 1_555 1_555
Co1 N20 C20 1.593 2_646 1_555 1_555
N21 N20 Co1 128.283 1_555 1_555 2_646
N21 N20 C21 103.317 1_555 1_555 2_546
N21 N20 Zn1 40.077 1_555 1_555 1_555
N21 N20 C20 129.858 1_555 1_555 1_555
N20 N20 N21 59.435 3_555 1_555 1_555
N20 N20 Co1 136.102 3_555 1_555 2_646
N20 N20 C21 148.743 3_555 1_555 2_546
N20 N20 Zn1 37.794 3_555 1_555 1_555
N20 N20 C20 136.497 3_555 1_555 1_555
C20 C21 Co1 67.272 2_556 1_555 1_455
C20 C21 C20 102.590 4_556 1_555 2_556
C20 C21 Co1 67.272 4_556 1_555 1_455
N21 C21 C20 121.907 1_556 1_555 4_556
N21 C21 C20 121.907 1_556 1_555 2_556
N21 C21 Co1 95.859 1_556 1_555 1_455
N20 C21 N21 121.152 2_556 1_555 1_556
N20 C21 C20 114.027 2_556 1_555 4_556
N20 C21 C20 22.021 2_556 1_555 2_556
N20 C21 Co1 89.273 2_556 1_555 1_455
N20 C21 N20 117.486 4_556 1_555 2_556
N20 C21 N21 121.152 4_556 1_555 1_556
N20 C21 C20 22.021 4_556 1_555 4_556
N20 C21 C20 114.027 4_556 1_555 2_556
N20 C21 Co1 89.273 4_556 1_555 1_455
C11 C21 N20 90.831 1_555 1_555 4_556
C11 C21 N20 90.831 1_555 1_555 2_556
C11 C21 N21 83.941 1_555 1_555 1_556
C11 C21 C20 112.835 1_555 1_555 4_556
C11 C21 C20 112.835 1_555 1_555 2_556
C11 C21 Co1 179.799 1_555 1_555 1_455
C22 C21 C11 148.349 4_567 1_555 1_555
C22 C21 N20 120.766 4_567 1_555 4_556
C22 C21 N20 76.784 4_567 1_555 2_556
C22 C21 N21 78.169 4_567 1_555 1_556
C22 C21 C20 98.794 4_567 1_555 4_556
C22 C21 C20 58.480 4_567 1_555 2_556
C22 C21 Co1 31.538 4_567 1_555 1_455
C22 C21 C22 51.306 2_547 1_555 4_567
C22 C21 C11 148.349 2_547 1_555 1_555
C22 C21 N20 76.784 2_547 1_555 4_556
C22 C21 N20 120.766 2_547 1_555 2_556
C22 C21 N21 78.169 2_547 1_555 1_556
C22 C21 C20 58.480 2_547 1_555 4_556
C22 C21 C20 98.794 2_547 1_555 2_556
C22 C21 Co1 31.538 2_547 1_555 1_455
C23 C21 C22 49.509 1_455 1_555 2_547
C23 C21 C22 49.509 1_455 1_555 4_567
C23 C21 C11 155.287 1_455 1_555 1_555
C23 C21 N20 76.702 1_455 1_555 4_556
C23 C21 N20 76.702 1_455 1_555 2_556
C23 C21 N21 120.772 1_455 1_555 1_556
C23 C21 C20 56.116 1_455 1_555 4_556
C23 C21 C20 56.116 1_455 1_555 2_556
C23 C21 Co1 24.913 1_455 1_555 1_455
C21 N21 Zn1 147.555 1_554 1_555 1_555
Co1 N21 C21 32.843 1_454 1_555 1_554
Co1 N21 Zn1 179.601 1_454 1_555 1_555
N20 N21 Co1 141.015 1_555 1_555 1_454
N20 N21 C21 116.883 1_555 1_555 1_554
N20 N21 Zn1 39.221 1_555 1_555 1_555
N20 N21 N20 61.129 3_555 1_555 1_555
N20 N21 Co1 141.015 3_555 1_555 1_454
N20 N21 C21 116.883 3_555 1_555 1_554
N20 N21 Zn1 39.221 3_555 1_555 1_555
Co1 C22 N22 173.554 2_657 1_555 1_555
C20 C22 Co1 46.306 3_556 1_555 2_657
C20 C22 N22 129.493 3_556 1_555 1_555
C23 C22 C20 61.504 2_657 1_555 3_556
C23 C22 Co1 44.665 2_657 1_555 2_657
C23 C22 N22 130.264 2_657 1_555 1_555
C22 C22 C23 59.887 3_565 1_555 2_657
C22 C22 C20 90.672 3_565 1_555 3_556
C22 C22 Co1 44.391 3_565 1_555 2_657
C22 C22 N22 139.586 3_565 1_555 1_555
C21 C22 C22 64.347 2_557 1_555 3_565
C21 C22 C23 68.683 2_557 1_555 2_657
C21 C22 C20 34.527 2_557 1_555 3_556
C21 C22 Co1 28.160 2_557 1_555 2_657
C21 C22 N22 152.569 2_557 1_555 1_555
Zn2 N22 C22 164.173 1_555 1_555 1_555
Co1 N22 Zn2 167.316 2_657 1_555 1_555
Co1 N22 C22 3.965 2_657 1_555 1_555
N23 N22 Co1 147.807 1_555 1_555 2_657
N23 N22 Zn2 44.601 1_555 1_555 1_555
N23 N22 C22 149.836 1_555 1_555 1_555
O11 N22 N23 88.737 1_555 1_555 1_555
O11 N22 Co1 123.257 1_555 1_555 2_657
O11 N22 Zn2 44.161 1_555 1_555 1_555
O11 N22 C22 120.622 1_555 1_555 1_555
N22 N22 O11 59.618 3_555 1_555 1_555
N22 N22 N23 59.262 3_555 1_555 1_555
N22 N22 Co1 137.198 3_555 1_555 2_657
N22 N22 Zn2 43.470 3_555 1_555 1_555
N22 N22 C22 139.586 3_555 1_555 1_555
Ow1 N22 N22 86.637 3_555 1_555 3_555
Ow1 N22 O11 57.339 3_555 1_555 1_555
Ow1 N22 N23 58.449 3_555 1_555 1_555
Ow1 N22 Co1 133.277 3_555 1_555 2_657
Ow1 N22 Zn2 43.166 3_555 1_555 1_555
Ow1 N22 C22 129.665 3_555 1_555 1_555
Co1 C23 N23 175.816 1_555 1_555 1_555
C22 C23 Co1 44.591 2_647 1_555 1_555
C22 C23 N23 138.250 2_647 1_555 1_555
C22 C23 C22 60.227 4_667 1_555 2_647
C22 C23 Co1 44.591 4_667 1_555 1_555
C22 C23 N23 138.250 4_667 1_555 1_555
C20 C23 C22 89.271 4_656 1_555 4_667
C20 C23 C22 58.730 4_656 1_555 2_647
C20 C23 Co1 44.680 4_656 1_555 1_555
C20 C23 N23 132.332 4_656 1_555 1_555
C20 C23 C20 60.613 2_656 1_555 4_656
C20 C23 C22 58.730 2_656 1_555 4_667
C20 C23 C22 89.271 2_656 1_555 2_647
C20 C23 Co1 44.680 2_656 1_555 1_555
C20 C23 N23 132.332 2_656 1_555 1_555
C21 C23 C20 32.468 1_655 1_555 2_656
C21 C23 C20 32.468 1_655 1_555 4_656
C21 C23 C22 61.808 1_655 1_555 4_667
C21 C23 C22 61.808 1_655 1_555 2_647
C21 C23 Co1 22.308 1_655 1_555 1_555
C21 C23 N23 153.509 1_655 1_555 1_555
Zn2 N23 C23 158.030 1_555 1_555 1_555
Co1 N23 Zn2 160.611 1_555 1_555 1_555
Co1 N23 C23 2.581 1_555 1_555 1_555
Ow1 N23 Co1 147.590 3_555 1_555 1_555
Ow1 N23 Zn2 45.397 3_555 1_555 1_555
Ow1 N23 C23 148.887 3_555 1_555 1_555
Ow1 N23 Ow1 54.101 1_555 1_555 3_555
Ow1 N23 Co1 147.590 1_555 1_555 1_555
Ow1 N23 Zn2 45.397 1_555 1_555 1_555
Ow1 N23 C23 148.887 1_555 1_555 1_555
N22 N23 Ow1 89.960 1_555 1_555 1_555
N22 N23 Ow1 62.252 1_555 1_555 3_555
N22 N23 Co1 120.589 1_555 1_555 1_555
N22 N23 Zn2 44.767 1_555 1_555 1_555
N22 N23 C23 118.501 1_555 1_555 1_555
N22 N23 N22 61.476 3_555 1_555 1_555
N22 N23 Ow1 62.252 3_555 1_555 1_555
N22 N23 Ow1 89.960 3_555 1_555 3_555
N22 N23 Co1 120.589 3_555 1_555 1_555
N22 N23 Zn2 44.767 3_555 1_555 1_555
N22 N23 C23 118.501 3_555 1_555 1_555
Ow1 Ow1 Zn2 50.304 3_555 1_555 1_555
Ow1 Ow1 Ow1 109.827 4_656 1_555 3_555
Ow1 Ow1 Zn2 112.560 4_656 1_555 1_555
Ow10 Ow1 Ow1 90.614 1_555 1_555 4_656
Ow10 Ow1 Ow1 60.305 1_555 1_555 3_555
Ow10 Ow1 Zn2 110.578 1_555 1_555 1_555
O11 Ow1 Ow10 101.508 1_555 1_555 1_555
O11 Ow1 Ow1 158.004 1_555 1_555 4_656
O11 Ow1 Ow1 62.581 1_555 1_555 3_555
O11 Ow1 Zn2 45.985 1_555 1_555 1_555
Ow11 Ow1 O11 78.068 1_545 1_555 1_555
Ow11 Ow1 Ow10 128.675 1_545 1_555 1_555
Ow11 Ow1 Ow1 108.584 1_545 1_555 4_656
Ow11 Ow1 Ow1 140.355 1_545 1_555 3_555
Ow11 Ow1 Zn2 105.016 1_545 1_555 1_555
N23 Ow1 Ow11 125.800 1_555 1_555 1_545
N23 Ow1 O11 91.077 1_555 1_555 1_555
N23 Ow1 Ow10 105.500 1_555 1_555 1_555
N23 Ow1 Ow1 67.846 1_555 1_555 4_656
N23 Ow1 Ow1 62.949 1_555 1_555 3_555
N23 Ow1 Zn2 45.112 1_555 1_555 1_555
N22 Ow1 N23 59.299 3_555 1_555 1_555
N22 Ow1 Ow11 69.616 3_555 1_555 1_545
N22 Ow1 O11 60.370 3_555 1_555 1_555
N22 Ow1 Ow10 153.574 3_555 1_555 1_555
N22 Ow1 Ow1 101.462 3_555 1_555 4_656
N22 Ow1 Ow1 93.363 3_555 1_555 3_555
N22 Ow1 Zn2 43.060 3_555 1_555 1_555
Ow1 Ow10 Ow1 59.389 3_555 1_555 1_555
Ow1 Ow11 Ow1 100.711 1_565 1_555 3_555
loop_
_geom_bond_atom_site_label_1
_geom_bond_atom_site_label_2
_geom_bond_distance
_geom_bond_site_symmetry_1
_geom_bond_site_symmetry_2
Zn1 O10 1.97507 1_555 1_555
Zn1 N20 2.02456 1_555 1_555
Zn1 N20 2.02456 1_555 3_555
Zn1 N21 2.06140 1_555 1_555
Zn1 O11 2.57849 1_555 1_555
Zn1 C10 2.93120 1_555 1_555
Zn1 C20 3.14465 1_555 1_555
Zn1 C20 3.14465 1_555 3_555
Zn2 N23 2.18150 1_555 1_555
Zn2 N22 2.18792 1_555 3_555
Zn2 N22 2.18792 1_555 1_555
Zn2 O11 2.18817 1_555 1_555
Zn2 Ow1 2.19227 1_555 3_555
Zn2 Ow1 2.19227 1_555 1_555
Co1 C21 1.63915 1_555 1_655
Co1 C22 1.81670 1_555 2_647
Co1 C22 1.81670 1_555 4_667
Co1 C23 1.81907 1_555 1_555
Co1 C20 1.85145 1_555 2_656
Co1 C20 1.85145 1_555 4_656
Co1 N23 2.94696 1_555 1_555
Co1 N22 2.94963 1_555 2_647
Co1 N22 2.94963 1_555 4_667
Co1 N20 2.98667 1_555 4_656
Co1 N20 2.98667 1_555 2_656
Co1 N21 3.00655 1_555 1_656
C10 O10 1.31715 1_555 1_555
C10 O11 1.33178 1_555 1_555
C10 C11 1.42363 1_555 1_555
C10 Zn1 2.93120 1_555 1_555
C11 C10 1.42363 1_555 1_555
C11 O11 2.49959 1_555 1_555
C11 O10 2.52837 1_555 1_555
C11 C21 2.79063 1_555 1_555
O10 C10 1.31715 1_555 1_555
O10 O11 1.95685 1_555 1_555
O10 Zn1 1.97507 1_555 1_555
O10 C11 2.52837 1_555 1_555
O11 C10 1.33178 1_555 1_555
O11 O10 1.95685 1_555 1_555
O11 Zn2 2.18817 1_555 1_555
O11 C11 2.49959 1_555 1_555
O11 Zn1 2.57849 1_555 1_555
O11 Ow1 3.04069 1_555 1_555
O11 Ow1 3.04069 1_555 3_555
O11 N22 3.13950 1_555 3_555
O11 N22 3.13950 1_555 1_555
C20 N20 1.13592 1_555 1_555
C20 C21 1.70200 1_555 2_546
C20 Co1 1.85145 1_555 2_646
C20 C22 2.55979 1_555 3_554
C20 C23 2.63205 1_555 2_646
C20 C20 2.65640 1_555 3_545
C20 Zn1 3.14465 1_555 1_555
N20 C20 1.13592 1_555 1_555
N20 Zn1 2.02456 1_555 1_555
N20 C21 2.51756 1_555 2_546
N20 Co1 2.98667 1_555 2_646
N20 N21 3.14614 1_555 1_555
N20 N20 3.19969 1_555 3_555
C21 Co1 1.63915 1_555 1_455
C21 C20 1.70200 1_555 2_556
C21 C20 1.70200 1_555 4_556
C21 N21 2.35865 1_555 1_556
C21 N20 2.51756 1_555 2_556
C21 N20 2.51756 1_555 4_556
C21 C11 2.79063 1_555 1_555
C21 C22 2.99869 1_555 4_567
C21 C22 2.99869 1_555 2_547
C21 C23 3.16954 1_555 1_455
N21 Zn1 2.06140 1_555 1_555
N21 C21 2.35865 1_555 1_554
N21 Co1 3.00655 1_555 1_454
N21 N20 3.14614 1_555 1_555
N21 N20 3.14614 1_555 3_555
C22 N22 1.13735 1_555 1_555
C22 Co1 1.81670 1_555 2_657
C22 C20 2.55979 1_555 3_556
C22 C23 2.58750 1_555 2_657
C22 C22 2.59637 1_555 3_565
C22 C21 2.99869 1_555 2_557
N22 C22 1.13735 1_555 1_555
N22 Zn2 2.18792 1_555 1_555
N22 Co1 2.94963 1_555 2_657
N22 N23 3.10665 1_555 1_555
N22 O11 3.13950 1_555 1_555
N22 N22 3.17568 1_555 3_555
N22 Ow1 3.19757 1_555 3_555
C23 N23 1.12975 1_555 1_555
C23 Co1 1.81907 1_555 1_555
C23 C22 2.58750 1_555 2_647
C23 C22 2.58750 1_555 4_667
C23 C20 2.63205 1_555 4_656
C23 C20 2.63205 1_555 2_656
C23 C21 3.16954 1_555 1_655
N23 C23 1.12975 1_555 1_555
N23 Zn2 2.18150 1_555 1_555
N23 Co1 2.94696 1_555 1_555
N23 Ow1 3.07896 1_555 3_555
N23 Ow1 3.07896 1_555 1_555
N23 N22 3.10665 1_555 1_555
N23 N22 3.10665 1_555 3_555
Ow1 Zn2 2.19227 1_555 1_555
Ow1 Ow1 2.80048 1_555 3_555
Ow1 Ow1 2.80527 1_555 4_656
Ow1 Ow10 2.82661 1_555 1_555
Ow1 O11 3.04069 1_555 1_555
Ow1 Ow11 3.05415 1_555 1_545
Ow1 N23 3.07896 1_555 1_555
Ow1 N22 3.19757 1_555 3_555
Ow10 Ow1 2.82661 1_555 1_555
Ow10 Ow1 2.82661 1_555 3_555
Ow11 Ow1 3.05415 1_555 3_555
Ow11 Ow1 3.05415 1_555 1_565
loop_
_pd_proc_point_id
_pd_meas_2theta_scan
_pd_proc_intensity_total
_pd_calc_intensity_total
_pd_proc_ls_weight
1 0.50000 1583.14916 1544.91870 0.00065
2 0.50500 1588.59359 1556.48930 0.00064
3 0.51000 1593.94722 1569.05500 0.00064
4 0.51500 1599.21114 1580.41090 0.00063
5 0.52000 1604.38638 1589.02760 0.00063
6 0.52500 1609.47401 1599.64840 0.00063
7 0.53000 1614.47507 1611.96720 0.00062
8 0.53500 1619.39056 1618.86920 0.00062
9 0.54000 1624.22152 1627.82450 0.00061
10 0.54500 1628.96896 1634.42060 0.00061
11 0.55000 1633.63386 1643.59780 0.00061
12 0.55500 1638.21723 1645.33700 0.00061
13 0.56000 1642.72003 1655.88160 0.00060
14 0.56500 1647.14447 1660.50230 0.00060
15 0.57000 1651.48906 1664.31860 0.00060
16 0.57500 1655.75597 1668.06110 0.00060
17 0.58000 1659.94614 1675.35850 0.00060
18 0.58500 1664.06051 1677.19720 0.00060
19 0.59000 1668.09999 1677.22690 0.00060
20 0.59500 1672.06552 1682.14870 0.00059
21 0.60000 1675.95798 1684.32090 0.00059
22 0.60500 1679.77828 1689.55060 0.00059
23 0.61000 1683.52730 1694.18280 0.00059
24 0.61500 1687.20594 1697.90760 0.00059
25 0.62000 1690.81505 1700.41420 0.00059
26 0.62500 1694.35550 1702.84010 0.00059
27 0.63000 1697.82814 1705.34210 0.00059
28 0.63500 1701.23383 1710.44710 0.00058
29 0.64000 1704.57340 1710.47080 0.00058
30 0.64500 1707.84767 1713.84320 0.00058
31 0.65000 1711.05747 1719.49150 0.00058
32 0.65500 1714.21134 1719.68010 0.00058
33 0.66000 1717.29470 1723.51210 0.00058
34 0.66500 1720.31600 1727.23330 0.00058
35 0.67000 1723.27604 1730.27240 0.00058
36 0.67500 1726.17560 1731.70960 0.00058
37 0.68000 1729.01545 1733.99340 0.00058
38 0.68500 1731.79635 1735.31440 0.00058
39 0.69000 1734.51907 1735.30880 0.00058
40 0.69500 1737.18436 1737.87090 0.00058
41 0.70000 1739.79297 1741.99500 0.00057
42 0.70500 1742.34562 1745.80190 0.00057
43 0.71000 1744.84305 1748.06250 0.00057
44 0.71500 1747.28599 1752.44860 0.00057
45 0.72000 1749.67515 1750.08190 0.00057
46 0.72500 1752.04132 1757.63340 0.00057
47 0.73000 1754.32529 1761.23990 0.00057
48 0.73500 1756.55759 1761.32770 0.00057
49 0.74000 1758.73892 1760.43550 0.00057
50 0.74500 1760.86996 1761.61030 0.00057
51 0.75000 1762.95138 1762.84340 0.00057
52 0.75500 1764.98387 1766.00590 0.00057
53 0.76000 1766.96808 1766.38910 0.00057
54 0.76500 1768.90469 1769.19320 0.00057
55 0.77000 1770.79435 1769.78020 0.00057
56 0.77500 1772.63771 1773.51390 0.00056
57 0.78000 1774.43543 1775.04720 0.00056
58 0.78500 1776.18816 1774.90400 0.00056
59 0.79000 1777.89653 1777.20880 0.00056
60 0.79500 1779.56120 1775.91190 0.00056
61 0.80000 1781.18281 1778.85630 0.00056
62 0.80500 1782.76201 1782.42080 0.00056
63 0.81000 1784.29943 1783.92940 0.00056
64 0.81500 1785.79572 1781.12150 0.00056
65 0.82000 1787.25156 1785.18680 0.00056
66 0.82500 1788.66758 1787.56390 0.00056
67 0.83000 1790.04449 1788.65940 0.00056
68 0.83500 1791.38296 1790.66630 0.00056
69 0.84000 1792.68370 1790.56510 0.00056
70 0.84500 1793.94747 1791.74860 0.00056
71 0.85000 1795.17504 1791.77310 0.00056
72 0.85500 1796.36723 1793.20580 0.00056
73 0.86000 1797.52494 1792.28470 0.00056
74 0.86500 1798.64914 1795.01890 0.00056
75 0.87000 1799.74092 1795.84690 0.00056
76 0.87500 1800.80151 1797.12790 0.00056
77 0.88000 1801.83237 1795.55030 0.00056
78 0.88500 1802.83520 1801.06090 0.00056
79 0.89000 1803.81213 1798.25840 0.00056
80 0.89500 1804.76580 1803.04060 0.00055
81 0.90000 1805.69971 1803.76180 0.00055
82 0.90500 1806.61881 1802.16260 0.00055
83 0.91000 1807.53166 1805.72900 0.00055
84 0.91500 1808.45916 1809.18540 0.00055
85 0.92000 1809.48691 1813.10170 0.00055
86 0.92500 1810.78012 1811.07340 0.00055
87 0.93000 1812.92460 1814.72980 0.00055
88 0.93500 1817.18065 1815.74720 0.00055
89 0.94000 1825.68547 1822.13830 0.00055
90 0.94500 1840.86306 1825.77010 0.00055
91 0.95000 1863.58023 1839.93020 0.00054
92 0.95500 1890.75756 1855.66030 0.00054
93 0.96000 1914.54058 1869.67280 0.00053
94 0.96500 1925.01052 1880.22700 0.00053
95 0.97000 1916.93567 1873.75190 0.00053
96 0.97500 1894.82311 1860.88220 0.00054
97 0.98000 1868.50154 1847.75060 0.00054
98 0.98500 1846.15877 1834.02370 0.00055
99 0.99000 1831.27973 1826.18880 0.00055
100 0.99500 1823.24196 1824.25490 0.00055
101 1.00000 1819.66574 1820.28020 0.00055
102 1.00500 1818.35285 1820.12950 0.00055
103 1.01000 1817.97185 1818.08570 0.00055
104 1.01500 1817.91332 1820.35170 0.00055
105 1.02000 1817.95258 1817.87830 0.00055
106 1.02500 1818.01836 1818.68840 0.00055
107 1.03000 1818.08861 1819.79470 0.00055
108 1.03500 1818.15503 1818.43770 0.00055
109 1.04000 1818.21330 1815.01630 0.00055
110 1.04500 1818.26066 1812.92700 0.00055
111 1.05000 1818.29520 1813.42640 0.00055
112 1.05500 1818.31559 1810.72890 0.00055
113 1.06000 1818.32090 1818.18800 0.00055
114 1.06500 1818.31048 1817.12650 0.00055
115 1.07000 1818.28391 1817.81720 0.00055
116 1.07500 1818.24091 1822.99680 0.00055
117 1.08000 1818.70869 1821.69580 0.00055
118 1.08500 1818.63686 1818.40050 0.00055
119 1.09000 1818.54995 1820.31200 0.00055
120 1.09500 1818.44496 1821.34500 0.00055
121 1.10000 1818.32350 1817.82000 0.00055
122 1.10500 1818.18569 1813.32640 0.00055
123 1.11000 1818.03167 1814.08660 0.00055
124 1.11500 1817.86162 1816.03180 0.00055
125 1.12000 1817.67569 1814.58270 0.00055
126 1.12500 1817.47409 1809.87190 0.00055
127 1.13000 1817.25701 1813.07690 0.00055
128 1.13500 1817.02466 1814.88570 0.00055
129 1.14000 1816.77724 1812.54090 0.00055
130 1.14500 1816.51498 1812.02150 0.00055
131 1.15000 1816.23808 1816.59170 0.00055
132 1.15500 1815.94676 1819.17950 0.00055
133 1.16000 1815.64125 1814.25680 0.00055
134 1.16500 1815.32176 1813.73790 0.00055
135 1.17000 1814.98851 1811.15600 0.00055
136 1.17500 1814.65226 1811.08150 0.00055
137 1.18000 1814.29223 1813.69870 0.00055
138 1.18500 1813.91910 1812.51270 0.00055
139 1.19000 1813.53307 1810.15600 0.00055
140 1.19500 1813.13436 1810.35530 0.00055
141 1.20000 1812.72319 1809.12900 0.00055
142 1.20500 1812.29975 1806.83520 0.00055
143 1.21000 1811.86427 1808.55750 0.00055
144 1.21500 1811.41695 1805.68060 0.00055
145 1.22000 1810.95798 1805.54430 0.00055
146 1.22500 1810.48758 1807.54280 0.00055
147 1.23000 1810.00593 1809.44050 0.00055
148 1.23500 1809.51324 1808.20110 0.00055
149 1.24000 1809.00970 1807.51600 0.00055
150 1.24500 1808.49551 1810.26150 0.00055
151 1.25000 1807.97085 1808.54890 0.00055
152 1.25500 1807.43592 1808.43570 0.00055
153 1.26000 1806.89089 1806.18870 0.00055
154 1.26500 1806.33595 1803.60420 0.00055
155 1.27000 1805.77129 1804.21960 0.00055
156 1.27500 1805.37905 1802.67820 0.00055
157 1.28000 1804.79700 1803.80370 0.00055
158 1.28500 1804.20577 1803.91720 0.00055
159 1.29000 1803.60641 1802.99910 0.00055
160 1.29500 1802.99736 1800.38410 0.00056
161 1.30000 1802.37967 1800.75850 0.00056
162 1.30500 1801.75349 1803.52270 0.00055
163 1.31000 1801.11900 1806.30370 0.00055
164 1.31500 1800.47638 1807.34520 0.00055
165 1.32000 1799.82579 1806.87570 0.00055
166 1.32500 1799.16742 1805.41500 0.00055
167 1.33000 1798.50143 1803.28840 0.00055
168 1.33500 1797.82803 1800.36900 0.00056
169 1.34000 1797.14741 1800.48830 0.00056
170 1.34500 1796.45978 1800.64970 0.00056
171 1.35000 1795.76540 1795.72380 0.00056
172 1.35500 1795.06462 1796.12940 0.00056
173 1.36000 1794.35811 1799.32400 0.00056
174 1.36500 1793.64765 1798.20680 0.00056
175 1.37000 1792.93815 1800.59890 0.00056
176 1.37500 1792.24145 1803.63830 0.00055
177 1.38000 1791.58035 1809.66290 0.00055
178 1.38500 1790.98631 1818.99760 0.00055
179 1.39000 1790.48244 1838.07820 0.00054
180 1.39500 1790.05286 1863.94720 0.00054
181 1.40000 1789.61907 1883.68950 0.00053
182 1.40500 1789.05143 1896.31670 0.00053
183 1.41000 1788.24340 1897.74800 0.00053
184 1.41500 1787.21674 1879.62940 0.00053
185 1.42000 1786.09697 1855.18830 0.00054
186 1.42500 1785.00334 1834.14450 0.00055
187 1.43000 1783.99544 1815.68880 0.00055
188 1.43500 1783.07467 1805.49590 0.00055
189 1.44000 1782.21295 1800.96160 0.00056
190 1.44500 1781.38066 1792.23490 0.00056
191 1.45000 1780.55867 1787.32730 0.00056
192 1.45500 1779.73790 1786.30470 0.00056
193 1.46000 1778.91494 1787.59820 0.00056
194 1.46500 1778.08876 1780.79300 0.00056
195 1.47000 1777.25907 1779.41030 0.00056
196 1.47500 1776.42586 1780.01950 0.00056
197 1.48000 1775.58916 1779.32990 0.00056
198 1.48500 1774.74905 1778.82030 0.00056
199 1.49000 1773.90564 1779.05480 0.00056
200 1.49500 1773.05903 1777.19570 0.00056
201 1.50000 1772.20938 1773.62760 0.00056
202 1.50500 1771.35683 1774.23300 0.00056
203 1.51000 1770.50156 1772.08840 0.00056
204 1.51500 1769.64374 1772.89910 0.00056
205 1.52000 1768.78360 1769.00260 0.00057
206 1.52500 1767.92137 1769.05230 0.00057
207 1.53000 1767.05734 1767.63290 0.00057
208 1.53500 1766.19181 1762.74260 0.00057
209 1.54000 1765.32516 1762.40180 0.00057
210 1.54500 1764.45785 1763.59810 0.00057
211 1.55000 1763.59041 1762.18780 0.00057
212 1.55500 1762.72351 1762.15860 0.00057
213 1.56000 1761.85800 1759.88940 0.00057
214 1.56500 1760.99498 1756.37410 0.00057
215 1.57000 1760.13587 1756.83740 0.00057
216 1.57500 1759.28260 1754.71090 0.00057
217 1.58000 1758.43790 1756.53170 0.00057
218 1.58500 1757.63705 1755.19780 0.00057
219 1.59000 1756.82737 1752.45580 0.00057
220 1.59500 1756.06369 1751.06540 0.00057
221 1.60000 1755.41800 1748.17030 0.00057
222 1.60500 1755.09765 1750.33540 0.00057
223 1.61000 1755.51553 1758.95360 0.00057
224 1.61500 1757.42229 1757.22380 0.00057
225 1.62000 1761.64276 1755.88670 0.00057
226 1.62500 1768.42765 1760.07020 0.00057
227 1.63000 1776.61224 1767.30490 0.00057
228 1.63500 1783.28398 1771.09060 0.00056
229 1.64000 1784.76289 1769.65610 0.00057
230 1.64500 1779.60232 1765.29460 0.00057
231 1.65000 1770.28147 1760.32000 0.00057
232 1.65500 1760.47730 1753.73080 0.00057
233 1.66000 1752.60701 1746.17920 0.00057
234 1.66500 1747.34216 1741.66800 0.00057
235 1.67000 1744.17113 1735.27470 0.00058
236 1.67500 1742.24682 1730.78950 0.00058
237 1.68000 1740.91659 1730.98470 0.00058
238 1.68500 1739.82944 1729.47740 0.00058
239 1.69000 1738.85437 1727.28400 0.00058
240 1.69500 1737.91097 1723.34770 0.00058
241 1.70000 1736.99914 1724.35000 0.00058
242 1.70500 1736.11509 1727.03400 0.00058
243 1.71000 1735.25947 1726.72750 0.00058
244 1.71500 1734.43653 1725.83290 0.00058
245 1.72000 1733.65747 1725.37690 0.00058
246 1.72500 1732.96849 1721.66250 0.00058
247 1.73000 1732.43798 1723.18910 0.00058
248 1.73500 1732.33769 1721.61470 0.00058
249 1.74000 1733.23302 1720.10580 0.00058
250 1.74500 1736.05812 1716.17690 0.00058
251 1.75000 1741.80837 1716.62200 0.00058
252 1.75500 1750.68602 1719.69640 0.00058
253 1.76000 1761.07429 1720.81660 0.00058
254 1.76500 1769.19275 1722.53440 0.00058
255 1.77000 1770.50125 1717.97900 0.00058
256 1.77500 1763.73119 1721.65850 0.00058
257 1.78000 1752.45112 1719.44810 0.00058
258 1.78500 1741.16408 1714.88840 0.00058
259 1.79000 1732.56549 1709.82280 0.00058
260 1.79500 1727.23369 1710.60880 0.00058
261 1.80000 1724.44994 1711.10980 0.00058
262 1.80500 1723.23729 1708.10330 0.00059
263 1.81000 1722.98323 1703.30850 0.00059
264 1.81500 1723.68449 1708.59670 0.00059
265 1.82000 1726.25240 1708.46220 0.00059
266 1.82500 1733.18116 1712.95220 0.00058
267 1.83000 1749.20747 1722.01510 0.00058
268 1.83500 1780.53984 1748.90750 0.00057
269 1.84000 1831.01856 1803.06230 0.00055
270 1.84500 1895.81990 1890.29900 0.00053
271 1.85000 1957.15575 1990.43480 0.00050
272 1.85500 1987.38051 2049.82090 0.00049
273 1.86000 1968.17130 2037.14040 0.00049
274 1.86500 1911.76973 1954.91390 0.00051
275 1.87000 1846.19736 1853.36770 0.00054
276 1.87500 1792.42345 1782.03450 0.00056
277 1.88000 1758.37383 1748.63720 0.00057
278 1.88500 1742.45781 1733.12470 0.00058
279 1.89000 1740.86582 1730.99230 0.00058
280 1.89500 1754.46217 1737.95730 0.00058
281 1.90000 1793.42750 1760.11360 0.00057
282 1.90500 1877.79125 1819.56730 0.00055
283 1.91000 2028.93119 1945.67230 0.00051
284 1.91500 2249.17639 2170.31060 0.00046
285 1.92000 2498.65392 2459.17810 0.00041
286 1.92500 2688.17692 2700.22640 0.00037
287 1.93000 2715.27169 2751.17220 0.00036
288 1.93500 2561.59531 2580.26940 0.00039
289 1.94000 2316.12508 2281.90260 0.00044
290 1.94500 2078.61863 2014.77210 0.00050
291 1.95000 1903.66784 1851.09600 0.00054
292 1.95500 1799.00082 1770.01970 0.00056
293 1.96000 1745.87721 1733.56690 0.00058
294 1.96500 1721.45081 1717.37270 0.00058
295 1.97000 1710.21279 1706.32970 0.00059
296 1.97500 1703.96138 1699.41900 0.00059
297 1.98000 1699.77424 1697.41270 0.00059
298 1.98500 1696.56996 1693.00800 0.00059
299 1.99000 1693.96281 1690.35920 0.00059
300 1.99500 1691.78120 1689.18710 0.00059
301 2.00000 1689.92637 1691.49160 0.00059
302 2.00500 1688.33319 1687.20480 0.00059
303 2.01000 1686.95703 1686.37800 0.00059
304 2.01500 1685.76744 1685.91850 0.00059
305 2.02000 1684.74479 1681.35500 0.00059
306 2.02500 1683.87699 1678.29910 0.00060
307 2.03000 1683.15974 1676.97330 0.00060
308 2.03500 1682.59506 1680.64480 0.00060
309 2.04000 1682.19164 1678.27200 0.00060
310 2.04500 1681.96577 1676.99040 0.00060
311 2.05000 1681.94308 1675.18770 0.00060
312 2.05500 1682.16167 1678.13690 0.00060
313 2.06000 1682.67794 1679.79060 0.00060
314 2.06500 1683.58075 1681.37670 0.00059
315 2.07000 1685.10176 1683.77640 0.00059
316 2.07500 1687.52820 1687.02880 0.00059
317 2.08000 1692.09924 1692.06080 0.00059
318 2.08500 1701.99060 1704.76880 0.00059
319 2.09000 1724.66287 1724.83520 0.00058
320 2.09500 1771.85552 1761.26120 0.00057
321 2.10000 1857.98135 1831.58250 0.00055
322 2.10500 1987.84494 1938.33500 0.00052
323 2.11000 2142.36144 2070.89810 0.00048
324 2.11500 2270.76541 2183.36700 0.00046
325 2.12000 2306.03342 2230.62390 0.00045
326 2.12500 2225.11801 2179.73700 0.00046
327 2.13000 2078.82545 2061.39050 0.00049
328 2.13500 1931.89392 1933.24930 0.00052
329 2.14000 1821.61003 1835.25330 0.00054
330 2.14500 1755.29474 1776.31790 0.00056
331 2.15000 1722.43202 1748.20090 0.00057
332 2.15500 1708.85110 1731.97670 0.00058
333 2.16000 1704.45242 1724.15330 0.00058
334 2.16500 1704.11445 1723.33440 0.00058
335 2.17000 1705.82444 1723.70360 0.00058
336 2.17500 1708.95424 1724.90130 0.00058
337 2.18000 1713.37941 1727.13980 0.00058
338 2.18500 1719.16763 1736.56420 0.00058
339 2.19000 1726.48386 1745.98460 0.00057
340 2.19500 1735.58685 1757.90000 0.00057
341 2.20000 1746.84297 1769.75530 0.00057
342 2.20500 1760.75770 1786.84150 0.00056
343 2.21000 1778.02606 1808.43840 0.00055
344 2.21500 1799.61192 1835.10320 0.00054
345 2.22000 1827.04076 1869.45300 0.00053
346 2.22500 1862.05784 1913.10120 0.00052
347 2.23000 1908.43674 1976.00050 0.00051
348 2.23500 1974.39557 2061.77260 0.00049
349 2.24000 2082.59662 2197.00210 0.00046
350 2.24500 2295.41841 2431.06530 0.00041
351 2.25000 2760.32558 2869.49280 0.00035
352 2.25500 3749.32233 3737.92930 0.00027
353 2.26000 5610.39653 5403.90300 0.00019
354 2.26500 8541.05440 8194.35100 0.00012
355 2.27000 12231.64761 11880.70000 0.00008
356 2.27500 15604.56163 15255.83400 0.00007
357 2.28000 16997.06975 16671.61900 0.00006
358 2.28500 15483.22841 15288.35600 0.00007
359 2.29000 12066.93121 11844.72300 0.00008
360 2.29500 8397.38768 8092.93940 0.00012
361 2.30000 5512.58398 5315.54390 0.00019
362 2.30500 3693.11397 3702.20440 0.00027
363 2.31000 2729.66675 2882.39290 0.00035
364 2.31500 2276.16733 2467.38190 0.00041
365 2.32000 2067.03238 2237.06300 0.00045
366 2.32500 1959.66272 2094.13170 0.00048
367 2.33000 1894.02379 1995.56320 0.00050
368 2.33500 1848.59242 1924.61170 0.00052
369 2.34000 1816.55311 1875.92280 0.00053
370 2.34500 1797.23660 1841.69360 0.00054
371 2.35000 1793.92358 1823.93830 0.00055
372 2.35500 1811.88845 1828.25820 0.00055
373 2.36000 1853.75597 1850.52710 0.00054
374 2.36500 1912.41918 1889.02000 0.00053
375 2.37000 1965.99342 1926.90390 0.00052
376 2.37500 1981.75363 1942.37740 0.00051
377 2.38000 1943.11941 1920.44340 0.00052
378 2.38500 1871.16310 1867.37020 0.00054
379 2.39000 1797.56629 1809.79740 0.00055
380 2.39500 1741.30725 1760.39160 0.00057
381 2.40000 1706.90317 1730.29030 0.00058
382 2.40500 1690.02729 1718.27710 0.00058
383 2.41000 1684.25978 1715.04690 0.00058
384 2.41500 1685.02978 1715.58760 0.00058
385 2.42000 1690.30798 1721.72280 0.00058
386 2.42500 1699.94940 1735.85010 0.00058
387 2.43000 1715.45088 1758.59990 0.00057
388 2.43500 1741.48871 1793.59000 0.00056
389 2.44000 1791.41420 1855.36690 0.00054
390 2.44500 1899.20273 1967.58050 0.00051
391 2.45000 2134.82399 2184.24210 0.00046
392 2.45500 2604.18367 2604.66260 0.00038
393 2.46000 3401.72373 3343.07420 0.00030
394 2.46500 4507.46982 4408.58220 0.00023
395 2.47000 5678.77794 5543.80040 0.00018
396 2.47500 6423.83482 6275.58400 0.00016
397 2.48000 6272.85392 6214.94380 0.00016
398 2.48500 5333.84104 5381.99450 0.00019
399 2.49000 4142.27575 4214.10010 0.00024
400 2.49500 3117.69143 3185.60210 0.00031
401 2.50000 2422.40372 2491.28740 0.00040
402 2.50500 2028.77062 2103.30750 0.00048
403 2.51000 1832.44459 1893.68620 0.00053
404 2.51500 1738.28226 1780.85800 0.00056
405 2.52000 1689.45128 1717.28360 0.00058
406 2.52500 1659.82098 1677.74190 0.00060
407 2.53000 1639.08626 1649.42470 0.00061
408 2.53500 1623.26487 1626.02900 0.00061
409 2.54000 1610.61107 1608.05620 0.00062
410 2.54500 1600.19654 1599.18840 0.00063
411 2.55000 1591.44515 1591.42650 0.00063
412 2.55500 1583.96515 1582.65600 0.00063
413 2.56000 1577.47638 1571.88290 0.00064
414 2.56500 1571.77262 1566.03300 0.00064
415 2.57000 1566.69903 1559.90860 0.00064
416 2.57500 1562.13756 1552.27360 0.00064
417 2.58000 1557.99700 1549.54050 0.00065
418 2.58500 1554.20600 1546.99000 0.00065
419 2.59000 1550.70817 1543.44410 0.00065
420 2.59500 1547.45851 1540.38270 0.00065
421 2.60000 1544.42083 1534.95810 0.00065
422 2.60500 1541.56580 1534.59130 0.00065
423 2.61000 1538.86952 1528.88420 0.00065
424 2.61500 1536.31241 1524.51680 0.00066
425 2.62000 1533.87850 1524.41290 0.00066
426 2.62500 1531.55462 1522.83300 0.00066
427 2.63000 1529.33002 1518.49070 0.00066
428 2.63500 1527.21726 1514.76580 0.00066
429 2.64000 1525.17160 1515.52790 0.00066
430 2.64500 1523.19973 1514.78890 0.00066
431 2.65000 1521.30323 1510.96190 0.00066
432 2.65500 1519.47736 1508.82810 0.00066
433 2.66000 1517.72188 1505.44990 0.00066
434 2.66500 1516.03681 1502.94330 0.00067
435 2.67000 1514.42359 1503.32950 0.00067
436 2.67500 1512.88524 1501.91330 0.00067
437 2.68000 1511.42860 1500.15420 0.00067
438 2.68500 1510.05667 1499.10770 0.00067
439 2.69000 1508.78112 1497.26650 0.00067
440 2.69500 1507.61497 1498.11840 0.00067
441 2.70000 1506.57564 1496.67580 0.00067
442 2.70500 1505.68634 1496.19890 0.00067
443 2.71000 1504.97815 1494.88730 0.00067
444 2.71500 1504.49301 1494.78480 0.00067
445 2.72000 1504.28825 1494.82060 0.00067
446 2.72500 1504.44369 1495.96760 0.00067
447 2.73000 1505.07448 1501.05110 0.00067
448 2.73500 1506.36164 1502.92440 0.00067
449 2.74000 1508.64890 1507.48160 0.00066
450 2.74500 1512.76231 1516.88950 0.00066
451 2.75000 1520.90722 1530.22230 0.00065
452 2.75500 1538.53298 1549.13770 0.00065
453 2.76000 1576.62880 1583.51580 0.00063
454 2.76500 1651.45668 1647.32070 0.00061
455 2.77000 1776.98228 1753.68820 0.00057
456 2.77500 1949.29972 1906.82020 0.00052
457 2.78000 2130.52584 2068.65320 0.00048
458 2.78500 2245.07479 2181.38940 0.00046
459 2.79000 2229.74366 2192.18340 0.00046
460 2.79500 2120.41997 2106.94960 0.00047
461 2.80000 2002.53016 1981.05340 0.00050
462 2.80500 1920.83131 1873.76660 0.00053
463 2.81000 1864.87029 1801.83400 0.00055
464 2.81500 1799.45747 1740.78190 0.00057
465 2.82000 1716.58071 1678.76820 0.00060
466 2.82500 1634.91639 1613.87760 0.00062
467 2.83000 1570.20520 1558.90560 0.00064
468 2.83500 1527.33842 1522.89210 0.00066
469 2.84000 1502.88625 1499.39970 0.00067
470 2.84500 1490.38440 1485.80510 0.00067
471 2.85000 1484.61695 1479.03400 0.00068
472 2.85500 1483.21356 1484.22990 0.00067
473 2.86000 1486.83285 1489.16680 0.00067
474 2.86500 1499.32870 1500.78390 0.00067
475 2.87000 1527.43706 1529.04500 0.00065
476 2.87500 1577.90387 1581.18880 0.00063
477 2.88000 1650.95463 1653.32500 0.00060
478 2.88500 1732.34284 1738.84370 0.00058
479 2.89000 1789.10134 1802.99770 0.00055
480 2.89500 1786.42792 1813.11500 0.00055
481 2.90000 1727.52269 1766.24500 0.00057
482 2.90500 1648.34772 1687.78270 0.00059
483 2.91000 1582.66911 1619.55770 0.00062
484 2.91500 1549.18927 1582.36180 0.00063
485 2.92000 1554.38545 1581.29160 0.00063
486 2.92500 1596.34358 1615.22760 0.00062
487 2.93000 1663.79051 1670.07750 0.00060
488 2.93500 1731.65873 1721.45320 0.00058
489 2.94000 1761.25516 1742.73480 0.00057
490 2.94500 1728.08410 1715.15900 0.00058
491 2.95000 1653.57475 1652.93470 0.00060
492 2.95500 1574.47220 1580.03560 0.00063
493 2.96000 1512.40627 1520.85300 0.00066
494 2.96500 1472.59692 1480.92850 0.00068
495 2.97000 1450.58058 1456.16110 0.00069
496 2.97500 1439.28603 1442.26410 0.00069
497 2.98000 1433.37925 1435.64390 0.00070
498 2.98500 1429.87049 1432.60170 0.00070
499 2.99000 1427.59953 1429.90040 0.00070
500 2.99500 1426.17014 1429.90930 0.00070
501 3.00000 1425.54595 1428.02860 0.00070
502 3.00500 1426.01237 1430.44850 0.00070
503 3.01000 1428.48266 1434.73600 0.00070
504 3.01500 1435.28483 1448.59240 0.00069
505 3.02000 1450.98066 1469.20710 0.00068
506 3.02500 1481.98456 1499.12210 0.00067
507 3.03000 1533.12734 1544.38930 0.00065
508 3.03500 1601.18530 1595.50900 0.00063
509 3.04000 1668.16150 1641.67530 0.00061
510 3.04500 1700.29858 1657.66150 0.00060
511 3.05000 1674.04713 1636.84860 0.00061
512 3.05500 1608.78600 1591.30620 0.00063
513 3.06000 1539.25189 1535.95780 0.00065
514 3.06500 1485.55191 1487.38100 0.00067
515 3.07000 1452.36902 1457.56350 0.00069
516 3.07500 1435.51737 1436.10060 0.00070
517 3.08000 1428.61816 1420.08710 0.00070
518 3.08500 1426.96207 1413.99010 0.00071
519 3.09000 1428.17009 1410.85930 0.00071
520 3.09500 1431.38642 1409.85520 0.00071
521 3.10000 1436.43794 1412.79810 0.00071
522 3.10500 1443.38097 1409.83720 0.00071
523 3.11000 1452.37682 1411.25530 0.00071
524 3.11500 1463.93420 1418.62760 0.00070
525 3.12000 1479.35896 1427.05990 0.00070
526 3.12500 1501.18833 1440.12150 0.00069
527 3.13000 1535.02041 1461.22890 0.00068
528 3.13500 1595.20153 1503.16670 0.00067
529 3.14000 1716.06817 1590.12900 0.00063
530 3.14500 1963.33172 1782.40490 0.00056
531 3.15000 2426.53993 2207.20680 0.00045
532 3.15500 3166.96444 3030.74270 0.00033
533 3.16000 4124.04058 4219.03190 0.00024
534 3.16500 5018.09318 5373.08120 0.00019
535 3.17000 5355.74619 5884.47500 0.00017
536 3.17500 4876.74301 5411.66150 0.00018
537 3.18000 3939.37197 4237.13700 0.00024
538 3.18500 3012.69416 3037.92890 0.00033
539 3.19000 2328.56488 2248.83840 0.00044
540 3.19500 1916.50808 1844.73620 0.00054
541 3.20000 1703.87282 1653.38910 0.00060
542 3.20500 1603.63639 1564.93370 0.00064
543 3.21000 1556.81044 1525.47590 0.00066
544 3.21500 1534.28821 1509.15790 0.00066
545 3.22000 1524.36568 1506.03260 0.00066
546 3.22500 1522.64780 1512.36570 0.00066
547 3.23000 1527.63836 1527.65120 0.00065
548 3.23500 1540.27884 1553.20450 0.00064
549 3.24000 1564.75095 1599.40770 0.00063
550 3.24500 1610.66929 1668.36320 0.00060
551 3.25000 1697.46828 1780.97690 0.00056
552 3.25500 1857.21176 1966.34830 0.00051
553 3.26000 2129.56158 2244.82250 0.00045
554 3.26500 2548.49026 2630.05660 0.00038
555 3.27000 3127.97023 3121.69120 0.00032
556 3.27500 3847.91207 3762.81730 0.00027
557 3.28000 4691.59553 4670.00180 0.00021
558 3.28500 5730.21236 5923.29920 0.00017
559 3.29000 6915.54057 7284.42450 0.00014
560 3.29500 7785.86534 8160.92380 0.00012
561 3.30000 7682.54351 7992.49660 0.00013
562 3.30500 6598.61581 6774.31820 0.00015
563 3.31000 5156.38705 5128.68580 0.00019
564 3.31500 3849.62242 3731.46820 0.00027
565 3.32000 2879.54111 2795.43660 0.00036
566 3.32500 2260.09693 2219.33750 0.00045
567 3.33000 1903.67039 1877.38940 0.00053
568 3.33500 1707.64660 1681.66630 0.00059
569 3.34000 1598.56870 1572.27600 0.00064
570 3.34500 1534.22912 1508.50780 0.00066
571 3.35000 1493.05640 1470.20680 0.00068
572 3.35500 1464.79458 1445.24050 0.00069
573 3.36000 1444.74329 1427.14180 0.00070
574 3.36500 1430.73015 1415.44770 0.00071
575 3.37000 1421.73985 1412.63590 0.00071
576 3.37500 1417.39175 1411.44010 0.00071
577 3.38000 1417.81154 1417.85260 0.00071
578 3.38500 1423.78772 1431.20790 0.00070
579 3.39000 1437.52708 1456.20760 0.00069
580 3.39500 1465.04675 1500.42360 0.00067
581 3.40000 1521.93307 1582.85870 0.00063
582 3.40500 1642.60229 1735.08700 0.00058
583 3.41000 1885.72110 2008.02300 0.00050
584 3.41500 2318.04796 2454.86240 0.00041
585 3.42000 2962.84734 3071.56830 0.00033
586 3.42500 3724.44961 3723.50250 0.00027
587 3.43000 4318.22216 4167.06180 0.00024
588 3.43500 4357.72078 4188.54810 0.00024
589 3.44000 3811.76810 3771.79540 0.00027
590 3.44500 3054.95803 3120.15220 0.00032
591 3.45000 2398.46176 2502.12930 0.00040
592 3.45500 1958.35390 2061.68000 0.00049
593 3.46000 1717.44799 1800.97390 0.00056
594 3.46500 1599.81184 1658.20820 0.00060
595 3.47000 1531.54977 1568.11000 0.00064
596 3.47500 1477.76841 1504.05870 0.00066
597 3.48000 1435.19087 1453.67850 0.00069
598 3.48500 1403.89554 1415.60210 0.00071
599 3.49000 1379.24396 1385.13160 0.00072
600 3.49500 1353.36126 1352.96940 0.00074
601 3.50000 1326.62837 1324.29260 0.00076
602 3.50500 1303.32724 1300.02100 0.00077
603 3.51000 1285.69852 1280.11410 0.00078
604 3.51500 1273.84306 1267.92980 0.00079
605 3.52000 1266.73176 1260.57310 0.00079
606 3.52500 1263.19282 1256.39280 0.00080
607 3.53000 1262.60389 1258.49480 0.00079
608 3.53500 1265.53382 1262.18610 0.00079
609 3.54000 1275.10869 1270.06210 0.00079
610 3.54500 1298.19934 1293.49600 0.00077
611 3.55000 1342.89251 1344.39320 0.00074
612 3.55500 1412.01236 1422.85150 0.00070
613 3.56000 1494.68164 1516.88810 0.00066
614 3.56500 1558.33988 1590.53300 0.00063
615 3.57000 1558.88965 1597.21670 0.00063
616 3.57500 1493.29684 1524.92140 0.00066
617 3.58000 1404.10012 1429.41700 0.00070
618 3.58500 1325.89591 1335.88080 0.00075
619 3.59000 1271.37600 1272.17390 0.00079
620 3.59500 1239.03451 1235.84640 0.00081
621 3.60000 1221.73595 1215.93220 0.00082
622 3.60500 1212.87935 1204.03480 0.00083
623 3.61000 1208.65349 1200.77520 0.00083
624 3.61500 1207.58062 1203.36380 0.00083
625 3.62000 1209.27140 1208.99080 0.00083
626 3.62500 1213.28336 1214.26150 0.00082
627 3.63000 1218.41834 1216.30440 0.00082
628 3.63500 1223.25661 1218.46550 0.00082
629 3.64000 1227.19642 1217.53620 0.00082
630 3.64500 1232.86193 1217.96010 0.00082
631 3.65000 1249.07437 1229.12960 0.00081
632 3.65500 1287.77814 1264.57090 0.00079
633 3.66000 1357.79219 1328.63700 0.00075
634 3.66500 1456.00569 1419.72040 0.00070
635 3.67000 1556.27088 1506.79680 0.00066
636 3.67500 1604.07913 1550.23400 0.00065
637 3.68000 1560.66841 1522.55000 0.00066
638 3.68500 1461.89503 1437.98280 0.00070
639 3.69000 1365.52810 1348.34300 0.00074
640 3.69500 1300.26619 1287.13690 0.00078
641 3.70000 1269.31555 1265.77390 0.00079
642 3.70500 1259.53244 1262.68870 0.00079
643 3.71000 1250.77747 1253.26960 0.00080
644 3.71500 1230.91903 1231.35220 0.00081
645 3.72000 1204.67579 1202.05550 0.00083
646 3.72500 1180.47880 1170.21480 0.00085
647 3.73000 1162.24729 1149.30220 0.00087
648 3.73500 1150.03371 1134.06050 0.00088
649 3.74000 1142.21590 1128.26890 0.00089
650 3.74500 1136.96646 1123.25080 0.00089
651 3.75000 1133.04768 1118.12810 0.00089
652 3.75500 1129.89741 1114.42050 0.00090
653 3.76000 1127.09882 1114.24830 0.00090
654 3.76500 1124.60824 1114.33570 0.00090
655 3.77000 1122.38271 1109.41950 0.00090
656 3.77500 1120.38630 1110.13200 0.00090
657 3.78000 1118.62368 1106.26990 0.00090
658 3.78500 1117.10852 1103.20110 0.00091
659 3.79000 1115.87217 1102.80660 0.00091
660 3.79500 1114.96809 1104.71360 0.00091
661 3.80000 1114.51056 1103.06590 0.00091
662 3.80500 1114.57906 1099.81630 0.00091
663 3.81000 1115.45566 1101.13460 0.00091
664 3.81500 1117.69628 1105.64840 0.00090
665 3.82000 1122.65565 1111.39900 0.00090
666 3.82500 1133.48626 1125.50890 0.00089
667 3.83000 1156.13748 1153.62780 0.00087
668 3.83500 1199.21443 1208.94840 0.00083
669 3.84000 1270.00626 1296.87680 0.00077
670 3.84500 1366.50516 1410.45600 0.00071
671 3.85000 1466.37972 1512.02090 0.00066
672 3.85500 1521.55431 1553.92630 0.00064
673 3.86000 1498.31836 1515.31510 0.00066
674 3.86500 1420.76244 1415.62180 0.00071
675 3.87000 1327.19581 1305.43780 0.00077
676 3.87500 1243.70001 1219.68810 0.00082
677 3.88000 1181.63843 1163.49000 0.00086
678 3.88500 1141.56863 1130.73160 0.00088
679 3.89000 1119.16571 1111.73690 0.00090
680 3.89500 1109.28581 1105.05070 0.00090
681 3.90000 1107.40800 1109.83700 0.00090
682 3.90500 1109.01996 1118.68920 0.00089
683 3.91000 1108.53658 1123.34900 0.00089
684 3.91500 1101.71736 1116.50740 0.00090
685 3.92000 1090.31919 1098.31100 0.00091
686 3.92500 1078.69234 1081.75970 0.00092
687 3.93000 1069.19824 1066.69590 0.00094
688 3.93500 1062.29287 1057.59810 0.00095
689 3.94000 1057.44635 1053.78790 0.00095
690 3.94500 1053.89153 1047.65460 0.00095
691 3.95000 1051.04526 1045.52580 0.00096
692 3.95500 1048.59030 1042.66820 0.00096
693 3.96000 1046.39787 1040.62890 0.00096
694 3.96500 1044.44833 1038.85440 0.00096
695 3.97000 1042.79249 1036.94280 0.00096
696 3.97500 1041.52581 1035.71720 0.00097
697 3.98000 1040.74166 1035.36730 0.00097
698 3.98500 1040.47303 1034.36150 0.00097
699 3.99000 1040.74235 1032.92580 0.00097
700 3.99500 1041.29480 1031.78550 0.00097
701 4.00000 1042.89809 1035.65940 0.00097
702 4.00500 1046.90839 1040.65810 0.00096
703 4.01000 1054.02583 1044.22660 0.00096
704 4.01500 1062.79829 1051.87080 0.00095
705 4.02000 1068.52700 1056.51250 0.00095
706 4.02500 1065.49733 1051.87010 0.00095
707 4.03000 1054.64178 1042.09290 0.00096
708 4.03500 1041.91096 1031.09120 0.00097
709 4.04000 1031.21561 1024.73230 0.00098
710 4.04500 1023.65039 1019.15580 0.00098
711 4.05000 1018.76348 1016.69900 0.00098
712 4.05500 1015.61147 1012.87360 0.00099
713 4.06000 1013.40530 1009.84690 0.00099
714 4.06500 1011.69077 1010.64730 0.00099
715 4.07000 1010.26519 1009.07040 0.00099
716 4.07500 1009.08313 1005.64340 0.00099
717 4.08000 1008.06511 1005.18190 0.00099
718 4.08500 1007.24281 1006.20020 0.00099
719 4.09000 1006.63199 1005.20450 0.00099
720 4.09500 1006.26069 1004.12930 0.00100
721 4.10000 1006.15810 1004.75470 0.00100
722 4.10500 1006.40384 1005.77920 0.00099
723 4.11000 1007.07262 1006.91370 0.00099
724 4.11500 1008.27680 1007.51620 0.00099
725 4.12000 1010.19022 1010.86680 0.00099
726 4.12500 1013.11157 1013.89670 0.00099
727 4.13000 1017.65654 1019.79090 0.00098
728 4.13500 1025.15190 1029.67970 0.00097
729 4.14000 1038.39364 1041.80750 0.00096
730 4.14500 1062.14603 1063.27860 0.00094
731 4.15000 1102.35129 1107.37470 0.00090
732 4.15500 1162.96518 1168.43640 0.00086
733 4.16000 1240.55561 1246.68000 0.00080
734 4.16500 1317.46772 1323.08710 0.00076
735 4.17000 1367.22349 1385.21920 0.00072
736 4.17500 1393.72592 1427.43800 0.00070
737 4.18000 1433.51904 1468.30960 0.00068
738 4.18500 1516.63439 1536.44930 0.00065
739 4.19000 1645.41584 1648.43420 0.00061
740 4.19500 1788.10442 1797.61970 0.00056
741 4.20000 1920.93451 1961.44490 0.00051
742 4.20500 2023.99467 2075.95190 0.00048
743 4.21000 2016.93410 2065.61480 0.00048
744 4.21500 1857.61731 1910.36330 0.00052
745 4.22000 1634.52155 1672.18540 0.00060
746 4.22500 1440.99263 1446.85400 0.00069
747 4.23000 1310.93526 1297.50290 0.00077
748 4.23500 1233.11684 1210.67550 0.00083
749 4.24000 1179.27749 1158.12870 0.00086
750 4.24500 1136.39507 1122.52830 0.00089
751 4.25000 1106.38798 1097.41990 0.00091
752 4.25500 1092.71364 1087.43910 0.00092
753 4.26000 1100.15447 1100.56120 0.00091
754 4.26500 1138.79532 1144.86500 0.00087
755 4.27000 1227.93489 1233.99770 0.00081
756 4.27500 1392.62869 1399.14890 0.00071
757 4.28000 1647.60258 1651.85320 0.00061
758 4.28500 1967.68202 1956.85450 0.00051
759 4.29000 2249.19287 2207.01270 0.00045
760 4.29500 2318.59338 2280.58000 0.00044
761 4.30000 2117.03237 2137.59180 0.00047
762 4.30500 1790.26528 1849.05280 0.00054
763 4.31000 1487.36312 1548.25940 0.00065
764 4.31500 1268.31552 1319.85790 0.00076
765 4.32000 1133.47995 1170.89940 0.00085
766 4.32500 1058.58619 1084.08970 0.00092
767 4.33000 1017.97711 1036.00480 0.00097
768 4.33500 994.44329 1005.67200 0.00099
769 4.34000 979.23825 984.37659 0.00102
770 4.34500 968.42432 973.41872 0.00103
771 4.35000 960.46678 965.20061 0.00104
772 4.35500 954.69859 960.52924 0.00104
773 4.36000 950.96323 956.33313 0.00105
774 4.36500 949.67055 953.09681 0.00105
775 4.37000 951.92341 957.27989 0.00104
776 4.37500 960.53229 966.70591 0.00103
777 4.38000 978.46876 982.10755 0.00102
778 4.38500 1007.76259 1001.27080 0.00100
779 4.39000 1045.69430 1024.53570 0.00098
780 4.39500 1080.23397 1040.39050 0.00096
781 4.40000 1092.21564 1042.32920 0.00096
782 4.40500 1071.37489 1031.43220 0.00097
783 4.41000 1030.98356 1010.93980 0.00099
784 4.41500 991.32493 983.75296 0.00102
785 4.42000 961.99413 962.24329 0.00104
786 4.42500 943.98265 949.02347 0.00105
787 4.43000 934.61047 941.68205 0.00106
788 4.43500 930.69222 936.49488 0.00107
789 4.44000 930.03604 935.46554 0.00107
790 4.44500 931.67519 937.39701 0.00107
791 4.45000 935.65958 942.18296 0.00106
792 4.45500 943.00656 952.28915 0.00105
793 4.46000 955.89806 967.86943 0.00103
794 4.46500 977.82690 991.92790 0.00101
795 4.47000 1012.87931 1026.04830 0.00097
796 4.47500 1063.58342 1072.28820 0.00093
797 4.48000 1126.33441 1126.58930 0.00089
798 4.48500 1188.73968 1177.41820 0.00085
799 4.49000 1236.72231 1217.40830 0.00082
800 4.49500 1260.08679 1240.95590 0.00081
801 4.50000 1261.88001 1251.88410 0.00080
802 4.50500 1255.86670 1258.94440 0.00079
803 4.51000 1261.67905 1283.63750 0.00078
804 4.51500 1308.44549 1343.95270 0.00074
805 4.52000 1420.05030 1453.36310 0.00069
806 4.52500 1607.01420 1622.64200 0.00062
807 4.53000 1862.59081 1856.31670 0.00054
808 4.53500 2168.05408 2186.50610 0.00046
809 4.54000 2562.04086 2679.25500 0.00037
810 4.54500 3151.89161 3372.38680 0.00030
811 4.55000 3935.94509 4141.65020 0.00024
812 4.55500 4637.78122 4672.87780 0.00021
813 4.56000 4735.82013 4651.95750 0.00021
814 4.56500 4089.92484 4044.66720 0.00025
815 4.57000 3168.66986 3146.08420 0.00032
816 4.57500 2369.66866 2324.05610 0.00043
817 4.58000 1818.50229 1760.79190 0.00057
818 4.58500 1486.25296 1434.37300 0.00070
819 4.59000 1290.67688 1245.85110 0.00080
820 4.59500 1166.81946 1130.53150 0.00088
821 4.60000 1082.82425 1055.40260 0.00095
822 4.60500 1023.80195 1005.72740 0.00099
823 4.61000 981.74064 969.13678 0.00103
824 4.61500 951.37674 946.69798 0.00106
825 4.62000 928.82885 929.95189 0.00108
826 4.62500 911.42310 918.17398 0.00109
827 4.63000 897.49296 910.11906 0.00110
828 4.63500 886.05708 900.62350 0.00111
829 4.64000 876.53873 889.90127 0.00112
830 4.64500 868.61894 879.68169 0.00114
831 4.65000 862.03981 870.43485 0.00115
832 4.65500 857.22747 861.34825 0.00116
833 4.66000 854.25247 856.79360 0.00117
834 4.66500 853.14476 851.20613 0.00117
835 4.67000 853.40791 847.96453 0.00118
836 4.67500 853.19983 843.82915 0.00119
837 4.68000 849.78401 841.93170 0.00119
838 4.68500 842.92735 839.39384 0.00119
839 4.69000 835.23017 832.94438 0.00120
840 4.69500 828.59856 828.14727 0.00121
841 4.70000 823.53773 825.03427 0.00121
842 4.70500 819.95269 825.19173 0.00121
843 4.71000 817.58213 821.43515 0.00122
844 4.71500 816.37617 817.12611 0.00122
845 4.72000 816.75770 817.52580 0.00122
846 4.72500 819.68172 819.19706 0.00122
847 4.73000 826.41075 821.98363 0.00122
848 4.73500 837.68615 827.74171 0.00121
849 4.74000 852.27105 834.68756 0.00120
850 4.74500 864.71354 839.62326 0.00119
851 4.75000 866.14852 843.61275 0.00119
852 4.75500 855.67737 842.37457 0.00119
853 4.76000 842.43221 838.78245 0.00119
854 4.76500 832.97625 836.41903 0.00120
855 4.77000 828.38455 832.61876 0.00120
856 4.77500 825.60662 830.00741 0.00120
857 4.78000 820.00041 824.21262 0.00121
858 4.78500 811.22766 814.86366 0.00123
859 4.79000 802.34514 805.95341 0.00124
860 4.79500 795.26130 799.18347 0.00125
861 4.80000 790.28516 794.09705 0.00126
862 4.80500 787.04158 789.53425 0.00127
863 4.81000 784.98806 787.02952 0.00127
864 4.81500 783.73274 787.20672 0.00127
865 4.82000 783.14588 785.94424 0.00127
866 4.82500 783.35581 785.90308 0.00127
867 4.83000 784.69774 784.76261 0.00127
868 4.83500 787.45338 786.76218 0.00127
869 4.84000 791.62320 788.35259 0.00127
870 4.84500 796.28216 790.81316 0.00126
871 4.85000 799.05087 793.60045 0.00126
872 4.85500 797.92152 793.52517 0.00126
873 4.86000 794.43719 788.87066 0.00127
874 4.86500 791.29735 787.82692 0.00127
875 4.87000 789.89217 787.32874 0.00127
876 4.87500 790.66736 788.25579 0.00127
877 4.88000 793.88278 790.89273 0.00126
878 4.88500 800.09210 796.93941 0.00125
879 4.89000 810.23347 805.26596 0.00124
880 4.89500 825.30813 815.02041 0.00123
881 4.90000 845.20823 829.03745 0.00121
882 4.90500 867.12492 845.72958 0.00118
883 4.91000 885.54313 863.49583 0.00116
884 4.91500 899.61972 883.94024 0.00113
885 4.92000 919.12775 910.68171 0.00110
886 4.92500 961.94695 962.47525 0.00104
887 4.93000 1051.05585 1063.18220 0.00094
888 4.93500 1209.92543 1240.04050 0.00081
889 4.94000 1449.29943 1494.99020 0.00067
890 4.94500 1740.31340 1763.81340 0.00057
891 4.95000 1970.83080 1940.35710 0.00052
892 4.95500 1975.75901 1937.15990 0.00052
893 4.96000 1759.21054 1758.52470 0.00057
894 4.96500 1487.80887 1503.32720 0.00067
895 4.97000 1276.03452 1285.06960 0.00078
896 4.97500 1160.41982 1162.58110 0.00086
897 4.98000 1140.29367 1140.95630 0.00088
898 4.98500 1199.65900 1207.00600 0.00083
899 4.99000 1311.61790 1322.37610 0.00076
900 4.99500 1425.77901 1437.07830 0.00070
901 5.00000 1473.15070 1501.05200 0.00067
902 5.00500 1454.66494 1513.95280 0.00066
903 5.01000 1459.28561 1547.74740 0.00065
904 5.01500 1554.05931 1681.28710 0.00059
905 5.02000 1738.93484 1897.36180 0.00053
906 5.02500 1928.00625 2072.85080 0.00048
907 5.03000 1961.55121 2070.77150 0.00048
908 5.03500 1784.26245 1858.87500 0.00054
909 5.04000 1522.08813 1551.31110 0.00064
910 5.04500 1297.34774 1289.40350 0.00078
911 5.05000 1158.42401 1146.79210 0.00087
912 5.05500 1109.80376 1112.66540 0.00090
913 5.06000 1136.18570 1156.95050 0.00086
914 5.06500 1209.36537 1235.68010 0.00081
915 5.07000 1279.91340 1296.59960 0.00077
916 5.07500 1289.37878 1301.26800 0.00077
917 5.08000 1245.32237 1259.93120 0.00079
918 5.08500 1209.75704 1219.34370 0.00082
919 5.09000 1215.04483 1208.43660 0.00083
920 5.09500 1245.10863 1220.46080 0.00082
921 5.10000 1248.66193 1216.79670 0.00082
922 5.10500 1207.08207 1186.21280 0.00084
923 5.11000 1168.12113 1155.11520 0.00087
924 5.11500 1174.22612 1165.07670 0.00086
925 5.12000 1229.28890 1218.62500 0.00082
926 5.12500 1293.81680 1268.84590 0.00079
927 5.13000 1297.05142 1274.98480 0.00078
928 5.13500 1224.46455 1229.51050 0.00081
929 5.14000 1140.93894 1164.30530 0.00086
930 5.14500 1100.66875 1116.86320 0.00090
931 5.15000 1120.27977 1111.58620 0.00090
932 5.15500 1185.30676 1134.79280 0.00088
933 5.16000 1249.41274 1156.52930 0.00086
934 5.16500 1250.28557 1152.32360 0.00087
935 5.17000 1175.28630 1120.96290 0.00089
936 5.17500 1082.45650 1078.61010 0.00093
937 5.18000 1023.37617 1054.80480 0.00095
938 5.18500 1016.59227 1065.07480 0.00094
939 5.19000 1057.08792 1104.88950 0.00091
940 5.19500 1116.06071 1139.79290 0.00088
941 5.20000 1138.00497 1135.48660 0.00088
942 5.20500 1087.41276 1084.42180 0.00092
943 5.21000 998.37395 1002.68770 0.00100
944 5.21500 915.87121 921.53602 0.00109
945 5.22000 857.44660 862.86919 0.00116
946 5.22500 823.94225 827.80745 0.00121
947 5.23000 810.25940 811.76569 0.00123
948 5.23500 811.63627 812.07397 0.00123
949 5.24000 827.34816 831.27870 0.00120
950 5.24500 863.09202 873.36034 0.00115
951 5.25000 932.64421 956.89400 0.00105
952 5.25500 1056.59958 1098.63780 0.00091
953 5.26000 1254.26651 1306.59210 0.00077
954 5.26500 1524.82699 1562.89060 0.00064
955 5.27000 1811.18029 1785.12870 0.00056
956 5.27500 1963.35892 1874.35780 0.00053
957 5.28000 1858.77201 1779.52230 0.00056
958 5.28500 1595.93048 1557.57150 0.00064
959 5.29000 1336.66604 1312.07870 0.00076
960 5.29500 1149.21594 1115.33670 0.00090
961 5.30000 1030.10802 982.69987 0.00102
962 5.30500 947.87608 898.24707 0.00111
963 5.31000 882.11747 839.36229 0.00119
964 5.31500 830.93841 797.43656 0.00125
965 5.32000 794.71206 768.69698 0.00130
966 5.32500 771.72516 751.64346 0.00133
967 5.33000 759.91298 743.38281 0.00135
968 5.33500 758.36996 745.00371 0.00134
969 5.34000 768.88925 759.73295 0.00132
970 5.34500 796.40427 795.13537 0.00126
971 5.35000 847.27077 860.68176 0.00116
972 5.35500 924.35805 952.01019 0.00105
973 5.36000 1017.46320 1050.14360 0.00095
974 5.36500 1088.01431 1110.78610 0.00090
975 5.37000 1081.01194 1102.40350 0.00091
976 5.37500 1000.81464 1024.55490 0.00098
977 5.38000 903.80814 919.34742 0.00109
978 5.38500 824.98618 828.12105 0.00121
979 5.39000 772.62000 771.70250 0.00130
980 5.39500 743.62914 747.13880 0.00134
981 5.40000 732.36105 738.54090 0.00135
982 5.40500 734.77949 748.25788 0.00134
983 5.41000 748.66523 771.14031 0.00130
984 5.41500 770.79677 796.22368 0.00126
985 5.42000 792.10579 814.68616 0.00123
986 5.42500 795.90833 816.26208 0.00123
987 5.43000 776.35542 799.27178 0.00125
988 5.43500 748.01232 768.83074 0.00130
989 5.44000 723.71529 739.79027 0.00135
990 5.44500 707.35240 721.53722 0.00139
991 5.45000 698.68091 710.24245 0.00141
992 5.45500 695.92787 704.22349 0.00142
993 5.46000 697.91353 701.91190 0.00142
994 5.46500 704.67487 709.36625 0.00141
995 5.47000 717.83611 724.24310 0.00138
996 5.47500 740.39880 747.81795 0.00134
997 5.48000 775.92417 783.96651 0.00128
998 5.48500 826.57783 829.09721 0.00121
999 5.49000 887.43635 872.18355 0.00115
1000 5.49500 936.81774 900.07822 0.00111
1001 5.50000 945.08085 906.27115 0.00110
1002 5.50500 920.05098 896.85495 0.00112
1003 5.51000 900.63185 894.47868 0.00112
1004 5.51500 914.68319 923.12593 0.00108
1005 5.52000 974.01435 996.24329 0.00100
1006 5.52500 1076.26200 1096.26350 0.00091
1007 5.53000 1195.88743 1193.60100 0.00084
1008 5.53500 1272.70464 1253.43330 0.00080
1009 5.54000 1268.83654 1263.85510 0.00079
1010 5.54500 1244.39784 1270.22790 0.00079
1011 5.55000 1276.53177 1325.90270 0.00075
1012 5.55500 1392.74843 1453.64540 0.00069
1013 5.56000 1561.17820 1603.95290 0.00062
1014 5.56500 1682.62589 1687.26450 0.00059
1015 5.57000 1661.08090 1639.27710 0.00061
1016 5.57500 1501.73588 1473.29100 0.00068
1017 5.58000 1291.55261 1264.99950 0.00079
1018 5.58500 1115.90305 1083.93070 0.00092
1019 5.59000 1007.54785 966.21921 0.00103
1020 5.59500 962.94174 907.58501 0.00110
1021 5.60000 960.59902 889.91874 0.00112
1022 5.60500 965.44277 891.23496 0.00112
1023 5.61000 947.48836 889.33644 0.00112
1024 5.61500 917.62422 884.69808 0.00113
1025 5.62000 907.43281 889.05312 0.00112
1026 5.62500 939.22472 925.94630 0.00108
1027 5.63000 1025.10150 1016.84440 0.00098
1028 5.63500 1163.87668 1152.78400 0.00087
1029 5.64000 1323.27814 1288.82120 0.00078
1030 5.64500 1414.81535 1355.26210 0.00074
1031 5.65000 1355.24053 1309.93480 0.00076
1032 5.65500 1194.27584 1177.37490 0.00085
1033 5.66000 1030.98000 1028.37000 0.00097
1034 5.66500 910.58190 913.72779 0.00109
1035 5.67000 839.36319 849.24620 0.00118
1036 5.67500 809.46055 825.09694 0.00121
1037 5.68000 810.37172 825.42126 0.00121
1038 5.68500 834.70194 846.87080 0.00118
1039 5.69000 880.04026 879.22687 0.00114
1040 5.69500 937.59146 920.65922 0.00109
1041 5.70000 974.84765 950.33938 0.00105
1042 5.70500 952.86920 947.28514 0.00106
1043 5.71000 884.71535 908.52049 0.00110
1044 5.71500 812.46915 850.05167 0.00118
1045 5.72000 757.23375 792.33192 0.00126
1046 5.72500 721.93277 747.70395 0.00134
1047 5.73000 702.43485 722.28092 0.00138
1048 5.73500 693.17912 708.84637 0.00141
1049 5.74000 690.92305 703.04940 0.00142
1050 5.74500 695.56332 708.68315 0.00141
1051 5.75000 708.74324 724.14086 0.00138
1052 5.75500 732.88107 750.67994 0.00133
1053 5.76000 769.86211 791.06703 0.00126
1054 5.76500 817.98142 840.28643 0.00119
1055 5.77000 871.22508 894.60296 0.00112
1056 5.77500 927.85138 943.10926 0.00106
1057 5.78000 987.16453 980.71499 0.00102
1058 5.78500 1038.23855 1004.22290 0.00100
1059 5.79000 1067.63269 1011.06870 0.00099
1060 5.79500 1054.33825 996.53747 0.00100
1061 5.80000 993.25253 960.15712 0.00104
1062 5.80500 920.68373 916.95624 0.00109
1063 5.81000 870.73765 883.76777 0.00113
1064 5.81500 859.34100 883.03297 0.00113
1065 5.82000 895.17896 923.56753 0.00108
1066 5.82500 987.41762 1009.00520 0.00099
1067 5.83000 1142.18449 1147.92730 0.00087
1068 5.83500 1347.29181 1318.59520 0.00076
1069 5.84000 1542.74982 1463.32730 0.00068
1070 5.84500 1615.83246 1522.92090 0.00066
1071 5.85000 1515.57677 1474.33050 0.00068
1072 5.85500 1340.31588 1352.96480 0.00074
1073 5.86000 1204.80407 1236.99980 0.00081
1074 5.86500 1155.80284 1186.14140 0.00084
1075 5.87000 1191.05275 1212.53060 0.00082
1076 5.87500 1267.50747 1268.27350 0.00079
1077 5.88000 1295.43883 1281.03680 0.00078
1078 5.88500 1210.88277 1210.73010 0.00083
1079 5.89000 1063.87630 1082.44320 0.00092
1080 5.89500 926.26584 943.64597 0.00106
1081 5.90000 825.08253 835.71617 0.00120
1082 5.90500 760.76793 764.93861 0.00131
1083 5.91000 724.91279 725.12387 0.00138
1084 5.91500 708.25927 704.74100 0.00142
1085 5.92000 703.22151 696.91799 0.00143
1086 5.92500 703.26902 697.13530 0.00143
1087 5.93000 704.31994 701.81411 0.00142
1088 5.93500 705.85639 705.41038 0.00142
1089 5.94000 704.66896 706.54172 0.00142
1090 5.94500 696.56727 703.33560 0.00142
1091 5.95000 685.65212 695.04411 0.00144
1092 5.95500 679.02616 689.88427 0.00145
1093 5.96000 680.91343 691.13032 0.00145
1094 5.96500 694.57847 700.59074 0.00143
1095 5.97000 724.33265 728.24641 0.00137
1096 5.97500 775.52873 775.83322 0.00129
1097 5.98000 851.55556 844.12443 0.00118
1098 5.98500 946.73960 932.54577 0.00107
1099 5.99000 1040.45404 1013.13200 0.00099
1100 5.99500 1100.87800 1064.21450 0.00094
1101 6.00000 1106.05151 1076.18450 0.00093
1102 6.00500 1068.07767 1045.37200 0.00096
1103 6.01000 1005.07885 994.12536 0.00101
1104 6.01500 943.18668 945.94996 0.00106
1105 6.02000 906.78382 913.92899 0.00109
1106 6.02500 891.87520 891.28558 0.00112
1107 6.03000 871.03317 867.95526 0.00115
1108 6.03500 830.99460 835.25664 0.00120
1109 6.04000 789.62124 798.81340 0.00125
1110 6.04500 761.71824 769.31189 0.00130
1111 6.05000 746.69398 754.91007 0.00132
1112 6.05500 738.28964 750.01001 0.00133
1113 6.06000 732.11619 746.48361 0.00134
1114 6.06500 725.86423 739.79965 0.00135
1115 6.07000 725.29329 737.42874 0.00136
1116 6.07500 739.47451 745.50665 0.00134
1117 6.08000 771.33991 766.25396 0.00131
1118 6.08500 812.93276 787.74262 0.00127
1119 6.09000 840.38106 801.09439 0.00125
1120 6.09500 833.60942 798.56158 0.00125
1121 6.10000 809.29743 782.79575 0.00128
1122 6.10500 793.83055 770.63244 0.00130
1123 6.11000 794.66340 772.35667 0.00129
1124 6.11500 806.10890 785.80409 0.00127
1125 6.12000 815.11968 798.25564 0.00125
1126 6.12500 805.99302 796.26066 0.00126
1127 6.13000 779.68506 773.84942 0.00129
1128 6.13500 749.23355 743.41800 0.00135
1129 6.14000 721.85595 715.95902 0.00140
1130 6.14500 698.87184 698.00400 0.00143
1131 6.15000 684.77783 689.47689 0.00145
1132 6.15500 684.77062 692.37987 0.00144
1133 6.16000 702.21195 712.02589 0.00140
1134 6.16500 738.47644 750.46244 0.00133
1135 6.17000 789.78902 794.92220 0.00126
1136 6.17500 838.42279 824.76822 0.00121
1137 6.18000 851.27497 829.72579 0.00121
1138 6.18500 819.56123 802.89176 0.00125
1139 6.19000 775.02539 768.31460 0.00130
1140 6.19500 744.27247 742.60412 0.00135
1141 6.20000 734.09594 732.13533 0.00137
1142 6.20500 737.71332 736.02557 0.00136
1143 6.21000 738.06533 738.09527 0.00135
1144 6.21500 723.30167 726.39018 0.00138
1145 6.22000 700.31343 708.71911 0.00141
1146 6.22500 679.49909 687.11463 0.00146
1147 6.23000 666.41581 670.22525 0.00149
1148 6.23500 663.63125 664.21038 0.00151
1149 6.24000 671.43820 670.62764 0.00149
1150 6.24500 689.74155 688.95356 0.00145
1151 6.25000 720.34043 722.43483 0.00138
1152 6.25500 764.13319 767.45688 0.00130
1153 6.26000 812.15844 812.93549 0.00123
1154 6.26500 838.96264 839.62502 0.00119
1155 6.27000 827.11599 840.48932 0.00119
1156 6.27500 797.85177 821.01246 0.00122
1157 6.28000 778.89027 807.49640 0.00124
1158 6.28500 780.56038 800.92084 0.00125
1159 6.29000 799.39354 804.06236 0.00124
1160 6.29500 824.11443 818.25023 0.00122
1161 6.30000 852.02034 837.37251 0.00119
1162 6.30500 892.83306 863.15590 0.00116
1163 6.31000 948.87592 904.39131 0.00111
1164 6.31500 1016.33171 969.89148 0.00103
1165 6.32000 1111.78472 1083.51980 0.00092
1166 6.32500 1258.88668 1272.93330 0.00079
1167 6.33000 1451.38027 1525.47010 0.00066
1168 6.33500 1634.00441 1746.58190 0.00057
1169 6.34000 1690.31665 1811.75990 0.00055
1170 6.34500 1560.13910 1676.59630 0.00060
1171 6.35000 1343.87742 1422.47370 0.00070
1172 6.35500 1146.96204 1175.34180 0.00085
1173 6.36000 1005.80768 1007.56950 0.00099
1174 6.36500 923.70339 918.84941 0.00109
1175 6.37000 886.50628 877.14884 0.00114
1176 6.37500 864.30134 848.37170 0.00118
1177 6.38000 827.99434 814.02003 0.00123
1178 6.38500 779.75503 769.59134 0.00130
1179 6.39000 738.46399 726.36439 0.00138
1180 6.39500 714.52742 698.80814 0.00143
1181 6.40000 710.76169 688.90134 0.00145
1182 6.40500 726.26789 696.24727 0.00144
1183 6.41000 755.57235 716.83254 0.00140
1184 6.41500 783.99450 740.22914 0.00135
1185 6.42000 787.74757 753.01426 0.00133
1186 6.42500 756.82797 744.50548 0.00134
1187 6.43000 710.98137 718.79554 0.00139
1188 6.43500 670.44311 685.04918 0.00146
1189 6.44000 641.77069 652.85902 0.00153
1190 6.44500 624.43611 632.49285 0.00158
1191 6.45000 615.83406 623.52662 0.00160
1192 6.45500 612.89789 620.88574 0.00161
1193 6.46000 613.15929 623.61883 0.00160
1194 6.46500 616.01843 625.03714 0.00160
1195 6.47000 621.90259 629.84152 0.00159
1196 6.47500 628.82053 635.58067 0.00157
1197 6.48000 631.13793 637.05533 0.00157
1198 6.48500 625.93100 636.84569 0.00157
1199 6.49000 617.46442 629.97979 0.00159
1200 6.49500 610.17956 624.36506 0.00160
1201 6.50000 605.69624 617.57954 0.00162
1202 6.50500 604.84833 615.27708 0.00163
1203 6.51000 608.22746 619.14014 0.00162
1204 6.51500 616.66606 626.15583 0.00160
1205 6.52000 631.75216 643.92277 0.00155
1206 6.52500 655.81218 671.31758 0.00149
1207 6.53000 690.85963 711.89463 0.00140
1208 6.53500 735.93627 759.94534 0.00132
1209 6.54000 782.59888 802.91865 0.00125
1210 6.54500 819.12355 831.36346 0.00120
1211 6.55000 840.45620 836.01815 0.00120
1212 6.55500 841.97759 829.00420 0.00121
1213 6.56000 829.27591 822.63935 0.00122
1214 6.56500 826.50899 829.92942 0.00120
1215 6.57000 856.05747 866.59687 0.00115
1216 6.57500 931.26439 946.55702 0.00106
1217 6.58000 1057.44594 1070.74590 0.00093
1218 6.58500 1223.53170 1226.39020 0.00082
1219 6.59000 1387.94961 1375.28430 0.00073
1220 6.59500 1478.90320 1460.76760 0.00068
1221 6.60000 1454.25354 1445.44820 0.00069
1222 6.60500 1344.09513 1344.48180 0.00074
1223 6.61000 1199.64993 1207.73590 0.00083
1224 6.61500 1077.67291 1093.46270 0.00091
1225 6.62000 1013.60976 1031.82090 0.00097
1226 6.62500 1012.57663 1027.05030 0.00097
1227 6.63000 1058.96683 1068.03680 0.00094
1228 6.63500 1123.09184 1123.34090 0.00089
1229 6.64000 1172.54565 1162.38680 0.00086
1230 6.64500 1168.04438 1157.72040 0.00086
1231 6.65000 1096.47948 1097.48560 0.00091
1232 6.65500 996.17652 999.13832 0.00100
1233 6.66000 895.53360 891.67017 0.00112
1234 6.66500 806.46147 798.42516 0.00125
1235 6.67000 738.17000 729.21334 0.00137
1236 6.67500 691.48869 680.28606 0.00147
1237 6.68000 661.80114 647.25555 0.00154
1238 6.68500 644.11819 629.35866 0.00159
1239 6.69000 634.92150 620.92584 0.00161
1240 6.69500 632.43105 618.09839 0.00162
1241 6.70000 636.43607 621.44056 0.00161
1242 6.70500 648.13718 635.58872 0.00157
1243 6.71000 669.63933 656.93449 0.00152
1244 6.71500 702.68120 691.91565 0.00145
1245 6.72000 747.28376 742.27713 0.00135
1246 6.72500 802.20828 800.57837 0.00125
1247 6.73000 858.20800 858.13716 0.00117
1248 6.73500 890.57462 895.96516 0.00112
1249 6.74000 886.22094 902.88784 0.00111
1250 6.74500 857.92489 884.12776 0.00113
1251 6.75000 816.72735 848.67292 0.00118
1252 6.75500 775.30329 807.35261 0.00124
1253 6.76000 747.48686 776.78436 0.00129
1254 6.76500 735.73559 757.21554 0.00132
1255 6.77000 732.13480 747.24371 0.00134
1256 6.77500 729.57497 738.70275 0.00135
1257 6.78000 731.31595 735.12206 0.00136
1258 6.78500 745.62898 748.25095 0.00134
1259 6.79000 780.51238 789.98506 0.00127
1260 6.79500 840.52911 864.34393 0.00116
1261 6.80000 921.29537 959.18331 0.00104
1262 6.80500 1001.47289 1045.11350 0.00096
1263 6.81000 1057.20051 1095.34870 0.00091
1264 6.81500 1095.70988 1115.18180 0.00090
1265 6.82000 1130.38244 1130.75130 0.00088
1266 6.82500 1167.80751 1168.78710 0.00086
1267 6.83000 1226.07084 1232.88570 0.00081
1268 6.83500 1295.87212 1297.26090 0.00077
1269 6.84000 1321.75531 1328.08840 0.00075
1270 6.84500 1279.26058 1307.88760 0.00076
1271 6.85000 1222.93567 1271.88320 0.00079
1272 6.85500 1208.46900 1255.11080 0.00080
1273 6.86000 1238.67336 1261.86270 0.00079
1274 6.86500 1257.09061 1252.58020 0.00080
1275 6.87000 1194.40597 1189.83270 0.00084
1276 6.87500 1064.63772 1077.82150 0.00093
1277 6.88000 930.23678 948.52885 0.00105
1278 6.88500 824.12062 837.08314 0.00119
1279 6.89000 751.35824 756.03795 0.00132
1280 6.89500 707.08604 705.44689 0.00142
1281 6.90000 683.80448 675.82972 0.00148
1282 6.90500 673.31113 659.24492 0.00152
1283 6.91000 666.56778 649.58896 0.00154
1284 6.91500 658.07195 641.74559 0.00156
1285 6.92000 650.54977 639.20634 0.00156
1286 6.92500 648.23970 636.21356 0.00157
1287 6.93000 650.55555 635.89942 0.00157
1288 6.93500 651.61357 634.46947 0.00158
1289 6.94000 646.98009 634.99066 0.00157
1290 6.94500 641.40077 634.20439 0.00158
1291 6.95000 642.26974 638.69239 0.00157
1292 6.95500 653.49032 654.64041 0.00153
1293 6.96000 675.58419 678.87988 0.00147
1294 6.96500 705.09448 708.86121 0.00141
1295 6.97000 733.85308 735.96295 0.00136
1296 6.97500 756.79641 758.98076 0.00132
1297 6.98000 776.16934 778.40470 0.00128
1298 6.98500 791.52372 801.06252 0.00125
1299 6.99000 800.97703 822.03599 0.00122
1300 6.99500 799.63695 827.22870 0.00121
1301 7.00000 783.84579 809.74349 0.00123
1302 7.00500 759.87530 778.64526 0.00128
1303 7.01000 736.84669 743.58829 0.00134
1304 7.01500 720.98111 717.18113 0.00139
1305 7.02000 711.28140 699.24463 0.00143
1306 7.02500 704.03298 688.51561 0.00145
1307 7.03000 692.69158 677.49325 0.00148
1308 7.03500 672.34797 660.08847 0.00151
1309 7.04000 648.42989 640.90932 0.00156
1310 7.04500 628.70765 625.47447 0.00160
1311 7.05000 616.21439 613.01945 0.00163
1312 7.05500 610.70265 608.40963 0.00164
1313 7.06000 611.24866 607.04501 0.00165
1314 7.06500 617.59071 613.90391 0.00163
1315 7.07000 630.25730 623.31718 0.00160
1316 7.07500 650.85457 641.36558 0.00156
1317 7.08000 682.99278 665.38811 0.00150
1318 7.08500 731.25222 703.97752 0.00142
1319 7.09000 797.55805 753.92152 0.00133
1320 7.09500 875.03140 814.79051 0.00123
1321 7.10000 941.88483 874.43804 0.00114
1322 7.10500 976.73294 929.69965 0.00108
1323 7.11000 995.69352 984.21546 0.00102
1324 7.11500 1034.16607 1044.05990 0.00096
1325 7.12000 1100.10069 1118.86790 0.00089
1326 7.12500 1169.92151 1200.92230 0.00083
1327 7.13000 1220.94038 1263.66960 0.00079
1328 7.13500 1230.85611 1269.34900 0.00079
1329 7.14000 1167.27688 1202.37870 0.00083
1330 7.14500 1051.62792 1078.29340 0.00093
1331 7.15000 942.23025 949.14564 0.00105
1332 7.15500 870.62137 858.19688 0.00117
1333 7.16000 842.98556 817.99882 0.00122
1334 7.16500 856.03314 827.57339 0.00121
1335 7.17000 898.70779 870.87783 0.00115
1336 7.17500 944.45785 915.61128 0.00109
1337 7.18000 951.21704 931.57383 0.00107
1338 7.18500 901.04840 901.34496 0.00111
1339 7.19000 825.33684 832.28495 0.00120
1340 7.19500 757.88751 759.59096 0.00132
1341 7.20000 709.64646 701.67834 0.00143
1342 7.20500 678.24278 667.39965 0.00150
1343 7.21000 658.16567 648.31614 0.00154
1344 7.21500 647.13899 641.75107 0.00156
1345 7.22000 645.54884 642.30773 0.00156
1346 7.22500 654.89372 651.38171 0.00154
1347 7.23000 677.91233 673.86737 0.00148
1348 7.23500 718.46286 719.45609 0.00139
1349 7.24000 779.89310 787.19823 0.00127
1350 7.24500 860.34872 872.66437 0.00115
1351 7.25000 944.00938 959.28581 0.00104
1352 7.25500 1001.11503 1014.31180 0.00099
1353 7.26000 1019.17636 1030.49100 0.00097
1354 7.26500 1018.62234 1017.35590 0.00098
1355 7.27000 1013.29047 991.24520 0.00101
1356 7.27500 995.36441 968.17382 0.00103
1357 7.28000 953.58289 932.46595 0.00107
1358 7.28500 884.02707 882.24008 0.00113
1359 7.29000 804.82914 822.22216 0.00122
1360 7.29500 738.11592 759.28694 0.00132
1361 7.30000 691.35887 708.10683 0.00141
1362 7.30500 662.66287 676.33637 0.00148
1363 7.31000 647.65373 656.02598 0.00152
1364 7.31500 643.10940 648.62805 0.00154
1365 7.32000 648.74225 653.68565 0.00153
1366 7.32500 666.32196 669.28852 0.00149
1367 7.33000 698.39419 696.73495 0.00144
1368 7.33500 746.71465 738.59027 0.00135
1369 7.34000 808.10011 789.99333 0.00127
1370 7.34500 869.36480 849.60667 0.00118
1371 7.35000 920.18385 913.57683 0.00109
1372 7.35500 972.32171 987.90862 0.00101
1373 7.36000 1035.53295 1060.50990 0.00094
1374 7.36500 1083.72448 1102.90420 0.00091
1375 7.37000 1071.13757 1089.21600 0.00092
1376 7.37500 998.32997 1017.60250 0.00098
1377 7.38000 905.16630 917.61102 0.00109
1378 7.38500 817.18150 819.86092 0.00122
1379 7.39000 746.78760 744.84639 0.00134
1380 7.39500 699.42216 694.17973 0.00144
1381 7.40000 674.18757 668.18647 0.00150
1382 7.40500 668.13741 659.55468 0.00152
1383 7.41000 678.46894 674.19755 0.00148
1384 7.41500 701.27496 706.46745 0.00142
1385 7.42000 728.03821 737.19782 0.00136
1386 7.42500 745.79502 757.72408 0.00132
1387 7.43000 746.43750 759.23309 0.00132
1388 7.43500 735.18272 745.97875 0.00134
1389 7.44000 724.82259 726.34669 0.00138
1390 7.44500 723.84087 716.51792 0.00140
1391 7.45000 731.53350 723.63236 0.00138
1392 7.45500 736.95670 730.18887 0.00137
1393 7.46000 732.38531 730.88948 0.00137
1394 7.46500 728.00863 728.15031 0.00137
1395 7.47000 737.87512 733.18310 0.00136
1396 7.47500 766.20303 755.46759 0.00132
1397 7.48000 806.02895 792.92451 0.00126
1398 7.48500 843.99107 837.73706 0.00119
1399 7.49000 868.01564 866.62526 0.00115
1400 7.49500 865.96423 871.73594 0.00115
1401 7.50000 832.47746 842.49314 0.00119
1402 7.50500 785.40811 799.25224 0.00125
1403 7.51000 747.16828 762.48030 0.00131
1404 7.51500 723.26810 738.01108 0.00135
1405 7.52000 706.92175 720.75220 0.00139
1406 7.52500 693.73369 707.31502 0.00141
1407 7.53000 685.78185 695.17006 0.00144
1408 7.53500 684.60430 687.19195 0.00146
1409 7.54000 690.39641 679.97183 0.00147
1410 7.54500 697.91517 675.89063 0.00148
1411 7.55000 694.62223 670.07721 0.00149
1412 7.55500 676.71911 660.37576 0.00151
1413 7.56000 655.52727 648.56384 0.00154
1414 7.56500 641.06841 641.32092 0.00156
1415 7.57000 635.98470 634.58511 0.00158
1416 7.57500 640.39442 643.47523 0.00155
1417 7.58000 656.35690 662.97886 0.00151
1418 7.58500 686.59747 697.01691 0.00143
1419 7.59000 730.20514 740.77304 0.00135
1420 7.59500 777.24918 786.02125 0.00127
1421 7.60000 810.68451 820.86853 0.00122
1422 7.60500 825.00585 842.67503 0.00119
1423 7.61000 825.10660 841.83757 0.00119
1424 7.61500 806.06696 817.48490 0.00122
1425 7.62000 765.41079 774.94517 0.00129
1426 7.62500 718.51487 721.02810 0.00139
1427 7.63000 681.31441 676.74369 0.00148
1428 7.63500 659.18867 648.88980 0.00154
1429 7.64000 652.52108 636.02744 0.00157
1430 7.64500 660.94978 638.77008 0.00157
1431 7.65000 683.23713 650.41288 0.00154
1432 7.65500 714.72776 669.06889 0.00149
1433 7.66000 744.72554 695.18695 0.00144
1434 7.66500 765.59545 725.67003 0.00138
1435 7.67000 786.84059 756.44662 0.00132
1436 7.67500 822.06944 795.51460 0.00126
1437 7.68000 869.25253 836.10927 0.00120
1438 7.68500 907.67350 870.31973 0.00115
1439 7.69000 918.90091 887.16461 0.00113
1440 7.69500 909.82712 884.98135 0.00113
1441 7.70000 894.50214 871.95144 0.00115
1442 7.70500 875.05135 850.57966 0.00118
1443 7.71000 851.46989 836.04292 0.00120
1444 7.71500 829.43696 823.85746 0.00121
1445 7.72000 817.95979 816.73245 0.00122
1446 7.72500 818.95101 815.94518 0.00123
1447 7.73000 822.57474 816.24918 0.00123
1448 7.73500 820.60534 816.76428 0.00122
1449 7.74000 813.69951 813.20282 0.00123
1450 7.74500 805.32649 808.99465 0.00124
1451 7.75000 803.99502 810.25467 0.00123
1452 7.75500 821.53632 829.42965 0.00121
1453 7.76000 862.51955 865.07205 0.00116
1454 7.76500 916.10011 911.43287 0.00110
1455 7.77000 956.53884 950.12309 0.00105
1456 7.77500 959.91131 958.59963 0.00104
1457 7.78000 919.72212 928.93158 0.00108
1458 7.78500 853.39704 872.26276 0.00115
1459 7.79000 790.67088 808.76982 0.00124
1460 7.79500 749.53814 760.18978 0.00132
1461 7.80000 733.67450 735.32957 0.00136
1462 7.80500 738.98238 730.17833 0.00137
1463 7.81000 757.45208 743.66207 0.00134
1464 7.81500 784.00057 774.04230 0.00129
1465 7.82000 817.16092 810.06651 0.00123
1466 7.82500 847.81081 843.88368 0.00118
1467 7.83000 858.56939 863.48139 0.00116
1468 7.83500 839.90167 854.21002 0.00117
1469 7.84000 804.03450 821.19086 0.00122
1470 7.84500 769.87319 781.52055 0.00128
1471 7.85000 748.36067 748.56165 0.00134
1472 7.85500 742.09407 733.20041 0.00136
1473 7.86000 743.68947 731.05132 0.00137
1474 7.86500 743.39311 732.52598 0.00137
1475 7.87000 738.33940 735.07270 0.00136
1476 7.87500 726.30793 735.37887 0.00136
1477 7.88000 707.00936 731.20203 0.00137
1478 7.88500 683.10059 717.17069 0.00139
1479 7.89000 653.94397 696.26000 0.00144
1480 7.89500 622.02548 665.38209 0.00150
1481 7.90000 593.22106 628.92263 0.00159
1482 7.90500 570.61436 597.98601 0.00167
1483 7.91000 554.31923 573.80687 0.00174
1484 7.91500 543.25067 556.75486 0.00180
1485 7.92000 536.14334 544.70495 0.00184
1486 7.92500 531.97048 536.60814 0.00186
1487 7.93000 529.98891 535.87662 0.00187
1488 7.93500 529.65508 534.65872 0.00187
1489 7.94000 530.48973 534.73180 0.00187
1490 7.94500 532.46280 538.70033 0.00186
1491 7.95000 536.33451 539.81131 0.00185
1492 7.95500 543.02839 543.69432 0.00184
1493 7.96000 553.06136 553.34361 0.00181
1494 7.96500 566.11866 566.06284 0.00177
1495 7.97000 580.83279 575.09626 0.00174
1496 7.97500 594.37589 584.18098 0.00171
1497 7.98000 603.74801 591.02794 0.00169
1498 7.98500 608.39849 594.39943 0.00168
1499 7.99000 608.76891 593.47197 0.00168
1500 7.99500 606.44228 592.69884 0.00169
1501 8.00000 606.44691 595.49496 0.00168
1502 8.00500 614.24274 605.13818 0.00165
1503 8.01000 632.40259 624.03619 0.00160
1504 8.01500 659.99640 646.83110 0.00155
1505 8.02000 692.84522 675.24826 0.00148
1506 8.02500 728.31454 710.74354 0.00141
1507 8.03000 767.79175 749.44233 0.00133
1508 8.03500 810.31510 793.48157 0.00126
1509 8.04000 850.29463 837.34456 0.00119
1510 8.04500 872.12483 858.56173 0.00116
1511 8.05000 856.48290 842.76356 0.00119
1512 8.05500 812.74367 801.76466 0.00125
1513 8.06000 770.78977 759.80066 0.00132
1514 8.06500 750.17990 739.96615 0.00135
1515 8.07000 757.28681 754.56998 0.00133
1516 8.07500 791.24484 809.43267 0.00124
1517 8.08000 846.34274 900.48189 0.00111
1518 8.08500 913.05102 1004.23560 0.00100
1519 8.09000 970.37768 1082.57140 0.00092
1520 8.09500 983.08708 1089.00690 0.00092
1521 8.10000 938.66684 1020.35410 0.00098
1522 8.10500 864.29023 910.78718 0.00110
1523 8.11000 787.01136 805.36957 0.00124
1524 8.11500 719.63932 723.57151 0.00138
1525 8.12000 668.79624 669.01788 0.00149
1526 8.12500 635.98299 632.34965 0.00158
1527 8.13000 619.63188 616.67648 0.00162
1528 8.13500 617.83735 615.81151 0.00162
1529 8.14000 629.01779 630.35083 0.00159
1530 8.14500 650.91047 657.53935 0.00152
1531 8.15000 678.42237 692.85162 0.00144
1532 8.15500 701.26966 722.80048 0.00138
1533 8.16000 705.84082 728.04570 0.00137
1534 8.16500 687.63407 707.73911 0.00141
1535 8.17000 657.44065 674.94563 0.00148
1536 8.17500 628.62599 642.35035 0.00156
1537 8.18000 605.45503 613.28826 0.00163
1538 8.18500 585.28484 589.53184 0.00170
1539 8.19000 566.50389 571.15296 0.00175
1540 8.19500 550.41137 557.54033 0.00179
1541 8.20000 537.93822 544.39668 0.00184
1542 8.20500 529.03353 535.84238 0.00187
1543 8.21000 523.25681 533.26707 0.00188
1544 8.21500 520.11083 529.58384 0.00189
1545 8.22000 519.23179 528.49714 0.00189
1546 8.22500 520.56076 528.43722 0.00189
1547 8.23000 524.23096 530.76118 0.00188
1548 8.23500 530.56999 535.93693 0.00187
1549 8.24000 539.92818 545.64521 0.00183
1550 8.24500 552.10087 559.42867 0.00179
1551 8.25000 566.03442 573.66385 0.00174
1552 8.25500 581.01752 588.02889 0.00170
1553 8.26000 598.18314 605.27020 0.00165
1554 8.26500 618.23721 623.75052 0.00160
1555 8.27000 639.94765 642.41445 0.00156
1556 8.27500 664.77161 666.19419 0.00150
1557 8.28000 695.27944 693.93309 0.00144
1558 8.28500 726.89751 723.91906 0.00138
1559 8.29000 746.13795 747.04551 0.00134
1560 8.29500 742.37034 753.66873 0.00133
1561 8.30000 724.48619 747.03714 0.00134
1562 8.30500 710.58074 741.62138 0.00135
1563 8.31000 711.77508 744.75250 0.00134
1564 8.31500 731.57031 766.32789 0.00130
1565 8.32000 764.80447 797.30380 0.00125
1566 8.32500 793.62448 822.01612 0.00122
1567 8.33000 797.25418 821.49595 0.00122
1568 8.33500 775.24884 799.80042 0.00125
1569 8.34000 741.33896 761.65881 0.00131
1570 8.34500 705.62606 717.53147 0.00139
1571 8.35000 674.57919 676.54329 0.00148
1572 8.35500 650.64453 646.12845 0.00155
1573 8.36000 631.53319 621.80785 0.00161
1574 8.36500 613.96941 604.63780 0.00165
1575 8.37000 598.22142 591.43147 0.00169
1576 8.37500 586.95633 580.24889 0.00172
1577 8.38000 581.55085 576.70291 0.00173
1578 8.38500 581.90518 577.88555 0.00173
1579 8.39000 587.64889 581.28731 0.00172
1580 8.39500 598.32563 589.18364 0.00170
1581 8.40000 614.33591 601.09057 0.00166
1582 8.40500 637.73066 616.83639 0.00162
1583 8.41000 670.28332 644.85032 0.00155
1584 8.41500 713.03670 683.86108 0.00146
1585 8.42000 769.98994 747.18533 0.00134
1586 8.42500 846.34306 840.29644 0.00119
1587 8.43000 936.55949 942.45792 0.00106
1588 8.43500 1010.53015 1012.55260 0.00099
1589 8.44000 1022.76989 1017.64980 0.00098
1590 8.44500 964.32950 953.33047 0.00105
1591 8.45000 876.28662 858.22542 0.00117
1592 8.45500 798.23467 772.43217 0.00129
1593 8.46000 745.57409 718.31523 0.00139
1594 8.46500 719.56762 698.99591 0.00143
1595 8.47000 717.21314 702.72211 0.00142
1596 8.47500 735.20466 730.09734 0.00137
1597 8.48000 767.88698 770.32787 0.00130
1598 8.48500 801.89961 810.64610 0.00123
1599 8.49000 815.97057 826.67479 0.00121
1600 8.49500 796.64834 809.67589 0.00124
1601 8.50000 755.23994 762.29652 0.00131
1602 8.50500 713.88292 712.08254 0.00140
1603 8.51000 685.26954 677.88968 0.00148
1604 8.51500 672.14902 659.66130 0.00152
1605 8.52000 674.16982 657.98889 0.00152
1606 8.52500 692.09552 673.82560 0.00148
1607 8.53000 726.82504 704.73418 0.00142
1608 8.53500 775.10228 751.03983 0.00133
1609 8.54000 823.85298 802.32936 0.00125
1610 8.54500 854.32916 842.76379 0.00119
1611 8.55000 863.87489 861.67054 0.00116
1612 8.55500 866.87625 870.91990 0.00115
1613 8.56000 868.76825 873.04507 0.00115
1614 8.56500 864.32036 868.68543 0.00115
1615 8.57000 855.37889 865.75844 0.00116
1616 8.57500 849.38629 865.48962 0.00116
1617 8.58000 848.10857 862.66379 0.00116
1618 8.58500 845.33992 854.30953 0.00117
1619 8.59000 834.37760 839.32449 0.00119
1620 8.59500 814.79690 813.38062 0.00123
1621 8.60000 793.23991 785.05415 0.00127
1622 8.60500 776.00831 761.53807 0.00131
1623 8.61000 763.06121 743.49060 0.00135
1624 8.61500 753.56031 730.11653 0.00137
1625 8.62000 745.72317 719.50361 0.00139
1626 8.62500 733.56089 703.08129 0.00142
1627 8.63000 712.96764 681.95963 0.00147
1628 8.63500 684.31209 658.85381 0.00152
1629 8.64000 652.87073 634.37171 0.00158
1630 8.64500 624.13615 608.42009 0.00164
1631 8.65000 599.42185 587.82238 0.00170
1632 8.65500 579.50908 569.64343 0.00176
1633 8.66000 566.15535 558.61232 0.00179
1634 8.66500 560.00469 553.07969 0.00181
1635 8.67000 559.87007 555.48204 0.00180
1636 8.67500 562.80135 561.18161 0.00178
1637 8.68000 565.48742 567.61262 0.00176
1638 8.68500 566.28568 570.15594 0.00175
1639 8.69000 563.36905 570.39895 0.00175
1640 8.69500 554.74603 558.71064 0.00179
1641 8.70000 542.51707 543.04072 0.00184
1642 8.70500 530.95891 531.07324 0.00188
1643 8.71000 522.13990 521.22010 0.00192
1644 8.71500 515.69994 512.58881 0.00195
1645 8.72000 510.79789 508.75279 0.00197
1646 8.72500 507.32954 506.29079 0.00198
1647 8.73000 505.53165 506.24852 0.00198
1648 8.73500 505.38127 508.57245 0.00197
1649 8.74000 506.97449 510.48892 0.00196
1650 8.74500 510.75602 509.55528 0.00196
1651 8.75000 517.46110 514.03739 0.00195
1652 8.75500 528.10752 522.62280 0.00191
1653 8.76000 543.90914 537.16144 0.00186
1654 8.76500 566.09868 556.12005 0.00180
1655 8.77000 595.12559 580.47621 0.00172
1656 8.77500 629.65215 610.50628 0.00164
1657 8.78000 666.35613 645.62247 0.00155
1658 8.78500 700.73210 678.95289 0.00147
1659 8.79000 727.91053 707.02073 0.00141
1660 8.79500 743.27431 724.35577 0.00138
1661 8.80000 747.62442 730.79978 0.00137
1662 8.80500 749.07770 734.71260 0.00136
1663 8.81000 753.75721 741.77661 0.00135
1664 8.81500 761.93492 752.90310 0.00133
1665 8.82000 767.37602 762.08030 0.00131
1666 8.82500 760.37963 758.88298 0.00132
1667 8.83000 738.68017 739.82955 0.00135
1668 8.83500 708.44012 703.50508 0.00142
1669 8.84000 676.52750 665.63614 0.00150
1670 8.84500 649.32084 636.49690 0.00157
1671 8.85000 632.50448 619.53928 0.00161
1672 8.85500 629.63224 614.05431 0.00163
1673 8.86000 641.96018 624.17747 0.00160
1674 8.86500 668.02514 645.20548 0.00155
1675 8.87000 700.89249 674.38858 0.00148
1676 8.87500 725.38917 697.81669 0.00143
1677 8.88000 727.49800 707.75458 0.00141
1678 8.88500 711.50084 706.45958 0.00142
1679 8.89000 692.16385 699.49188 0.00143
1680 8.89500 675.24959 686.18087 0.00146
1681 8.90000 655.47545 666.01243 0.00150
1682 8.90500 628.15422 641.24557 0.00156
1683 8.91000 597.06491 610.91525 0.00164
1684 8.91500 569.02365 577.72148 0.00173
1685 8.92000 547.52649 553.43869 0.00181
1686 8.92500 532.88092 533.16977 0.00188
1687 8.93000 524.22080 523.11102 0.00191
1688 8.93500 520.50569 518.75491 0.00193
1689 8.94000 520.69679 517.39670 0.00193
1690 8.94500 523.60337 520.26221 0.00192
1691 8.95000 528.08332 523.12083 0.00191
1692 8.95500 534.39298 530.87296 0.00188
1693 8.96000 544.38049 544.30555 0.00184
1694 8.96500 559.69733 560.38559 0.00178
1695 8.97000 580.65196 582.65687 0.00172
1696 8.97500 606.34547 608.12664 0.00164
1697 8.98000 633.98209 632.62422 0.00158
1698 8.98500 657.32525 653.52599 0.00153
1699 8.99000 668.46694 665.73352 0.00150
1700 8.99500 663.72362 661.13265 0.00151
1701 9.00000 648.03429 646.93346 0.00155
1702 9.00500 630.81797 625.12844 0.00160
1703 9.01000 616.60199 604.78559 0.00165
1704 9.01500 603.29308 588.52634 0.00170
1705 9.02000 589.21299 575.44168 0.00174
1706 9.02500 577.52794 569.18440 0.00176
1707 9.03000 572.56986 567.54199 0.00176
1708 9.03500 576.69890 571.95387 0.00175
1709 9.04000 590.36793 588.56495 0.00170
1710 9.04500 612.25165 609.88505 0.00164
1711 9.05000 638.52334 638.64210 0.00157
1712 9.05500 662.74745 668.19836 0.00150
1713 9.06000 677.67511 696.89836 0.00143
1714 9.06500 679.29248 710.66509 0.00141
1715 9.07000 669.70713 713.15650 0.00140
1716 9.07500 652.64777 701.56362 0.00143
1717 9.08000 631.47610 676.75846 0.00148
1718 9.08500 611.30405 644.65931 0.00155
1719 9.09000 596.56356 614.18663 0.00163
1720 9.09500 590.07772 593.72732 0.00168
1721 9.10000 594.08806 585.11252 0.00171
1722 9.10500 610.08739 591.55907 0.00169
1723 9.11000 638.21922 613.06012 0.00163
1724 9.11500 675.31625 642.23453 0.00156
1725 9.12000 711.31994 671.85438 0.00149
1726 9.12500 730.39017 696.63990 0.00144
1727 9.13000 723.22075 702.73499 0.00142
1728 9.13500 695.78084 688.83562 0.00145
1729 9.14000 660.02902 658.96234 0.00152
1730 9.14500 624.03035 623.54734 0.00160
1731 9.15000 592.38815 593.38558 0.00169
1732 9.15500 567.34984 565.71297 0.00177
1733 9.16000 549.47292 546.88684 0.00183
1734 9.16500 538.45277 539.30856 0.00185
1735 9.17000 533.12733 536.29214 0.00186
1736 9.17500 531.26790 537.69707 0.00186
1737 9.18000 530.14820 541.07651 0.00185
1738 9.18500 528.52635 541.16507 0.00185
1739 9.19000 527.36020 540.99890 0.00185
1740 9.19500 527.55948 542.73347 0.00184
1741 9.20000 529.36750 543.42967 0.00184
1742 9.20500 533.87454 545.16517 0.00183
1743 9.21000 542.87427 553.24626 0.00181
1744 9.21500 557.29810 568.89135 0.00176
1745 9.22000 576.02125 590.23842 0.00169
1746 9.22500 595.44726 611.63382 0.00163
1747 9.23000 611.85150 629.57259 0.00159
1748 9.23500 623.98569 646.08939 0.00155
1749 9.24000 631.61011 658.50661 0.00152
1750 9.24500 636.86689 664.05396 0.00151
1751 9.25000 645.45271 671.97492 0.00149
1752 9.25500 660.74530 682.91779 0.00146
1753 9.26000 680.42830 695.88421 0.00144
1754 9.26500 700.05794 713.92300 0.00140
1755 9.27000 716.77604 729.26756 0.00137
1756 9.27500 726.51437 734.58477 0.00136
1757 9.28000 723.63904 721.34383 0.00139
1758 9.28500 710.67766 697.61864 0.00143
1759 9.29000 698.81028 674.57375 0.00148
1760 9.29500 695.94448 659.50003 0.00152
1761 9.30000 699.94310 655.44864 0.00153
1762 9.30500 700.16654 659.45243 0.00152
1763 9.31000 688.23659 658.01351 0.00152
1764 9.31500 668.85669 655.61291 0.00153
1765 9.32000 652.48121 651.35733 0.00154
1766 9.32500 643.75390 647.86946 0.00154
1767 9.33000 640.40062 646.42319 0.00155
1768 9.33500 637.89756 646.66211 0.00155
1769 9.34000 633.26844 645.40100 0.00155
1770 9.34500 626.06243 645.57004 0.00155
1771 9.35000 616.63870 640.89119 0.00156
1772 9.35500 604.30463 629.02620 0.00159
1773 9.36000 587.95623 609.66476 0.00164
1774 9.36500 567.72877 586.29486 0.00171
1775 9.37000 546.43509 561.93299 0.00178
1776 9.37500 527.68726 542.33715 0.00184
1777 9.38000 513.17514 525.05763 0.00190
1778 9.38500 502.92023 512.05313 0.00195
1779 9.39000 496.29027 505.45901 0.00198
1780 9.39500 492.61964 501.57860 0.00199
1781 9.40000 491.44387 499.35315 0.00200
1782 9.40500 492.62695 499.09188 0.00200
1783 9.41000 496.35306 502.44714 0.00199
1784 9.41500 503.13210 505.86600 0.00198
1785 9.42000 513.79839 515.31330 0.00194
1786 9.42500 529.34745 532.10596 0.00188
1787 9.43000 550.60406 553.21091 0.00181
1788 9.43500 577.30374 582.85670 0.00172
1789 9.44000 606.37623 617.86538 0.00162
1790 9.44500 631.27220 647.11965 0.00155
1791 9.45000 645.42581 661.82355 0.00151
1792 9.45500 647.89314 662.10272 0.00151
1793 9.46000 644.02023 649.60635 0.00154
1794 9.46500 639.12705 633.86471 0.00158
1795 9.47000 634.09264 617.68846 0.00162
1796 9.47500 627.75602 603.95366 0.00166
1797 9.48000 621.68621 596.96702 0.00168
1798 9.48500 620.92460 595.54684 0.00168
1799 9.49000 630.83466 603.88936 0.00166
1800 9.49500 654.72078 631.14931 0.00158
1801 9.50000 693.18114 677.33342 0.00148
1802 9.50500 742.82923 740.27818 0.00135
1803 9.51000 794.22377 800.32597 0.00125
1804 9.51500 833.20631 844.64460 0.00118
1805 9.52000 850.08728 858.78924 0.00116
1806 9.52500 845.83667 848.54661 0.00118
1807 9.53000 828.19211 826.74553 0.00121
1808 9.53500 806.48809 801.33800 0.00125
1809 9.54000 786.67930 782.99231 0.00128
1810 9.54500 770.65504 768.18655 0.00130
1811 9.55000 758.33000 754.07533 0.00133
1812 9.55500 745.94273 736.00936 0.00136
1813 9.56000 726.15372 709.36106 0.00141
1814 9.56500 696.21959 678.24902 0.00147
1815 9.57000 662.21791 643.21875 0.00155
1816 9.57500 630.29632 610.79128 0.00164
1817 9.58000 601.40426 581.01277 0.00172
1818 9.58500 575.11954 556.35248 0.00180
1819 9.59000 552.46217 538.93527 0.00186
1820 9.59500 534.51120 525.88331 0.00190
1821 9.60000 521.40164 515.42804 0.00194
1822 9.60500 512.91221 507.90374 0.00197
1823 9.61000 508.80561 510.28030 0.00196
1824 9.61500 508.77667 512.80816 0.00195
1825 9.62000 512.37150 519.17787 0.00193
1826 9.62500 518.55353 530.87832 0.00188
1827 9.63000 525.58809 543.20229 0.00184
1828 9.63500 531.52952 553.27868 0.00181
1829 9.64000 535.39695 559.40500 0.00179
1830 9.64500 538.32848 563.43580 0.00177
1831 9.65000 543.06765 566.64742 0.00176
1832 9.65500 551.76800 574.42225 0.00174
1833 9.66000 564.07055 588.20364 0.00170
1834 9.66500 576.13705 606.63006 0.00165
1835 9.67000 582.26741 615.31843 0.00163
1836 9.67500 578.96034 614.25046 0.00163
1837 9.68000 567.52149 601.92072 0.00166
1838 9.68500 552.81574 581.72578 0.00172
1839 9.69000 539.78974 562.42725 0.00178
1840 9.69500 531.47779 547.54347 0.00183
1841 9.70000 529.42548 539.08661 0.00185
1842 9.70500 534.17999 538.58551 0.00186
1843 9.71000 545.48246 548.47687 0.00182
1844 9.71500 561.97104 565.31939 0.00177
1845 9.72000 579.79008 582.62655 0.00172
1846 9.72500 591.99106 597.15297 0.00167
1847 9.73000 592.29360 601.00923 0.00166
1848 9.73500 580.31912 589.97907 0.00169
1849 9.74000 561.58630 569.44010 0.00176
1850 9.74500 542.97457 548.09247 0.00182
1851 9.75000 528.89381 532.16108 0.00188
1852 9.75500 520.82699 523.40109 0.00191
1853 9.76000 518.44982 522.10533 0.00192
1854 9.76500 520.10205 525.95574 0.00190
1855 9.77000 522.78239 530.30525 0.00189
1856 9.77500 523.41036 534.24692 0.00187
1857 9.78000 521.56648 531.55906 0.00188
1858 9.78500 519.80890 526.22542 0.00190
1859 9.79000 521.14817 520.72949 0.00192
1860 9.79500 527.43644 525.71381 0.00190
1861 9.80000 539.22366 537.38948 0.00186
1862 9.80500 555.63495 553.98245 0.00181
1863 9.81000 574.15295 577.60435 0.00173
1864 9.81500 591.32877 598.71468 0.00167
1865 9.82000 605.01369 622.23020 0.00161
1866 9.82500 615.01991 642.48664 0.00156
1867 9.83000 620.62289 651.77740 0.00153
1868 9.83500 620.08268 649.31201 0.00154
1869 9.84000 614.19577 631.95830 0.00158
1870 9.84500 607.35257 612.96087 0.00163
1871 9.85000 603.99198 599.93889 0.00167
1872 9.85500 605.10665 593.76040 0.00168
1873 9.86000 607.24043 591.66828 0.00169
1874 9.86500 605.56453 586.87541 0.00170
1875 9.87000 599.55741 583.14988 0.00171
1876 9.87500 593.18794 577.54719 0.00173
1877 9.88000 590.08173 576.23330 0.00174
1878 9.88500 591.73408 578.92734 0.00173
1879 9.89000 597.04655 583.49299 0.00171
1880 9.89500 601.23417 590.48956 0.00169
1881 9.90000 598.71406 592.75588 0.00169
1882 9.90500 589.42106 581.35530 0.00172
1883 9.91000 578.55936 568.72727 0.00176
1884 9.91500 570.96968 558.32241 0.00179
1885 9.92000 569.54793 553.02542 0.00181
1886 9.92500 576.22341 557.40445 0.00179
1887 9.93000 592.19487 570.34024 0.00175
1888 9.93500 617.27302 594.57527 0.00168
1889 9.94000 648.32858 624.67283 0.00160
1890 9.94500 677.67317 657.04278 0.00152
1891 9.95000 696.01285 681.08544 0.00147
1892 9.95500 700.81801 691.80175 0.00145
1893 9.96000 698.72284 688.91907 0.00145
1894 9.96500 697.68494 684.36091 0.00146
1895 9.97000 701.36347 683.95866 0.00146
1896 9.97500 708.50459 693.45413 0.00144
1897 9.98000 713.92634 701.95446 0.00142
1898 9.98500 712.66592 703.27795 0.00142
1899 9.99000 704.54368 696.72544 0.00144
1900 9.99500 693.69539 682.61105 0.00146
1901 10.00000 683.05573 666.62908 0.00150
1902 10.00500 670.97213 651.12343 0.00154
1903 10.01000 654.03994 633.58327 0.00158
1904 10.01500 631.85397 611.54392 0.00164
1905 10.02000 608.57358 590.54446 0.00169
1906 10.02500 589.48326 572.80780 0.00175
1907 10.03000 577.06900 563.65266 0.00177
1908 10.03500 570.76125 557.11482 0.00179
1909 10.04000 568.84856 557.13978 0.00179
1910 10.04500 570.45846 558.17187 0.00179
1911 10.05000 576.14507 563.41274 0.00177
1912 10.05500 586.02772 578.41296 0.00173
1913 10.06000 597.13798 590.67306 0.00169
1914 10.06500 603.80412 597.04777 0.00167
1915 10.07000 602.20869 595.51548 0.00168
1916 10.07500 593.19081 587.78105 0.00170
1917 10.08000 579.75725 576.32631 0.00174
1918 10.08500 564.93876 565.40043 0.00177
1919 10.09000 550.80922 555.04896 0.00180
1920 10.09500 537.27087 544.77984 0.00184
1921 10.10000 523.13968 529.55089 0.00189
1922 10.10500 508.93158 515.04191 0.00194
1923 10.11000 496.69526 501.84451 0.00199
1924 10.11500 487.92406 488.85049 0.00205
1925 10.12000 482.93844 483.83223 0.00207
1926 10.12500 481.21089 484.06534 0.00207
1927 10.13000 481.56602 485.64823 0.00206
1928 10.13500 482.41255 489.18629 0.00204
1929 10.14000 482.72580 489.00906 0.00204
1930 10.14500 482.71142 487.58275 0.00205
1931 10.15000 483.15073 488.60364 0.00205
1932 10.15500 484.44048 486.70775 0.00205
1933 10.16000 486.50647 487.94409 0.00205
1934 10.16500 488.73759 490.47324 0.00204
1935 10.17000 489.64368 492.87753 0.00203
1936 10.17500 487.81830 495.15395 0.00202
1937 10.18000 483.57748 491.89548 0.00203
1938 10.18500 478.42656 488.89846 0.00205
1939 10.19000 473.65814 482.45953 0.00207
1940 10.19500 469.88767 477.67014 0.00209
1941 10.20000 466.96807 473.37787 0.00211
1942 10.20500 463.87249 472.43534 0.00212
1943 10.21000 459.77013 470.31965 0.00213
1944 10.21500 455.06347 467.69599 0.00214
1945 10.22000 450.91208 461.48137 0.00217
1946 10.22500 448.16337 456.32042 0.00219
1947 10.23000 447.19181 454.35192 0.00220
1948 10.23500 448.17325 453.27301 0.00221
1949 10.24000 451.18880 457.86015 0.00218
1950 10.24500 456.28246 463.09720 0.00216
1951 10.25000 463.19868 470.71664 0.00212
1952 10.25500 471.03932 478.32983 0.00209
1953 10.26000 478.12714 486.61535 0.00206
1954 10.26500 482.89629 493.54873 0.00203
1955 10.27000 484.99322 494.80137 0.00202
1956 10.27500 485.39071 491.65537 0.00203
1957 10.28000 486.05453 490.26640 0.00204
1958 10.28500 489.16698 487.90088 0.00205
1959 10.29000 496.23965 493.94015 0.00202
1960 10.29500 507.57272 505.80882 0.00198
1961 10.30000 522.00120 516.12971 0.00194
1962 10.30500 536.91234 530.08639 0.00189
1963 10.31000 549.77336 539.72612 0.00185
1964 10.31500 560.19612 546.91262 0.00183
1965 10.32000 569.02598 555.83464 0.00180
1966 10.32500 575.79913 559.54455 0.00179
1967 10.33000 578.60168 565.33706 0.00177
1968 10.33500 575.99302 566.33713 0.00177
1969 10.34000 568.96321 561.23206 0.00178
1970 10.34500 560.66565 551.23354 0.00181
1971 10.35000 554.48440 539.73706 0.00185
1972 10.35500 552.22706 534.46338 0.00187
1973 10.36000 553.53113 532.34978 0.00188
1974 10.36500 556.33218 528.88322 0.00189
1975 10.37000 557.11690 529.29204 0.00189
1976 10.37500 552.54731 528.16624 0.00189
1977 10.38000 542.67355 523.00483 0.00191
1978 10.38500 531.16742 516.31385 0.00194
1979 10.39000 521.99698 512.08687 0.00195
1980 10.39500 516.87540 514.56425 0.00194
1981 10.40000 514.87570 520.47150 0.00192
1982 10.40500 513.11647 522.85861 0.00191
1983 10.41000 508.63840 519.85959 0.00192
1984 10.41500 500.99671 512.78032 0.00195
1985 10.42000 492.54114 500.86874 0.00200
1986 10.42500 485.89175 488.18117 0.00205
1987 10.43000 482.12742 482.65973 0.00207
1988 10.43500 480.56366 485.17427 0.00206
1989 10.44000 479.14529 485.60418 0.00206
1990 10.44500 475.77755 485.23139 0.00206
1991 10.45000 470.10368 484.22339 0.00207
1992 10.45500 463.55966 477.33282 0.00209
1993 10.46000 457.83597 470.12878 0.00213
1994 10.46500 453.88382 464.96267 0.00215
1995 10.47000 451.97736 458.09482 0.00218
1996 10.47500 451.99928 452.92453 0.00221
1997 10.48000 453.45104 448.66088 0.00223
1998 10.48500 455.37437 449.90013 0.00222
1999 10.49000 456.87559 448.51432 0.00223
2000 10.49500 457.82904 447.29371 0.00224
2001 10.50000 458.88026 450.22190 0.00222
2002 10.50500 460.77312 457.09246 0.00219
2003 10.51000 463.76035 462.36748 0.00216
2004 10.51500 467.62710 465.77559 0.00215
2005 10.52000 472.14485 470.06717 0.00213
2006 10.52500 477.34319 474.20958 0.00211
2007 10.53000 483.38854 479.25156 0.00209
2008 10.53500 490.05770 479.37360 0.00209
2009 10.54000 496.08985 481.10753 0.00208
2010 10.54500 500.00663 487.20216 0.00205
2011 10.55000 501.72014 489.61991 0.00204
2012 10.55500 502.17029 491.78558 0.00203
2013 10.56000 501.90712 492.18974 0.00203
2014 10.56500 501.53093 492.35241 0.00203
2015 10.57000 502.53322 495.33757 0.00202
2016 10.57500 506.29508 503.88722 0.00198
2017 10.58000 512.61435 511.86466 0.00195
2018 10.58500 520.18696 521.52580 0.00192
2019 10.59000 528.22045 530.46913 0.00189
2020 10.59500 536.66171 538.50352 0.00186
2021 10.60000 544.80582 545.62707 0.00183
2022 10.60500 550.60683 552.09373 0.00181
2023 10.61000 551.72883 560.67300 0.00178
2024 10.61500 547.59093 562.39506 0.00178
2025 10.62000 539.37869 552.25904 0.00181
2026 10.62500 528.31566 537.53557 0.00186
2027 10.63000 515.73378 520.04828 0.00192
2028 10.63500 503.68483 504.22100 0.00198
2029 10.64000 493.86179 489.15949 0.00204
2030 10.64500 486.67632 480.21746 0.00208
2031 10.65000 481.92741 480.44185 0.00208
2032 10.65500 479.66389 480.29546 0.00208
2033 10.66000 479.83598 480.69976 0.00208
2034 10.66500 481.53653 483.58775 0.00207
2035 10.67000 483.32882 485.76977 0.00206
2036 10.67500 484.65562 485.22299 0.00206
2037 10.68000 486.45850 485.44085 0.00206
2038 10.68500 489.97939 489.59179 0.00204
2039 10.69000 495.38367 492.71995 0.00203
2040 10.69500 501.67068 498.92639 0.00200
2041 10.70000 507.93803 504.72192 0.00198
2042 10.70500 514.50527 512.84936 0.00195
2043 10.71000 522.24481 523.77909 0.00191
2044 10.71500 531.39185 537.54466 0.00186
2045 10.72000 540.96203 556.67000 0.00180
2046 10.72500 548.45587 571.47194 0.00175
2047 10.73000 550.60240 578.60196 0.00173
2048 10.73500 545.90636 570.61681 0.00175
2049 10.74000 536.31121 556.61284 0.00180
2050 10.74500 524.85358 537.13549 0.00186
2051 10.75000 512.68914 522.20096 0.00191
2052 10.75500 499.43773 504.34366 0.00198
2053 10.76000 485.26011 490.43817 0.00204
2054 10.76500 471.41204 477.67993 0.00209
2055 10.77000 459.25258 461.38956 0.00217
2056 10.77500 449.66342 448.16453 0.00223
2057 10.78000 443.05694 441.92530 0.00226
2058 10.78500 439.46928 438.73274 0.00228
2059 10.79000 438.78262 440.42991 0.00227
2060 10.79500 440.75947 439.70037 0.00227
2061 10.80000 445.05402 448.56822 0.00223
2062 10.80500 451.06658 455.76172 0.00219
2063 10.81000 457.79161 459.84403 0.00217
2064 10.81500 464.38038 460.59259 0.00217
2065 10.82000 471.18843 465.19506 0.00215
2066 10.82500 479.55265 469.84064 0.00213
2067 10.83000 490.16726 478.41474 0.00209
2068 10.83500 502.03362 488.92267 0.00205
2069 10.84000 512.89205 498.20403 0.00201
2070 10.84500 520.64770 508.50021 0.00197
2071 10.85000 524.61823 518.14559 0.00193
2072 10.85500 525.62802 520.86874 0.00192
2073 10.86000 524.84590 527.54294 0.00190
2074 10.86500 522.83850 528.96376 0.00189
2075 10.87000 519.27368 524.85072 0.00191
2076 10.87500 513.58289 518.31098 0.00193
2077 10.88000 506.10142 514.51391 0.00194
2078 10.88500 498.15292 505.22939 0.00198
2079 10.89000 491.34856 496.49018 0.00201
2080 10.89500 486.84449 490.94450 0.00204
2081 10.90000 485.03148 488.26964 0.00205
2082 10.90500 485.93709 486.32061 0.00206
2083 10.91000 489.29697 487.71458 0.00205
2084 10.91500 494.32657 495.21146 0.00202
2085 10.92000 500.03539 503.84084 0.00198
2086 10.92500 505.54615 513.23086 0.00195
2087 10.93000 509.58940 516.71083 0.00194
2088 10.93500 510.53548 518.02489 0.00193
2089 10.94000 507.90934 512.43862 0.00195
2090 10.94500 502.60958 503.25329 0.00199
2091 10.95000 495.36199 498.47716 0.00201
2092 10.95500 486.53120 486.55303 0.00206
2093 10.96000 477.04669 477.63067 0.00209
2094 10.96500 468.15701 467.40501 0.00214
2095 10.97000 460.62363 457.85428 0.00218
2096 10.97500 454.63787 455.70170 0.00219
2097 10.98000 450.21205 448.72780 0.00223
2098 10.98500 447.34246 452.85511 0.00221
2099 10.99000 445.83957 452.18709 0.00221
2100 10.99500 445.10087 456.08200 0.00219
2101 11.00000 444.10213 456.06619 0.00219
2102 11.00500 441.98454 450.14304 0.00222
2103 11.01000 438.90130 448.41165 0.00223
2104 11.01500 436.06539 445.42758 0.00225
2105 11.02000 434.93760 442.40367 0.00226
2106 11.02500 436.56588 440.77753 0.00227
2107 11.03000 441.53443 447.04999 0.00224
2108 11.03500 450.15201 454.08162 0.00220
2109 11.04000 462.39607 463.73913 0.00216
2110 11.04500 477.57630 477.61227 0.00209
2111 11.05000 493.96549 492.57006 0.00203
2112 11.05500 509.46972 508.11889 0.00197
2113 11.06000 522.76197 520.61094 0.00192
2114 11.06500 533.20205 525.07222 0.00190
2115 11.07000 539.47520 533.01370 0.00188
2116 11.07500 539.50236 537.04329 0.00186
2117 11.08000 532.48825 534.85683 0.00187
2118 11.08500 520.59559 523.38994 0.00191
2119 11.09000 507.47871 510.38444 0.00196
2120 11.09500 495.97353 491.91356 0.00203
2121 11.10000 487.55305 479.16023 0.00209
2122 11.10500 482.93488 475.42921 0.00210
2123 11.11000 482.43106 475.01015 0.00211
2124 11.11500 485.94337 483.93246 0.00207
2125 11.12000 492.59307 496.64748 0.00201
2126 11.12500 500.36853 506.19886 0.00198
2127 11.13000 506.58587 514.82946 0.00194
2128 11.13500 508.95669 515.06206 0.00194
2129 11.14000 506.30815 509.55127 0.00196
2130 11.14500 498.84983 501.97201 0.00199
2131 11.15000 488.50700 488.05083 0.00205
2132 11.15500 478.29976 469.60490 0.00213
2133 11.16000 470.69661 459.22038 0.00218
2134 11.16500 466.57926 454.05487 0.00220
2135 11.17000 465.47243 455.50257 0.00220
2136 11.17500 466.28090 462.29960 0.00216
2137 11.18000 467.72622 461.29188 0.00217
2138 11.18500 468.78496 462.83127 0.00216
2139 11.19000 469.48215 465.44133 0.00215
2140 11.19500 470.84588 460.79837 0.00217
2141 11.20000 473.97584 459.85925 0.00217
2142 11.20500 479.53783 469.11508 0.00213
2143 11.21000 487.49991 475.96760 0.00210
2144 11.21500 496.67298 485.75478 0.00206
2145 11.22000 504.44720 499.96860 0.00200
2146 11.22500 507.53392 504.67402 0.00198
2147 11.23000 504.22546 500.48619 0.00200
2148 11.23500 495.80782 488.10393 0.00205
2149 11.24000 485.21200 474.23448 0.00211
2150 11.24500 474.95581 463.96951 0.00216
2151 11.25000 466.18116 452.21113 0.00221
2152 11.25500 458.87137 451.22569 0.00222
2153 11.26000 452.66483 442.72087 0.00226
2154 11.26500 447.67013 441.54455 0.00226
2155 11.27000 444.64871 443.07925 0.00226
2156 11.27500 444.51739 442.74080 0.00226
2157 11.28000 447.72063 444.87468 0.00225
2158 11.28500 453.67156 452.52109 0.00221
2159 11.29000 460.53960 463.37788 0.00216
2160 11.29500 465.74578 473.38563 0.00211
2161 11.30000 467.21295 475.76357 0.00210
2162 11.30500 464.32953 473.32939 0.00211
2163 11.31000 457.96754 466.24519 0.00214
2164 11.31500 449.78632 460.39933 0.00217
2165 11.32000 441.46819 449.31580 0.00223
2166 11.32500 434.12846 443.26227 0.00226
2167 11.33000 428.21524 434.74048 0.00230
2168 11.33500 423.62137 435.18488 0.00230
2169 11.34000 419.88270 429.24314 0.00233
2170 11.34500 416.59432 420.83359 0.00238
2171 11.35000 413.83835 420.25093 0.00238
2172 11.35500 412.18127 419.67008 0.00238
2173 11.36000 411.94395 418.66214 0.00239
2174 11.36500 412.72240 419.74844 0.00238
2175 11.37000 413.50977 419.77635 0.00238
2176 11.37500 413.44362 413.94081 0.00242
2177 11.38000 412.31797 414.24364 0.00241
2178 11.38500 410.52930 420.10406 0.00238
2179 11.39000 408.42583 418.96666 0.00239
2180 11.39500 406.09349 416.78032 0.00240
2181 11.40000 403.73352 409.51159 0.00244
2182 11.40500 401.70599 411.97304 0.00243
2183 11.41000 400.14422 413.17602 0.00242
2184 11.41500 398.93964 415.73021 0.00241
2185 11.42000 398.07581 414.47003 0.00241
2186 11.42500 397.77088 409.86894 0.00244
2187 11.43000 398.44210 407.68340 0.00245
2188 11.43500 400.66608 407.07167 0.00246
2189 11.44000 405.03406 405.76406 0.00246
2190 11.44500 412.01235 411.12795 0.00243
2191 11.45000 421.95707 416.70050 0.00240
2192 11.45500 435.09650 427.36466 0.00234
2193 11.46000 451.30140 439.74529 0.00227
2194 11.46500 469.62500 453.59193 0.00220
2195 11.47000 487.62293 473.25046 0.00211
2196 11.47500 501.26795 481.20349 0.00208
2197 11.48000 507.20197 482.14893 0.00207
2198 11.48500 505.90591 479.93200 0.00208
2199 11.49000 501.25960 472.94149 0.00211
2200 11.49500 496.84471 472.13921 0.00212
2201 11.50000 493.64629 472.52495 0.00212
2202 11.50500 490.73385 469.35465 0.00213
2203 11.51000 486.97998 478.72075 0.00209
2204 11.51500 481.69161 480.04867 0.00208
2205 11.52000 474.66953 466.97793 0.00214
2206 11.52500 466.84582 464.13851 0.00215
2207 11.53000 459.92085 454.62168 0.00220
2208 11.53500 454.95140 447.07959 0.00224
2209 11.54000 451.79779 447.16587 0.00224
2210 11.54500 449.86197 447.42028 0.00224
2211 11.55000 448.89389 452.88365 0.00221
2212 11.55500 448.86826 455.74809 0.00219
2213 11.56000 449.36219 458.58845 0.00218
2214 11.56500 449.51103 460.18341 0.00217
2215 11.57000 448.69502 464.83091 0.00215
2216 11.57500 447.08962 463.95158 0.00216
2217 11.58000 445.69414 460.50777 0.00217
2218 11.58500 445.91952 455.81324 0.00219
2219 11.59000 448.95239 450.28624 0.00222
2220 11.59500 455.09144 452.49046 0.00221
2221 11.60000 463.40517 453.10750 0.00221
2222 11.60500 471.93886 468.07165 0.00214
2223 11.61000 478.56066 486.13716 0.00206
2224 11.61500 482.04000 484.30241 0.00206
2225 11.62000 482.49684 481.32952 0.00208
2226 11.62500 480.90925 477.04528 0.00210
2227 11.63000 478.32980 488.73553 0.00205
2228 11.63500 475.63598 473.12412 0.00211
2229 11.64000 473.86693 463.27706 0.00216
2230 11.64500 474.23612 470.73793 0.00212
2231 11.65000 477.37901 480.25063 0.00208
2232 11.65500 482.60089 497.94435 0.00201
2233 11.66000 488.04091 507.10704 0.00197
2234 11.66500 491.59769 502.40275 0.00199
2235 11.67000 491.95795 503.24306 0.00199
2236 11.67500 489.43451 495.94269 0.00202
2237 11.68000 485.62541 482.77133 0.00207
2238 11.68500 481.70350 472.35356 0.00212
2239 11.69000 477.37442 465.68307 0.00215
2240 11.69500 471.36195 466.67483 0.00214
2241 11.70000 462.86921 459.18642 0.00218
