#------------------------------------------------------------------------------
#$Date: 2018-10-20 05:57:42 +0300 (Sat, 20 Oct 2018) $
#$Revision: 211573 $
#$URL: file:///home/coder/svn-repositories/cod/cif/1/55/00/1550081.cif $
#------------------------------------------------------------------------------
#
# This file is available in the Crystallography Open Database (COD),
# http://www.crystallography.net/. The original data for this entry
# were provided by IUCr Journals, http://journals.iucr.org/.
#
# The file may be used within the scientific community so long as
# proper attribution is given to the journal article from which the
# data were obtained.
#
data_1550081
loop_
_publ_author_name
'Gotoh, Kazuma'
'Ishida, Hiroyuki'
_publ_section_title
;
 Bis(pyrrolidinium) hexachloridostannate: a redetermination
;
_journal_coeditor_code           SU5454
_journal_issue                   10
_journal_name_full               IUCrData
_journal_paper_doi               10.1107/S2414314618013974
_journal_volume                  3
_journal_year                    2018
_chemical_formula_iupac          '(C4 H10 N)2 [Sn Cl6]'
_chemical_formula_moiety         '2(C4 H10 N), Cl6 Sn'
_chemical_formula_sum            'C8 H20 Cl6 N2 Sn'
_chemical_formula_weight         475.67
_chemical_name_systematic
;
Bis(pyrrolidinium) hexachloridostannate
;
_space_group_crystal_system      monoclinic
_space_group_IT_number           12
_space_group_name_Hall           '-C 2y'
_space_group_name_H-M_alt        'C 1 2/m 1'
_symmetry_space_group_name_Hall  '-C 2y'
_symmetry_space_group_name_H-M   'C 1 2/m 1'
_atom_sites_solution_hydrogens   mixed
_atom_sites_solution_primary     direct
_atom_sites_solution_secondary   difmap
_cell_angle_alpha                90.0000
_cell_angle_beta                 91.205(2)
_cell_angle_gamma                90.0000
_cell_formula_units_Z            2
_cell_length_a                   16.3784(11)
_cell_length_b                   7.3134(3)
_cell_length_c                   7.1566(4)
_cell_measurement_reflns_used    5181
_cell_measurement_temperature    180.0(10)
_cell_measurement_theta_max      30.02
_cell_measurement_theta_min      3.05
_cell_volume                     857.04(8)
_computing_cell_refinement
;
RAPID-AUTO (Rigaku, 2006)
;
_computing_data_collection
;
RAPID-AUTO (Rigaku, 2006)
;
_computing_data_reduction
;
RAPID-AUTO (Rigaku, 2006)
;
_computing_molecular_graphics
;
ORTEP-3 for Windows (Farrugia, 2012)
;
_computing_publication_material
;
CrystalStructure (Rigaku, 2018) and PLATON (Spek, 2009)
;
_computing_structure_refinement
;
<i>SHELXL2018/3</i> (Sheldrick, 2015<i>b</i>)
;
_computing_structure_solution
;
<i>SHELXT2018/2</i> (Sheldrick, 2015<i>a</i>)
;
_diffrn_ambient_temperature      180(2)
_diffrn_detector_area_resol_mean 10.000
_diffrn_measured_fraction_theta_full 0.998
_diffrn_measured_fraction_theta_max 0.999
_diffrn_measurement_device_type  'Rigaku R-AXIS RAPIDII'
_diffrn_measurement_method       \w
_diffrn_radiation_type           'Mo K\a'
_diffrn_radiation_wavelength     0.71075
_diffrn_reflns_av_R_equivalents  0.0377
_diffrn_reflns_av_unetI/netI     0.0255
_diffrn_reflns_limit_h_max       22
_diffrn_reflns_limit_h_min       -22
_diffrn_reflns_limit_k_max       9
_diffrn_reflns_limit_k_min       -10
_diffrn_reflns_limit_l_max       10
_diffrn_reflns_limit_l_min       -10
_diffrn_reflns_number            5281
_diffrn_reflns_theta_full        25.242
_diffrn_reflns_theta_max         30.014
_diffrn_reflns_theta_min         3.051
_diffrn_standards_number         0
_exptl_absorpt_coefficient_mu    2.407
_exptl_absorpt_correction_T_max  0.786
_exptl_absorpt_correction_T_min  0.579
_exptl_absorpt_correction_type   multi-scan
_exptl_absorpt_process_details
;
(ABSCOR; Higashi, 1995)
;
_exptl_crystal_colour            colorless
_exptl_crystal_density_diffrn    1.843
_exptl_crystal_density_method    'not measured'
_exptl_crystal_description       platelet
_exptl_crystal_F_000             468.00
_exptl_crystal_size_max          0.200
_exptl_crystal_size_mid          0.200
_exptl_crystal_size_min          0.100
_refine_diff_density_max         0.539
_refine_diff_density_min         -1.100
_refine_ls_extinction_method     none
_refine_ls_goodness_of_fit_ref   1.086
_refine_ls_hydrogen_treatment    mixed
_refine_ls_matrix_type           full
_refine_ls_number_parameters     68
_refine_ls_number_reflns         1343
_refine_ls_number_restraints     2
_refine_ls_restrained_S_all      1.085
_refine_ls_R_factor_all          0.0241
_refine_ls_R_factor_gt           0.0236
_refine_ls_shift/su_max          0.001
_refine_ls_shift/su_mean         0.000
_refine_ls_structure_factor_coef Fsqd
_refine_ls_weighting_details
'w=1/[\s^2^(Fo^2^)+(0.0350P)^2^+0.3195P] where P=(Fo^2^+2Fc^2^)/3'
_refine_ls_weighting_scheme      calc
_refine_ls_wR_factor_gt          0.0563
_refine_ls_wR_factor_ref         0.0566
_reflns_number_gt                1308
_reflns_number_total             1343
_reflns_threshold_expression     'I > 2\s(I)'
_cod_data_source_file            su5454sup1.cif
_cod_data_source_block           I
_cod_database_code               1550081
_shelx_hkl_file
;
   0   0   2  449.36    9.50
   0   0  -2  455.45   10.39
   0   0   3  941.14   22.24
   0   0  -3  959.67   23.53
   0   0   4  798.14   19.48
   0   0  -4  835.73   21.40
   0   0   5 3908.62  125.75
   0   0  -5 3947.82  129.97
   0   0  -5 3861.49  127.90
   0   0   6 1562.58   47.99
   0   0  -6 1594.48   48.39
   0   0  -6 1521.97   47.00
   0   0   7   17.28    2.41
   0   0  -7   18.44    2.36
   0   0  -8   10.54    2.10
   0   0   9   24.47    3.20
   0   0  -9   27.57    3.27
   0   0  10  139.22    6.00
   0   0 -10  156.52    6.63
   0  -2   0 3228.08   92.09
   0  -2   0 3183.50   90.27
   0  -2   1  406.14   10.53
   0  -2   1  418.36    8.22
   0  -2  -1  400.83    8.32
   0   2  -1  389.04    7.50
   0  -2  -1  398.86   10.00
   0  -2   2 2083.65   56.46
   0   2   2 1914.05   48.29
   0  -2  -2 2045.77   55.02
   0  -2  -2 2056.66   51.52
   0   2  -2 1859.01   45.40
   0   2  -2 2022.38   54.43
   0   2   3 1978.02   52.21
   0  -2   3 2190.97   61.13
   0  -2  -3 2097.42   54.29
   0   2  -3 2153.47   61.58
   0  -2  -3 2076.77   57.96
   0   2   4  838.95   20.39
   0  -2   4  919.02   24.14
   0  -2  -4  956.29   22.56
   0  -2  -4  913.89   26.12
   0   2  -4  906.47   23.96
   0   2   5  230.56    6.05
   0  -2   5  255.44    7.47
   0  -2  -5  254.55    6.04
   0   2  -5  246.66    5.88
   0   2  -5  249.04    7.12
   0  -2  -5  246.55    7.15
   0  -2   6   67.50    4.81
   0   2   6   58.87    1.92
   0  -2  -6   61.62    4.69
   0  -2  -6   65.99    2.40
   0   2  -6   60.00    2.31
   0   2   7  131.31    4.63
   0  -2   7  161.37    7.87
   0   2  -7  138.22    3.83
   0  -2  -7  162.50    7.76
   0   2   8  278.85    8.18
   0  -2   8  360.00   11.86
   0  -2  -8  352.81   11.97
   0   2  -8  314.92    8.83
   0  -2   9  144.90    6.45
   0  -2  -9  164.17    7.55
   0  -4   0 9052.08  332.86
   0  -4   0 8955.15  328.32
   0  -4   0 8777.13  326.40
   0  -4   1 2191.06   61.94
   0  -4   1 2096.51   57.28
   0  -4  -1 2065.46   55.70
   0  -4  -1 2103.93   58.67
   0  -4  -1 2089.28   57.83
   0  -4   2   39.09    2.11
   0  -4  -2   36.54    1.07
   0  -4  -2   37.21    1.94
   0  -4  -2   37.65    0.96
   0  -4   3  142.64    4.75
   0  -4  -3  138.51    4.54
   0  -4  -3  139.99    2.80
   0  -4   4  554.21   18.18
   0  -4  -4  524.24   10.02
   0  -4  -4  537.97   15.02
   0  -4   5 2256.46   76.38
   0  -4  -5 2223.84   70.95
   0  -4   6  939.81   33.03
   0  -4  -6  895.40   31.22
   0  -4   7   17.59    4.18
   0  -4  -7   17.54    2.50
   0  -4   8    4.02    3.40
   0  -4  -8    3.89    2.07
   0  -4   9   16.37    3.18
   0  -4  -9   13.02    4.90
   0  -6   0  341.42    8.66
   0  -6   0  354.14   10.60
   0  -6   0  354.79    9.26
   0  -6   1  379.51   11.93
   0  -6   1  360.96    9.92
   0  -6   1  321.26    7.84
   0  -6  -1  280.35    6.92
   0  -6  -1  272.95    8.91
   0  -6  -1  278.22    8.03
   0  -6   2  814.12   22.94
   0  -6   2  784.90   22.27
   0  -6  -2  716.36   17.17
   0  -6  -2  686.24   17.79
   0  -6  -2  691.69   21.24
   0  -6   3  857.25   25.22
   0  -6  -3  781.54   19.27
   0  -6  -3  864.87   24.85
   0  -6  -3  832.73   19.26
   0  -6   4  412.36   12.98
   0  -6  -4  448.47   14.43
   0  -6   5  117.50    8.20
   0  -6  -5  120.99    5.63
   0  -6   6   35.69    6.06
   0  -6  -6   25.04    3.17
   0  -6   7  102.13   10.15
   0  -6  -7   84.57    8.73
   0  -6   8  183.48   13.77
   0  -6  -8  190.51   10.16
   0  -8   0 1433.48   43.05
   0  -8   0 1423.25   45.98
   0  -8   0 1402.27   43.92
   0  -8   1  557.86   16.69
   0  -8   1  564.97   18.66
   0  -8   1  515.82   13.71
   0  -8  -1  545.15   15.02
   0  -8  -1  540.84   15.89
   0  -8  -1  572.08   16.84
   0  -8   2    3.22    2.51
   0  -8   2    4.52    1.57
   0  -8  -2    3.02    1.15
   0  -8  -2    2.65    1.25
   0  -8  -2    2.47    0.65
   0  -8   3    6.33    1.83
   0  -8   3    3.45    1.85
   0  -8  -3    4.38    1.64
   0  -8   4  145.12    7.05
   0  -8   4  152.37    7.13
   0  -8  -4  139.29    6.43
   0  -8   5  546.52   20.53
   0  -8   5  557.80   25.75
   0  -8  -5  541.70   24.71
   0  -8   6  279.71   13.19
   0  -8   6  284.72   13.14
   0  -8  -6  266.51   12.03
   0 -10   0   44.56    3.96
   0 -10   0   39.59    2.71
   0 -10   1   80.58    6.17
   0 -10   1   77.60    5.90
   0 -10  -1   74.76    5.20
   0 -10   2  152.18    9.37
   0 -10   2  158.76    9.67
   0 -10  -2  140.93    6.33
   1  -1 -10   86.17    6.67
  -1  -1  10   78.03    4.53
   1   1  -9   91.72    3.76
   1  -1  -9   96.40    6.29
  -1   1   9   84.46    4.82
  -1  -1   9   91.94    4.37
   1  -1  -8   34.52    2.47
   1   1  -8   32.54    2.66
  -1  -1   8   38.93    3.99
  -1   1   8   31.51    2.82
   1   1  -7   70.54    3.40
   1  -1  -7   68.51    3.32
   1  -1  -7   68.05    3.20
   1   1  -7   73.61    3.28
  -1  -1   7   76.40    4.74
  -1   1   7   65.80    3.69
   1   1  -6  655.51   17.15
   1   1  -6  686.88   18.73
   1  -1  -6  655.44   18.21
   1  -1  -6  636.79   17.82
  -1   1   6  631.04   16.89
  -1  -1   6  706.58   21.82
   1  -1  -5 1299.68   34.42
   1   1  -5 1348.54   37.21
  -1  -1   5 1337.79   39.47
  -1   1   5 1277.83   36.20
   1   1  -4 1450.57   38.44
   1  -1  -4 1378.98   35.12
  -1  -1   4 1442.33   38.54
  -1   1   4 1384.32   37.20
   1   1  -3  220.14    5.23
   1  -1  -3  204.74    4.79
  -1   1   3  208.41    5.21
  -1  -1   3  212.83    5.14
   1   1  -2  923.81   21.75
   1  -1  -2  899.27   20.06
  -1  -1   2  967.21   23.04
  -1   1   2  860.54   19.67
   1   1  -1 1800.18   45.60
   1  -1  -1 1717.35   42.03
  -1   1   1 1657.65   41.39
  -1  -1   1 1834.29   46.75
   1   1   0 1881.37   46.07
   1  -1   0 1763.31   43.55
   1   1   0 1835.56   45.03
  -1  -1   0 1806.77   43.98
  -1  -1   0 1880.11   46.05
  -1   1   0 1749.88   43.23
   1  -1   1 4587.33  133.05
   1   1   1 4597.43  139.96
  -1  -1  -1 4616.62  141.20
   1   1   2  180.65    3.45
   1  -1   2  174.67    5.38
  -1  -1  -2  182.68    5.50
  -1   1  -2  176.53    3.48
  -1  -1  -2  187.36    3.51
   1  -1   3 1898.14   50.94
   1   1   3 1880.00   48.67
  -1   1  -3 1861.91   49.93
  -1  -1  -3 1981.26   53.13
  -1   1  -3 1810.80   46.49
  -1  -1  -3 1933.95   49.17
   1   1   4 1803.05   47.53
   1  -1   4 1770.86   50.81
  -1  -1  -4 1817.79   48.42
  -1  -1  -4 1827.31   52.07
  -1   1  -4 1662.26   43.81
   1   1   5  577.29   14.94
   1  -1   5  552.39   14.67
  -1  -1  -5  565.57   13.35
  -1  -1  -5  587.67   15.46
  -1   1  -5  546.12   14.23
   1  -1   6  147.10    6.29
   1   1   6  148.81    4.05
  -1   1  -6  142.70    4.76
  -1  -1  -6  150.11    6.40
   1  -1   7  103.20    3.95
   1   1   7   98.45    3.18
  -1  -1  -7  101.26    5.52
  -1   1  -7  103.69    4.19
   1   1   8  119.62    4.10
   1  -1   8  132.90    5.15
  -1  -1  -8  138.33    5.51
  -1   1  -8  129.22    5.35
   1   1   9  152.98    5.40
   1  -1   9  159.71    7.97
   1   1   9  144.54    6.40
  -1   1  -9  160.44    6.91
  -1  -1  -9  172.94    7.17
   1  -1  10   24.77    2.43
   1  -1  10   31.60    2.63
  -1  -1 -10   30.40    2.92
   1  -3  -9   73.87    7.42
  -1  -3   9   65.76    4.38
   1  -3  -8   65.43    4.19
  -1  -3   8   65.51    4.24
   1  -3  -7  160.38    6.14
   1  -3  -7  141.65    3.43
   1   3  -7  135.16    3.27
  -1  -3   7  156.16    6.11
  -1   3   7  104.67    2.93
   1  -3  -6  432.74   10.35
   1  -3  -6  439.17   13.09
   1   3  -6  416.60    9.87
  -1  -3   6  450.38   13.34
  -1   3   6  357.03    9.37
   1   3  -5  600.35   16.82
   1  -3  -5  604.63   14.13
   1  -3  -5  587.12   18.80
  -1   3   5  514.02   12.64
  -1  -3   5  600.65   16.69
   1  -3  -4  651.05   17.47
   1  -3  -4  679.14   15.33
   1   3  -4  637.36   19.16
  -1   3   4  617.18   14.46
  -1  -3   4  666.60   18.02
   1   3  -3  437.96    8.93
   1   3  -3  408.42   10.47
   1  -3  -3  451.36    9.70
  -1   3   3  417.82    9.04
  -1  -3   3  422.97   10.85
   1   3  -2 1304.10   30.92
   1   3  -2 1424.44   38.45
   1  -3  -2 1362.84   34.17
  -1  -3   2 1512.96   39.82
  -1   3   2 1369.13   34.02
   1   3  -1 1648.25   43.09
   1   3  -1 1632.44   41.20
   1  -3  -1 1645.64   41.88
  -1  -3   1 1720.89   45.37
  -1  -3   1 1705.54   43.01
   1  -3   0  972.10   23.30
   1   3   0  971.58   23.80
   1  -3   0  940.87   22.07
  -1  -3   0  963.31   23.74
  -1  -3   0  980.33   23.26
   1  -3   1 1212.23   28.64
   1  -3   1 1277.91   33.59
  -1  -3  -1 1254.31   30.29
  -1  -3  -1 1281.22   30.96
  -1  -3  -1 1259.18   31.84
   1  -3   2  486.77   13.31
  -1  -3  -2  458.32    9.08
  -1  -3  -2  469.23   11.37
  -1  -3  -2  500.67    9.61
   1  -3   3 1844.70   52.12
  -1  -3  -3 1763.12   51.99
   1  -3   4 1325.09   37.14
  -1  -3  -4 1345.43   40.67
   1   3   5  236.30    4.73
   1  -3   5  279.51   10.38
  -1  -3  -5  273.57   10.28
  -1   3  -5  249.43    4.85
   1  -3   6   58.36    3.39
   1   3   6   45.50    1.33
  -1   3  -6   54.55    1.49
  -1  -3  -6   61.32    3.33
   1   3   7   92.22    2.06
   1  -3   7  110.99    4.91
  -1  -3  -7  111.21    6.91
  -1   3  -7   93.57    2.20
   1  -3   8  187.88   10.24
  -1  -3  -8  195.56   11.14
   1  -3   9  162.41   10.44
  -1  -3  -9  170.01    8.36
   1  -5  -8    8.12    2.78
  -1  -5   8   14.82    3.22
   1  -5  -7   31.32    3.43
  -1  -5   7   33.48    3.51
   1  -5  -6  321.99   14.15
  -1  -5   6  331.56   11.69
   1  -5  -5  873.07   27.13
  -1  -5   5  886.80   27.19
   1  -5  -4  680.66   15.22
   1  -5  -4  709.30   20.49
  -1  -5   4  675.22   22.71
   1  -5  -3   76.23    3.36
   1  -5  -3   71.75    2.42
  -1  -5   3   74.74    5.17
   1  -5  -2  185.13    5.49
   1  -5  -2  187.22    5.25
  -1  -5   2  184.23    5.69
   1  -5  -1  989.58   26.18
   1  -5  -1 1069.50   27.41
   1  -5  -1 1076.28   28.38
  -1  -5   1 1037.90   29.25
  -1  -5   1 1030.20   25.61
   1  -5   0 1720.34   47.30
   1  -5   0 1781.67   51.31
   1  -5   0 1831.06   51.20
  -1  -5   0 1748.24   47.99
  -1  -5   0 1666.87   47.29
  -1  -5   0 1690.88   46.71
   1  -5   1 1298.25   37.34
   1  -5   1 1247.09   34.14
   1  -5   1 1270.37   32.91
  -1  -5  -1 1207.75   34.53
  -1  -5  -1 1253.65   32.08
  -1  -5  -1 1244.07   32.78
   1  -5   2  151.83    4.91
   1  -5   2  156.10    6.57
   1  -5   2  130.73    2.55
  -1  -5  -2  132.42    5.91
  -1  -5  -2  138.48    3.35
  -1  -5  -2  135.99    3.50
   1  -5   3  311.80   11.38
  -1  -5  -3  290.06    5.60
  -1  -5  -3  286.89    8.49
  -1  -5  -3  303.54    5.68
   1  -5   4  687.80   23.25
  -1  -5  -4  621.95   18.26
   1  -5   5  523.19   19.81
  -1  -5  -5  475.71   15.02
   1  -5   6  205.54   11.13
  -1  -5  -6  186.86    7.57
   1  -5   7   44.47    4.08
  -1  -5  -7   49.59    6.45
   1  -5   8   45.24    4.39
  -1  -5  -8   51.02    4.64
   1  -7  -7  129.96   11.63
  -1  -7   7  144.68    8.40
   1  -7  -6  144.11    7.50
  -1  -7   6  167.69   12.24
   1  -7  -5  105.63    5.59
  -1  -7   5  119.04    8.96
   1  -7  -4  143.50    6.04
  -1  -7   4  149.08    6.43
   1  -7  -3  264.01    6.49
   1  -7  -3  247.03    8.33
   1  -7  -3  233.43    6.29
  -1  -7   3  259.78   11.25
   1  -7  -2  606.41   16.16
   1  -7  -2  590.41   18.88
   1  -7  -2  574.82   15.87
  -1  -7   2  646.64   18.89
  -1  -7   2  624.42   18.36
   1  -7  -1  568.17   15.19
   1  -7  -1  595.52   16.82
   1  -7  -1  562.40   17.20
  -1  -7   1  593.73   16.93
  -1  -7   1  593.32   15.33
  -1  -7   1  619.96   19.24
   1  -7   0  179.97    5.38
   1  -7   0  171.66    4.81
   1  -7   0  183.33    6.90
  -1  -7   0  188.09    6.48
  -1  -7   0  188.15    6.77
  -1  -7   0  190.66    6.75
   1  -7   1  117.40    3.90
   1  -7   1  121.18    4.53
   1  -7   1  123.59    5.95
  -1  -7  -1  124.87    5.50
  -1  -7  -1  122.30    3.59
  -1  -7  -1  128.13    4.38
   1  -7   2  290.19    9.07
   1  -7   2  292.50    9.18
  -1  -7  -2  288.60   10.69
  -1  -7  -2  273.48    6.70
  -1  -7  -2  304.28    7.88
   1  -7   3  686.20   24.07
   1  -7   3  657.83   20.45
  -1  -7  -3  600.97   14.67
  -1  -7  -3  659.83   15.67
  -1  -7  -3  695.72   20.87
   1  -7   4  463.16   18.49
   1  -7   4  456.37   18.37
  -1  -7  -4  472.84   18.60
   1  -7   5   67.05    6.94
   1  -7   5   67.36    4.65
  -1  -7  -5   64.86    6.70
   1  -7   6   22.14    3.57
   1  -7   6   14.30    5.59
  -1  -7  -6   16.04    5.15
   1  -7   7   57.17    5.57
   1  -7   7   55.54    8.68
  -1  -7  -7   54.86    5.24
   1  -9  -4  195.08    8.61
  -1  -9   4  207.17   12.91
  -1  -9   4  207.91    9.57
   1  -9  -3   18.75    3.99
  -1  -9   3   19.05    2.79
  -1  -9   3   16.57    4.54
   1  -9  -2   18.92    2.11
  -1  -9   2   17.09    3.82
  -1  -9   2   17.84    3.75
   1  -9  -1  236.43    8.75
   1  -9  -1  252.17    8.86
   1  -9  -1  232.11    7.57
  -1  -9   1  250.34   10.70
  -1  -9   1  255.67   10.35
   1  -9   0  529.91   17.71
   1  -9   0  506.43   17.58
   1  -9   0  468.67   14.19
  -1  -9   0  512.31   17.10
  -1  -9   0  492.92   16.24
  -1  -9   0  504.27   15.34
   1  -9   1  287.54   11.67
   1  -9   1  288.76    9.87
  -1  -9  -1  261.33    9.23
  -1  -9  -1  271.55    8.94
  -1  -9  -1  288.40    8.32
   1  -9   2   48.85    3.72
   1  -9   2   50.74    3.50
  -1  -9  -2   48.01    4.85
   1  -9   3   31.87    3.31
   1  -9   3   28.21    3.42
  -1  -9  -3   30.35    3.06
   1  -9   4  140.34   10.74
   1  -9   4  138.22    7.42
  -1  -9  -4  132.71    9.61
   2   0 -10  181.07    7.33
  -2   0  10  148.41    6.39
   2   0  -9   66.98    4.68
  -2   0   9   60.20    3.37
   2   0  -8    1.96    1.51
   2   0  -8    1.11    0.89
  -2   0   8    0.96    0.97
   2   0  -7   14.20    1.41
   2   0  -7   10.70    2.23
  -2   0   7   13.87    1.55
   2   0  -6  788.64   21.45
  -2   0   6  775.53   23.30
   2   0  -5 2977.33   93.28
  -2   0   5 3047.70   93.78
   2   0  -4  836.48   20.57
  -2   0   4  824.15   21.98
   2   0  -3  156.80    3.73
  -2   0   3  158.96    4.86
   2   0  -2   14.11    1.04
  -2   0   2   15.10    1.94
   2   0  -1 6535.75  210.29
  -2   0   1 6242.02  200.61
   2   0   1 2347.57   62.47
   2   0   1 2467.15   65.26
  -2   0  -1 2402.37   63.12
  -2   0  -1 2422.75   63.93
   2   0   2  507.92   11.63
   2   0   2  525.17   11.34
  -2   0  -2  517.49   12.22
   2   0   3   12.99    0.80
  -2   0  -3   11.76    0.82
   2   0   4  999.79   26.08
  -2   0  -4  999.59   26.29
   2   0   5 1286.95   36.70
  -2   0  -5 1255.82   33.94
   2   0   6  518.73   13.66
  -2   0  -6  534.19   14.47
   2   0   7  263.28    9.09
  -2   0  -7  270.98    8.21
   2   0   8   44.91    2.28
  -2   0  -8   50.22    3.70
   2   0   9   14.13    2.55
   2   0   9   16.28    2.42
  -2   0  -9   17.47    2.75
   2   0  10   40.12    3.77
   2   0  10   32.55    2.46
  -2   0 -10   42.64    4.30
   2  -2  -9   11.14    3.55
  -2  -2   9   11.18    3.70
   2  -2  -8  308.13   12.99
   2  -2  -8  284.88    9.06
   2   2  -8  269.08    7.94
  -2  -2   8  300.45   10.22
  -2   2   8  240.18    7.37
   2  -2  -7  876.75   29.91
   2   2  -7  878.27   25.45
   2   2  -7  978.32   32.59
   2  -2  -7  874.07   25.44
  -2  -2   7  981.13   33.43
  -2   2   7  795.02   24.76
   2  -2  -6  588.00   15.95
   2   2  -6  619.85   19.68
  -2   2   6  538.02   15.46
  -2  -2   6  621.54   20.47
   2  -2  -5   15.97    0.94
   2   2  -5   17.03    1.79
  -2   2   5   14.84    1.14
  -2  -2   5   18.03    3.02
   2   2  -4  129.62    4.05
   2  -2  -4  125.64    2.93
  -2   2   4  119.89    3.11
  -2  -2   4  133.30    4.27
   2  -2  -3 1867.11   49.09
   2   2  -3 1843.45   50.16
  -2   2   3 1695.31   45.89
  -2  -2   3 1884.97   51.48
   2   2  -2 8495.13  302.24
   2  -2  -2 7987.17  277.43
  -2   2   2 7772.08  273.70
  -2  -2   2 8251.16  295.40
   2   2  -1 9504.00  343.19
   2   2  -1 9312.65  332.14
   2  -2  -1 9362.05  336.90
  -2  -2   1 9999.00  365.46
  -2   2   1 8964.20  323.38
   2   2   0  116.94    2.77
   2  -2   0  109.55    2.88
   2   2   0  118.88    3.31
  -2   2   0  103.99    2.67
  -2  -2   0  117.97    2.83
  -2  -2   0  113.99    2.53
   2   2   1 1964.09   52.97
   2  -2   1 1709.77   45.30
   2   2   1 1806.73   44.36
  -2  -2  -1 2018.54   50.24
  -2  -2  -1 1900.22   50.55
   2  -2   2  387.14    9.17
   2   2   2  424.66    9.91
  -2  -2  -2  417.50    9.85
   2  -2   3 4787.23  156.14
   2   2   3 4129.70  121.55
  -2   2  -3 4410.89  134.15
  -2  -2  -3 4906.03  162.44
   2  -2   4 4473.59  151.41
   2   2   4 4402.50  135.01
   2   2   4 4238.73  132.12
  -2   2  -4 4156.95  129.98
  -2  -2  -4 4629.54  157.49
   2  -2   5  330.92    9.32
   2   2   5  320.83    7.42
  -2   2  -5  311.16    6.79
  -2  -2  -5  338.23   11.23
   2  -2   6  138.01    6.47
   2   2   6  127.00    3.07
  -2  -2  -6  142.83    5.07
  -2   2  -6  132.84    3.24
   2   2   7   13.49    1.15
   2  -2   7   14.47    1.87
   2   2   7   12.67    1.25
  -2  -2  -7   15.01    3.12
  -2   2  -7   14.90    1.35
   2   2   8  276.68    8.12
   2  -2   8  362.94   14.44
   2   2   8  330.65    9.95
  -2  -2  -8  392.67   13.73
  -2   2  -8  328.77   10.41
   2  -2   9  318.10   11.94
   2  -2   9  296.57   14.58
  -2  -2  -9  332.56   13.24
   2  -4  -9   53.83    4.67
  -2  -4   9   48.21    4.23
   2  -4  -8    0.82    2.54
  -2  -4   8    0.94    1.61
   2  -4  -7   10.41    3.57
  -2  -4   7    9.42    2.33
   2  -4  -6  591.78   18.03
   2   4  -6  459.84   10.27
   2   4  -6  495.57   10.93
   2  -4  -6  551.74   13.72
  -2   4   6  513.13   12.92
  -2  -4   6  588.15   18.33
   2  -4  -5 1688.37   54.99
   2  -4  -5 1678.11   44.41
   2   4  -5 1604.82   48.99
   2   4  -5 1462.51   37.51
  -2   4   5 1529.84   40.56
  -2  -4   5 1636.00   50.25
   2   4  -4  635.18   20.10
   2  -4  -4  636.71   17.70
   2   4  -4  604.72   13.09
   2  -4  -4  677.74   16.03
  -2   4   4  641.84   15.29
  -2  -4   4  669.61   21.39
   2   4  -3   77.34    1.81
   2  -4  -3   81.75    2.13
   2   4  -3   76.19    4.75
  -2   4   3   79.22    1.91
  -2  -4   3   81.60    3.58
   2   4  -2   41.93    1.08
   2  -4  -2   48.03    2.32
   2   4  -2   44.72    3.18
  -2   4   2   48.00    1.86
  -2  -4   2   45.97    2.27
   2   4  -1 1820.97   50.22
   2   4  -1 1811.16   49.31
   2  -4  -1 2172.93   60.06
  -2  -4   1 1947.81   53.70
  -2  -4   1 1926.59   52.87
   2   4   0 2453.12   71.31
   2  -4   0 2881.73   83.70
   2  -4   0 2912.67   84.56
  -2  -4   0 2548.87   74.20
  -2  -4   0 2522.71   74.31
   2  -4   1 1646.75   44.59
   2  -4   1 1463.14   37.07
   2  -4   1 1675.02   47.38
  -2  -4  -1 1516.54   38.25
  -2  -4  -1 1560.52   43.39
  -2  -4  -1 1455.02   36.91
   2  -4   2  410.63   12.45
   2  -4   2  402.87    7.64
   2  -4   2  399.49   10.48
  -2  -4  -2  404.13   10.54
  -2  -4  -2  394.82    8.15
  -2  -4  -2  412.84    8.33
   2  -4   3  105.23    4.02
  -2  -4  -3  104.15    5.49
   2  -4   4  477.66   13.76
  -2  -4  -4  425.96   12.36
   2  -4   5  860.72   29.61
  -2  -4  -5  676.04   20.45
   2  -4   6  413.08   13.85
  -2  -4  -6  388.52   15.61
   2  -4   7  214.28    8.64
  -2  -4  -7  218.35    8.90
   2  -4   8   41.60    3.88
   2  -4   8   45.24    6.23
  -2  -4  -8   39.58    6.10
   2  -4   9   10.29    4.31
   2  -4   9   10.07    4.55
  -2  -4  -9   16.62    3.15
   2  -6  -8  165.61    9.36
  -2  -6   8  160.50   13.09
   2  -6  -7  362.49   14.64
  -2  -6   7  390.88   15.96
   2  -6  -6  253.85   13.04
  -2  -6   6  257.99   10.35
   2  -6  -5    8.78    2.12
  -2  -6   5    7.91    2.21
   2  -6  -4    0.65    0.30
   2  -6  -4    1.09    1.21
   2  -6  -4    1.15    0.51
  -2  -6   4    2.27    2.58
   2  -6  -3  566.01   16.32
   2  -6  -3  521.48   12.64
  -2  -6   3  598.21   17.53
   2  -6  -2 2118.79   61.64
   2  -6  -2 2218.14   63.48
   2  -6  -2 2100.18   64.18
  -2  -6   2 2172.79   70.17
   2  -6  -1 1912.57   57.41
   2  -6  -1 1861.47   55.16
   2  -6  -1 1830.40   53.64
  -2  -6   1 1896.50   55.78
  -2  -6   1 1903.90   55.57
   2  -6   0   47.93    2.62
   2  -6   0   49.22    2.40
   2  -6   0   45.37    3.25
  -2  -6   0   47.28    2.05
  -2  -6   0   56.49    2.16
  -2  -6   0   46.82    3.16
   2  -6   1  102.41    3.77
   2  -6   1  100.00    3.14
   2  -6   1  112.13    4.04
  -2  -6  -1  102.96    3.57
  -2  -6  -1  106.06    3.65
  -2  -6  -1  106.23    3.59
   2  -6   2  191.10    6.29
   2  -6   2  185.90    4.13
   2  -6   2  199.80    6.55
  -2  -6  -2  192.20    4.83
  -2  -6  -2  190.53    7.78
  -2  -6  -2  194.48    4.74
   2  -6   3 1645.46   50.45
   2  -6   3 1618.90   49.88
  -2  -6  -3 1641.67   50.40
   2  -6   4 1440.60   45.41
   2  -6   4 1417.66   49.17
  -2  -6  -4 1430.30   49.40
   2  -6   5  146.69    6.50
   2  -6   5  137.89    6.25
  -2  -6  -5  141.93    8.63
   2  -6   6   28.07    3.37
   2  -6   6   29.76    5.21
  -2  -6  -6   22.54    4.93
   2  -6   7   10.73    5.13
   2  -6   7   14.18    3.15
  -2  -6  -7   14.91    3.12
   2  -6   8  178.08    9.93
   2  -6   8  172.70    9.79
  -2  -6  -8  170.27    9.61
   2  -8  -6  219.15   14.51
  -2  -8   6  223.33   14.70
  -2  -8   5  423.52   16.12
  -2  -8   4  242.24    9.90
   2  -8  -3   29.44    4.23
  -2  -8   3   56.82    3.67
  -2  -8   3   50.97    3.79
   2  -8  -2   25.87    2.14
   2  -8  -2   26.37    1.44
   2  -8  -2   26.00    2.28
  -2  -8   2   30.85    3.97
  -2  -8   2   37.14    4.07
   2  -8  -1  315.39    8.84
   2  -8  -1  311.13   10.36
   2  -8  -1  308.21    9.17
  -2  -8   1  314.30   11.38
  -2  -8   1  323.23   11.50
  -2  -8   1  296.59    7.99
   2  -8   0  695.33   20.61
   2  -8   0  700.81   20.28
   2  -8   0  662.23   19.97
  -2  -8   0  668.54   19.09
  -2  -8   0  711.64   21.90
  -2  -8   0  698.59   19.97
   2  -8   1  414.29   14.97
   2  -8   1  368.36    9.69
   2  -8   1  403.33   14.25
  -2  -8  -1  404.42   12.39
  -2  -8  -1  414.73   12.44
  -2  -8  -1  414.69   14.32
   2  -8   2  141.84    8.06
   2  -8   2  135.55    5.53
  -2  -8  -2  163.19    8.06
  -2  -8  -2  140.16    3.88
  -2  -8  -2  154.48    4.74
   2  -8   3   56.45    3.98
   2  -8   3   55.17    5.80
  -2  -8  -3   60.42    5.74
   2  -8   4   89.88    5.51
   2  -8   4   93.30    8.09
  -2  -8  -4   90.72    5.12
   2  -8   5  179.07    8.84
   2  -8   5  178.84    9.07
  -2  -8  -5  177.14    8.46
   2  -8   6  158.61    9.21
   2  -8   6  158.26    8.98
  -2  -8  -6  148.20    8.50
   2 -10  -2  345.68   12.33
  -2 -10   2  353.93   12.98
  -2 -10   2  340.02   12.49
   2 -10  -1  233.10    8.62
   2 -10  -1  267.27    8.46
   2 -10  -1  245.26    8.17
  -2 -10   1  260.01   11.57
  -2 -10   1  247.14    8.77
   2 -10   0   43.61    4.08
   2 -10   0   39.12    2.91
  -2 -10   0   37.52    2.55
  -2 -10   0   43.19    3.74
   2 -10   1   -0.41    1.02
   2 -10   1    2.01    1.80
  -2 -10  -1    0.09    1.26
   2 -10   2   67.35    7.01
   2 -10   2   65.53    4.49
  -2 -10  -2   54.48    5.53
   3   1  -9   46.29    3.14
   3  -1  -9   47.48    2.53
   3  -1  -9   44.99    4.80
   3   1  -9   46.08    2.52
  -3  -1   9   43.78    3.43
  -3   1   9   42.88    3.79
   3  -1  -8   79.36    5.28
   3   1  -8   78.80    3.74
   3   1  -8   71.39    3.94
   3  -1  -8   79.75    4.14
  -3   1   8   71.75    3.24
  -3  -1   8   77.64    3.79
   3   1  -7  454.48   13.56
   3  -1  -7  446.42   14.07
  -3   1   7  409.85   13.68
  -3  -1   7  450.83   15.66
   3   1  -6  513.35   16.20
   3  -1  -6  506.73   13.44
  -3  -1   6  520.90   16.98
  -3   1   6  475.27   12.96
   3  -1  -5  458.96   11.42
   3   1  -5  461.68   13.95
  -3  -1   5  466.70   12.77
  -3   1   5  442.63   11.33
   3  -1  -4  569.71   14.56
   3   1  -4  572.63   14.29
  -3  -1   4  600.03   17.07
  -3   1   4  556.12   14.89
   3  -1  -3  405.02    9.11
   3   1  -3  385.72   10.42
  -3   1   3  389.39   10.13
  -3  -1   3  402.02   11.24
   3   1  -2 3204.60   92.38
   3  -1  -2 3262.80   93.28
  -3  -1   2 3520.24  104.18
  -3   1   2 3339.80   98.41
   3  -1  -1 2300.50   61.84
   3   1  -1 2250.16   61.31
  -3  -1   1 2391.47   64.39
  -3   1   1 2254.94   62.92
   3  -1   0 2837.87   79.01
   3   1   0 2917.44   79.95
   3   1   0 2810.38   77.98
  -3   1   0 2721.55   76.49
  -3  -1   0 2812.04   76.53
   3   1   1  327.11    6.44
   3  -1   1  342.00    8.75
   3   1   1  326.95    7.30
  -3   1  -1  336.55    7.56
  -3  -1  -1  336.65    7.17
  -3  -1  -1  337.59    7.57
   3  -1   2 1956.62   50.61
   3   1   2 1953.57   52.38
   3   1   2 1913.74   48.89
   3  -1   2 1884.05   51.91
  -3   1  -2 1994.28   52.30
  -3  -1  -2 1963.85   53.02
   3  -1   3 1670.07   44.35
   3   1   3 1667.88   42.45
   3   1   3 1707.70   45.53
   3   1   3 1609.13   40.96
   3  -1   3 1655.28   44.01
  -3  -1  -3 1719.09   47.67
  -3   1  -3 1620.93   41.68
   3   1   4  460.78   10.71
   3   1   4  449.07    9.78
   3  -1   4  478.81   13.15
  -3  -1  -4  473.13   11.93
  -3   1  -4  467.22   11.36
   3   1   5  200.35    5.39
   3  -1   5  208.80    7.26
   3   1   5  210.82    5.50
  -3  -1  -5  212.88    6.03
  -3   1  -5  205.85    4.96
   3   1   6  302.05    8.34
   3   1   6  301.93    8.24
   3  -1   6  315.67   10.41
  -3  -1  -6  317.79    9.10
  -3   1  -6  308.11    7.94
   3  -1   7  230.71    7.17
   3   1   7  210.96    5.76
   3   1   7  223.54    5.99
  -3  -1  -7  241.72    9.43
  -3   1  -7  221.31    7.38
   3   1   8  249.20    8.46
   3  -1   8  268.13   10.66
   3   1   8  231.18    8.00
   3  -1   8  262.99   10.31
  -3  -1  -8  272.90    9.19
  -3   1  -8  248.53    7.70
   3  -1   9   29.06    2.60
   3  -1   9   30.22    2.46
  -3  -1  -9   31.46    2.67
  -3   1  -9   27.10    1.92
   3  -3  -9   17.89    2.98
  -3  -3   9   17.37    2.98
   3   3  -8   77.10    4.49
   3  -3  -8   77.06    4.42
  -3  -3   8   80.67    4.45
  -3   3   8   53.97    3.07
   3  -3  -7  510.32   16.36
   3   3  -7  549.14   20.17
   3  -3  -7  493.87   12.98
  -3  -3   7  556.09   17.30
  -3   3   7  398.95   12.23
   3   3  -6  568.85   19.47
   3  -3  -6  559.67   15.04
  -3  -3   6  597.57   20.42
  -3   3   6  460.82   13.28
   3   3  -5  268.40    8.33
   3  -3  -5  290.98    6.88
  -3  -3   5  275.72    8.51
  -3   3   5  245.04    7.26
   3  -3  -4  130.40    3.22
   3   3  -4  123.33    4.39
  -3  -3   4  128.94    4.68
  -3   3   4  115.98    3.11
   3   3  -3  446.79   11.40
   3  -3  -3  435.87    9.98
  -3  -3   3  471.73   13.94
  -3   3   3  418.82   10.57
   3   3  -2 3075.03   91.70
   3   3  -2 3199.54   92.76
   3  -3  -2 3010.88   90.40
  -3  -3   2 3194.42   95.54
  -3   3   2 3048.51   90.70
   3   3  -1 2428.63   67.98
   3   3  -1 2331.63   64.06
   3  -3  -1 2444.98   68.37
  -3  -3   1 2502.73   71.74
  -3   3   1 2378.82   67.83
   3   3   0 1172.99   28.65
   3   3   0 1181.96   29.45
   3  -3   0 1273.85   31.98
  -3  -3   0 1196.00   30.04
  -3   3   0 1267.20   32.93
  -3  -3   0 1219.99   29.86
   3   3   1   97.41    3.69
   3   3   1   90.22    1.77
  -3  -3  -1   97.79    2.82
  -3  -3  -1  105.17    2.50
   3  -3   2  935.97   19.75
   3  -3   2  893.90   18.68
   3   3   2 1095.11   29.01
   3  -3   2 1013.65   25.64
  -3  -3  -2 1087.27   28.27
   3  -3   3 1882.46   53.78
   3  -3   3 1865.07   55.61
  -3  -3  -3 1913.81   55.06
   3  -3   4  838.99   23.18
  -3  -3  -4  805.91   22.35
   3  -3   5  157.56    5.50
  -3  -3  -5  152.10    5.52
   3  -3   6  138.42    5.42
  -3  -3  -6  128.15    5.26
   3  -3   7  159.42    6.41
   3  -3   7  159.10    8.74
  -3  -3  -7  169.46    8.73
  -3   3  -7  122.74    2.74
   3  -3   8  277.74   10.79
   3  -3   8  269.97   13.29
  -3  -3  -8  284.20   11.29
   3  -3   9   50.11    4.31
   3  -3   9   53.49    6.15
  -3  -3  -9   51.46    6.58
   3  -5  -8   63.84    8.00
  -3  -5   8   64.08    8.29
   3  -5  -7  125.74    6.41
  -3  -5   7  129.70    9.67
   3  -5  -6  183.69    4.05
   3  -5  -6  187.06    7.30
  -3  -5   6  197.54    7.74
  -3   5   6  167.56    4.10
   3   5  -5  334.80   10.69
   3  -5  -5  338.85   13.34
   3  -5  -5  341.07    8.10
  -3   5   5  335.65    8.04
  -3  -5   5  349.86   11.39
   3   5  -4  407.25   12.11
   3   5  -4  400.75    8.51
   3  -5  -4  404.74    9.97
   3  -5  -4  410.19   12.11
  -3   5   4  420.70   10.17
  -3  -5   4  429.15   15.55
   3  -5  -3  388.67   10.92
   3  -5  -3  379.31    9.13
   3   5  -3  385.75   10.98
   3   5  -3  390.43    8.74
  -3  -5   3  403.71   11.71
  -3   5   3  383.96    9.59
   3  -5  -2  733.69   18.63
   3   5  -2  715.98   19.26
   3   5  -2  765.95   18.63
  -3  -5   2  766.08   22.60
   3   5  -1  566.16   14.46
   3  -5  -1  575.96   16.03
   3  -5  -1  551.35   13.97
  -3  -5   1  585.73   16.69
  -3  -5   1  577.76   15.34
   3   5   0  822.39   22.21
   3  -5   0  842.35   23.61
   3  -5   0  816.44   21.32
  -3  -5   0  850.27   22.79
  -3  -5   0  839.87   23.24
   3  -5   1  655.96   15.90
   3  -5   1  681.85   20.26
   3  -5   1  660.02   17.43
  -3  -5  -1  687.01   17.03
  -3  -5  -1  651.15   17.13
   3  -5   2  735.53   16.27
   3  -5   2  743.58   20.38
   3  -5   2  780.73   21.57
  -3  -5  -2  763.70   20.92
  -3  -5  -2  762.09   17.68
  -3  -5  -2  816.17   18.82
   3  -5   3  490.36   14.03
   3  -5   3  506.86   16.82
  -3  -5  -3  500.10   14.27
   3  -5   4  179.37    6.56
   3  -5   4  174.27    8.77
  -3  -5  -4  176.99    6.40
   3  -5   5  137.58    5.86
   3  -5   5  142.28    8.26
  -3  -5  -5  143.09    5.82
   3  -5   6  254.90    9.65
   3  -5   6  254.07   12.64
  -3  -5  -6  253.48    9.71
   3  -5   7  195.56    8.87
   3  -5   7  193.50   11.87
  -3  -5  -7  190.75    8.76
   3  -5   8  118.13    7.10
   3  -5   8  118.20   10.13
  -3  -5  -8  118.76   10.11
   3  -7  -7  238.75   15.27
  -3  -7   7  257.81   17.31
  -3  -7   6  274.76   12.01
   3  -7  -5   68.50    6.46
  -3  -7   5   67.88    4.66
   3  -7  -4    8.55    3.25
   3  -7  -4    8.97    0.97
   3  -7  -4    8.61    1.10
  -3  -7   4    9.02    3.51
   3  -7  -3  183.14    8.45
   3  -7  -3  185.14    5.34
   3  -7  -3  168.86    5.51
  -3  -7   3  189.16    6.97
   3  -7  -2 1010.90   29.56
   3  -7  -2 1004.09   29.37
   3  -7  -2 1033.37   29.10
  -3  -7   2 1068.76   31.77
   3  -7  -1  764.78   23.06
   3  -7  -1  795.20   23.95
   3  -7  -1  776.86   21.20
  -3  -7   1  811.96   23.11
  -3  -7   1  802.31   21.50
   3  -7   0  167.37    7.07
   3  -7   0  166.52    6.52
   3  -7   0  168.17    5.58
  -3  -7   0  167.96    6.11
  -3  -7   0  170.92    6.43
  -3  -7   0  166.00    5.89
   3  -7   1   24.38    3.52
   3  -7   1   24.57    3.17
   3  -7   1   22.25    1.07
  -3  -7  -1   25.32    1.27
  -3  -7  -1   24.14    3.03
  -3  -7  -1   24.03    1.28
   3  -7   2  211.83    9.45
   3  -7   2  202.33    6.84
   3  -7   2  185.75    4.36
  -3  -7  -2  201.91    5.19
  -3  -7  -2  203.58    8.58
  -3  -7  -2  190.01    5.05
   3  -7   3  744.13   26.62
   3  -7   3  720.55   22.50
  -3  -7  -3  729.71   25.69
   3  -7   4  406.69   13.90
   3  -7   4  418.28   14.49
  -3  -7  -4  393.67   13.46
   3  -7   5   61.78    4.62
   3  -7   5   60.97    4.84
  -3  -7  -5   60.71    4.46
   3  -7   6   18.47    3.42
   3  -7   6   15.62    3.52
  -3  -7  -6   21.71    3.49
   3  -7   7   61.04    5.80
   3  -7   7   61.46    5.89
  -3  -7  -7   52.49    5.40
   3  -9  -4  187.58    8.37
  -3  -9   4  204.13   12.81
  -3  -9   4  201.37    9.09
   3  -9  -3  133.25    6.05
  -3  -9   3  152.03    9.74
  -3  -9   3  147.68    6.72
   3  -9  -2   85.40    5.57
   3  -9  -2   87.30    4.16
   3  -9  -2   79.83    4.30
  -3  -9   2   88.75    4.48
  -3  -9   2   93.15    4.66
   3  -9  -1   66.84    4.53
   3  -9  -1   78.53    3.58
   3  -9  -1   81.11    4.58
  -3  -9   1   80.31    4.99
  -3  -9   1   73.61    3.61
   3  -9   0  174.14    5.79
   3  -9   0  195.91    7.17
   3  -9   0  206.16    8.66
  -3  -9   0  185.58    6.12
  -3  -9   0  187.02    7.68
  -3  -9   0  183.00    6.07
   3  -9   1  334.79   11.39
   3  -9   1  332.53   10.92
  -3  -9  -1  317.87   10.53
  -3  -9  -1  334.81   12.90
  -3  -9  -1  313.53    9.46
   3  -9   2  196.46    7.95
   3  -9   2  210.13    8.45
  -3  -9  -2  205.53    8.01
   3  -9   3   97.25    8.58
   3  -9   3   93.57    5.36
  -3  -9  -3   95.77    7.80
   3  -9   4   38.71    4.47
   3  -9   4   34.59    6.66
  -3  -9  -4   32.24    3.82
   4   0  -9  215.25    7.57
   4   0  -9  216.76    7.81
  -4   0   9  198.24    7.60
   4   0  -8  200.00    6.85
  -4   0   8  182.80    8.53
   4   0  -7   19.63    1.83
  -4   0   7   23.01    2.07
   4   0  -6  143.40    6.05
  -4   0   6  142.29    6.59
   4   0  -5  297.71    7.93
  -4   0   5  308.87    8.68
   4   0  -4 2905.22   85.25
  -4   0   4 3176.59   96.86
   4   0  -3 3916.82  120.02
  -4   0   3 4125.41  128.76
   4   0  -2  253.55    7.45
  -4   0   2  254.08    6.39
   4   0  -1  142.68    3.80
  -4   0   1  158.21    4.38
   4   0   0  130.21    4.69
  -4   0   0  122.26    3.33
   4   0   1 5475.39  177.11
   4   0   1 5414.58  173.44
  -4   0  -1 5210.63  165.49
   4   0   2 7439.23  261.35
   4   0   2 7676.48  266.11
  -4   0  -2 7379.42  256.61
  -4   0  -2 7509.01  259.77
   4   0   3 1845.23   49.65
   4   0   3 1897.23   50.64
  -4   0  -3 1840.68   49.93
   4   0   4   17.42    1.68
   4   0   4   17.34    1.03
  -4   0  -4   17.56    1.82
   4   0   5   28.60    2.12
   4   0   5   23.54    1.32
  -4   0  -5   24.89    1.50
   4   0   6  540.89   15.81
   4   0   6  527.85   13.96
  -4   0  -6  538.78   14.76
   4   0   7 1074.69   34.18
   4   0   7 1118.88   35.17
  -4   0  -7 1113.58   36.75
   4   0   8  166.82    7.04
   4   0   8  180.66    5.93
  -4   0  -8  188.16    6.50
   4   0   9    7.96    1.28
   4   0   9    7.12    1.18
  -4   0  -9    6.22    2.22
   4   2  -9    0.34    1.05
   4  -2  -9    0.91    0.71
   4  -2  -9    0.42    1.26
   4   2  -9    1.48    1.31
  -4  -2   9    0.24    2.10
  -4   2   9    0.47    1.20
   4  -2  -8  234.16    7.17
   4   2  -8  247.41    8.90
   4  -2  -8  246.66    9.03
  -4   2   8  205.05    6.80
  -4  -2   8  230.80    8.52
   4  -2  -7 1158.48   34.37
   4   2  -7 1200.10   37.16
  -4   2   7 1026.99   31.52
  -4  -2   7 1186.28   37.24
   4  -2  -6 1318.90   38.82
   4   2  -6 1295.22   38.49
  -4  -2   6 1310.48   38.97
  -4   2   6 1197.92   34.89
   4  -2  -5   14.23    1.13
   4   2  -5   13.98    2.89
  -4  -2   5   14.12    2.02
  -4   2   5   16.69    2.21
   4   2  -4   48.96    3.87
   4  -2  -4   53.78    1.92
  -4  -2   4   53.61    4.29
  -4   2   4   48.89    3.16
   4  -2  -3 1220.80   30.43
   4   2  -3 1126.74   30.99
  -4   2   3 1162.89   30.21
  -4  -2   3 1228.95   32.43
   4   2  -2 5648.00  189.68
   4  -2  -2 6110.66  204.29
  -4   2   2 5672.52  187.94
  -4  -2   2 5885.25  198.39
   4   2  -1 5223.01  167.18
   4   2  -1 5103.88  163.63
   4  -2  -1 5331.85  172.23
  -4   2   1 5525.65  182.16
  -4  -2   1 5643.05  183.62
   4   2   0   87.38    2.66
   4   2   0   84.29    3.01
   4  -2   0  102.97    4.43
  -4  -2   0   91.54    2.92
  -4   2   0  104.54    4.12
  -4  -2   0   98.08    3.54
   4  -2   1  191.39    4.71
   4   2   1  148.44    3.35
   4   2   1  152.18    3.95
  -4  -2  -1  160.47    3.84
  -4   2  -1  170.94    4.20
  -4  -2  -1  151.23    4.06
   4  -2   2  803.29   17.83
   4  -2   2  895.85   21.86
   4   2   2  754.92   16.11
   4   2   2  763.62   18.94
  -4  -2  -2  716.16   15.26
  -4  -2  -2  762.89   18.67
   4   2   3 3435.65  105.80
   4  -2   3 3558.66  103.38
   4  -2   3 3628.02  113.99
   4  -2   3 3342.09  103.00
   4   2   3 3147.68   88.11
   4   2   3 3058.20   86.39
  -4  -2  -3 3386.32  104.63
   4   2   4 2012.44   53.73
   4  -2   4 2410.77   73.21
   4   2   4 1874.32   49.65
   4  -2   4 2435.84   71.10
  -4   2  -4 2065.92   56.67
  -4  -2  -4 2157.54   64.14
   4  -2   5  180.68    5.63
   4  -2   5  175.14    7.22
   4   2   5  165.25    3.78
   4   2   5  170.55    3.85
  -4   2  -5  173.93    3.98
  -4  -2  -5  179.35    5.78
   4  -2   6   13.39    2.46
   4   2   6    4.59    0.75
   4   2   6    4.46    0.74
   4  -2   6    4.01    2.39
  -4   2  -6    6.86    1.02
  -4  -2  -6    3.59    1.52
   4  -2   7   83.33    3.76
   4  -2   7   82.42    5.24
   4   2   7   68.00    2.40
   4   2   7   74.04    2.51
  -4   2  -7   75.84    2.32
  -4  -2  -7   84.24    5.59
   4  -2   8  135.84    6.23
   4  -2   8  136.36    6.26
  -4   2  -8  111.19    4.39
  -4  -2  -8  136.40    6.06
   4  -2   9  165.12    9.92
   4  -2   9  181.75    8.18
  -4  -2  -9  186.02   11.28
   4  -4  -9  164.69    9.04
  -4  -4   9  178.53    9.26
   4  -4  -8  115.83    5.32
   4   4  -8   20.87    4.42
  -4  -4   8  130.25    9.59
   4  -4  -7   22.36    1.61
   4   4  -7   26.79    2.82
   4  -4  -7   24.16    2.82
  -4   4   7   17.39    1.58
  -4  -4   7   28.35    4.50
   4   4  -6   80.29    4.19
   4  -4  -6   74.36    2.88
  -4  -4   6   86.74    4.56
  -4   4   6   64.70    2.78
   4   4  -5  295.68    9.27
   4  -4  -5  286.98    7.65
  -4  -4   5  315.01   10.02
  -4   4   5  258.50    6.35
   4   4  -4 1768.44   52.80
   4   4  -4 1750.40   48.00
   4  -4  -4 1701.24   46.68
  -4   4   4 1614.35   46.17
  -4  -4   4 1828.15   54.31
   4  -4  -3 1830.87   53.12
   4   4  -3 1912.49   52.72
   4   4  -3 1942.01   59.18
  -4   4   3 1833.77   52.50
  -4  -4   3 2018.80   61.97
   4  -4  -2  307.20    7.89
   4   4  -2  325.79    8.55
   4   4  -2  314.33    7.15
  -4   4   2  307.45    8.41
  -4  -4   2  342.70    9.07
   4  -4  -1    2.30    0.87
   4   4  -1    2.38    0.61
   4   4  -1    1.01    0.76
  -4  -4   1    1.40    1.33
  -4   4   1    1.72    1.19
   4  -4   0  135.90    5.41
   4   4   0  133.86    3.30
   4   4   0  133.83    3.61
  -4  -4   0  141.04    3.95
  -4  -4   0  139.85    3.47
   4   4   1 2637.07   77.46
   4  -4   1 2581.20   76.49
   4   4   1 2493.42   69.63
  -4  -4  -1 2754.31   84.89
  -4  -4  -1 2841.64   81.76
   4   4   2 3605.43  113.52
   4  -4   2 3370.68   96.84
   4  -4   2 3573.82  113.16
  -4  -4  -2 3470.65  100.11
  -4  -4  -2 3661.40  115.35
  -4  -4  -2 3338.68   95.95
   4  -4   3  806.72   22.20
   4  -4   3  855.38   23.73
  -4  -4  -3  870.25   24.28
   4  -4   4    5.85    2.80
   4  -4   4    9.32    1.71
  -4  -4  -4    5.51    2.61
   4  -4   5    5.16    1.66
   4  -4   5    3.96    1.64
  -4  -4  -5    3.88    1.59
   4  -4   6  365.91   14.84
   4  -4   6  362.84   12.12
  -4  -4  -6  364.95   12.53
   4  -4   7  730.50   24.80
   4  -4   7  704.15   23.63
  -4  -4  -7  743.08   30.44
   4  -4   8  159.45   10.77
   4  -4   8  155.04    7.55
  -4  -4  -8  151.71    7.77
   4  -4   9    5.11    2.21
   4  -4   9    0.00    3.55
  -4  -4  -9    0.43    2.63
   4  -6  -8  143.47   11.65
  -4  -6   8  128.27    7.48
   4  -6  -7  553.92   21.41
  -4  -6   7  565.04   21.74
   4  -6  -6  410.77   14.41
  -4  -6   6  465.26   20.61
   4  -6  -5    0.75    0.65
   4  -6  -5    1.41    1.30
  -4  -6   5    1.32    1.63
   4   6  -4    7.13    0.60
   4  -6  -4    8.35    2.75
   4  -6  -4    6.87    1.22
   4   6  -4    0.55    1.71
  -4  -6   4    6.20    3.01
   4  -6  -3  329.23    8.56
   4  -6  -3  351.20   10.37
   4   6  -3  348.56    8.35
  -4  -6   3  361.09   11.03
   4   6  -2 1795.63   51.03
   4  -6  -2 1758.21   52.46
   4  -6  -2 1787.52   54.11
  -4  -6   2 1863.50   56.31
   4  -6  -1 1512.07   45.27
   4  -6  -1 1574.68   45.32
   4   6  -1 1522.68   43.83
  -4  -6   1  695.09   19.75
  -4  -6   1 1592.17   40.47
   4  -6   0   97.09    5.06
   4   6   0   82.72    2.93
   4  -6   0   82.25    3.39
  -4  -6   0   88.87    3.93
  -4  -6   0   92.15    3.35
   4  -6   1    0.82    0.83
   4  -6   1    8.70    1.24
   4  -6   1    1.01    1.32
  -4  -6  -1    0.65    0.49
  -4  -6  -1    2.08    0.96
  -4  -6  -1    0.82    0.86
   4  -6   2  247.95    7.66
   4  -6   2  270.78   10.69
   4  -6   2  231.60    5.03
  -4  -6  -2  252.16    5.90
  -4  -6  -2  259.18    6.05
  -4  -6  -2  258.27   10.07
   4  -6   3  984.85   29.58
   4  -6   3  950.34   31.95
  -4  -6  -3  969.21   28.80
   4  -6   4  823.80   26.17
   4  -6   4  809.11   29.05
  -4  -6  -4  794.96   24.83
   4  -6   5  120.56    5.81
   4  -6   5  125.96    6.27
  -4  -6  -5  121.22    5.84
   4  -6   6   12.05    2.86
   4  -6   6   15.18    3.06
  -4  -6  -6   10.01    2.70
   4  -6   7   33.13    4.08
   4  -6   7   28.65    4.01
  -4  -6  -7   31.83    4.01
  -4  -8   6   32.11    4.16
  -4  -8   5  156.64    8.22
  -4  -8   4  435.96   15.73
   4  -8  -3  390.04   11.01
   4  -8  -3  342.17    9.54
  -4  -8   3  411.47   16.67
   4  -8  -2   90.31    4.47
   4  -8  -2   91.04    5.19
   4  -8  -2   98.19    4.13
  -4  -8   2   98.55    6.11
   4  -8  -1   36.74    2.47
   4  -8  -1   35.52    3.12
  -4  -8   1   14.25    1.63
  -4  -8   1   17.86    2.75
   4  -8   0   80.82    4.11
   4  -8   0  119.46    6.51
   4  -8   0  112.73    4.36
  -4  -8   0   65.25    3.80
  -4  -8   0   67.98    2.94
  -4  -8   0   62.99    3.73
   4  -8   1  595.33   18.38
   4  -8   1  503.72   14.82
   4  -8   1  554.47   16.94
  -4  -8  -1  565.10   16.48
  -4  -8  -1  573.26   16.63
  -4  -8  -1  570.90   17.10
   4  -8   2  840.68   26.89
   4  -8   2  798.34   28.35
  -4  -8  -2  802.50   25.32
   4  -8   3  185.15    7.77
   4  -8   3  195.31    8.22
  -4  -8  -3  191.46    7.70
   4  -8   4    2.99    2.27
   4  -8   4    5.34    3.93
  -4  -8  -4    5.24    2.24
   4  -8   5    1.31    2.13
   4  -8   5    0.23    2.01
  -4  -8  -5    3.99    3.91
   4  -8   6  125.42    8.36
   4  -8   6  122.46    8.05
  -4  -8  -6  121.22   11.57
   4 -10  -1  260.53    8.95
   4 -10  -1  258.94   10.76
   4 -10  -1  298.76    9.46
  -4 -10   1  279.95    9.89
  -4 -10   1  264.21    9.62
   4 -10   0   37.60    4.71
   4 -10   0   44.59    2.88
   4 -10   1    4.50    2.06
   4 -10   1    6.76    1.86
  -4 -10  -1    0.25    1.01
   5  -1  -9   61.09    3.75
   5   1  -9   60.23    2.97
   5   1  -9   65.64    3.73
   5  -1  -9   60.00    3.09
  -5  -1   9   57.06    5.99
  -5   1   9   53.47    3.22
   5   1  -8  241.59   10.57
   5  -1  -8  238.46    9.41
  -5   1   8  220.64    7.70
  -5  -1   8  234.18   11.06
   5  -1  -7  293.85   10.37
   5   1  -7  293.46    9.39
  -5  -1   7  286.35    9.54
  -5   1   7  272.13    8.74
   5  -1  -6  155.46    6.05
   5   1  -6  137.33    4.94
  -5  -1   6  146.28    7.44
  -5   1   6  146.74    6.49
   5   1  -5  490.23   15.01
   5  -1  -5  503.82   14.36
  -5   1   5  478.85   12.94
  -5  -1   5  502.80   14.06
   5  -1  -4  491.18   12.13
   5   1  -4  479.41   12.45
  -5   1   4  490.85   14.42
  -5  -1   4  508.84   13.77
   5  -1  -3 3035.47   87.60
   5   1  -3 2800.76   81.58
  -5  -1   3 3271.22  101.47
  -5   1   3 3146.85   97.45
   5   1  -2 1588.08   41.35
   5  -1  -2 1572.16   41.02
  -5   1   2 1799.95   50.70
  -5  -1   2 1768.88   49.80
   5   1  -1  193.08    6.80
   5  -1  -1  265.74    6.80
  -5  -1   1  192.63    5.12
  -5   1   1  181.10    5.15
   5   1   0  341.88    8.37
   5  -1   0  388.79   11.29
   5   1   0  337.74    7.92
  -5   1   0  333.63    8.29
  -5  -1   0  373.57    8.83
   5   1   1 2295.77   63.31
   5   1   1 2383.21   66.79
   5  -1   1 2555.97   73.78
  -5   1  -1 2347.40   65.60
  -5  -1  -1 2329.97   63.98
  -5  -1  -1 2556.78   71.58
   5  -1   2 1869.82   49.45
   5   1   2 1856.64   50.63
   5  -1   2 2043.20   57.14
   5   1   2 1859.00   48.89
  -5  -1  -2 1802.38   47.42
  -5   1  -2 1867.67   51.68
  -5  -1  -2 1901.60   51.44
   5   1   3 1267.50   32.07
   5   1   3 1335.90   35.62
   5  -1   3 1555.66   42.40
   5  -1   3 1439.78   37.49
  -5   1  -3 1403.48   36.35
  -5  -1  -3 1353.83   36.22
   5  -1   4  175.21    6.10
   5  -1   4  157.73    4.52
   5   1   4  144.11    5.59
   5  -1   4  160.27    4.43
   5   1   4  141.48    3.76
   5   1   4  140.69    3.91
  -5  -1  -4  144.81    4.38
  -5   1  -4  156.69    4.77
   5  -1   5  328.36    8.84
   5  -1   5  309.35    8.41
   5   1   5  303.04    7.09
   5   1   5  298.23    6.95
  -5   1  -5  305.24    8.68
  -5  -1  -5  305.65    8.59
   5  -1   6  374.60   10.77
   5   1   6  367.17   10.14
   5   1   6  357.15    9.92
   5  -1   6  370.35   12.19
  -5   1  -6  360.64    9.54
  -5  -1  -6  380.86   12.99
   5  -1   7  334.71   12.13
   5   1   7  332.43    9.98
   5   1   7  313.21    9.57
   5  -1   7  349.23   10.70
  -5   1  -7  323.07    9.42
  -5  -1  -7  355.05   11.21
   5   1   8   56.41    2.96
   5   1   8   65.33    3.32
   5  -1   8   72.62    4.88
   5  -1   8   70.36    3.53
  -5  -1  -8   70.54    5.25
  -5   1  -8   66.36    3.82
   5  -1   9    8.38    1.58
   5  -1   9    5.09    1.56
  -5  -1  -9    6.16    1.73
  -5   1  -9    6.77    1.17
   5   3  -9   26.99    3.36
   5  -3  -9   23.53    3.24
  -5  -3   9   22.71    5.04
   5  -3  -8  129.07    4.19
   5  -3  -8  131.17    6.32
   5   3  -8  131.55    6.25
  -5  -3   8  137.61    8.69
  -5   3   8  104.05    3.82
   5  -3  -7  288.50    9.13
   5   3  -7  302.40   10.44
  -5   3   7  235.45    8.36
  -5  -3   7  311.96   10.78
   5   3  -6  277.40    9.15
   5  -3  -6  278.00    8.34
  -5  -3   6  284.71    9.33
  -5   3   6  228.78    6.56
   5   3  -5  387.47   11.50
   5  -3  -5  384.72   10.78
  -5  -3   5  397.01   12.02
  -5   3   5  348.10   10.49
   5   3  -4  242.11    7.35
   5  -3  -4  249.06    6.41
  -5   3   4  229.99    6.13
  -5  -3   4  256.82   10.09
   5  -3  -3 1414.34   37.75
   5   3  -3 1439.16   42.02
  -5   3   3 1407.33   39.92
  -5  -3   3 1542.92   45.58
   5   3  -2 1388.50   37.10
   5  -3  -2 1413.55   37.80
   5   3  -2 1390.27   37.29
  -5   3   2 1373.26   36.49
  -5  -3   2 1511.43   42.80
   5   3  -1  764.55   19.63
   5   3  -1  762.22   18.62
   5  -3  -1  813.64   20.43
  -5   3   1  762.24   20.25
  -5  -3   1  852.07   20.97
   5   3   0  557.87   13.49
   5  -3   0  574.87   15.64
   5   3   0  552.31   13.28
  -5  -3   0  634.07   14.72
  -5  -3   0  602.07   14.68
  -5   3   0  578.45   14.22
   5   3   1  941.05   22.36
   5   3   1  951.77   24.11
   5  -3   1  989.75   25.35
  -5   3  -1  948.77   24.23
  -5  -3  -1  983.31   25.04
  -5  -3  -1 1042.56   25.13
   5   3   2  986.91   22.63
   5   3   2 1012.31   26.54
   5  -3   2 1061.57   27.94
  -5  -3  -2  982.54   22.56
  -5  -3  -2 1051.61   27.61
   5  -3   3  953.42   25.71
   5   3   3  916.10   24.61
   5  -3   3  872.05   19.58
  -5  -3  -3  928.53   25.14
   5  -3   4  311.84    9.04
   5  -3   4  288.76    8.45
  -5  -3  -4  308.14   10.98
   5  -3   5  340.71   12.60
   5  -3   5  324.12    9.83
  -5  -3  -5  330.05   10.15
   5  -3   6  253.02   10.73
   5  -3   6  232.24   10.28
  -5  -3  -6  242.40    8.42
   5  -3   7  186.59    7.37
   5  -3   7  188.07    7.23
  -5  -3  -7  181.48    9.77
   5  -3   8   64.59    4.23
   5  -3   8   55.68    4.09
  -5  -3  -8   61.51    4.29
   5  -3   9    0.00    4.00
   5  -3   9   20.72    3.95
  -5  -3  -9   18.91    3.08
   5  -5  -8  171.15    8.58
  -5  -5   8  197.28   13.87
   5  -5  -7  116.25    8.93
   5   5  -7  126.57    6.61
  -5  -5   7  128.47    6.60
   5   5  -6   29.22    4.72
   5  -5  -6   29.74    1.79
  -5   5   6   25.98    1.81
  -5  -5   6   34.35    3.37
   5  -5  -5  158.66    4.87
   5   5  -5  171.69    6.35
  -5  -5   5  185.69    7.08
  -5   5   5  158.46    4.19
   5   5  -4  569.82   14.22
   5  -5  -4  554.44   15.29
   5   5  -4  595.64   19.95
  -5   5   4  559.26   14.11
  -5  -5   4  631.73   21.45
   5   5  -3 1543.53   42.30
   5   5  -3 1541.16   45.47
   5  -5  -3 1449.15   40.96
  -5   5   3 1516.26   42.25
  -5  -5   3 1645.16   48.66
   5   5  -2  601.45   16.24
   5   5  -2  601.10   14.85
   5  -5  -2  582.68   17.26
  -5  -5   2  649.36   17.65
  -5   5   2  595.71   16.70
   5  -5  -1   57.87    2.71
   5   5  -1   56.93    2.92
   5   5  -1   55.64    3.33
  -5   5   1   52.90    2.25
  -5  -5   1   62.44    3.71
   5  -5   0  194.24    7.50
   5   5   0  172.10    4.43
   5   5   0  181.12    5.09
  -5  -5   0  197.91    7.23
  -5  -5   0  196.00    6.22
   5   5   1 1066.32   29.23
   5  -5   1 1102.63   33.27
  -5  -5  -1 1139.81   34.14
  -5  -5  -1 1181.45   31.12
   5  -5   2 1344.84   33.52
   5  -5   2 1442.04   41.91
   5   5   2 1434.20   43.94
  -5  -5  -2 1421.85   35.94
  -5  -5  -2 1451.60   37.13
  -5  -5  -2 1504.83   43.95
   5  -5   3  515.97   15.24
   5  -5   3  478.45   14.04
  -5  -5  -3  526.50   15.44
   5  -5   4   21.47    4.39
   5  -5   4   22.21    2.50
  -5  -5  -4   23.73    2.59
   5  -5   5  112.03    7.38
   5  -5   5  110.88    5.33
  -5  -5  -5  115.72    7.61
   5  -5   6  286.79   10.84
   5  -5   6  268.04   10.42
  -5  -5  -6  279.98   14.06
   5  -5   7  260.54   10.96
   5  -5   7  272.02   11.23
  -5  -5  -7  277.84   16.05
   5  -5   8   48.24    7.12
   5  -5   8   47.98    7.34
  -5  -5  -8   49.58    4.96
   5  -7  -7  162.84    8.99
  -5  -7   7  152.91    8.34
  -5  -7   6  218.82   10.11
   5  -7  -5  133.30    8.71
  -5  -7   5  141.08    7.10
   5  -7  -4   63.24    3.68
   5  -7  -4   58.86    2.17
  -5  -7   4   69.31    6.47
   5  -7  -3  211.98    7.18
   5   7  -3  207.51    4.93
   5  -7  -3  203.07    5.90
  -5  -7   3  234.58    8.14
   5  -7  -2  433.71   12.94
   5   7  -2  435.10   10.93
   5  -7  -2  465.45   14.38
  -5  -7   2  472.36   14.06
   5  -7  -1  476.61   13.53
   5  -7  -1  439.61   13.78
   5   7  -1  440.32   11.56
  -5  -7   1  472.94   15.20
   5  -7   0  328.30    9.90
   5  -7   0  286.76    9.00
   5  -7   0  299.59    8.83
  -5  -7   0  305.78    8.86
  -5  -7   0  304.43    8.38
   5  -7   1  140.29    5.41
   5  -7   1  127.41    4.07
   5  -7   1  141.39    6.78
  -5  -7  -1  143.45    6.83
  -5  -7  -1  138.26    4.61
  -5  -7  -1  133.72    3.58
   5  -7   2  234.53    8.21
   5  -7   2  196.21    4.58
   5  -7   2  227.37    9.82
  -5  -7  -2  199.18    4.59
  -5  -7  -2  205.82    5.21
  -5  -7  -2  218.05    7.47
   5  -7   3  315.30   11.56
   5  -7   3  307.28   13.49
  -5  -7  -3  295.88   10.27
   5  -7   4  206.84   11.44
   5  -7   4  212.50   12.24
  -5  -7  -4  207.96    8.25
   5  -7   5  174.49    8.35
   5  -7   5  172.22    8.03
  -5  -7  -5  185.09   11.95
   5  -7   6   78.83    5.94
   5  -7   6   82.96    6.16
  -5  -7  -6   84.26    9.32
   5  -7   7   41.74    5.34
   5  -7   7   51.80    5.44
  -5  -7  -7   53.06    8.58
  -5  -9   4  251.77   10.66
  -5  -9   3  362.88   13.37
   5  -9  -2  108.96    5.60
   5  -9  -2  122.36    5.36
  -5  -9   2  111.82    5.12
  -5  -9   2  114.87    5.30
   5  -9  -1    5.36    1.57
   5  -9  -1    5.62    2.21
   5  -9  -1    7.93    1.27
  -5  -9   1    6.39    1.46
  -5  -9   1    5.42    2.39
   5  -9   0   52.22    3.34
   5  -9   0   56.86    3.50
   5  -9   0   60.64    3.23
  -5  -9   0   53.78    3.64
  -5  -9   0   49.44    2.42
  -5  -9   0   39.85    2.67
   5  -9   1  299.20   13.66
   5  -9   1  283.56    9.97
  -5  -9  -1  277.55    9.43
   5  -9   2  429.22   15.05
   5  -9   2  441.87   19.46
  -5  -9  -2  415.21   17.25
   5  -9   3  118.75    9.87
   5  -9   3  118.95    9.13
  -5  -9  -3  123.06    6.41
   5  -9   4    3.75    2.62
   5  -9   4    4.20    2.38
  -5  -9  -4    4.80    2.36
   6   0  -9  514.85   20.01
  -6   0   9  476.52   19.95
   6   0  -8  546.30   17.47
  -6   0   8  520.53   17.34
   6   0  -7   64.21    4.50
  -6   0   7   59.54    4.73
   6   0  -6  202.04    6.19
  -6   0   6  195.66    6.40
   6   0  -5   91.33    3.46
  -6   0   5   92.91    3.90
   6   0  -4 4317.75  137.37
  -6   0   4 4706.59  160.92
   6   0  -3 5186.62  170.72
  -6   0   3 5314.06  177.20
   6   0  -2 1621.05   42.80
  -6   0   2 1765.22   48.22
   6   0  -1  890.68   22.17
  -6   0   1  979.62   25.09
   6   0   0  157.39    4.72
  -6   0   0  150.35    4.46
   6   0   1 5707.13  191.27
   6   0   1 5484.85  181.49
  -6   0  -1 5428.91  179.96
   6   0   2 7423.41  259.42
   6   0   2 6900.21  242.77
  -6   0  -2 7067.36  248.80
   6   0   3  643.87   15.73
   6   0   3  624.08   15.23
  -6   0  -3  650.11   17.57
   6   0   4    9.57    1.13
   6   0   4   10.16    0.96
   6   0   4   12.34    1.74
  -6   0  -4    8.66    1.13
   6   0   5    7.28    1.51
   6   0   5    4.89    0.85
  -6   0  -5    6.15    1.08
   6   0   6  754.28   22.70
   6   0   6  720.70   21.92
  -6   0  -6  741.15   21.48
   6   0   7  581.42   18.99
   6   0   7  586.97   19.39
  -6   0  -7  589.58   18.27
   6   0   8  156.83    6.59
   6   0   8  174.96    7.15
  -6   0  -8  174.86    6.29
   6   0   9    1.53    0.92
   6   0   9    0.85    1.41
  -6   0  -9    1.72    1.10
   6  -2  -9   21.66    2.59
   6   2  -9   13.80    2.61
   6  -2  -9   18.07    1.71
  -6  -2   9   16.75    2.92
  -6   2   9   15.76    2.88
   6  -2  -8   52.09    2.59
   6   2  -8   53.30    5.44
  -6  -2   8   55.30    3.94
  -6   2   8   46.48    2.68
   6  -2  -7  474.92   13.70
   6   2  -7  499.45   18.62
  -6  -2   7  490.72   18.77
  -6   2   7  420.93   12.93
   6  -2  -6  634.20   18.93
   6   2  -6  640.64   18.76
  -6  -2   6  642.45   19.26
  -6   2   6  575.02   16.57
   6   2  -5  545.70   15.39
   6  -2  -5  533.26   14.00
  -6  -2   5  557.91   16.40
  -6   2   5  521.83   16.29
   6   2  -4  371.68   10.23
   6  -2  -4  383.56    9.83
  -6  -2   4  400.49   11.46
  -6   2   4  364.23   11.67
   6   2  -3   84.03    4.51
   6  -2  -3   84.93    2.92
  -6   2   3   85.38    3.17
  -6  -2   3   92.01    3.74
   6  -2  -2 1402.69   38.96
   6   2  -2 1336.68   35.15
  -6  -2   2 1527.05   42.88
  -6   2   2 1354.84   36.39
   6   2  -1 2235.77   64.05
   6  -2  -1 2348.68   69.01
  -6   2   1 2158.35   62.95
  -6  -2   1 2436.94   68.06
   6   2   0 2435.15   69.60
   6   2   0 2446.50   71.12
   6  -2   0 2496.88   71.70
  -6   2   0 2277.58   64.65
  -6  -2   0 2514.70   71.57
   6  -2   1 1643.39   44.27
   6   2   1 1582.41   44.15
   6   2   1 1544.76   40.79
  -6  -2  -1 1697.29   47.73
  -6   2  -1 1608.72   43.40
  -6  -2  -1 1639.63   42.50
   6  -2   2  172.91    4.88
   6  -2   2  169.28    4.34
   6   2   2  161.29    3.84
   6   2   2  168.44    5.93
  -6   2  -2  164.39    4.56
  -6  -2  -2  173.92    4.81
  -6  -2  -2  166.89    3.84
   6  -2   3   11.31    1.02
   6   2   3   10.47    0.90
   6  -2   3   12.86    2.49
   6   2   3   10.84    1.45
  -6  -2  -3    8.90    1.43
   6   2   4  686.13   18.59
   6  -2   4  672.70   18.15
   6   2   4  657.50   15.37
   6  -2   4  716.31   21.57
   6  -2   4  688.45   16.68
   6   2   4  677.85   15.28
  -6  -2  -4  709.06   19.46
   6  -2   5  999.27   28.81
   6   2   5  920.51   23.01
   6  -2   5  935.90   26.93
   6   2   5  918.45   22.75
  -6  -2  -5  974.68   31.49
   6   2   6  645.73   15.51
   6  -2   6  741.06   22.12
   6   2   6  657.09   15.86
   6  -2   6  700.32   20.73
  -6  -2  -6  735.80   25.84
   6  -2   7   27.56    2.26
   6   2   7   21.42    1.21
   6  -2   7   24.27    2.21
   6   2   7   21.03    1.23
  -6  -2  -7   24.83    3.83
  -6   2  -7   23.24    1.18
   6  -2   8    0.00    1.81
   6  -2   8    0.96    1.14
  -6  -2  -8    1.61    1.42
   6  -2   9   18.54    3.86
   6  -2   9   16.53    2.44
  -6  -2  -9   25.38    4.56
   6  -4  -8  350.69   13.78
   6   4  -8  346.73   17.02
  -6  -4   8  346.97   17.38
   6  -4  -7   35.50    1.70
   6   4  -7   33.04    5.26
  -6   4   7   22.40    2.18
  -6  -4   7   33.64    3.45
   6  -4  -6   75.97    2.59
   6   4  -6   83.08    6.18
  -6   4   6   68.12    3.41
  -6  -4   6   80.46    6.61
   6  -4  -5   65.25    3.15
   6   4  -5   65.51    3.74
  -6   4   5   61.56    3.26
  -6  -4   5   71.37    3.97
   6  -4  -4 2225.66   66.17
   6   4  -4 2331.18   72.66
   6   4  -4 2245.73   67.22
  -6  -4   4 2428.50   75.49
  -6   4   4 2164.63   66.88
   6  -4  -3 2800.52   88.65
   6   4  -3 2842.37   91.98
   6   4  -3 2739.21   81.96
  -6   4   3 2738.04   83.86
  -6  -4   3 3030.10   94.67
   6   4  -2  624.11   15.48
   6  -4  -2  639.41   17.13
   6   4  -2  612.02   16.18
  -6  -4   2  672.33   17.91
  -6   4   2  609.87   15.65
   6  -4  -1  191.74    7.50
   6   4  -1  176.18    4.73
   6   4  -1  177.03    4.82
  -6   4   1  186.30    6.66
  -6  -4   1  195.73    6.83
   6  -4   0   11.13    1.69
   6   4   0   12.79    1.02
   6   4   0   11.45    1.32
  -6  -4   0   12.25    1.54
  -6   4   0   12.34    2.35
  -6  -4   0   13.29    1.22
   6   4   1 2632.92   76.37
   6  -4   1 2734.77   86.76
   6   4   1 2585.90   80.68
  -6  -4  -1 2659.51   75.66
  -6  -4  -1 2723.66   81.75
   6  -4   2 3354.51  106.04
   6   4   2 3270.01  106.39
   6   4   2 2948.92   86.40
  -6  -4  -2 3272.66   96.02
  -6  -4  -2 3322.49  105.46
   6   4   3  478.71   13.45
   6  -4   3  455.31    9.01
   6  -4   3  502.29   14.48
  -6  -4  -3  494.70   14.10
   6  -4   4    4.56    1.65
   6  -4   4    3.67    1.48
  -6  -4  -4    1.61    2.31
   6  -4   5    1.01    1.27
   6  -4   5    0.28    1.96
  -6  -4  -5    0.62    1.20
   6  -4   6  443.41   14.67
   6  -4   6  419.98   14.09
  -6  -4  -6  436.44   15.02
   6  -4   7  415.70   19.27
   6  -4   7  441.69   15.93
  -6  -4  -7  429.91   16.19
   6  -4   8  126.56    6.70
   6  -4   8  130.56    6.97
  -6  -4  -8  138.01   10.71
   6  -6  -7  211.27    9.94
  -6  -6   7  226.27   14.20
   6  -6  -6  316.94   12.26
   6   6  -6  348.74   13.11
  -6  -6   6  340.58   12.95
   6   6  -5  181.85    4.81
   6   6  -5  207.75   10.60
   6  -6  -5  190.12    5.17
  -6  -6   5  223.62   11.61
  -6   6   5  196.25    6.12
   6  -6  -4  109.72    3.42
   6   6  -4  115.70    4.96
   6   6  -4  113.71    3.42
  -6  -6   4  130.62    5.51
  -6   6   4  117.53    4.37
   6   6  -3   69.84    3.40
   6  -6  -3   79.71    4.13
   6   6  -3   68.48    2.78
  -6  -6   3   83.00    3.98
  -6   6   3   79.30    2.75
   6   6  -2  390.12   10.22
   6   6  -2  391.87   11.27
   6  -6  -2  472.77   14.58
  -6  -6   2  439.17   12.93
  -6   6   2  459.99   12.26
   6  -6  -1  901.21   27.39
   6   6  -1  777.64   21.70
   6   6  -1  800.77   23.97
  -6  -6   1  882.64   26.60
   6   6   0  896.73   25.62
   6  -6   0  938.32   29.03
  -6  -6   0  968.99   27.61
  -6  -6   0  995.44   28.76
   6  -6   1  524.61   15.31
   6   6   1  500.19   14.23
   6  -6   1  483.01   11.72
  -6  -6  -1  563.24   15.06
  -6  -6  -1  556.69   16.17
   6   6   2   54.46    2.98
   6  -6   2   51.50    1.54
   6  -6   2   53.70    3.15
   6  -6   2   69.67    5.43
  -6  -6  -2   56.58    4.84
  -6  -6  -2   53.89    1.83
  -6  -6  -2   51.40    1.62
   6  -6   3  101.88    4.92
   6  -6   3  111.11    7.93
  -6  -6  -3   36.08    4.91
   6  -6   4  314.25   11.58
   6  -6   4  285.51   10.63
  -6  -6  -4  275.97   10.22
   6  -6   5  440.63   19.80
   6  -6   5  406.09   18.28
  -6  -6  -5  444.47   16.26
   6  -6   6  300.91   16.69
   6  -6   6  282.77   11.64
  -6  -6  -6  312.78   17.27
   6  -6   7   21.30    3.79
   6  -6   7   25.38    6.08
  -6  -6  -7   22.61    3.84
  -6  -8   5   45.52    4.12
  -6  -8   4  599.31   24.77
   6  -8  -3  650.07   20.43
  -6  -8   3  721.56   26.74
   6  -8  -2  124.71    6.01
  -6  -8   2  128.93    6.86
   6  -8  -1    6.05    1.66
   6  -8  -1    6.97    2.01
   6  -8  -1   10.72    1.42
  -6  -8   1    9.16    1.41
   6  -8   0   19.49    2.37
   6  -8   0   19.75    3.17
   6  -8   0   19.13    2.08
  -6  -8   0   19.72    1.56
  -6  -8   0   14.19    1.89
   6  -8   1  538.64   16.80
   6  -8   1  510.83   14.84
   6  -8   1  592.38   22.26
  -6  -8  -1  579.97   17.62
  -6  -8  -1  534.42   14.75
  -6  -8  -1  544.18   16.36
   6  -8   2  735.57   28.27
   6  -8   2  700.59   22.72
  -6  -8  -2  704.28   25.85
   6  -8   3  218.63   12.43
   6  -8   3  205.00    8.54
  -6  -8  -3  210.45    8.62
   6  -8   4    2.02    2.09
   6  -8   4    1.64    1.96
  -6  -8  -4    1.91    1.99
   6  -8   5    2.34    4.42
   6  -8   5    4.01    2.43
  -6  -8  -5    3.25    2.42
   7   1  -9   98.80    7.25
   7  -1  -9   94.72    6.02
  -7   1   9   82.51    4.41
  -7  -1   9   94.59    7.79
   7   1  -8  272.84   10.04
   7  -1  -8  264.24    8.99
  -7  -1   8  262.09   10.07
  -7   1   8  242.16   10.88
   7  -1  -7  141.69    5.13
   7   1  -7  150.13    5.83
  -7  -1   7  147.39    8.09
  -7   1   7  130.45    5.23
   7   1  -6  270.28    8.44
   7  -1  -6  273.90    8.03
  -7  -1   6  277.48    9.07
  -7   1   6  263.89    8.36
   7  -1  -5  314.60    8.74
   7   1  -5  323.67    9.47
  -7   1   5  316.07   11.65
  -7  -1   5  332.44   10.19
   7   1  -4 1226.13   33.38
   7  -1  -4 1195.52   34.41
  -7  -1   4 1313.38   40.07
  -7   1   4 1233.16   35.05
   7   1  -3 1010.98   26.36
   7  -1  -3  999.26   26.00
  -7   1   3 1033.49   28.40
  -7  -1   3 1152.68   31.09
   7  -1  -2  308.55    8.02
   7   1  -2  318.34    7.97
  -7  -1   2  417.64   10.58
  -7   1   2  330.61    9.13
   7  -1  -1  973.29   27.18
   7   1  -1 1006.22   25.27
  -7   1   1  983.73   25.76
  -7  -1   1 1098.62   28.14
   7  -1   0 2532.46   72.97
   7   1   0 2363.14   67.22
  -7   1   0 2455.09   73.19
  -7  -1   0 2651.16   75.92
   7  -1   1 1503.94   40.85
   7   1   1 1545.26   43.45
   7   1   1 1541.06   42.41
  -7  -1  -1 1557.05   40.79
  -7   1  -1 1420.44   38.10
   7  -1   2 1612.76   43.99
   7   1   2 1678.00   45.55
   7  -1   2 1561.56   41.60
   7   1   2 1552.27   41.53
  -7   1  -2 1599.82   45.70
  -7  -1  -2 1685.95   45.63
  -7  -1  -2 1721.55   47.57
   7   1   3  152.82    4.62
   7  -1   3  139.47    4.20
   7  -1   3  126.46    3.34
   7   1   3  152.49    4.43
  -7  -1  -3  135.20    3.19
  -7  -1  -3  148.04    4.62
   7  -1   4  219.63    7.63
   7   1   4  212.60    7.64
   7  -1   4  203.89    5.09
   7   1   4  209.96    5.15
  -7  -1  -4  213.60    6.33
   7   1   5  674.31   18.23
   7  -1   5  669.12   17.14
   7   1   5  669.59   18.84
   7  -1   5  699.90   19.14
   7  -1   5  635.11   17.48
   7   1   5  661.21   17.55
  -7   1  -5  703.38   20.14
  -7  -1  -5  706.31   22.51
   7  -1   6  305.01   10.92
   7  -1   6  298.69   10.49
   7   1   6  291.94    7.50
   7   1   6  293.78    8.68
  -7   1  -6  295.73    8.15
  -7  -1  -6  314.17    9.76
   7  -1   7  133.64    6.20
   7  -1   7  139.68    6.52
   7   1   7  119.04    4.55
   7   1   7  124.72    4.71
  -7   1  -7  131.43    5.34
  -7  -1  -7  143.90    5.55
   7  -1   8   15.91    1.74
   7   1   8   12.19    1.69
   7   1   8   11.33    1.10
   7  -1   8   13.42    2.66
  -7   1  -8   11.00    1.31
  -7  -1  -8   15.51    2.97
   7  -1   9   46.29    4.43
   7  -1   9   41.29    4.03
  -7  -1  -9   48.02    3.45
   7  -3  -9   68.53    4.91
   7   3  -9   60.91    4.76
  -7  -3   9   55.56    7.71
   7  -3  -8  121.50    4.46
   7   3  -8  130.62    6.41
  -7  -3   8  127.54    6.62
  -7   3   8   99.29    5.46
   7  -3  -7   88.04    4.43
   7   3  -7   92.20    4.80
  -7  -3   7   93.00    7.13
  -7   3   7   78.98    3.29
   7  -3  -6  336.65    9.41
   7   3  -6  347.76   11.24
  -7   3   6  302.53   10.59
  -7  -3   6  354.54   11.69
   7  -3  -5  489.33   13.08
   7   3  -5  504.57   14.82
  -7  -3   5  525.75   15.86
  -7   3   5  444.97   12.56
   7   3  -4  825.46   23.15
   7  -3  -4  799.72   21.52
  -7   3   4  763.70   20.96
  -7  -3   4  883.44   28.11
   7  -3  -3  396.90   10.63
   7   3  -3  415.09   11.26
  -7  -3   3  458.50   12.94
   7   3  -2  144.76    4.23
   7   3  -2  145.11    4.48
   7  -3  -2  145.96    6.55
  -7   3   2  134.65    4.28
  -7  -3   2  159.47    6.84
   7   3  -1  935.41   24.03
   7   3  -1  865.19   22.12
   7  -3  -1  945.51   27.28
  -7   3   1  909.67   25.83
  -7  -3   1 1009.30   28.00
   7  -3   0 2236.21   67.37
   7   3   0 2104.30   62.32
   7   3   0 2013.89   56.37
  -7  -3   0 2367.32   68.57
  -7   3   0 2048.09   59.23
   7   3   1 1197.03   30.36
   7   3   1 1264.10   34.14
   7  -3   1 1325.17   36.17
  -7   3  -1 1294.17   35.39
  -7  -3  -1 1346.42   39.33
  -7  -3  -1 1367.94   35.10
   7  -3   2  598.03   18.63
   7   3   2  550.24   12.78
   7   3   2  578.58   15.45
  -7   3  -2  564.40   15.14
  -7  -3  -2  573.74   13.60
  -7  -3  -2  614.40   16.47
   7  -3   3   56.37    1.42
   7   3   3   52.95    1.28
   7  -3   3   60.88    3.17
   7   3   3   58.82    2.95
  -7  -3  -3   58.30    1.36
  -7  -3  -3   58.49    4.70
   7  -3   4  267.09    5.46
   7  -3   4  286.33   10.95
   7   3   4  268.55    8.31
  -7  -3  -4  289.09   11.31
   7  -3   5  680.42   22.95
   7  -3   5  730.18   22.01
  -7  -3  -5  737.15   22.43
   7  -3   6  289.62   12.45
   7  -3   6  259.69    8.94
  -7  -3  -6  287.09   10.03
   7  -3   7   71.67    4.16
   7  -3   7   65.19    3.91
  -7  -3  -7   80.08    4.56
   7  -3   8    6.93    1.99
   7  -3   8    0.00    3.00
  -7  -3  -8    6.69    3.65
   7  -3   9   45.46    3.85
   7  -3   9   47.48    6.04
  -7  -3  -9   52.50    4.49
   7  -5  -8  216.31   10.38
   7   5  -8  237.12   10.93
  -7  -5   8  214.66   10.23
   7   5  -7  103.24    5.83
  -7  -5   7  106.44    9.82
   7   5  -6   52.68    2.46
   7  -5  -6   55.86    3.03
   7   5  -6   64.85    4.10
  -7   5   6   56.29    2.29
  -7  -5   6   66.84    4.64
   7   5  -5   98.94    3.54
   7  -5  -5  102.55    3.37
   7   5  -5  103.32    7.02
  -7   5   5   99.62    4.27
  -7  -5   5  114.29    7.85
   7  -5  -4  538.63   14.55
   7   5  -4  564.20   16.89
   7   5  -4  545.33   14.77
  -7   5   4  552.22   16.14
  -7  -5   4  596.14   20.61
   7   5  -3  823.50   21.46
   7  -5  -3  841.17   25.44
   7   5  -3  826.52   26.04
  -7   5   3  837.81   24.51
  -7  -5   3  879.22   28.00
   7   5  -2  283.72    8.59
   7   5  -2  281.65   10.07
   7  -5  -2  323.87   11.14
  -7   5   2  295.60    8.24
  -7  -5   2  306.44   11.00
   7  -5  -1  224.74    8.61
   7   5  -1  184.37    6.52
   7   5  -1  182.28    6.72
  -7   5   1  211.19    7.69
  -7  -5   1  205.39    7.53
   7  -5   0  477.32   15.50
   7   5   0  413.75   11.57
   7   5   0  426.40   11.47
  -7   5   0  423.36   11.82
  -7  -5   0  467.39   13.19
   7   5   1  744.43   19.50
   7  -5   1  843.10   26.71
   7   5   1  773.76   23.44
  -7  -5  -1  820.61   22.74
  -7  -5  -1  802.81   21.18
   7  -5   2  920.84   26.81
   7   5   2  828.14   23.73
  -7  -5  -2  853.79   24.35
  -7  -5  -2  814.52   20.17
   7  -5   3  195.19    7.31
   7   5   3  168.40    7.97
  -7  -5  -3  180.88    6.56
   7  -5   4  101.91    4.84
   7  -5   4  114.78    7.81
  -7  -5  -4  106.82    7.37
   7  -5   5  202.09    8.38
   7  -5   5  193.33   10.12
  -7  -5  -5  205.75    8.11
   7  -5   6  167.49    8.01
   7  -5   6  163.82    7.50
  -7  -5  -6  170.08    8.11
   7  -5   7  110.46    6.86
   7  -5   7  103.60    6.41
  -7  -5  -7  110.89    6.90
   7  -5   8   21.51    6.04
   7  -5   8   28.17    4.09
  -7  -5  -8   28.73    6.78
  -7  -7   6  193.45   13.14
   7   7  -5  320.31   12.15
  -7  -7   5  327.10   16.20
   7   7  -4  190.05    5.46
   7  -7  -4  201.49    7.54
   7   7  -4  209.38    8.05
   7  -7  -4  187.47    6.85
  -7  -7   4  215.22    8.44
   7   7  -3   70.90    3.03
   7   7  -3   69.59    3.74
   7  -7  -3   68.76    4.20
  -7  -7   3   78.21    4.05
   7   7  -2   50.33    2.94
   7   7  -2   47.30    2.71
   7  -7  -2   49.05    4.06
  -7  -7   2   52.06    4.35
   7  -7  -1  354.98   12.84
   7   7  -1  344.51   11.32
  -7  -7   1  381.74   11.31
   7  -7   0  768.23   25.44
   7   7   0  708.31   20.73
   7  -7   0  682.06   18.76
  -7  -7   0  761.46   21.31
   7  -7   1  446.77   14.04
   7   7   1  403.04   12.40
   7  -7   1  387.97   10.59
  -7  -7  -1  457.08   13.99
  -7  -7  -1  416.04   11.07
   7  -7   2   91.15    7.13
   7  -7   2   84.69    6.39
   7  -7   2   77.12    2.25
  -7  -7  -2   78.76    2.44
  -7  -7  -2   90.53    4.50
  -7  -7  -2   76.15    2.54
   7  -7   3   15.88    2.75
   7  -7   3   15.85    3.92
  -7  -7  -3   14.41    2.48
   7  -7   4  179.96    8.37
   7  -7   4  174.27   10.35
  -7  -7  -4  173.17    7.98
   7  -7   5  324.79   13.55
   7  -7   5  297.52   16.59
  -7  -7  -5  329.70   13.67
   7  -7   6  136.47   12.07
   7  -7   6  124.60    7.55
  -7  -7  -6  127.70    8.19
  -7  -9   3  308.32   14.75
   7  -9  -2  135.68    6.24
   7  -9  -2  128.08    5.18
  -7  -9   2  130.54    5.88
   7  -9  -1   29.61    2.67
   7  -9  -1   30.40    2.30
  -7  -9   1   22.08    3.12
   7  -9   0   53.79    4.72
   7  -9   0   52.51    3.72
  -7  -9   0   47.68    3.50
  -7  -9   0   45.13    2.48
   7  -9   1  197.13    8.29
   7  -9   1  192.07    7.89
  -7  -9  -1  195.02    7.50
   7  -9   2  265.00   10.93
   7  -9   2  250.59   10.05
  -7  -9  -2  249.34    9.70
   7  -9   3   98.77    6.35
   7  -9   3   91.85    8.56
  -7  -9  -3   91.79    5.65
   8   0  -9  235.67   11.73
  -8   0   9  214.26   11.72
   8   0  -8  365.91   12.58
  -8   0   8  341.07   12.52
   8   0  -7  166.96    6.18
  -8   0   7  163.23    6.45
   8   0  -6    0.77    1.73
  -8   0   6    0.16    1.60
   8   0  -5  234.02    8.84
  -8   0   5  236.66    7.78
   8   0  -4 1253.53   36.62
  -8   0   4 1267.24   35.99
   8   0  -3 2725.98   82.79
  -8   0   3 3033.52   93.62
   8   0  -2  658.10   16.72
  -8   0   2  748.23   22.09
  -8   0   1   65.47    3.01
   8   0   0  292.34    7.74
  -8   0   0  296.32    9.51
   8   0   1 1704.26   46.93
   8   0   1 1728.72   47.96
  -8   0  -1 1642.01   44.58
   8   0   2  916.89   25.33
   8   0   2  871.94   24.04
  -8   0  -2  854.28   21.63
   8   0   3 1929.11   55.13
   8   0   3 1888.64   53.98
  -8   0  -3 1811.92   50.15
   8   0   4  317.77    8.52
   8   0   4  324.59    9.97
  -8   0  -4  330.66    9.11
   8   0   5  193.16    5.56
   8   0   5  185.60    6.16
   8   0   5  199.31    6.91
  -8   0  -5  199.42    6.07
   8   0   6   76.74    2.89
   8   0   6   73.13    3.67
  -8   0  -6   79.32    4.50
   8   0   7   59.17    2.52
   8   0   7   59.39    2.56
  -8   0  -7   63.22    2.97
   8   0   8  117.92    4.28
   8   0   8  121.85    4.48
  -8   0  -8  124.47    6.44
  -8   0  -9   67.75    3.74
   8   2  -9   33.68    5.29
   8  -2  -9   31.13    3.64
  -8  -2   9   32.31    3.63
  -8   2   9   24.47    3.87
   8  -2  -8   22.74    3.17
   8   2  -8   24.43    4.63
  -8   2   8   18.86    2.15
  -8  -2   8   24.26    4.86
   8   2  -7   26.03    2.73
   8  -2  -7   18.41    2.91
  -8  -2   7   21.11    2.83
  -8   2   7   15.47    1.94
   8   2  -6  859.09   26.23
   8  -2  -6  824.67   23.61
  -8  -2   6  878.53   26.98
  -8   2   6  777.64   23.38
   8   2  -5 2814.22   93.44
   8  -2  -5 2760.79   85.77
  -8   2   5 2672.54   89.74
  -8  -2   5 2938.10   94.79
  -8   2   5 2704.99   91.26
   8  -2  -4  871.35   23.45
   8   2  -4  854.94   23.62
  -8  -2   4  946.96   27.13
  -8   2   4  880.63   27.30
   8   2  -3   31.53    2.27
   8  -2  -3   25.92    3.50
  -8  -2   3   38.55    2.81
  -8   2   3   27.14    3.83
   8   2  -2  208.17    7.43
   8  -2  -2  181.61    7.62
  -8   2   2  174.97    5.59
  -8  -2   2  222.99    6.42
   8   2  -1 1442.08   38.56
   8  -2  -1 1401.18   41.51
  -8   2   1 1315.00   38.71
  -8  -2   1 1583.73   44.71
   8   2   0 6046.03  208.11
   8   2   0 5920.18  201.85
   8  -2   0 6202.17  214.66
  -8   2   0 5626.44  194.26
  -8  -2   0 6574.32  223.68
   8  -2   1 3218.05  102.50
   8   2   1 2862.29   85.94
   8   2   1 3139.89   99.43
  -8  -2  -1 3159.57   95.08
  -8   2  -1 3005.71   95.36
   8  -2   2   64.06    4.38
   8  -2   2   58.22    2.00
   8   2   2   55.95    2.69
   8   2   2   53.89    1.78
  -8  -2  -2   58.06    1.80
  -8  -2  -2   61.82    4.51
  -8   2  -2   61.43    2.72
   8  -2   3   18.28    1.01
   8  -2   3   13.81    1.84
   8   2   3   13.81    1.43
   8   2   3   15.02    1.82
  -8  -2  -3   12.33    0.76
  -8  -2  -3   14.95    1.83
   8  -2   4  265.34    7.11
   8   2   4  259.90    6.77
   8   2   4  284.87   10.60
   8  -2   4  282.74    8.56
  -8  -2  -4  287.89    9.04
   8   2   5 1563.01   52.87
   8  -2   5 1570.48   45.36
   8  -2   5 1666.72   55.14
   8  -2   5 1556.09   51.26
   8   2   5 1533.40   42.49
   8   2   5 1481.95   42.00
  -8  -2  -5 1640.94   50.98
   8   2   6  586.17   15.12
   8  -2   6  663.26   20.13
   8  -2   6  632.94   21.45
   8   2   6  558.36   14.65
  -8  -2  -6  670.02   24.47
   8  -2   7    4.65    1.49
   8  -2   7    3.98    2.28
  -8  -2  -7    7.48    2.95
   8  -2   8    0.00    2.21
   8  -2   8    3.47    1.41
  -8  -2  -8    2.01    2.50
   8  -2   9   21.69    3.89
   8  -2   9   16.60    2.41
  -8  -2  -9   20.03    2.84
   8   4  -8  256.89   10.82
  -8  -4   8  266.31   11.53
  -8   4   8  181.28    7.68
   8  -4  -7  104.27    3.71
   8   4  -7  120.64    8.46
  -8   4   7   87.31    4.68
  -8  -4   7  123.36    9.24
   8  -4  -6    2.18    1.41
   8   4  -6    2.57    2.81
  -8   4   6    1.50    1.51
  -8  -4   6    2.72    1.78
   8  -4  -5  127.98    5.40
   8   4  -5  140.21    7.86
  -8   4   5  124.60    5.54
  -8  -4   5  149.08    6.19
   8   4  -4  705.73   19.11
   8   4  -4  761.08   22.34
   8  -4  -4  767.62   23.05
  -8   4   4  733.64   20.46
  -8  -4   4  818.65   24.06
   8   4  -3 1481.99   43.80
   8   4  -3 1464.68   41.34
   8  -4  -3 1544.42   47.50
  -8   4   3 1489.74   45.50
  -8  -4   3 1599.96   47.40
   8   4  -2  644.79   19.40
   8   4  -2  672.38   17.50
   8  -4  -2  683.05   21.43
  -8   4   2  642.55   17.49
  -8  -4   2  735.21   22.43
   8   4  -1  107.69    5.03
   8   4  -1  104.47    3.44
   8  -4  -1  118.00    4.61
  -8  -4   1  118.22    5.59
  -8   4   1  117.87    5.67
   8  -4   0  217.30    9.14
   8   4   0  193.80    6.14
   8   4   0  198.06    7.44
  -8   4   0  207.91    8.16
  -8  -4   0  213.80    7.02
   8  -4   1  792.26   21.58
   8   4   1  604.20   15.87
   8   4   1  630.94   17.29
  -8   4  -1  713.59   19.36
  -8  -4  -1  677.97   18.81
  -8  -4  -1  660.11   17.87
   8   4   2  586.98   13.77
   8  -4   2  759.13   21.72
   8   4   2  634.89   18.05
  -8  -4  -2  636.10   15.98
  -8  -4  -2  685.37   22.22
   8  -4   3  930.03   27.36
   8   4   3  849.96   27.52
   8  -4   3  827.50   20.22
   8   4   3  791.79   17.69
  -8  -4  -3  886.58   25.73
  -8  -4  -3  822.98   18.40
   8  -4   4  255.41    8.66
   8  -4   4  228.14    4.64
   8   4   4  240.16    8.16
  -8  -4  -4  259.45   11.65
   8  -4   5  140.13    6.07
   8  -4   5  126.54    5.38
  -8  -4  -5  139.32    6.09
   8  -4   6   63.54    6.58
   8  -4   6   51.72    3.98
  -8  -4  -6   52.18    3.98
   8  -4   7   42.41    6.01
   8  -4   7   43.22    6.70
  -8  -4  -7   51.08    4.44
   8  -4   8   94.13    5.89
   8  -4   8   97.57    6.24
  -8  -4  -8  103.96    6.61
   8  -6  -7   26.96    3.65
   8   6  -7   20.36    6.19
  -8  -6   7   22.03    3.68
   8  -6  -6  351.99   11.21
   8   6  -6  359.08   13.54
  -8   6   6  336.21    9.85
  -8  -6   6  391.22   18.86
   8   6  -5  905.84   24.92
   8  -6  -5  898.04   27.64
   8   6  -5  969.27   35.21
  -8  -6   5 1012.23   33.76
  -8   6   5  952.90   29.34
   8  -6  -4  299.73    8.74
   8   6  -4  309.59    8.87
   8   6  -4  317.39   10.64
  -8   6   4  315.92    8.97
  -8  -6   4  342.97   11.58
   8   6  -3    5.40    1.67
   8   6  -3    5.64    1.51
   8  -6  -3    8.76    1.42
  -8   6   3    8.38    1.24
  -8  -6   3    4.88    1.81
   8  -6  -2    3.20    2.06
   8   6  -2    2.14    1.83
   8   6  -2    1.87    1.39
  -8   6   2    2.12    1.00
  -8  -6   2    1.05    2.02
   8  -6  -1  558.11   16.56
   8   6  -1  521.46   14.64
   8   6  -1  542.99   16.50
  -8   6   1  531.83   15.09
  -8  -6   1  558.15   15.52
   8  -6   0 2043.00   63.57
   8   6   0 1898.04   60.70
   8   6   0 1790.68   56.18
  -8  -6   0 1997.50   62.40
   8   6   1  870.35   27.89
   8   6   1  814.60   22.56
   8  -6   1  936.05   31.31
  -8  -6  -1  936.66   30.30
  -8  -6  -1  899.34   24.00
   8  -6   2    0.30    1.46
   8   6   2    1.71    1.16
  -8  -6  -2    0.14    2.20
  -8  -6  -2    1.12    0.65
   8  -6   3    7.21    2.20
   8   6   3    5.61    1.77
   8  -6   3    6.77    1.91
  -8  -6  -3    7.77    3.39
   8  -6   4  144.96    9.63
   8  -6   4  123.06    5.94
  -8  -6  -4  141.75    6.56
   8  -6   5  672.26   24.06
   8  -6   5  613.60   26.02
  -8  -6  -5  660.80   28.36
   8  -6   6  308.83   13.38
   8  -6   6  278.88   11.99
  -8  -6  -6  291.35   13.10
   8  -6   7    9.80    3.26
   8  -6   7    9.85    2.96
  -8  -6  -7    7.10    2.99
  -8  -8   5   54.88    4.74
   8  -8  -4  231.22    8.66
  -8  -8   4  269.32   10.98
   8   8  -3  326.34    8.76
   8  -8  -3  317.42    9.94
  -8  -8   3  383.57   13.65
   8   8  -2  212.15    7.33
   8  -8  -2  219.41    9.46
  -8  -8   2  225.25   10.07
   8  -8  -1   47.26    3.27
   8   8  -1   48.58    3.52
  -8  -8   1   51.72    2.75
   8  -8   0   59.42    5.56
   8  -8   0   50.25    3.16
   8   8   0   53.49    2.87
  -8  -8   0   53.25    3.56
   8  -8   1  155.57    6.82
   8  -8   1  150.62    6.38
  -8  -8  -1  148.70    6.22
  -8  -8  -1  131.17    4.15
  -8  -8  -1  136.56    5.02
   8  -8   2  256.34   10.26
   8  -8   2  235.40    9.17
  -8  -8  -2  240.59    9.47
   8  -8   3  226.21    9.90
   8  -8   3  205.89    9.02
  -8  -8  -3  219.76    9.21
   8  -8   4  106.95   10.60
   8  -8   4  102.96    6.36
  -8  -8  -4  103.77    9.42
   8  -8   5   50.35    5.57
   8  -8   5   49.04    4.97
  -8  -8  -5   50.11    5.11
   9   1  -9  144.26    9.31
   9  -1  -9  138.58    8.21
  -9  -1   9  129.23    6.95
  -9   1   9  116.62    5.70
   9  -1  -8   97.86    6.51
   9   1  -8  100.25    5.29
  -9   1   8   91.23    6.68
  -9  -1   8   93.51    8.00
   9   1  -7  114.03    7.54
   9  -1  -7  104.73    6.32
  -9  -1   7  114.67    5.55
  -9   1   7  108.41    4.94
   9   1  -6  284.44    9.40
   9  -1  -6  278.58    8.70
  -9  -1   6  298.92   10.21
  -9   1   6  280.33   11.77
   9  -1  -5  463.45   13.19
   9   1  -5  471.44   16.15
  -9  -1   5  496.18   15.35
  -9   1   5  490.06   17.42
   9   1  -4  502.59   13.84
   9  -1  -4  508.29   15.88
  -9  -1   4  554.19   16.07
  -9   1   4  529.77   15.40
   9   1  -3  529.68   14.22
   9  -1  -3  515.23   13.98
  -9   1   3  561.34   18.41
  -9  -1   3  564.41   15.85
   9   1  -2  980.93   28.05
   9  -1  -2  922.25   24.76
  -9   1   2  998.11   27.58
  -9  -1   2 1070.60   29.28
   9   1  -1 1406.56   38.35
   9  -1  -1 1491.69   41.31
  -9   1   1 1498.09   42.12
  -9  -1   1 1634.48   45.46
   9  -1   0  907.48   26.84
   9   1   0  829.05   21.72
  -9  -1   0  955.02   27.25
  -9   1   0  862.54   25.41
   9   1   1  478.34   12.57
   9  -1   1  494.86   13.20
   9   1   1  455.24   11.75
  -9   1  -1  469.19   12.23
  -9  -1  -1  477.15   12.09
   9  -1   2  197.77    6.67
   9   1   2  189.39    5.67
   9  -1   2  201.99    6.09
   9   1   2  193.88    6.62
  -9  -1  -2  187.05    4.90
  -9   1  -2  189.63    5.47
   9  -1   3  304.18    7.83
   9  -1   3  312.36   10.74
   9   1   3  294.00   10.24
   9   1   3  301.88    9.17
  -9  -1  -3  303.96    7.41
  -9  -1  -3  282.68    8.33
  -9   1  -3  295.86    8.01
   9  -1   4 1304.63   37.66
   9  -1   4 1255.79   34.82
   9   1   4 1247.41   36.23
   9   1   4 1258.61   36.52
  -9  -1  -4 1318.52   41.89
   9   1   5  267.13    8.02
   9  -1   5  263.20    7.14
   9   1   5  276.44   10.19
   9  -1   5  277.09   10.20
   9  -1   5  248.24    7.40
   9   1   5  260.76    7.41
  -9  -1  -5  283.99   11.02
   9   1   6   89.81    3.68
   9  -1   6   93.81    3.79
   9  -1   6   88.29    3.43
   9   1   6   86.76    3.37
  -9  -1  -6   96.58    4.11
   9  -1   7   21.43    1.86
   9   1   7   19.63    1.89
   9   1   7   18.81    1.76
   9  -1   7   23.97    2.77
  -9  -1  -7   19.27    2.12
   9  -1   8   58.97    4.57
   9  -1   8   60.94    3.31
  -9  -1  -8   61.40    3.64
   9  -1   9   73.05    5.59
   9  -1   9   76.08    5.57
  -9  -1  -9   76.12    6.32
   9  -3  -8   41.67    3.93
   9   3  -8   43.24    4.09
  -9  -3   8   47.38    6.71
  -9   3   8   34.88    2.59
   9  -3  -7   34.85    2.33
   9   3  -7   42.81    3.52
  -9   3   7   31.16    2.39
  -9  -3   7   40.28    3.84
   9   3  -6  269.74   12.14
   9  -3  -6  253.71    7.76
  -9  -3   6  268.03   12.88
  -9   3   6  233.55    7.64
   9   3  -5  647.35   22.63
   9  -3  -5  592.73   18.94
  -9   3   5  568.52   18.84
  -9  -3   5  670.21   24.21
   9   3  -4  632.91   21.04
   9  -3  -4  590.20   18.68
  -9   3   4  592.59   19.16
  -9  -3   4  683.60   23.48
   9   3  -3  224.24    9.34
   9  -3  -3  263.60    7.90
  -9   3   3  265.58    9.87
  -9  -3   3  259.29    8.46
   9   3  -2  314.78    8.85
   9   3  -2  307.64    8.68
   9  -3  -2  326.80    9.80
  -9   3   2  324.95    9.29
  -9  -3   2  349.35    9.99
   9   3  -1 1136.15   31.16
   9   3  -1 1034.93   28.15
   9  -3  -1 1174.43   36.15
  -9   3   1 1063.78   29.88
  -9  -3   1 1275.39   34.79
   9  -3   0 1279.80   36.46
   9   3   0 1181.08   31.92
   9   3   0 1263.59   35.16
  -9   3   0 1174.29   33.33
  -9  -3   0 1428.36   38.78
   9  -3   1  678.38   18.90
   9   3   1  649.18   17.70
   9   3   1  606.59   15.21
  -9   3  -1  654.46   18.32
  -9  -3  -1  741.13   20.29
   9  -3   2  164.40    7.65
   9   3   2  113.90    4.54
  -9  -3  -2  110.44    2.98
  -9  -3  -2  119.05    4.91
  -9   3  -2  137.18    4.72
   9  -3   3  148.95    7.64
   9  -3   3  129.35    4.00
   9   3   3  118.01    3.20
   9   3   3  131.30    4.97
  -9  -3  -3  130.86    3.42
  -9  -3  -3  141.38    7.60
   9   3   4  789.81   23.44
   9  -3   4  827.55   27.74
   9   3   4  663.19   16.03
   9  -3   4  768.23   19.70
  -9  -3  -4  823.62   24.86
   9   3   5  284.62    5.68
   9  -3   5  349.75   11.43
   9   3   5  329.69   13.40
   9  -3   5  316.27    7.77
   9   3   5  258.84    5.19
   9  -3   5  316.31   10.29
  -9  -3  -5  362.03   12.24
   9  -3   6  132.33    7.94
   9  -3   6  116.24    5.19
  -9  -3  -6  128.90    6.07
   9  -3   7   18.52    4.08
   9  -3   7   13.45    2.31
  -9  -3  -7   17.71    2.79
   9  -3   8   35.31    5.10
   9  -3   8   35.12    3.55
  -9  -3  -8   34.96    3.81
   9   5  -7  133.68    7.13
   9  -5  -7  130.44    5.89
  -9  -5   7  133.72    7.46
  -9   5   7   94.32    4.88
   9   5  -6  130.49    5.12
   9  -5  -6  147.69    6.24
   9   5  -6  156.28    7.09
  -9   5   6  133.66    5.99
  -9  -5   6  166.00   10.39
   9   5  -5  106.22    3.47
   9  -5  -5  112.45    5.30
   9   5  -5  123.14    8.04
  -9   5   5  110.41    4.00
  -9  -5   5  124.22    5.87
   9   5  -4  194.46    5.54
   9  -5  -4  193.25    7.67
   9   5  -4  208.25    7.41
  -9   5   4  196.16    6.09
  -9  -5   4  215.68    7.78
   9  -5  -3  320.96    9.62
   9   5  -3  320.84    8.74
   9   5  -3  318.41   11.95
  -9   5   3  318.48    9.21
  -9  -5   3  352.22   13.16
   9   5  -2  587.71   16.05
   9  -5  -2  611.50   20.20
   9   5  -2  568.41   16.36
  -9   5   2  584.51   16.55
  -9  -5   2  642.80   18.38
   9   5  -1  695.14   21.01
   9   5  -1  674.47   20.40
   9  -5  -1  749.03   21.62
  -9   5   1  720.26   22.80
  -9  -5   1  758.63   21.03
   9  -5   0  312.78    9.97
   9   5   0  299.70    8.75
   9   5   0  279.94    8.65
  -9   5   0  285.57    8.74
  -9  -5   0  318.48   10.01
   9   5   1  157.11    7.25
   9  -5   1  154.23    6.11
   9   5   1  139.15    3.71
  -9  -5  -1  159.57    4.40
  -9   5  -1  154.70    5.59
   9  -5   2  177.84    6.71
   9   5   2  153.83    4.02
   9   5   2  161.44    5.79
  -9  -5  -2  176.89    6.50
  -9  -5  -2  159.46    4.57
   9  -5   3  366.38   12.18
   9   5   3  344.38   11.28
   9  -5   3  320.69    7.53
  -9  -5  -3  227.95    4.51
  -9  -5  -3  365.65   11.24
   9  -5   4  546.69   17.87
   9   5   4  509.65   19.72
   9  -5   4  496.58   16.20
  -9  -5  -4  547.54   22.01
   9  -5   5  123.77    6.29
   9  -5   5  111.87    5.56
  -9  -5  -5  124.99    6.39
   9  -5   6   33.25    6.13
   9  -5   6   30.50    3.58
  -9  -5  -6   34.12    3.91
   9  -5   7   24.67    6.04
   9  -5   7   24.42    3.37
  -9  -5  -7   24.12    3.78
   9   7  -6  122.03    7.15
  -9  -7   6  122.29    6.95
   9  -7  -5  299.76    9.01
   9   7  -5  309.66   15.19
  -9   7   5  327.52   11.16
  -9  -7   5  326.27   12.73
   9   7  -4  280.43   10.48
   9  -7  -4  277.68    8.65
   9   7  -4  282.62    7.66
  -9   7   4  295.33    8.90
  -9  -7   4  302.43   11.12
   9   7  -3   45.48    2.93
   9   7  -3   44.19    3.01
   9  -7  -3   42.49    2.73
  -9   7   3   47.97    3.64
  -9  -7   3   47.94    3.37
   9   7  -2   28.67    1.80
   9   7  -2   26.58    2.12
   9  -7  -2   31.37    3.94
  -9  -7   2   26.58    3.61
   9   7  -1  323.34    9.57
   9   7  -1  310.40   10.61
   9  -7  -1  341.79   13.31
  -9  -7   1  344.24   10.50
   9  -7   0  583.54   18.31
   9   7   0  569.54   18.78
   9   7   0  514.10   14.60
  -9  -7   0  550.18   17.26
   9  -7   1  307.30   13.60
   9   7   1  274.75   10.98
  -9  -7  -1   14.04    2.51
   9  -7   2   39.04    3.75
   9   7   2   39.36    4.61
  -9  -7  -2   39.26    5.29
   9  -7   3   35.63    3.71
   9  -7   3   34.24    5.32
  -9  -7  -3   36.98    5.49
   9  -7   4  192.95   12.65
   9  -7   4  174.64   11.27
  -9  -7  -4  187.78    8.66
   9  -7   5  208.18   10.59
   9  -7   5  191.82    9.46
  -9  -7  -5  212.11   14.35
   9  -7   6   81.46    6.74
   9  -7   6   69.78    6.02
  -9  -7  -6   82.23    6.76
   9  -9  -2  204.17    7.76
  -9  -9   2  208.45    8.11
   9  -9  -1  187.58    7.08
   9  -9  -1  174.65    7.42
  -9  -9   1  168.65    8.20
   9  -9   0   56.95    6.13
   9  -9   0   53.26    5.59
   9  -9   1   27.95    3.64
   9  -9   1   27.49    3.11
   9  -9   2   77.24    5.69
   9  -9   2   74.38    5.13
  -9  -9  -2   76.33    5.08
  10   0  -9    3.74    3.09
 -10   0   9    2.92    1.89
  10   0  -8  376.75   13.66
 -10   0   8  353.11   16.26
  10   0  -7  792.14   25.09
 -10   0   7  756.77   24.95
  10   0  -6  498.60   17.62
 -10   0   6  519.45   16.65
  10   0  -5   17.35    2.07
 -10   0   5   12.24    3.86
  10   0  -4   22.88    2.30
 -10   0   4   23.33    2.76
  10   0  -3  289.24    8.60
 -10   0   3  319.00    9.98
  10   0  -2 3549.84  111.45
 -10   0   2 4212.59  139.07
  10   0  -1 3051.87   97.60
 -10   0   1 3394.47  107.20
  10   0   0  545.68   17.15
 -10   0   0  555.60   14.99
  10   0   1  262.24    7.34
  10   0   1  267.56    7.76
 -10   0  -1  246.21    6.90
  10   0   2  200.15    6.02
  10   0   2  214.09    6.44
 -10   0  -2  200.85    5.78
  10   0   3 1487.54   42.90
  10   0   3 1558.01   47.90
 -10   0  -3 1509.82   44.98
  10   0   4 1557.44   46.14
  10   0   4 1511.10   44.58
  10   0   5  265.49    7.63
  10   0   5  253.83    9.05
  10   0   6   44.71    3.14
  10   0   6   40.91    2.20
  10   0   6   40.73    1.91
 -10   0  -6   25.08    2.03
  10   0   7    6.57    1.76
  10   0   7    5.04    1.68
 -10   0  -7    4.94    1.31
  10   0   8  136.09    4.96
  10   0   8  143.89    6.56
 -10   0  -8  141.64    5.80
  10  -2  -8   -0.15    1.05
  10   2  -8    0.28    1.48
 -10  -2   8   -0.83    1.21
 -10   2   8    0.38    0.90
  10   2  -7    4.05    2.01
  10  -2  -7    4.52    2.27
 -10  -2   7    2.96    3.20
 -10   2   7    2.10    1.48
  10   2  -6  607.41   18.98
  10  -2  -6  594.41   20.05
 -10  -2   6  604.54   22.75
 -10   2   6  581.99   18.22
  10  -2  -5 1655.95   49.97
  10   2  -5 1726.84   56.56
 -10  -2   5 1739.46   58.56
 -10   2   5 1692.94   56.40
  10   2  -4  608.54   17.39
  10  -2  -4  629.44   17.67
 -10  -2   4  679.21   20.09
 -10   2   4  626.03   18.50
  10   2  -3    9.69    1.79
  10  -2  -3    9.67    3.10
 -10  -2   3   15.91    2.34
 -10   2   3   13.69    2.10
  10   2  -2   25.14    3.58
  10  -2  -2   32.03    2.69
 -10   2   2   23.14    2.35
 -10  -2   2   20.68    2.42
  10   2  -1 1076.35   29.52
  10  -2  -1 1231.06   37.70
 -10   2   1 1126.54   34.59
 -10  -2   1 1247.34   34.61
  10   2   0 3307.81  108.11
  10   2   0 3105.17   96.69
  10  -2   0 3340.62  106.65
 -10   2   0 3373.93  111.89
 -10  -2   0 3611.03  114.16
  10  -2   1 1011.85   28.43
  10   2   1  863.52   24.89
  10   2   1  951.20   28.82
 -10   2  -1  931.07   25.93
 -10  -2  -1  981.57   26.23
  10  -2   2  181.76    8.32
  10   2   2  164.37    5.48
  10  -2   2  168.49    4.81
  10   2   2  150.86    4.26
 -10  -2  -2  157.96    4.32
 -10   2  -2  165.64    5.50
  10  -2   3   11.80    1.98
  10   2   3   18.82    1.91
  10   2   3   12.57    1.68
  10  -2   3   11.98    1.16
 -10   2  -3   14.33    2.83
 -10  -2  -3   11.39    1.50
 -10  -2  -3   12.98    2.03
  10   2   4  222.47    7.24
  10  -2   4  244.82    8.11
  10  -2   4  220.75    6.76
  10   2   4  204.65    6.06
 -10  -2  -4  243.61   10.57
  10  -2   5  519.53   14.85
  10  -2   5  579.78   20.64
  10   2   5  540.50   16.10
  10   2   5  505.22   13.14
  10   2   5  504.53   13.57
 -10  -2  -5  556.84   17.21
  10   2   6  145.50    4.39
  10   2   6  163.81    6.16
  10  -2   6  172.23    6.51
  10  -2   6  152.32    7.50
  10   2   6  152.87    4.31
 -10  -2  -6  170.35    9.13
  10  -2   7   76.20    4.06
  10  -2   7   69.94    5.41
 -10  -2  -7   76.53    4.32
  10  -2   8   27.48    2.75
  10  -2   8   26.22    4.06
 -10  -2  -8   27.02    4.82
  10  -4  -8  239.00    9.92
  10   4  -8  256.62   15.12
 -10   4   8  202.42    9.12
 -10  -4   8  261.68   15.81
  10  -4  -7  461.27   14.47
  10   4  -7  497.43   21.76
 -10   4   7  398.36   15.11
 -10  -4   7  498.32   18.65
  10  -4  -6  275.60   10.20
  10   4  -6  301.14   13.87
 -10   4   6  258.98    8.51
 -10  -4   6  303.17   11.41
  10  -4  -5   13.10    1.70
  10   4  -5   14.05    3.91
 -10   4   5   12.86    2.77
 -10  -4   5   16.41    4.48
  10   4  -4   12.85    1.55
  10   4  -4   19.22    2.38
  10  -4  -4    4.53    2.75
 -10   4   4    7.85    1.62
 -10  -4   4   19.70    2.49
  10   4  -3  347.05   10.61
  10   4  -3  320.47    9.38
  10  -4  -3  323.39   10.00
 -10  -4   3  382.98   11.93
 -10   4   3  309.39    9.35
  10   4  -2 2011.16   63.56
  10   4  -2 1970.74   60.27
  10  -4  -2 2030.18   66.26
 -10   4   2 1932.84   62.08
 -10  -4   2 2139.46   64.85
  10   4  -1 1596.92   49.26
  10   4  -1 1660.66   48.98
  10  -4  -1 1729.55   52.10
 -10   4   1 1620.43   48.52
 -10  -4   1 1810.77   52.99
  10   4   0  226.62    6.32
  10  -4   0  238.46    8.28
  10   4   0  233.00    9.21
 -10   4   0  234.78    9.81
 -10  -4   0  262.07    7.34
  10  -4   1   75.63    6.48
  10   4   1   78.00    3.27
  10   4   1   78.54    3.72
 -10   4  -1   73.67    3.78
 -10  -4  -1   94.35    4.25
  10  -4   2  115.02    5.49
  10   4   2  123.53    5.32
  10   4   2  134.08    3.91
 -10  -4  -2  113.24    3.12
 -10   4  -2  109.95    4.77
 -10  -4  -2  130.86    5.66
  10   4   3  969.34   32.97
  10  -4   3  959.84   25.72
  10  -4   3 1034.01   31.46
  10   4   3  832.06   20.54
 -10  -4  -3  929.99   23.90
 -10  -4  -3 1047.38   32.06
  10  -4   4 1007.79   31.97
  10  -4   4  927.31   24.15
  10   4   4  981.09   31.16
 -10  -4  -4 1041.57   37.98
  10  -4   5  163.61    9.54
  10   4   5  151.32    9.00
  10  -4   5  147.81    6.35
 -10  -4  -5  160.34    7.25
  10  -4   6   13.08    4.28
  10  -4   6   13.94    2.39
 -10  -4  -6   13.77    4.40
  10  -4   7    5.97    2.30
  10  -4   7    2.04    3.32
 -10  -4  -7    4.08    3.77
  10  -4   8  106.55   10.06
  10  -4   8  105.09    6.44
 -10  -4  -8  113.88   10.63
  10   6  -7    6.01    2.60
 -10  -6   7    5.35    2.84
  10  -6  -6  248.36    9.37
  10   6  -6  262.19   10.99
 -10   6   6  234.26    9.45
 -10  -6   6  288.97   12.12
  10  -6  -5  628.48   18.95
  10   6  -5  689.31   27.16
  10   6  -5  654.75   18.49
 -10   6   5  647.54   21.68
 -10  -6   5  726.59   24.75
  10   6  -4  244.88    8.22
  10  -6  -4  242.80    7.77
  10   6  -4  247.27    9.24
 -10   6   4  243.64    7.80
 -10  -6   4  272.10    9.89
  10   6  -3    3.88    1.74
  10   6  -3    6.84    2.59
  10  -6  -3    4.44    2.47
 -10   6   3    5.44    1.35
 -10  -6   3    4.79    1.82
  10   6  -2    8.53    1.37
  10   6  -2   12.11    2.62
  10  -6  -2   17.70    3.32
 -10   6   2   10.36    1.67
 -10  -6   2    8.55    2.97
  10   6  -1  365.73   10.70
  10   6  -1  350.96   11.95
  10  -6  -1  376.55   12.21
 -10   6   1  359.03   11.07
 -10  -6   1  384.10   13.09
  10  -6   0 1114.82   37.77
  10   6   0  976.32   29.87
  10   6   0 1049.30   34.02
 -10   6   0 1052.57   32.13
 -10  -6   0 1105.92   32.03
  10   6   1  431.98   15.63
  10  -6   1  475.44   15.36
  10   6   1  395.53   11.39
 -10  -6  -1  431.79   12.83
  10  -6   2   72.70    4.54
  10   6   2   70.65    5.64
  10   6   2   56.61    2.06
 -10  -6  -2   75.57    4.33
 -10  -6  -2   65.00    2.62
  10  -6   3   17.82    3.12
  10   6   3   20.63    2.56
 -10  -6  -3   23.62    3.00
  10  -6   4  110.37    6.12
  10   6   4  102.32    5.41
  10  -6   4   98.24    5.50
 -10  -6  -4  100.02    8.50
  10  -6   5  213.76   14.26
  10  -6   5  194.02   12.55
 -10  -6  -5  196.42    9.48
  10  -6   6  115.46   10.75
  10  -6   6  103.06    6.65
 -10  -6  -6  104.52   10.40
  10   8  -4    3.17    1.97
  10  -8  -4    4.58    1.45
 -10  -8   4    3.58    2.09
  10   8  -3  159.48    6.34
  10   8  -3  153.22    6.64
  10  -8  -3  160.73    8.01
 -10  -8   3  166.39    7.32
  10   8  -2  416.14   13.80
  10   8  -2  455.76   13.68
  10  -8  -2  454.53   15.13
 -10  -8   2  457.78   17.67
  10   8  -1  364.45   13.26
  10  -8  -1  351.07   12.13
 -10  -8   1  362.24   13.57
  10  -8   0   71.25    6.76
  10   8   0   67.58    3.40
 -10  -8   0   59.54    2.86
  10  -8   1    1.24    1.67
  10   8   1    0.11    1.93
  10  -8   2   42.75    4.73
  10  -8   2   51.56    4.43
 -10  -8  -2   31.49    3.54
  10  -8   3  298.81   17.43
  10  -8   3  279.62   11.70
 -10  -8  -3  295.60   15.88
  10  -8   4  297.54   13.91
  10  -8   4  275.28   12.37
 -10  -8  -4  278.70   12.55
  11  -1  -8   40.91    4.97
  11   1  -8   35.44    3.80
 -11  -1   8   36.81    6.25
 -11   1   8   37.20    5.28
  11   1  -7  280.10   10.56
  11  -1  -7  278.38   10.02
 -11  -1   7  284.84   14.35
 -11   1   7  266.05   12.69
  11   1  -6  406.23   13.27
  11  -1  -6  407.15   12.95
 -11  -1   6  401.47   13.52
 -11   1   6  394.76   15.99
  11  -1  -5  313.87    9.83
  11   1  -5  312.19    9.89
 -11  -1   5  333.02   14.17
 -11   1   5  342.62   11.25
  11   1  -4  289.93    9.06
  11  -1  -4  309.06    9.47
 -11  -1   4  315.59   10.65
 -11   1   4  341.34   13.73
  11   1  -3  312.20   11.59
  11  -1  -3  306.63    9.36
 -11  -1   3  351.54   13.87
 -11   1   3  340.95   13.66
  11   1  -2  667.37   18.58
  11  -1  -2  687.02   19.29
 -11  -1   2  765.53   22.01
 -11   1   2  712.59   20.59
  11   1  -1 1131.33   31.99
  11  -1  -1 1249.57   35.55
 -11   1   1 1263.02   39.70
 -11  -1   1 1303.65   40.78
  11   1   0  233.89    7.29
  11  -1   0  345.79   12.42
 -11   1   0  316.78   11.35
 -11  -1   0  263.29   10.31
  11   1   1  319.84    9.55
  11   1   1  319.83   11.03
  11  -1   1  412.14   14.24
 -11  -1  -1  323.86   10.83
 -11   1  -1  315.40    9.25
  11  -1   2  393.40   12.71
  11   1   2  383.71   12.35
  11   1   2  386.38   11.10
  11  -1   2  435.56   12.44
 -11  -1  -2  376.89   11.66
 -11   1  -2  399.74   13.19
  11   1   3 1138.70   36.25
  11  -1   3 1200.35   38.33
  11   1   3 1137.56   32.52
 -11   1  -3 1158.37   32.89
 -11  -1  -3 1126.02   30.90
  11  -1   4  323.78   12.24
  11  -1   4  304.08   10.06
  11   1   4  305.02    9.41
  11   1   4  299.94    9.96
 -11  -1  -4  292.69    7.64
  11  -1   5   62.14    4.77
  11   1   5   59.12    3.27
  11  -1   5   60.67    3.47
  11   1   5   54.86    2.98
 -11  -1  -5    0.50    1.10
  11  -1   6   23.97    2.48
  11   1   6   26.69    3.38
  11  -1   6   24.68    2.18
  11  -1   6   22.87    1.95
  11   1   6   26.43    1.34
  11   1   6   25.86    1.53
 -11  -1  -6   27.21    2.52
  11  -1   7   78.59    3.73
  11  -1   7   73.94    3.48
  11   1   7   72.81    2.60
  11   1   7   73.06    3.57
 -11  -1  -7   83.62    4.38
  11  -1   8  104.74    4.77
  11  -1   8  105.19    6.33
 -11  -1  -8  103.85    5.50
  11  -3  -8   30.80    4.15
  11   3  -8   32.90    4.08
 -11  -3   8   33.75    4.38
 -11   3   8   28.60    4.13
  11  -3  -7  130.45    7.07
  11   3  -7  132.39    6.84
 -11  -3   7  133.01   10.02
 -11   3   7  113.64    7.00
  11   3  -6  226.30    8.80
  11  -3  -6  210.38    7.06
 -11   3   6  209.92    9.44
 -11  -3   6  230.14    9.18
  11   3  -5  350.46   14.19
  11  -3  -5  328.09   10.06
 -11   3   5  329.88   10.45
 -11  -3   5  359.96   12.25
  11   3  -4  422.81   15.48
  11  -3  -4  395.00   13.92
 -11   3   4  408.82   12.30
 -11  -3   4  447.40   16.90
  11   3  -3  269.26   10.57
  11  -3  -3  271.27    8.61
 -11   3   3  275.11    8.88
 -11  -3   3  310.53   10.07
  11   3  -2  405.32   11.64
  11   3  -2  378.75   13.10
  11  -3  -2  413.35   12.69
 -11   3   2  387.68   11.68
 -11  -3   2  433.18   12.67
  11   3  -1  579.55   18.54
  11  -3  -1  602.92   17.80
  11   3  -1  553.30   15.19
 -11   3   1  554.31   16.08
 -11  -3   1  639.15   17.77
  11   3   0  276.74    7.69
  11  -3   0  308.56    9.86
  11   3   0  293.31   10.78
 -11   3   0  291.59   11.22
 -11  -3   0  318.97    9.07
  11  -3   1  476.72   14.23
  11   3   1  433.75   12.70
  11   3   1  394.81   10.36
 -11   3  -1  431.64   15.13
 -11  -3  -1  448.17   11.97
  11  -3   2  395.98   15.19
  11   3   2  319.86    8.20
  11   3   2  361.75   11.06
 -11  -3  -2  366.80   10.57
 -11   3  -2  364.31   11.23
  11  -3   3  645.82   19.43
  11  -3   3  604.65   15.63
  11   3   3  536.40   14.45
  11   3   3  624.71   18.61
 -11  -3  -3  559.62   17.57
 -11  -3  -3  614.67   16.10
 -11   3  -3  616.12   18.13
  11   3   4  170.71    6.45
  11  -3   4  188.14    9.52
  11   3   4  135.65    3.85
  11  -3   4  170.23    4.37
 -11  -3  -4  179.41    9.73
 -11  -3  -4  164.52    3.78
  11  -3   5   56.80    2.36
  11   3   5   55.79    5.45
  11   3   5   41.28    1.41
  11   3   5   51.72    1.51
  11  -3   5   62.50    3.74
 -11  -3  -5   63.53    4.05
  11  -3   6   53.03    5.69
  11   3   6   51.40    3.60
  11  -3   6   46.12    3.25
 -11  -3  -6   54.80    4.05
  11  -3   7   88.30    7.67
  11  -3   7   83.89    4.68
 -11  -3  -7   86.40    8.23
  11  -3   8   83.20    7.54
  11  -3   8   74.82    4.78
 -11  -3  -8   81.62    5.69
  11  -5  -7  217.02    9.14
  11   5  -7  233.16   10.78
 -11   5   7  180.31    8.33
 -11  -5   7  242.77   11.28
  11   5  -6  228.99    8.67
  11  -5  -6  267.12    8.62
  11   5  -6  286.87   14.98
 -11   5   6  245.14   10.31
 -11  -5   6  300.55   12.55
  11   5  -5  108.85    3.90
  11  -5  -5  115.21    6.15
  11   5  -5  121.78    8.43
 -11   5   5  110.28    4.51
 -11  -5   5  131.60    6.69
  11   5  -4   46.14    3.57
  11  -5  -4   48.93    2.92
  11   5  -4   47.21    3.62
 -11   5   4   48.76    4.24
 -11  -5   4   56.79    4.02
  11   5  -3  139.29    5.65
  11   5  -3  138.66    6.24
  11  -5  -3  141.09    7.53
 -11   5   3  137.08    6.94
 -11  -5   3  160.66    8.71
  11   5  -2  663.39   20.02
  11   5  -2  663.15   21.41
  11  -5  -2  680.33   20.79
 -11   5   2  647.18   21.81
 -11  -5   2  734.49   21.92
  11   5  -1  682.45   21.82
  11   5  -1  690.12   20.01
  11  -5  -1  724.21   22.22
 -11   5   1  692.50   20.50
 -11  -5   1  764.36   22.19
  11   5   0  113.19    3.77
  11   5   0  120.59    4.94
  11  -5   0  134.23    8.36
 -11   5   0  131.04    5.46
 -11  -5   0  138.57    4.61
  11  -5   1   66.59    4.14
  11   5   1   58.29    2.84
  11   5   1   58.11    5.09
 -11   5  -1   60.83    5.44
 -11  -5  -1   68.21    3.59
  11   5   2  146.79    3.86
  11   5   2  163.95    6.57
  11  -5   2  175.63   10.02
 -11  -5  -2  169.01    5.33
  11  -5   3  528.71   13.18
  11  -5   3  611.51   23.62
  11   5   3  556.29   18.14
  11   5   3  506.97   12.40
 -11  -5  -3  546.51   13.36
 -11  -5  -3  616.06   20.19
  11  -5   4  303.72   11.49
  11   5   4  266.75   13.16
 -11  -5  -4  293.46   11.34
  11  -5   5   34.36    6.35
  11   5   5   37.23    3.55
  11  -5   5   37.77    5.68
 -11  -5  -5   39.83    6.43
  11  -5   6    6.21    2.70
  11  -5   6    8.16    2.40
 -11  -5  -6    8.06    4.60
  11  -5   7   41.13    4.63
  11  -5   7   45.59    6.52
 -11  -5  -7   48.97    4.82
  11  -7  -5  156.30    7.31
  11   7  -5  163.30   10.45
 -11  -7   5  190.07   12.35
 -11   7   5  176.56    6.15
  11  -7  -4  217.63    7.69
  11   7  -4  223.42    8.93
  11   7  -4  226.94    6.84
 -11  -7   4  244.51   13.19
 -11   7   4  242.36    9.89
  11   7  -3  115.52    5.33
  11   7  -3  117.99    5.55
  11  -7  -3  122.36    7.18
 -11   7   3  131.82    5.16
 -11  -7   3  130.57    6.11
  11  -7  -2  110.65    7.27
  11   7  -2   95.29    4.25
  11   7  -2  103.72    4.01
 -11   7   2  107.81    6.31
 -11  -7   2  107.97    6.65
  11   7  -1  110.09    4.49
  11   7  -1  100.67    3.98
  11  -7  -1  120.99    7.70
 -11  -7   1  108.80    5.80
  11  -7   0  162.01    6.87
  11   7   0  135.80    5.40
  11   7   0  125.83    5.20
 -11  -7   0  146.51    5.02
  11  -7   1  264.94   12.98
  11   7   1  246.21   11.01
  11   7   1  203.61    6.76
 -11  -7  -1  211.04    7.48
  11  -7   2  191.81   11.91
  11   7   2  169.97    9.62
  11  -7   3  126.66    7.19
  11   7   3  119.97    8.74
  11  -7   3  105.57    5.95
 -11  -7  -3  134.04    6.95
  11  -7   4   66.55    5.77
  11  -7   4   59.30    4.93
 -11  -7  -4   65.40    5.28
  11  -7   5   32.92    7.58
  11  -7   5   30.18    4.18
 -11  -7  -5   30.68    4.31
  11   9  -1  191.71    6.93
  11   9   0   39.76    3.01
  11  -9   0   44.26    6.18
  12   0  -8  157.30    7.53
 -12   0   8  148.17   10.34
  12   0  -7  782.49   30.03
 -12   0   7  747.45   29.50
  12   0  -6  665.27   20.88
 -12   0   6  704.39   26.44
  12   0  -5    1.30    1.40
 -12   0   5    0.05    1.79
  12   0  -4  102.64    6.55
 -12   0   4  118.70    5.68
  12   0  -3  723.01   23.69
 -12   0   3  828.57   25.08
  12   0  -2 2448.40   75.22
 -12   0   2 2805.79   89.56
  12   0  -1 2231.64   68.53
 -12   0   1 2370.99   73.24
  12   0   0   74.87    3.98
 -12   0   0   77.12    3.88
  12   0   1  137.62    5.28
  12   0   1  140.09    5.08
 -12   0  -1  142.31    4.99
  12   0   2  188.83    8.17
  12   0   2  234.45    9.43
 -12   0  -2  179.95    5.82
  12   0   3 1217.99   36.08
  12   0   3 1245.60   37.27
 -12   0  -3 1228.51   35.76
  12   0   4  991.60   29.67
  12   0   4 1009.15   30.42
 -12   0  -4  964.38   27.67
  12   0   5   51.12    4.06
  12   0   5   52.62    2.65
  12   0   6    1.30    1.45
  12   0   6    1.26    0.95
  12   0   6    0.65    1.28
  12   0   7   23.64    2.85
  12   0   7   23.45    1.75
  12   0   8   70.65    4.61
  12   0   8   70.51    4.65
  12   2  -8   91.03    5.86
  12  -2  -8   84.16    6.70
 -12  -2   8   91.86    6.14
 -12   2   8   79.70    4.79
  12   2  -7    2.95    3.48
  12  -2  -7    4.66    2.68
 -12  -2   7    4.76    2.41
 -12   2   7    3.88    1.83
  12   2  -6   36.42    3.45
  12  -2  -6   37.33    2.89
 -12  -2   6   37.97    3.73
 -12   2   6   35.00    3.08
  12   2  -5  285.38    9.81
  12  -2  -5  278.60    9.04
 -12  -2   5  303.94   10.84
 -12   2   5  287.61   12.41
  12   2  -4  848.12   28.06
  12  -2  -4  863.04   28.20
 -12  -2   4  928.70   31.82
 -12   2   4  883.62   26.72
  12   2  -3 1349.09   39.64
  12  -2  -3 1345.67   42.88
 -12   2   3 1420.52   43.06
 -12  -2   3 1554.83   47.02
  12   2  -2  209.02    6.87
  12  -2  -2  221.33   10.44
 -12   2   2  222.00    7.71
 -12  -2   2  240.97    8.29
  12   2  -1   21.49    2.39
  12   2  -1   29.16    3.50
  12  -2  -1   28.35    4.74
 -12   2   1   23.01    2.60
 -12  -2   1   30.27    4.31
  12   2   0   92.68    6.25
  12   2   0   88.06    3.58
  12  -2   0   99.42    7.26
 -12   2   0   87.39    6.23
 -12  -2   0   99.41    6.07
  12   2   1  678.61   22.22
  12   2   1  620.52   19.05
  12  -2   1  719.67   21.14
 -12  -2  -1  697.30   19.22
 -12   2  -1  659.49   21.84
  12  -2   2 1468.45   44.31
  12   2   2 1417.00   46.50
  12  -2   2 1442.21   41.78
  12   2   2 1283.36   37.21
 -12   2  -2 1377.29   41.04
 -12  -2  -2 1370.44   41.34
  12  -2   3  479.75   14.73
  12  -2   3  451.54   14.04
  12   2   3  459.30   16.56
  12   2   3  398.26   10.89
 -12  -2  -3  442.34   11.51
 -12   2  -3  441.26   13.21
  12  -2   4   33.41    2.71
  12  -2   4   27.63    1.59
  12   2   4   25.05    1.42
  12   2   4   30.61    4.00
 -12  -2  -4   27.49    1.31
  12  -2   5    1.57    0.72
  12   2   5    1.85    2.14
  12  -2   5    0.50    2.20
  12   2   5    1.43    0.60
 -12  -2  -5   -0.25    1.11
  12  -2   6  112.82    4.45
  12  -2   6  118.15    5.29
  12  -2   6  114.19    6.68
  12   2   6  104.84    3.51
  12   2   6   99.53    3.64
  12   2   6  109.04    7.20
 -12  -2  -6  120.91    5.99
  12  -2   7  235.74    9.31
  12  -2   7  222.61   11.13
 -12  -2  -7  249.27   10.60
  12  -2   8   80.10    4.67
  12  -2   8   77.51    6.38
 -12  -2  -8   81.27    5.40
  12  -4  -7  468.60   17.76
  12   4  -7  510.99   23.46
 -12   4   7  438.84   15.06
 -12  -4   7  498.75   24.12
  12  -4  -6  415.96   13.36
  12   4  -6  438.66   15.71
 -12   4   6  400.01   13.40
 -12  -4   6  440.06   16.33
  12   4  -5    3.22    1.98
  12  -4  -5    4.41    1.48
 -12   4   5    1.35    2.20
 -12  -4   5    3.10    1.93
  12   4  -4   33.65    3.02
  12   4  -4   35.13    2.35
  12  -4  -4   33.44    4.12
 -12   4   4   29.96    3.95
 -12  -4   4   32.41    5.26
  12   4  -3  365.20   11.71
  12   4  -3  368.73   11.10
  12  -4  -3  382.71   14.57
 -12   4   3  360.42   11.29
 -12  -4   3  406.11   12.99
  12   4  -2 1511.78   45.70
  12   4  -2 1483.81   45.22
  12  -4  -2 1563.27   48.68
 -12   4   2 1492.99   49.46
 -12  -4   2 1658.67   50.36
  12   4  -1 1277.28   40.25
  12   4  -1 1358.55   43.47
  12  -4  -1 1423.81   43.76
 -12   4   1 1322.07   43.73
 -12  -4   1 1478.50   43.79
  12   4   0   58.08    3.39
  12   4   0   51.91    2.41
  12  -4   0   64.00    6.32
 -12   4   0   57.04    3.59
 -12  -4   0   60.20    2.98
  12  -4   1   45.71    3.71
  12   4   1   40.64    2.64
  12   4   1   44.66    4.62
 -12   4  -1   44.14    3.17
 -12  -4  -1   48.49    3.42
  12  -4   2  141.44    8.94
  12   4   2  116.34    3.33
  12   4   2  132.84    5.54
 -12  -4  -2  135.60    3.91
 -12   4  -2  131.37    7.95
  12   4   3  703.35   22.41
  12  -4   3  772.15   29.01
  12  -4   3  686.96   19.63
  12   4   3  577.80   15.04
 -12  -4  -3  661.62   18.10
  12  -4   4  622.85   20.40
  12   4   4  577.19   18.75
  12   4   4  454.70   11.50
  12  -4   4  564.28   15.47
 -12  -4  -4  623.45   21.41
  12   4   5   52.62    3.86
  12  -4   5   61.56    6.76
 -12  -4  -5   61.42    7.04
  12  -4   6    0.80    1.39
  12  -4   6   -0.17    1.18
 -12  -4  -6    1.07    1.80
  12  -4   7   15.75    3.19
  12  -4   7   14.95    2.85
 -12  -4  -7   20.74    3.56
  12  -6  -6   26.70    3.23
  12   6  -6   30.87    6.24
 -12   6   6   27.28    2.42
 -12  -6   6   39.10    7.01
  12  -6  -5  150.28    5.94
  12   6  -5  176.01    8.24
  12   6  -5  155.39    6.74
 -12   6   5  162.37    6.19
 -12  -6   5  184.67   12.34
  12   6  -4  396.48   12.09
  12  -6  -4  386.47   15.17
  12   6  -4  406.63   14.47
 -12   6   4  407.83   13.01
 -12  -6   4  431.63   18.93
  12   6  -3  426.63   14.40
  12  -6  -3  410.33   13.38
  12   6  -3  407.09   13.56
 -12   6   3  428.75   15.83
 -12  -6   3  450.74   15.00
  12   6  -2   90.57    5.38
  12  -6  -2  101.74    4.91
  12   6  -2   89.77    5.63
 -12   6   2   94.71    6.39
 -12  -6   2  107.45    6.71
  12   6  -1   25.59    3.69
  12  -6  -1   48.52    5.19
  12   6  -1   24.30    2.02
 -12   6   1   42.44    4.62
 -12  -6   1   30.77    3.93
  12   6   0   65.28    5.67
  12   6   0   75.52    4.18
  12  -6   0   95.77    5.17
 -12   6   0   87.48    6.69
 -12  -6   0   87.73    5.00
  12   6   1  305.91   10.67
  12  -6   1  341.70   15.40
  12   6   1  271.85    7.95
 -12  -6  -1  308.03   10.60
  12  -6   2  604.53   20.09
  12   6   2  536.74   17.73
  12   6   2  454.09   13.09
 -12  -6  -2  523.55   14.95
  12  -6   3  188.32    8.34
  12   6   3  188.64    8.14
 -12  -6  -3   75.38    5.24
  12  -6   4   10.47    4.63
  12   6   4    9.62    2.33
  12  -6   4    2.79    2.47
 -12  -6  -4   14.29    3.19
  12  -6   5    2.80    2.75
  12  -6   5    3.14    2.26
 -12  -6  -5    4.11    4.33
  12  -6   6   57.79    5.84
  12  -6   6   49.54    4.93
 -12  -6  -6   58.21    5.79
  12   8  -3   97.95    5.34
  12   8  -3   89.07    6.56
  12  -8  -3   90.72    4.74
 -12  -8   3   95.00    5.32
  12   8  -2  388.28   12.52
  12   8  -2  356.62   14.58
  12  -8  -2  400.76   14.44
 -12  -8   2  401.66   16.63
  12   8  -1  354.46   13.97
  12   8  -1  320.83   10.71
  12  -8  -1  367.19   13.47
 -12  -8   1  355.18   13.72
  12   8   0   30.32    2.90
  12  -8   0   28.74    3.68
 -12  -8   0   29.09    2.15
  12  -8   1    0.08    3.07
  12   8   1    1.32    1.35
  12  -8   2   55.51    8.02
  12   8   2   48.09    6.00
  12  -8   3  186.28   14.86
  12  -8   3  181.05   13.46
  13   1  -8  137.51   10.29
  13  -1  -8  132.57    6.90
 -13  -1   8  136.76    7.55
 -13   1   8  136.30    9.70
  13   1  -7  214.40    9.42
  13  -1  -7  209.13    8.40
 -13  -1   7  216.05   13.20
 -13   1   7  207.06   11.93
  13   1  -6  172.26   10.27
  13  -1  -6  171.00    9.29
 -13  -1   6  182.59   11.05
 -13   1   6  173.19   10.50
  13   1  -5  144.70    6.15
  13  -1  -5  146.69    7.95
 -13  -1   5  158.40    7.18
 -13   1   5  160.26    6.87
  13   1  -4  163.79    6.44
  13  -1  -4  159.78    6.23
 -13  -1   4  186.25   10.40
 -13   1   4  180.26   10.10
  13   1  -3  382.55   11.60
  13  -1  -3  381.33   11.89
 -13  -1   3  439.01   14.30
 -13   1   3  430.67   16.91
  13   1  -2 1050.48   33.70
  13  -1  -2 1073.44   31.56
 -13   1   2 1125.77   37.60
 -13  -1   2 1230.80   36.69
  13   1  -1  170.31    6.20
  13  -1  -1  182.17    9.72
 -13   1   1  183.79    6.92
 -13  -1   1  190.64    7.05
  13   1   0  356.76   11.01
  13   1   0  338.52   12.26
  13  -1   0  359.14   14.30
 -13  -1   0  389.41   13.82
 -13   1   0  346.10   10.75
  13   1   1  403.76   12.20
  13   1   1  369.34   10.98
  13  -1   1  411.83   12.83
 -13  -1  -1  405.67   11.67
 -13   1  -1  376.20   11.52
  13  -1   2  551.22   18.20
  13   1   2  549.89   17.83
  13   1   2  533.16   16.16
  13  -1   2  549.45   19.87
 -13   1  -2  524.27   15.42
 -13  -1  -2  534.59   17.02
  13  -1   3  291.74    9.49
  13   1   3  272.41    9.01
  13   1   3  304.78   10.74
  13  -1   3  275.52    8.33
 -13  -1  -3  301.99   10.08
 -13   1  -3  278.00   10.78
  13  -1   4   74.98    3.76
  13  -1   4   72.45    3.07
  13   1   4   75.19    3.79
  13   1   4   74.68    4.44
 -13  -1  -4   73.32    2.75
 -13   1  -4   69.60    3.27
  13  -1   5   51.31    4.54
  13  -1   5   52.91    3.58
  13   1   5   49.41    4.71
  13   1   5   44.10    3.37
  13  -1   6  134.59    5.39
  13  -1   6  133.59    6.14
  13   1   6  124.44    7.27
  13  -1   6  121.02    4.85
  13   1   6  121.55    4.95
  13   1   6  118.91    4.21
  13  -1   7  104.04    4.83
  13  -1   7   93.87    4.39
  13  -1   8   30.98    2.62
  13  -1   8   30.38    3.83
  13   3  -7  136.36    7.33
  13  -3  -7  130.34    6.05
 -13   3   7  124.87    5.95
 -13  -3   7  145.82    8.07
  13   3  -6   57.69    4.36
  13  -3  -6   49.14    5.01
 -13   3   6   56.02    3.70
 -13  -3   6   63.17    7.76
  13   3  -5   99.74    5.23
  13  -3  -5   95.12    6.09
 -13   3   5   95.12    4.59
 -13  -3   5  107.31    5.87
  13   3  -4  257.23    9.22
  13  -3  -4  246.21   11.01
 -13   3   4  258.69   11.51
 -13  -3   4  284.45   10.29
  13   3  -3  503.72   15.43
  13  -3  -3  525.14   19.29
 -13   3   3  524.47   16.44
 -13  -3   3  588.64   21.62
  13   3  -2  637.65   18.91
  13   3  -2  706.47   20.66
  13  -3  -2  700.54   24.65
 -13   3   2  671.50   23.51
 -13  -3   2  767.34   26.06
  13   3  -1   64.12    5.50
  13   3  -1   61.19    4.64
  13  -3  -1   67.97    4.34
 -13   3   1   61.18    3.83
 -13  -3   1   68.80    3.79
  13   3   0  172.40    7.01
  13   3   0  191.47    6.69
  13  -3   0  202.71    7.86
 -13   3   0  187.85    9.21
 -13  -3   0  211.67    6.85
  13   3   1  414.61   13.06
  13   3   1  370.99   12.00
  13  -3   1  442.70   17.29
 -13   3  -1  418.85   13.18
 -13  -3  -1  422.75   11.92
  13  -3   2  616.90   19.43
  13   3   2  483.89   13.33
  13   3   2  570.86   20.61
 -13  -3  -2  592.99   17.79
 -13   3  -2  581.72   18.08
  13  -3   3  242.25    9.14
  13  -3   3  249.84    8.39
  13   3   3  192.09    5.38
  13   3   3  236.70    8.55
 -13  -3  -3  224.55    7.04
 -13   3  -3  234.27   10.92
  13   3   4   23.51    2.82
  13  -3   4   23.02    3.10
  13  -3   4   27.22    1.59
  13   3   4   18.33    1.55
 -13  -3  -4   23.87    1.66
  13  -3   5   25.86    1.40
  13  -3   5   30.44    4.89
  13   3   5   30.28    3.03
  13  -3   6  134.37    6.63
  13   3   6  128.35    9.18
  13  -3   6  135.88    8.49
 -13  -3  -6  133.37    7.22
  13  -3   7  114.57    6.34
  13  -3   7  102.12    5.70
 -13  -3  -7  117.67    7.21
  13   5  -6  140.84    6.85
  13  -5  -6  162.29    8.29
  13   5  -6  172.11    8.50
 -13   5   6  152.49    8.42
 -13  -5   6  179.66   12.63
  13   5  -5   95.08    3.98
  13  -5  -5  105.27    6.66
  13   5  -5  100.56    5.76
 -13   5   5   98.06    4.74
 -13  -5   5  108.24    9.12
  13   5  -4   56.16    3.94
  13   5  -4   50.81    4.24
  13  -5  -4   52.26    3.53
 -13   5   4   54.38    5.15
 -13  -5   4   59.31    4.35
  13   5  -3  139.99    8.01
  13   5  -3  144.70    7.08
  13  -5  -3  152.06    6.26
 -13   5   3  142.58    7.95
 -13  -5   3  159.58    6.66
  13   5  -2  433.68   13.63
  13  -5  -2  470.81   15.27
  13   5  -2  451.57   13.86
 -13   5   2  460.66   14.48
 -13  -5   2  495.77   15.44
  13   5  -1  257.22   10.78
  13   5  -1  244.27    9.46
  13  -5  -1  264.57    9.91
 -13   5   1  273.02   11.92
 -13  -5   1  272.36    8.88
  13   5   0  196.11    6.22
  13   5   0  216.25    9.82
  13  -5   0  248.32   12.38
 -13   5   0  229.74   10.92
 -13  -5   0  223.81    7.20
  13  -5   1  135.05    6.55
  13   5   1  112.50    3.72
  13   5   1  128.71    5.66
 -13   5  -1  130.57    5.89
 -13  -5  -1  134.68    5.77
  13  -5   2  189.38    8.14
  13   5   2  147.55    5.03
  13   5   2  176.80    7.20
 -13  -5  -2  164.76    5.82
  13   5   3  143.02    4.15
  13  -5   3  190.32    8.42
  13  -5   3  163.42    4.66
  13   5   3  182.68   10.02
  13  -5   4   76.24    8.00
  13   5   4   75.08    4.93
 -13  -5  -4    1.34    2.01
  13  -5   5   46.60    4.80
  13   5   5   48.93    6.50
  13  -5   5   46.17    4.32
 -13  -5  -5   50.34    4.93
  13  -5   6   68.42    8.51
  13  -5   6   56.75    5.00
 -13  -5  -6   69.30    6.15
  13   7  -4  173.55    7.60
  13  -7  -4  184.57    9.39
  13   7  -4  176.14   10.78
 -13   7   4  181.39    7.12
 -13  -7   4  193.59    8.86
  13   7  -3  275.90    9.15
  13   7  -3  265.25   10.26
  13  -7  -3  281.98   13.17
 -13   7   3  299.87   13.13
 -13  -7   3  310.29   15.17
  13   7  -2  156.09    7.84
  13   7  -2  140.78    5.89
  13  -7  -2  149.70    9.84
 -13   7   2  154.68    6.70
 -13  -7   2  153.59    8.90
  13   7  -1   13.12    1.77
  13   7  -1   16.41    2.25
  13  -7  -1   19.51    3.02
 -13   7   1   16.55    2.57
 -13  -7   1   19.67    3.42
  13   7   0   49.61    3.57
  13   7   0   40.21    3.33
  13  -7   0   54.52    4.38
 -13  -7   0   46.58    2.77
  13  -7   1  211.73    9.35
  13   7   1  194.80    8.12
  13   7   1  165.66    6.26
 -13  -7  -1  173.74    7.30
  13  -7   2  277.51   12.16
  13   7   2  272.72   11.23
  13  -7   3  110.25    7.45
  13   7   3  105.26    6.13
  13  -7   4    1.64    4.80
  13   7   4    5.27    2.42
  13  -7   4    5.34    2.65
  14   0  -8   31.53    5.95
 -14   0   8   27.06    6.10
  14   0  -7  310.02   12.34
 -14   0   7  291.26   15.42
  14   0  -6  564.03   22.23
 -14   0   6  564.98   23.57
  14   0  -5  233.83    8.58
 -14   0   5  257.94   10.04
  14   0  -4  101.15    4.89
 -14   0   4  118.40    8.71
  14   0  -3   36.48    4.91
 -14   0   3   46.17    3.93
  14   0  -2  288.62    9.52
 -14   0   2  323.94   13.97
  14   0  -1  945.59   28.29
 -14   0   1 1019.29   30.39
  14   0   0  388.05   12.20
 -14   0   0  415.37   15.54
  14   0   1  560.57   19.55
  14   0   1  546.25   16.65
 -14   0  -1  545.33   18.70
  14   0   2  153.96    5.72
  14   0   2  159.82    5.95
 -14   0  -2  155.77    5.50
  14   0   3   56.59    3.22
  14   0   3   61.43    4.93
 -14   0  -3   58.42    4.33
  14   0   4  104.84    6.01
  14   0   4  100.50    4.35
 -14   0  -4   93.24    3.71
  14   0   5  225.10    9.87
  14   0   5  218.50    7.56
  14   0   6  130.76    5.52
  14   0   6  128.09    6.77
  14   0   7   45.60    3.93
  14   0   7   47.53    3.00
  14   0   7   43.94    2.49
  14   2  -7   31.65    3.87
  14  -2  -7   28.23    3.26
 -14  -2   7   31.97    4.33
 -14   2   7   26.75    5.25
  14   2  -6   10.88    4.76
  14  -2  -6   17.04    3.67
 -14  -2   6   14.65    3.43
 -14   2   6   13.95    2.59
  14   2  -5   44.03    5.73
  14  -2  -5   37.33    5.06
 -14  -2   5   46.07    6.85
 -14   2   5   42.13    3.52
  14   2  -4 1190.75   37.33
  14  -2  -4 1168.52   35.99
 -14   2   4 1230.66   38.97
 -14  -2   4 1309.33   42.31
  14   2  -3 1359.36   41.64
  14  -2  -3 1369.49   42.14
 -14   2   3 1433.53   49.50
 -14  -2   3 1574.37   54.15
  14  -2  -2  199.14    7.63
  14   2  -2  189.44    9.01
 -14   2   2  208.23    7.91
 -14  -2   2  232.48   11.31
  14   2  -1   29.15    2.79
  14   2  -1   20.47    2.31
  14  -2  -1   24.92    3.06
 -14   2   1   19.89    2.88
 -14  -2   1   38.97    3.00
  14   2   0   12.14    4.15
  14   2   0   20.02    2.16
  14  -2   0   11.99    4.61
 -14   2   0   11.37    2.28
 -14  -2   0   13.17    2.10
  14   2   1 1174.96   35.97
  14   2   1 1085.84   32.54
  14  -2   1 1235.40   39.02
 -14  -2  -1 1196.86   35.42
 -14   2  -1 1124.33   38.52
  14   2   2 1548.69   49.57
  14  -2   2 1589.21   51.87
  14   2   2 1370.96   44.98
  14  -2   2 1585.13   51.04
 -14  -2  -2 1507.76   48.50
 -14   2  -2 1523.26   52.41
  14  -2   3  266.77    9.68
  14  -2   3  258.34    9.67
  14   2   3  260.09    9.22
  14   2   3  231.04    8.32
 -14  -2  -3  250.09    7.20
 -14   2  -3  265.96   11.46
  14  -2   4   11.78    2.24
  14  -2   4   10.50    2.21
  14   2   4   10.85    1.16
  14   2   4   13.38    2.16
 -14  -2  -4   12.58    1.85
  14  -2   5    0.45    0.86
  14   2   5   -0.75    0.85
  14   2   5    0.19    0.66
  14  -2   5    0.11    0.50
  14  -2   6  110.43    5.60
  14  -2   6  107.69    3.94
  14   2   6  108.78    7.90
  14  -2   6  108.57    5.26
  14  -2   7  195.72   11.67
  14  -2   7  190.78    8.13
  14  -4  -7  201.10    8.06
  14   4  -7  220.09   10.48
 -14   4   7  197.61   10.80
 -14  -4   7  228.21   11.31
  14   4  -6  379.86   14.59
  14  -4  -6  344.52   12.25
 -14   4   6  344.38   15.04
 -14  -4   6  387.38   20.13
  14   4  -5  152.04    7.15
  14   4  -5  137.93    5.56
  14  -4  -5  142.66    6.11
 -14   4   5  149.13    6.35
 -14  -4   5  161.48    8.00
  14   4  -4   61.79    4.13
  14   4  -4   61.22    5.02
  14  -4  -4   58.21    3.74
 -14   4   4   58.96    5.79
 -14  -4   4   65.32    4.60
  14   4  -3   41.31    4.98
  14   4  -3   40.80    3.01
  14  -4  -3   47.82    3.62
 -14   4   3   47.50    5.38
 -14  -4   3   46.30    5.93
  14   4  -2  217.04    7.58
  14   4  -2  198.51    9.27
  14  -4  -2  220.64    8.60
 -14   4   2  225.30   10.72
 -14  -4   2  226.52   10.88
  14   4  -1  491.19   14.82
  14   4  -1  543.47   19.28
  14  -4  -1  591.03   22.32
 -14   4   1  543.56   20.10
 -14  -4   1  572.08   17.22
  14   4   0  311.52   10.58
  14   4   0  276.95    8.61
  14  -4   0  336.17   11.97
 -14   4   0  310.83   10.69
 -14  -4   0  326.48   12.21
  14  -4   1  311.54   14.60
  14   4   1  264.70    9.13
  14   4   1  300.61   10.42
 -14   4  -1  308.36   13.65
 -14  -4  -1  305.27    9.05
  14  -4   2   91.78    5.42
  14   4   2   76.09    3.51
  14   4   2   88.91    7.02
 -14  -4  -2   89.37    3.24
 -14   4  -2   94.89    4.95
  14  -4   3   43.57    4.12
  14  -4   3   39.39    2.83
  14   4   3   31.64    2.01
  14   4   3   42.59    3.53
 -14  -4  -3   40.58    2.38
  14  -4   4   95.10    8.66
  14   4   4   89.67    5.22
  14  -4   4   85.01    2.95
  14  -4   5  153.72    7.88
  14   4   5  144.62    7.62
  14  -4   6   99.76    9.66
  14   4   6   92.87    6.09
  14  -4   6   94.77    8.62
  14  -6  -5   31.61    2.91
  14   6  -5   33.38    3.83
  14   6  -5   28.74    3.66
 -14   6   5   30.97    2.92
 -14  -6   5   30.55    4.28
  14   6  -4  449.97   16.60
  14  -6  -4  452.08   15.43
 -14   6   4  478.73   18.97
 -14  -6   4  502.14   18.37
  14   6  -3  598.24   21.39
  14  -6  -3  600.58   20.20
  14   6  -3  576.81   19.85
 -14   6   3  603.81   20.14
 -14  -6   3  647.84   25.77
  14   6  -2   96.86    4.61
  14  -6  -2   96.33    5.51
  14   6  -2   87.36    6.14
 -14   6   2   99.52    5.16
 -14  -6   2   95.12    7.14
  14   6  -1    6.63    1.96
  14   6  -1    0.07    1.56
  14  -6  -1    6.64    3.42
 -14   6   1    7.19    2.06
 -14  -6   1    3.98    2.63
  14   6   0    3.75    1.68
  14   6   0    2.73    1.76
  14  -6   0    3.42    2.24
 -14   6   0    2.08    1.77
 -14  -6   0    1.96    1.16
  14  -6   1  432.10   20.32
  14   6   1  413.14   14.22
  14   6   1  339.37   11.49
 -14   6  -1  407.65   14.84
 -14  -6  -1  387.98   13.54
  14  -6   2  589.41   27.06
  14   6   2  598.82   25.05
  14  -6   3  130.14    7.61
  14   6   3  120.77    9.42
  14  -6   4    0.59    1.82
  14   6   4    0.26    1.52
  14  -6   5   -2.73    3.38
  14   6   5    1.30    1.78
  14  -6   5    0.82    1.84
  14   8  -1  142.55    6.26
  14   8  -1  123.60    5.23
  14  -8  -1  155.72    7.96
 -14  -8   1  134.23    7.74
  14   8   0  125.00    8.23
  14  -8   0  127.03    7.39
  14  -8   1   76.43    5.80
  14   8   1   72.76    4.99
  15   1  -7   80.96    8.30
  15  -1  -7   71.07    4.84
 -15  -1   7   74.55    5.81
 -15   1   7   82.63    8.22
  15   1  -6   77.68    5.18
  15  -1  -6   76.74    4.85
 -15  -1   6   84.04    5.93
 -15   1   6   89.27    8.26
  15   1  -5  259.45    9.97
  15  -1  -5  255.91   11.88
 -15  -1   5  284.51   11.17
 -15   1   5  284.53   10.85
  15   1  -4  316.49   13.66
  15  -1  -4  325.84   11.01
 -15  -1   4  368.24   13.29
 -15   1   4  357.42   16.03
  15   1  -3  429.41   13.69
  15  -1  -3  440.77   14.20
 -15  -1   3  498.34   20.19
 -15   1   3  487.23   19.44
  15   1  -2   60.66    3.71
  15  -1  -2   58.54    6.00
 -15   1   2   63.06    6.42
 -15  -1   2   61.94    6.51
  15   1  -1  175.01    6.58
  15  -1  -1  183.54    7.15
 -15   1   1  192.27    7.35
 -15  -1   1  197.12    7.38
  15   1   0  461.95   14.45
  15   1   0  407.63   12.66
  15  -1   0  446.34   17.77
 -15  -1   0  446.12   16.54
 -15   1   0  440.21   16.85
  15   1   1  390.50   12.76
  15   1   1  361.51   13.74
  15  -1   1  387.41   12.96
 -15  -1  -1  374.62   13.88
 -15   1  -1  374.74   12.10
  15  -1   2  286.65    9.12
  15   1   2  256.02   10.28
  15  -1   2  276.95   10.00
  15   1   2  278.02    9.56
 -15  -1  -2  269.92    8.51
 -15   1  -2  264.88    9.12
  15   1   3   62.93    3.70
  15   1   3   62.41    4.44
  15  -1   3   63.72    3.35
  15  -1   3   64.66    3.96
 -15  -1  -3   61.95    4.19
 -15   1  -3   57.57    5.09
  15  -1   4   45.04    3.77
  15   1   4   36.35    3.15
  15   1   4   39.39    3.58
  15  -1   4   41.84    3.11
 -15  -1  -4   38.39    3.27
 -15   1  -4   37.73    4.09
  15  -1   5  173.92    7.08
  15   1   5  189.72    7.60
  15   1   5  165.86    5.78
  15  -1   5  178.92    6.46
  15  -1   6  118.80    5.56
  15  -1   6  115.84    6.60
  15   1   6  123.31    5.98
  15   1   6  109.08    5.54
  15  -1   7   18.86    3.62
  15  -1   7   18.96    1.91
  15   1   7   21.52    2.55
  15  -1   7   17.71    3.28
  15   3  -7   75.24    6.04
  15  -3  -7   77.33    6.81
 -15   3   7   74.12    4.86
 -15  -3   7   82.18    6.44
  15   3  -6   34.21    6.21
  15  -3  -6   25.11    4.66
 -15   3   6   28.78    3.47
 -15  -3   6   37.93    4.60
  15   3  -5  124.64    9.25
  15  -3  -5  121.92    7.80
 -15   3   5  133.74    8.73
 -15  -3   5  132.13    7.42
  15   3  -4  285.25   13.60
  15  -3  -4  298.36   10.60
 -15   3   4  307.35   11.10
 -15  -3   4  329.30   15.93
  15   3  -3  523.90   20.12
  15  -3  -3  530.48   17.47
 -15   3   3  534.84   17.29
 -15  -3   3  583.20   19.03
  15   3  -2  117.16    7.23
  15   3  -2  123.06    7.76
  15  -3  -2  121.22    5.99
 -15   3   2  119.90    5.72
 -15  -3   2  135.65    6.13
  15   3  -1   89.10    4.61
  15   3  -1   73.70    5.35
  15  -3  -1  107.59    7.80
 -15   3   1   99.76    5.01
 -15  -3   1   98.44    6.95
  15   3   0  196.55    8.55
  15   3   0  215.19    7.96
  15  -3   0  227.98    8.91
 -15   3   0  229.27   11.27
 -15  -3   0  238.45    8.05
  15   3   1  307.35   10.81
  15   3   1  278.18   10.37
  15  -3   1  330.31   11.87
 -15  -3  -1  342.02   12.27
 -15   3  -1  307.51   11.05
  15   3   2  306.06   10.93
  15  -3   2  318.48    9.74
  15   3   2  262.22    7.91
  15  -3   2  329.16   15.34
 -15  -3  -2  312.55    9.13
 -15   3  -2  319.68   14.10
  15  -3   3   82.76    7.70
  15   3   3   68.32    3.47
  15  -3   3   75.00    3.15
  15   3   3   77.38    4.61
 -15  -3  -3   81.38    4.02
 -15   3  -3   88.20    4.88
  15  -3   4   28.20    3.38
  15   3   4   27.49    4.87
  15  -3   4   28.54    1.76
  15   3   4   19.95    1.24
 -15  -3  -4   26.28    1.45
  15  -3   5  117.45    6.32
  15   3   5  109.93    6.07
  15  -3   5  106.81    3.77
  15  -3   6   92.39    5.78
  15   3   6   89.06    5.62
  15  -3   6   86.63    5.36
  15   5  -6   80.44    5.75
  15  -5  -6   83.50    6.32
  15   5  -6  104.47    6.64
 -15   5   6   97.35    5.12
 -15  -5   6  102.50    7.40
  15   5  -5  223.97   13.46
  15   5  -5  210.20    7.80
  15  -5  -5  210.52   11.11
 -15   5   5  217.88    8.84
 -15  -5   5  247.94   11.20
  15   5  -4  166.36   10.50
  15   5  -4  171.44    8.68
  15  -5  -4  163.43    9.99
 -15   5   4  171.54   10.14
 -15  -5   4  180.06    8.56
  15   5  -3  119.27    5.63
  15   5  -3  118.77    7.40
  15  -5  -3  121.12    8.56
 -15   5   3  121.65    8.33
 -15  -5   3  127.01    6.37
  15   5  -2   44.74    4.65
  15  -5  -2   43.55    3.84
  15   5  -2   41.59    3.27
 -15   5   2   45.67    3.73
 -15  -5   2   44.91    5.42
  15   5  -1  125.62    5.10
  15   5  -1  143.38    6.10
  15  -5  -1  143.24    7.03
 -15   5   1  136.15    6.47
 -15  -5   1  140.53    5.83
  15   5   0  288.50   11.02
  15   5   0  327.39   14.53
  15  -5   0  332.90   12.99
 -15   5   0  324.52   15.14
 -15  -5   0  333.56   12.95
  15   5   1  187.22    7.38
  15   5   1  221.33   11.95
  15  -5   1  234.15   13.75
 -15   5  -1  221.89   12.56
 -15  -5  -1  208.36    6.90
  15  -5   2   96.93    9.07
  15   5   2   72.23    3.54
  15   5   2   91.02    5.27
 -15  -5  -2   80.85    3.17
 -15   5  -2   86.94    5.37
  15  -5   3   18.65    5.66
  15   5   3   18.60    3.12
  15  -5   3   18.51    2.12
  15  -5   4   40.06    4.59
  15   5   4   36.65    6.42
  15  -5   5  149.26   12.72
  15   5   5  138.12    7.82
  15   7  -3  219.84   10.47
  15  -7  -3  235.50    9.55
  15   7  -3  223.11   11.52
 -15   7   3  240.00    9.61
 -15  -7   3  242.38   10.30
  15   7  -2  106.78    5.14
  15  -7  -2  100.05    6.01
  15   7  -2   96.43    6.69
 -15   7   2  117.33    8.75
 -15  -7   2  109.16    5.59
  15   7  -1   18.93    3.11
  15  -7  -1   18.21    3.47
  15   7  -1   21.76    4.15
 -15   7   1   20.64    5.09
 -15  -7   1   21.65    2.37
  15   7   0   51.98    5.83
  15   7   0   39.56    3.38
  15  -7   0   44.88    7.39
 -15  -7   0   42.45    2.75
  15  -7   1  132.51    7.74
  15   7   1  134.11    9.71
  15  -7   2  143.15    8.57
  15   7   2  140.88   10.39
  15  -7   3   51.34    8.73
  15   7   3   51.60    7.69
  16   0  -7   12.86    5.14
 -16   0   7   13.26    5.54
  16   0  -6  347.10   13.72
 -16   0   6  358.90   14.37
  16   0  -5  644.58   25.52
 -16   0   5  709.57   24.90
  16   0  -4  345.06   11.92
 -16   0   4  376.01   17.52
  16   0  -3    1.91    2.74
 -16   0   3    7.07    4.10
  16   0  -2    4.27    1.92
 -16   0   2    2.55    3.14
  16   0  -1  249.82    8.93
 -16   0   1  271.55    9.75
  16   0   0 1589.48   56.15
 -16   0   0 1688.90   53.87
  16   0   1  669.86   21.23
  16   0   1  645.87   20.56
 -16   0  -1  653.53   20.49
  16   0   2    1.96    1.42
  16   0   2    1.10    1.39
 -16   0  -2    0.82    1.22
  16   0   3   22.87    2.44
  16   0   3   20.44    2.38
 -16   0  -3   26.94    3.63
  16   0   4   94.05    4.55
  16   0   4   92.36    4.48
 -16   0  -4   95.87    4.27
  16   0   5  264.85   12.21
  16   0   5  277.20   10.23
  16   0   6  216.66   11.27
  16   0   6  207.67    7.99
  16   0   7    3.67    2.10
  16   0   7   -0.30    1.60
  16   0   7    2.30    1.18
  16   2  -7   77.85    9.10
  16  -2  -7   76.53    5.33
 -16  -2   7   79.95    9.64
 -16   2   7   73.21    7.83
  16   2  -6    0.55    1.99
  16  -2  -6    1.58    1.55
 -16   2   6   -1.64    2.99
 -16  -2   6   -0.76    3.61
  16   2  -5    6.54    2.48
  16  -2  -5    7.28    3.76
 -16   2   5    7.65    2.62
 -16  -2   5    8.56    2.91
  16   2  -4  424.54   14.51
  16  -2  -4  405.34   14.17
 -16   2   4  439.29   18.65
 -16  -2   4  442.64   15.67
  16   2  -3  623.62   23.49
  16  -2  -3  642.71   20.65
 -16   2   3  688.22   26.40
 -16  -2   3  720.83   23.70
  16   2  -2  395.94   15.68
  16  -2  -2  428.91   17.65
 -16   2   2  440.77   18.26
 -16  -2   2  461.63   15.35
  16   2  -1    9.72    3.45
  16   2  -1   14.72    4.23
  16  -2  -1   20.03    2.87
 -16   2   1   36.56    4.68
 -16  -2   1   14.02    2.65
  16   2   0  112.08    5.44
  16   2   0  100.61    4.54
  16  -2   0  128.00    8.75
 -16  -2   0  115.09    5.05
 -16   2   0  117.87    5.74
  16   2   1  247.18   12.14
  16   2   1  219.08    7.58
  16  -2   1  278.00   13.70
 -16  -2  -1  247.25    8.29
 -16   2  -1  272.21   12.51
  16   2   2  249.07    9.35
  16  -2   2  254.39    8.50
  16   2   2  207.45    6.96
  16  -2   2  256.48   10.06
 -16  -2  -2  248.38    7.87
 -16   2  -2  259.30   12.17
  16  -2   3  154.92    7.39
  16   2   3  149.26    6.56
  16   2   3  134.95    6.30
  16  -2   3  157.75    7.05
 -16  -2  -3  149.95    5.14
 -16   2  -3  158.19    6.59
  16  -2   4   90.58    7.46
  16  -2   4   84.30    3.79
  16   2   4   74.04    3.11
  16   2   4   91.78    7.40
 -16  -2  -4   83.63    3.25
 -16   2  -4   83.01    4.62
  16  -2   5   28.73    3.37
  16   2   5   28.21    5.50
  16   2   5   26.87    2.57
  16  -2   5   32.86    2.18
  16  -2   6   62.57    6.44
  16  -2   6   60.95    4.20
  16   2   6   62.29    4.58
  16   4  -6  231.02   11.07
  16  -4  -6  214.46    9.21
  16   4  -6  213.66    8.43
 -16   4   6  221.73    9.47
 -16  -4   6  233.94   11.70
  16   4  -5  449.98   16.97
  16  -4  -5  429.86   15.52
  16   4  -5  435.32   14.98
 -16   4   5  436.41   19.33
 -16  -4   5  475.09   18.04
  16   4  -4  224.22    9.42
  16   4  -4  225.51    8.38
  16  -4  -4  211.51    8.74
 -16   4   4  239.32    9.72
 -16  -4   4  245.77   14.23
  16   4  -3    0.03    1.76
  16   4  -3   -0.25    1.21
 -16   4   3    0.84    1.41
 -16  -4   3    0.03    1.57
  16   4  -2    1.79    2.75
  16   4  -2    2.55    1.51
  16  -4  -2    1.75    1.90
 -16   4   2    2.39    4.80
 -16  -4   2   35.02    3.35
  16   4  -1  210.05   10.14
  16  -4  -1  240.25   10.02
  16   4  -1  229.84   11.91
 -16   4   1  222.93    9.33
 -16  -4   1  262.47   12.12
  16   4   0  916.45   30.16
  16   4   0  799.74   25.41
  16  -4   0  929.54   31.93
 -16   4   0  904.23   30.50
 -16  -4   0  936.65   29.31
  16   4   1  355.21   12.81
  16   4   1  426.54   15.10
  16  -4   1  441.99   20.66
 -16  -4  -1  434.84   13.29
 -16   4  -1  421.04   15.57
  16   4   2    1.26    0.78
  16  -4   2    1.74    1.03
  16   4   2    3.16    2.92
  16  -4   2    1.95    3.40
 -16  -4  -2    1.33    0.86
 -16   4  -2    1.45    1.72
  16  -4   3    8.96    2.76
  16   4   3   10.14    1.02
  16  -4   3    7.88    2.12
  16   4   3    9.59    2.59
 -16  -4  -3   12.19    1.24
 -16   4  -3    7.16    2.56
  16  -4   4   57.30    5.07
  16   4   4   64.64    7.63
  16  -4   4   53.85    2.59
  16  -4   5  201.17   14.35
  16   4   5  205.12   10.55
  16   6  -4  197.01   10.02
  16  -6  -4  205.44   11.44
  16   6  -4  194.35    9.12
 -16   6   4  205.76   11.74
 -16  -6   4  222.99   13.51
  16   6  -3  292.09   10.49
  16  -6  -3  283.99   14.79
  16   6  -3  265.85   13.48
 -16   6   3  293.81   11.63
 -16  -6   3  295.00   11.93
  16   6  -2  151.03    6.53
  16   6  -2  165.01    7.12
  16  -6  -2  160.40    7.79
 -16   6   2  165.51    7.56
 -16  -6   2  163.36    7.27
  16   6  -1   22.55    2.26
  16   6  -1   24.86    2.97
  16  -6  -1   29.92    6.08
 -16   6   1   23.04    3.33
 -16  -6   1   23.57    2.57
  16   6   0   29.18    2.17
  16   6   0   34.84    3.54
  16  -6   0   33.61    4.37
 -16   6   0   38.25    3.92
 -16  -6   0   31.76    2.63
  16   6   1   99.33    3.88
  16   6   1  125.05    6.55
  16  -6   1  126.84    7.46
 -16   6  -1  116.26    6.71
 -16  -6  -1  104.33    4.25
  16  -6   2  130.61    8.07
  16   6   2  129.98    7.34
  16  -6   3   78.22    6.47
  16   6   3   84.33    5.79
  16  -6   4   39.29    8.26
  16   6   4   46.36    5.04
  17   1  -6  177.50    8.55
  17  -1  -6  166.29    8.21
 -17  -1   6  185.92    9.68
 -17   1   6  179.29   12.29
  17   1  -5  208.47    9.11
  17  -1  -5  193.38   11.64
 -17  -1   5  236.41   14.77
 -17   1   5  216.94    9.99
  17   1  -4  133.59    8.88
  17  -1  -4  132.99    6.44
 -17  -1   4  149.78    7.96
 -17   1   4  154.55   10.67
  17   1  -3   75.41    4.70
  17  -1  -3   81.57    7.47
 -17   1   3   91.14    5.55
 -17  -1   3   90.31    5.47
  17   1  -2   90.55    4.76
  17  -1  -2   89.05    5.23
 -17   1   2  111.16    5.86
 -17  -1   2  106.65    8.46
  17   1  -1  316.48   13.98
  17  -1  -1  332.67   15.17
 -17  -1   1  350.66   12.24
 -17   1   1  354.83   15.83
  17   1   0  385.27   13.33
  17   1   0  344.90   14.58
  17  -1   0  376.16   16.88
 -17  -1   0  392.20   15.99
 -17   1   0  380.70   13.22
  17   1   1  249.26    9.38
  17  -1   1  248.06    9.01
  17   1   1  220.02   10.47
  17  -1   1  239.76    9.35
 -17  -1  -1  236.66    8.34
 -17   1  -1  256.19   12.11
  17  -1   2   38.56    3.00
  17   1   2   31.85    4.18
  17  -1   2   46.31    3.71
  17   1   2   40.09    3.35
 -17  -1  -2   36.97    4.27
 -17   1  -2   59.55    5.49
  17   1   3   33.17    3.27
  17   1   3   33.87    3.79
  17  -1   3   37.66    3.34
  17  -1   3   33.11    2.81
 -17  -1  -3   34.70    2.55
 -17   1  -3   36.03    4.74
  17  -1   4  155.04    8.47
  17   1   4  152.49    7.03
  17   1   4  146.05    5.64
  17  -1   4  157.66    9.58
 -17  -1  -4  157.84    7.49
 -17   1  -4  156.93    8.85
  17   1   5  145.83    9.54
  17   1   5  125.48    6.70
  17  -1   5  136.23    5.82
  17  -1   5  132.57    6.59
  17  -1   6   12.99    1.84
  17   1   6    9.70    3.91
  17   1   6   11.57    1.52
  17  -1   6    8.78    3.57
  17   3  -6  135.99    7.66
  17  -3  -6  118.74    8.73
 -17   3   6  137.81   10.39
 -17  -3   6  141.97   12.04
  17   3  -5   95.88    6.24
  17  -3  -5   93.82    5.33
 -17   3   5  106.28    6.40
 -17  -3   5  109.40   10.53
  17   3  -4   75.63    5.06
  17  -3  -4   83.76    5.21
 -17   3   4   92.72    8.06
 -17  -3   4   88.25    6.02
  17   3  -3  108.99    5.67
  17  -3  -3  110.08    8.48
  17   3  -3  116.24    5.85
 -17   3   3  123.11    6.23
 -17  -3   3  121.62    9.53
  17   3  -2  131.41    5.99
  17   3  -2  150.99    6.65
  17  -3  -2  144.84    7.06
 -17   3   2  149.93    7.17
 -17  -3   2  154.95   10.09
  17   3  -1  288.47   10.74
  17   3  -1  240.55   10.90
  17  -3  -1  275.20   14.77
 -17   3   1  281.70   10.82
 -17  -3   1  299.85   10.57
  17   3   0  190.92    8.96
  17   3   0  221.37   12.06
  17  -3   0  216.03    9.42
 -17   3   0  220.26   12.44
 -17  -3   0  220.12   10.40
  17   3   1  124.41    6.37
  17   3   1  104.95    5.91
  17  -3   1  128.36    6.85
 -17  -3  -1  127.52    6.88
 -17   3  -1  124.87    6.43
  17   3   2   46.97    3.98
  17  -3   2   53.01    4.33
  17   3   2   39.03    2.28
  17  -3   2   53.22    4.45
 -17  -3  -2   48.51    2.71
 -17   3  -2   47.45    6.02
  17   3   3   44.76    3.29
  17  -3   3   62.96    3.18
  17   3   3   61.10    4.58
  17  -3   3   63.03    4.87
 -17  -3  -3   60.93    3.98
 -17   3  -3   62.64    4.67
  17  -3   4  133.89   10.52
  17  -3   4  133.20    5.04
  17   3   4   99.19    4.70
  17   3   4  138.13    7.33
 -17  -3  -4  132.95    4.58
  17  -3   5   87.20    5.97
  17   3   5   83.98    5.76
  17  -3   5   83.22    4.93
  17   5  -4  123.38    6.90
  17   5  -4  136.01    6.30
  17  -5  -4  122.86    6.66
 -17   5   4  129.51    7.06
 -17  -5   4  137.81    7.75
  17   5  -3   36.16    5.80
  17   5  -3   41.89    5.64
  17  -5  -3   48.69    4.28
 -17   5   3   45.48    6.39
 -17  -5   3   34.96    6.46
  17   5  -2   16.33    2.62
  17  -5  -2   17.96    5.34
  17   5  -2   19.00    2.83
 -17   5   2   22.22    5.34
 -17  -5   2   22.82    3.25
  17   5  -1  174.23    7.81
  17   5  -1  136.36    8.25
  17  -5  -1  164.96    8.41
 -17   5   1  170.41    8.12
 -17  -5   1  154.66    9.84
  17   5   0  248.64    8.80
  17   5   0  291.59   11.56
  17  -5   0  291.72   12.61
 -17   5   0  285.78   15.54
 -17  -5   0  281.09   10.09
  17   5   1  112.15    4.49
  17   5   1  144.27   10.20
  17  -5   1  153.94    8.24
 -17  -5  -1  129.99    5.19
 -17   5  -1  146.05   10.85
  17   5   2   19.74    1.56
  17  -5   2   22.65    2.05
  17   5   2   25.47    5.63
  17  -5   2   28.77    4.11
 -17  -5  -2   22.43    1.78
 -17   5  -2   24.73    3.68
  17  -5   3   20.09    3.62
  17   5   3   12.59    3.38
  17  -5   3   15.75    1.52
  17  -5   4   76.08    9.53
  17   5   4   77.85    5.98
  18   0  -6  139.38    8.17
 -18   0   6  149.04    8.60
  18   0  -5  781.78   32.36
 -18   0   5  842.81   30.45
  18   0  -4  281.91   10.95
 -18   0   4  297.87   12.10
  18   0  -3    1.72    1.82
 -18   0   3   -0.16    2.42
  18   0  -2   -0.84    2.84
 -18   0   2   29.31    5.83
  18   0  -1  230.78    9.22
 -18   0   1  274.84   13.84
  18   0   0  556.00   19.11
  18   0   0  602.36   20.35
 -18   0   0  578.38   19.29
  18   0   1  354.96   15.85
  18   0   1  316.28   11.61
 -18   0  -1  342.63   14.88
  18   0   2   18.94    2.79
  18   0   2   20.53    2.60
 -18   0  -2   32.16    4.53
  18   0   3   14.80    2.50
  18   0   3   13.93    2.30
 -18   0  -3   31.17    4.28
  18   0   4   54.58    3.96
  18   0   4   54.21    5.55
 -18   0  -4   51.97    3.55
  18   0   5  120.22    5.79
  18   0   5  141.23    6.61
  18   0   6   36.23    3.21
  18   0   6   34.71    2.74
  18   2  -6   89.07    6.45
  18  -2  -6   68.22    5.08
 -18   2   6   93.08    9.11
 -18  -2   6   92.36    7.03
  18   2  -5   45.13    4.34
  18  -2  -5   38.80    6.60
 -18   2   5   45.48    4.46
 -18  -2   5   44.99    5.09
  18   2  -4    3.81    2.29
  18  -2  -4    4.50    2.27
 -18   2   4    6.76    4.16
 -18  -2   4    4.70    4.69
  18   2  -3  129.55    9.12
  18  -2  -3  128.33    9.69
 -18   2   3  142.59    7.25
 -18  -2   3  144.19    7.59
  18   2  -2  455.11   18.85
  18  -2  -2  509.37   17.98
  18   2  -2  541.09   18.36
 -18   2   2  515.95   18.36
 -18  -2   2  553.03   18.94
  18   2  -1  417.70   17.67
  18   2  -1  495.53   17.08
  18  -2  -1  455.03   16.56
 -18   2   1  484.94   17.37
 -18  -2   1  495.59   20.12
  18   2   0   60.10    4.44
  18   2   0   45.16    5.04
  18  -2   0   54.01    7.15
 -18  -2   0   51.46    3.75
 -18   2   0   51.22    6.71
  18   2   1    0.51    1.61
  18  -2   1    0.62    1.19
  18  -2   1   -0.82    2.48
  18   2   1    0.54    2.33
 -18  -2  -1    0.62    1.89
 -18   2  -1    0.83    1.53
  18   2   2   22.14    3.17
  18  -2   2   22.84    3.88
  18   2   2   18.23    2.03
  18  -2   2   22.55    5.33
 -18  -2  -2   22.78    2.26
 -18   2  -2   26.51    5.06
  18   2   3  263.31   11.01
  18   2   3  223.20    7.95
  18  -2   3  260.49   14.65
  18  -2   3  274.47    9.78
 -18  -2  -3  269.44   11.08
 -18   2  -3  259.97   10.63
  18  -2   4  227.14    8.54
  18   2   4  180.29    8.27
  18   2   4  228.99   14.27
  18  -2   4  225.03   10.39
 -18  -2  -4  215.80    7.48
 -18   2  -4  209.00    9.41
  18   2   5   65.41    5.05
  18   2   5   49.03    3.70
  18  -2   5   60.09    4.84
  18  -2   5   62.54    7.08
  18   4  -5  476.87   23.92
  18   4  -5  482.47   20.83
  18  -4  -5  478.33   21.56
 -18   4   5  519.43   19.61
 -18  -4   5  514.76   25.84
  18   4  -4  194.01   12.42
  18   4  -4  195.32    8.56
  18  -4  -4  185.46   12.10
 -18   4   4  204.53   13.00
 -18  -4   4  203.49    9.87
  18   4  -3    2.54    1.83
  18   4  -3    1.84    1.81
  18  -4  -3    1.13    2.06
 -18   4   3    1.65    1.96
 -18  -4   3    0.47    3.30
  18   4  -2   -0.65    1.19
  18   4  -2    1.63    1.43
  18  -4  -2   -0.40    2.64
 -18   4   2    0.81    1.97
 -18  -4   2    3.00    3.02
  18   4  -1  124.38    7.98
  18  -4  -1  140.89    7.76
  18   4  -1  142.99    7.35
 -18   4   1  139.91    7.66
 -18  -4   1  146.07    6.67
  18   4   0  427.19   15.79
  18   4   0  336.12   11.72
  18  -4   0  407.95   15.97
 -18   4   0  409.00   16.09
 -18  -4   0  399.52   16.36
  18   4   1  170.88    6.33
  18   4   1  228.61    9.80
  18  -4   1  218.91   10.47
 -18  -4  -1  216.73    9.76
 -18   4  -1  216.57    9.92
  18   4   2    9.20    1.38
  18  -4   2   18.87    3.03
  18   4   2   13.68    4.75
  18  -4   2   12.01    3.40
 -18  -4  -2   16.31    2.80
 -18   4  -2   12.11    5.27
  18   4   3    5.32    1.01
  18  -4   3   10.49    1.57
  18   4   3   10.66    2.83
  18  -4   3   16.00    3.09
 -18   4  -3   11.98    3.04
  18  -4   4   41.50    7.53
  18   4   4   43.87    4.66
  18  -4   4   35.35    2.42
  18   6  -2  218.45    9.19
  18   6  -2  243.44   10.43
  18  -6  -2  243.76   11.10
 -18   6   2  244.22   11.13
 -18  -6   2  239.73   13.51
  18   6  -1  141.83    8.19
  18   6  -1  166.01    8.00
  18  -6  -1  163.91   12.70
 -18   6   1  169.78    8.89
 -18  -6   1  162.61    7.36
  18   6   0   35.51    3.77
  18   6   0   46.09    4.15
  18  -6   0   36.32    4.94
 -18   6   0   38.03    4.63
 -18  -6   0   36.82    4.42
  18   6   1    1.49    1.57
  18   6   1    2.50    2.08
  18  -6   1    0.85    2.58
 -18  -6  -1    6.07    2.15
 -18   6  -1    1.97    2.56
  18   6   2   17.74    3.61
  18  -6   2   12.19    4.05
  19   1  -5   45.62    5.18
  19  -1  -5   52.97    6.97
 -19   1   5   53.63    5.27
 -19  -1   5   58.46    9.04
  19   1  -4  124.46    9.96
  19  -1  -4  137.97    7.02
 -19   1   4  163.30   11.81
 -19  -1   4  162.39    8.71
  19   1  -3  101.88    5.85
  19  -1  -3  102.15    6.12
 -19   1   3  107.59    6.56
 -19  -1   3  109.44    6.60
  19   1  -2  165.71    7.61
  19  -1  -2  176.65   11.85
 -19  -1   2  189.73    8.61
 -19   1   2  200.17    9.13
  19   1  -1  229.10    9.45
  19  -1  -1  234.87   10.09
  19   1  -1  258.66   10.60
 -19  -1   1  246.49    9.99
 -19   1   1  251.35   10.41
  19   1   0   99.71    5.93
  19   1   0   96.25    5.12
  19  -1   0   93.96    5.81
 -19  -1   0  112.39    8.17
 -19   1   0  100.51    8.55
  19  -1   1   23.84    2.88
  19   1   1   21.78    3.13
  19   1   1   16.97    2.53
  19  -1   1   21.70    3.10
 -19  -1  -1   20.98    2.71
 -19   1  -1   17.44    3.05
  19  -1   2   99.41    7.45
  19   1   2   87.28    4.55
  19  -1   2   90.47    5.42
  19   1   2   93.44    5.67
 -19  -1  -2   99.40    4.91
 -19   1  -2  101.96    8.08
  19   1   3  121.45    6.70
  19   1   3  108.00    7.20
  19  -1   3  116.10    9.17
 -19  -1  -3  116.16    5.44
 -19   1  -3  116.24    8.71
  19  -1   4  121.15    8.13
  19   1   4  106.34    5.18
  19   1   4  122.26    9.50
  19  -1   4  112.67    6.05
 -19  -1  -4  114.17    7.27
 -19   1  -4  122.68    8.84
  19   1   5    6.45    2.51
  19  -1   5    6.95    2.13
  19  -1   5    7.00    3.09
  19   1   5    6.76    3.81
  19   3  -5   35.28    4.66
  19  -3  -5   32.73    3.89
 -19   3   5   35.44    7.00
 -19  -3   5   34.22    4.97
  19   3  -4   61.91    5.02
  19  -3  -4   63.04    7.98
  19   3  -4   75.30    5.12
 -19   3   4   62.46    5.20
 -19  -3   4   63.31    8.79
  19   3  -3   76.01    5.34
  19   3  -3   85.75    8.15
  19  -3  -3   73.42    5.49
 -19   3   3   82.95    5.97
 -19  -3   3   80.38    5.87
  19   3  -2  205.08    9.06
  19   3  -2  230.83   13.59
  19  -3  -2  223.71   13.86
 -19   3   2  227.41   10.05
 -19  -3   2  226.84   10.03
  19   3  -1  224.30   11.28
  19   3  -1  283.41   15.23
  19  -3  -1  257.76   15.49
 -19   3   1  268.93   11.60
 -19  -3   1  271.96   10.64
  19   3   0   52.44    5.01
  19  -3   0   60.81    5.34
  19   3   0   65.03    7.76
 -19  -3   0   61.84    6.23
 -19   3   0   67.64    5.46
  19   3   1    8.76    2.71
  19   3   1   10.25    1.62
  19  -3   1   -0.15    1.95
  19  -3   1    8.15    2.85
 -19  -3  -1    5.14    3.08
 -19   3  -1    9.88    2.78
  19   3   2   70.91    5.13
  19   3   2   49.57    4.10
  19  -3   2   67.10    5.63
  19  -3   2   62.26    5.37
 -19  -3  -2   70.47    5.20
 -19   3  -2   69.08    7.80
  19   3   3  122.58    7.43
  19  -3   3  122.70   11.19
  19  -3   3  119.47    7.50
 -19  -3  -3  114.19    4.84
 -19   3  -3  117.80    7.22
  19  -3   4  113.50    5.30
  19   3   4  123.36    7.61
  19  -3   4  117.02    7.61
  19   5  -3   64.50    7.33
  19  -5  -3   70.48    5.69
  19   5  -3   73.38    5.15
 -19   5   3   79.34    5.96
 -19  -5   3   74.54    5.70
  19   5  -2   64.09    4.58
  19  -5  -2   74.80    9.02
  19   5  -2   79.09    8.05
 -19   5   2   80.54    9.18
 -19  -5   2   72.89    5.25
  19   5  -1  101.86    9.14
  19   5  -1   83.54    6.66
  19  -5  -1   93.74    6.79
 -19   5   1  105.81   10.32
 -19  -5   1   95.92    5.46
  19   5   0   49.37    3.22
  19   5   0   56.69    5.00
  19  -5   0   62.95    5.49
 -19   5   0   65.24    8.30
 -19  -5   0   55.37    5.32
  19   5   1   36.04    3.74
  19   5   1   48.63    7.01
  19  -5   1   52.94    5.33
 -19  -5  -1   41.91    4.36
 -19   5  -1   52.79    7.94
  19  -5   2   57.66    3.40
  19   5   2   63.06    8.40
  19  -5   2   63.73    6.26
 -19   5  -2   61.72    5.43
  20   0  -5  109.74    7.05
 -20   0   5  112.70    7.44
  20   0  -4  159.85   12.01
 -20   0   4  175.68    9.36
  20   0  -3  204.70    9.29
 -20   0   3  241.10   14.86
  20   0  -2   64.53    5.11
 -20   0   2   64.39    5.33
  20   0  -1   15.00    3.02
 -20   0   1   17.52    5.36
  20   0   0   99.55    8.57
  20   0   0   90.59    5.36
 -20   0   0  106.73    6.11
  20   0   1  111.24    6.36
  20   0   1  106.91    5.93
 -20   0  -1  114.56    6.14
  20   0   2  173.67    8.11
  20   0   2  202.13   12.29
 -20   0  -2  189.46    8.52
  20   0   3  116.65    6.64
  20   0   3  106.61    8.17
 -20   0  -3  106.95    5.79
  20   0   4    6.77    2.21
  20   0   4    5.39    1.91
 -20   0  -4   10.64    2.20
  20   2  -4   22.72    3.93
  20  -2  -4   18.38    5.51
 -20   2   4   26.66    4.31
 -20  -2   4   26.47    4.42
  20   2  -3   70.39    5.58
  20  -2  -3   82.79    5.86
  20   2  -3   74.42    5.83
 -20   2   3   80.90    6.25
 -20  -2   3   87.43    9.91
  20   2  -2  403.78   15.46
  20  -2  -2  448.07   17.34
  20   2  -2  494.81   23.28
 -20   2   2  507.24   24.29
 -20  -2   2  480.27   22.78
  20   2  -1  352.56   13.65
  20   2  -1  398.75   20.00
  20  -2  -1  384.87   19.84
 -20  -2   1  389.76   18.68
 -20   2   1  399.04   15.75
  20   2   0   61.13    4.06
  20   2   0   75.55    8.53
  20  -2   0   66.57    8.37
 -20  -2   0   77.48    4.93
 -20   2   0   74.58    5.71
  20   2   1   11.07    2.15
  20  -2   1   12.85    4.16
  20  -2   1    9.27    4.96
  20   2   1   15.01    3.06
 -20  -2  -1   36.61    4.52
 -20   2  -1   11.04    3.40
  20   2   2   19.37    6.37
  20  -2   2   21.70    2.94
  20   2   2   34.97    4.05
  20  -2   2   20.48    6.04
 -20  -2  -2   47.89    4.81
 -20   2  -2   23.18    3.87
  20   2   3  159.08    6.62
  20   2   3  192.86    9.95
  20  -2   3  186.24    9.17
  20  -2   3  199.56    8.45
 -20  -2  -3  199.87   10.31
 -20   2  -3  208.82   13.58
  20  -2   4  118.31    8.07
  20   2   4   94.31    5.97
  20   2   4  125.92   10.78
  20  -2   4  111.74    6.97
 -20  -2  -4  116.05    5.04
 -20   2  -4  114.04    6.79
  20   4  -3  131.50    7.30
  20   4  -3  149.00   10.58
  20  -4  -3  130.59    7.80
 -20   4   3  151.45   12.36
 -20  -4   3  143.89    8.19
  20   4  -2   38.87    3.77
  20   4  -2   49.50    4.79
  20  -4  -2   52.06    7.90
 -20   4   2   56.77    5.38
 -20  -4   2   47.09    4.53
  20   4  -1   14.60    4.15
  20  -4  -1   20.57    3.84
  20   4  -1   20.39    3.60
 -20   4   1   21.91    4.10
 -20  -4   1   21.25    2.97
  20   4   0   67.99    5.49
  20   4   0   52.62    3.65
  20  -4   0   62.95    5.70
 -20  -4   0   66.03    6.26
 -20   4   0   68.54    5.98
  20   4   1   62.22    4.98
  20   4   1   76.31    6.09
  20  -4   1   76.77    6.34
 -20  -4  -1   79.45    6.12
 -20   4  -1   76.93    9.51
  20  -4   2  129.91    8.14
  20   4   2  135.27   11.77
  20  -4   2  135.11    8.50
 -20  -4  -2  127.06    7.23
 -20   4  -2  138.43    8.43
  21   1  -4   74.34    9.03
  21  -1  -4   65.66    9.12
 -21   1   4   75.25    9.75
 -21  -1   4   77.09    6.37
  21   1  -3   91.99    9.33
  21  -1  -3  104.77   10.40
 -21  -1   3  119.62    7.61
 -21   1   3  123.92    7.97
  21   1  -2  137.25   10.68
  21  -1  -2  132.87    7.84
  21   1  -2  144.80    8.18
 -21  -1   2  142.57    7.89
 -21   1   2  150.96    8.44
  21   1  -1   33.83    6.03
  21   1  -1   47.09    4.67
  21  -1  -1   38.67    4.38
 -21  -1   1   38.55    4.45
 -21   1   1   46.08    4.83
  21   1   0   16.12    3.32
  21   1   0   12.19    4.47
  21  -1   0   14.06    3.20
  21  -1   0   16.87    3.17
 -21  -1   0   12.75    3.00
 -21   1   0   18.38    3.25
  21   1   1  129.50    6.52
  21  -1   1  154.43   10.68
  21   1   1  161.24    8.31
  21  -1   1  145.30    7.70
 -21  -1  -1  151.46    7.31
 -21   1  -1  154.88   11.34
  21   1   2   96.71    9.72
  21  -1   2   89.04    5.94
  21   1   2   79.17    4.72
  21  -1   2   79.45    5.84
 -21  -1  -2   92.74    7.91
 -21   1  -2   90.18    6.26
  21  -1   3   91.91    5.77
  21   1   3   92.62    6.52
  21   1   3   73.21    6.58
  21  -1   3   84.03    8.38
 -21  -1  -3   92.48    7.56
 -21   1  -3   97.87    8.83
  21   3  -3   62.82    5.37
  21  -3  -3   55.17    8.76
  21   3  -3   68.00    5.53
 -21   3   3   73.56    9.55
 -21  -3   3   61.12    5.95
  21   3  -2  129.71    7.70
  21   3  -2  113.82    9.41
  21  -3  -2  122.22   11.41
 -21   3   2  132.20    8.22
 -21  -3   2  123.70    7.20
  21   3  -1   59.57    6.67
  21   3  -1   72.16    5.97
  21  -3  -1   67.04    5.94
 -21  -3   1   68.03    7.62
 -21   3   1   73.48    6.23
  21   3   0   19.32    2.49
  21  -3   0   24.31    4.01
  21   3   0   23.38    4.05
 -21  -3   0   27.08    5.12
 -21   3   0   27.01    4.36
  21   3   1   93.19    6.58
  21   3   1   68.66    6.10
  21  -3   1   90.47    6.33
  21  -3   1   87.63    5.23
 -21  -3  -1   98.08    7.31
 -21   3  -1  105.83   10.48
  21  -3   2   58.66    4.09
  21   3   2   64.06    8.81
  21   3   2   46.34    3.19
  21  -3   2   56.39    8.24
 -21  -3  -2   65.08    5.63
 -21   3  -2   51.36    5.63
  22   0  -3  341.87   19.77
 -22   0   3  376.17   21.50
  22   0  -2   69.44    8.04
 -22   0   2   76.76    6.43
  22   0  -1   -0.46    2.72
  22   0  -1    0.89    1.81
 -22   0   1    1.33    2.07
  22   0   0   -0.42    2.18
  22   0   0    0.03    1.44
 -22   0   0    1.36    3.43
  22   0   1  116.62   10.70
  22   0   1   97.39    6.12
 -22   0  -1  115.15    7.31
  22   0   2  291.03   12.63
  22   0   2  347.38   14.99
 -22   0  -2  336.00   18.45
  22   2  -2   78.80    5.48
  22  -2  -2   88.05   10.03
  22   2  -2  106.95    6.83
 -22  -2   2   96.92    9.74
 -22   2   2   99.31   11.03
  22   2  -1  161.54    8.84
  22   2  -1  132.57    7.20
  22  -2  -1  140.92   12.12
 -22  -2   1  157.25   11.67
 -22   2   1  158.50    8.97
  22   2   0   43.90    5.80
  22   2   0   55.06    5.69
  22  -2   0   56.67    8.47
  22  -2   0   57.61    4.92
 -22  -2   0   55.80    4.61
 -22   2   0   63.45    8.76
  22   2   1   21.75    2.70
  22  -2   1   30.41    3.57
  22  -2   1   38.43    6.76
  22   2   1   26.36    6.99
 -22  -2  -1   21.70    5.56
 -22   2  -1   43.91    7.31
  22   2   2   66.87    8.67
  22   2   2   45.67    3.53
  22  -2   2   64.86    4.76
  22  -2   2   61.88    5.37
 -22  -2  -2   55.94    4.29
 -22   2  -2   64.20    5.45
   0   0   0    0.00    0.00
_computing_structure_solution     'SHELXT 2018/2 (Sheldrick, 2018)'
;
_shelx_hkl_checksum              85703
_shelx_res_file
;
TITL 05061608
    shelxl.res
    created by SHELXL-2018/3 at 19:11:55 on 28-Aug-2018
CELL  0.71075 16.37840 7.31340 7.15660 90.00000 91.20460 90.00000
ZERR  2 0.00110 0.00030 0.00040 0.00000 0.00240 0.00000
LATT 7
SYMM    +X,    -Y,    +Z
SFAC C H N CL SN
UNIT 16 40 4 12 2
L.S. 20
FMAP 2
PLAN 21
WPDB -2
HTAB
BOND $H
CONF
LIST 4
TEMP -93.0
ACTA
SIZE 0.200 0.100 0.200
DFIX 0.8800 0.0200 N1 H1NA
DFIX 0.8800 0.0200 N1 H1NB
WGHT    0.035000    0.319500
FVAR       0.50249
SN1   5    0.500000    0.500000    0.000000    10.25000    0.02747    0.01710 =
         0.02918    0.00000    0.00770    0.00000
CL1   4    0.619411    0.500000    0.206898    10.50000    0.03622    0.03857 =
         0.04230    0.00000   -0.00470    0.00000
CL2   4    0.562076    0.261443   -0.185542    11.00000    0.03984    0.02416 =
         0.03660   -0.00506    0.01405    0.00185
N1    3    0.614851    0.000000    0.184600    10.50000    0.03747    0.04262 =
         0.03340    0.00000    0.00502    0.00000
PART -1
H1NA  2    0.589872    0.081557    0.112677    10.50000   -1.50000
H1NB  2    0.594630   -0.111427    0.162698    10.50000   -1.50000
C1    1    0.703999   -0.014937    0.145369    10.50000    0.04694    0.05925 =
         0.05727   -0.00943    0.02890    0.00210
AFIX  23
H1A   2    0.718653   -0.141991    0.112102    10.50000   -1.20000
H1B   2    0.719081    0.067232    0.041717    10.50000   -1.20000
AFIX   0
C2    1    0.745509    0.041208    0.322920    10.50000    0.02794    0.04704 =
         0.07908   -0.00759    0.01067   -0.00784
AFIX  23
H2A   2    0.750038    0.175930    0.331790    10.50000   -1.20000
H2B   2    0.800714   -0.013262    0.334683    10.50000   -1.20000
AFIX   0
C3    1    0.688628   -0.034823    0.471700    10.50000    0.03232    0.04411 =
         0.04904    0.00921   -0.00330    0.00216
AFIX  23
H3A   2    0.694280   -0.169065    0.484205    10.50000   -1.20000
H3B   2    0.699197    0.023171    0.594843    10.50000   -1.20000
AFIX   0
C4    1    0.605566    0.017205    0.392465    10.50000    0.02786    0.04416 =
         0.03130    0.00375    0.00716    0.00597
AFIX  23
H4A   2    0.562866   -0.066758    0.437619    10.50000   -1.20000
H4B   2    0.591198    0.143984    0.427417    10.50000   -1.20000
PART 0
AFIX   0
HKLF 4
REM  05061608
REM wR2 = 0.0566, GooF = S = 1.086, Restrained GooF = 1.085 for all data
REM R1 = 0.0236 for 1308 Fo > 4sig(Fo) and 0.0241 for all 1343 data
REM 68 parameters refined using 2 restraints
END
WGHT      0.0349      0.3231
REM Instructions for potential hydrogen bonds
HTAB N1 Cl2
EQIV $3 -x+1, y, -z
HTAB N1 Cl2_$3
EQIV $4 x, y-1, z
HTAB N1 Cl1_$4
EQIV $5 -x+1, -y, -z
HTAB N1 Cl2_$5
EQIV $6 x, -y, z
HTAB N1 Cl2_$6
EQIV $7 x, y, z+1
HTAB C4 Cl2_$7
REM Highest difference peak  0.539,  deepest hole -1.100,  1-sigma level  0.111
Q1    1   0.5437  0.5000 -0.0261  10.50000  0.05    0.54
Q2    1   0.6663 -0.3383  0.0156  11.00000  0.05    0.45
Q3    1   0.4673  0.3345 -0.1592  11.00000  0.05    0.32
Q4    1   0.7438  0.1329 -0.1718  11.00000  0.05    0.31
Q5    1   0.5782  0.3366 -0.1272  11.00000  0.05    0.28
Q6    1   0.5780  0.5000  0.2419  10.50000  0.05    0.27
Q7    1   0.7984 -0.1032  0.1984  11.00000  0.05    0.26
Q8    1   0.6026  0.6623  0.0350  11.00000  0.05    0.24
Q9    1   0.5911  0.6864  0.1969  11.00000  0.05    0.24
Q10   1   0.6305  0.1656 -0.1132  11.00000  0.05    0.23
Q11   1   0.4869 -0.1678  0.3543  11.00000  0.05    0.23
Q12   1   0.5087  0.1605 -0.2680  11.00000  0.05    0.23
Q13   1   0.5361  0.2477 -0.0137  11.00000  0.05    0.22
Q14   1   0.6451  0.5000 -0.0232  10.50000  0.05    0.22
Q15   1   0.5433 -0.2206  0.2355  11.00000  0.05    0.22
Q16   1   0.5099  0.3646  0.5201  11.00000  0.05    0.22
Q17   1   0.5491  0.3271 -0.2492  11.00000  0.05    0.21
Q18   1   0.5569 -0.1145  0.3443  11.00000  0.05    0.21
Q19   1   0.6637  0.0000  0.1557  10.50000  0.05    0.20
Q20   1   0.5865  0.5000 -0.2283  10.50000  0.05    0.20
Q21   1   0.5512  0.6073  0.3150  11.00000  0.05    0.20
;
_shelx_res_checksum              92087
loop_
_space_group_symop_operation_xyz
'x, y, z'
'x, -y, z'
'x+1/2, y+1/2, z'
'x+1/2, -y+1/2, z'
'-x, -y, -z'
'-x, y, -z'
'-x+1/2, -y+1/2, -z'
'-x+1/2, y+1/2, -z'
loop_
_atom_site_type_symbol
_atom_site_label
_atom_site_fract_x
_atom_site_fract_y
_atom_site_fract_z
_atom_site_U_iso_or_equiv
_atom_site_adp_type
_atom_site_calc_flag
_atom_site_occupancy
_atom_site_disorder_assembly
_atom_site_disorder_group
Sn Sn1 0.500000 0.500000 0.000000 0.02448(8) Uani d 1 . .
Cl Cl1 0.61941(4) 0.500000 0.20690(9) 0.03911(14) Uani d 1 . .
Cl Cl2 0.56208(3) 0.26144(5) -0.18554(6) 0.03335(10) Uani d 1 . .
N N1 0.61485(15) 0.000000 0.1846(3) 0.0378(5) Uani d 1 . .
H H1NA 0.590(4) 0.082(6) 0.113(7) 0.057 Uiso d 0.5 A -1
H H1NB 0.595(4) -0.111(5) 0.163(7) 0.057 Uiso d 0.5 B -1
C C1 0.7040(2) -0.015(5) 0.1454(6) 0.054(3) Uani d 0.5 C -1
H H1A 0.718653 -0.141991 0.112102 0.065 Uiso calc 0.5 C -1
H H1B 0.719081 0.067232 0.041717 0.065 Uiso calc 0.5 C -1
C C2 0.7455(2) 0.0412(6) 0.3229(7) 0.0512(12) Uani d 0.5 C -1
H H2A 0.750038 0.175930 0.331790 0.061 Uiso calc 0.5 C -1
H H2B 0.800714 -0.013262 0.334683 0.061 Uiso calc 0.5 C -1
C C3 0.6886(2) -0.0348(6) 0.4717(5) 0.0419(13) Uani d 0.5 C -1
H H3A 0.694280 -0.169065 0.484205 0.050 Uiso calc 0.5 C -1
H H3B 0.699197 0.023171 0.594843 0.050 Uiso calc 0.5 C -1
C C4 0.60557(18) 0.017(3) 0.3925(4) 0.034(3) Uani d 0.5 C -1
H H4A 0.562866 -0.066758 0.437619 0.041 Uiso calc 0.5 C -1
H H4B 0.591198 0.143984 0.427417 0.041 Uiso calc 0.5 C -1
loop_
_atom_site_aniso_label
_atom_site_aniso_U_11
_atom_site_aniso_U_22
_atom_site_aniso_U_33
_atom_site_aniso_U_12
_atom_site_aniso_U_13
_atom_site_aniso_U_23
Sn1 0.02747(11) 0.01710(11) 0.02918(12) 0.000 0.00770(7) 0.000
Cl1 0.0362(3) 0.0386(3) 0.0423(3) 0.000 -0.0047(2) 0.000
Cl2 0.0398(2) 0.02416(18) 0.0366(2) 0.00185(14) 0.01405(15) -0.00506(14)
N1 0.0375(11) 0.0426(12) 0.0334(10) 0.000 0.0050(8) 0.000
C1 0.0469(16) 0.059(10) 0.0573(18) 0.002(4) 0.0289(14) -0.009(6)
C2 0.0279(14) 0.047(3) 0.079(3) -0.0078(14) 0.0107(15) -0.0076(19)
C3 0.0323(14) 0.044(4) 0.0490(16) 0.0022(14) -0.0033(12) 0.0092(16)
C4 0.0279(11) 0.044(8) 0.0313(10) 0.006(3) 0.0072(8) 0.004(2)
loop_
_atom_type_symbol
_atom_type_description
_atom_type_scat_dispersion_real
_atom_type_scat_dispersion_imag
_atom_type_scat_source
C C 0.0033 0.0016 'International Tables Vol C Tables 4.2.6.8 and 6.1.1.4'
H H 0.0000 0.0000 'International Tables Vol C Tables 4.2.6.8 and 6.1.1.4'
N N 0.0061 0.0033 'International Tables Vol C Tables 4.2.6.8 and 6.1.1.4'
Cl Cl 0.1484 0.1585 'International Tables Vol C Tables 4.2.6.8 and 6.1.1.4'
Sn Sn -0.6537 1.4246 'International Tables Vol C Tables 4.2.6.8 and 6.1.1.4'
loop_
_geom_angle_atom_site_label_1
_geom_angle_atom_site_label_2
_geom_angle_atom_site_label_3
_geom_angle_site_symmetry_1
_geom_angle_site_symmetry_3
_geom_angle
Cl1 Sn1 Cl1 5_665 . 180.0
Cl1 Sn1 Cl2 5_665 . 90.439(16)
Cl1 Sn1 Cl2 . . 89.560(16)
Cl1 Sn1 Cl2 5_665 5_665 89.561(16)
Cl1 Sn1 Cl2 . 5_665 90.440(16)
Cl2 Sn1 Cl2 . 5_665 180.000(18)
Cl1 Sn1 Cl2 5_665 6_655 89.561(16)
Cl1 Sn1 Cl2 . 6_655 90.440(16)
Cl2 Sn1 Cl2 . 6_655 88.151(19)
Cl2 Sn1 Cl2 5_665 6_655 91.849(19)
Cl1 Sn1 Cl2 5_665 2_565 90.439(16)
Cl1 Sn1 Cl2 . 2_565 89.560(16)
Cl2 Sn1 Cl2 . 2_565 91.849(19)
Cl2 Sn1 Cl2 5_665 2_565 88.151(19)
Cl2 Sn1 Cl2 6_655 2_565 180.000(13)
C1 N1 C4 . . 108.1(3)
C1 N1 H1NA . . 112(5)
C4 N1 H1NA . . 118(4)
C1 N1 H1NB . . 105(5)
C4 N1 H1NB . . 102(4)
H1NA N1 H1NB . . 110(4)
C2 C1 N1 . . 104.5(7)
C2 C1 H1A . . 110.9
N1 C1 H1A . . 110.9
C2 C1 H1B . . 110.9
N1 C1 H1B . . 110.9
H1A C1 H1B . . 108.9
C1 C2 C3 . . 102.7(7)
C1 C2 H2A . . 111.2
C3 C2 H2A . . 111.2
C1 C2 H2B . . 111.2
C3 C2 H2B . . 111.2
H2A C2 H2B . . 109.1
C4 C3 C2 . . 101.7(5)
C4 C3 H3A . . 111.4
C2 C3 H3A . . 111.4
C4 C3 H3B . . 111.4
C2 C3 H3B . . 111.4
H3A C3 H3B . . 109.3
N1 C4 C3 . . 104.0(5)
N1 C4 H4A . . 111.0
C3 C4 H4A . . 111.0
N1 C4 H4B . . 111.0
C3 C4 H4B . . 111.0
H4A C4 H4B . . 109.0
loop_
_geom_bond_atom_site_label_1
_geom_bond_atom_site_label_2
_geom_bond_site_symmetry_2
_geom_bond_distance
Sn1 Cl1 5_665 2.4281(6)
Sn1 Cl1 . 2.4281(6)
Sn1 Cl2 . 2.4285(4)
Sn1 Cl2 5_665 2.4285(4)
Sn1 Cl2 6_655 2.4285(4)
Sn1 Cl2 2_565 2.4285(4)
N1 C1 . 1.497(5)
N1 C4 . 1.504(4)
N1 H1NA . 0.883(19)
N1 H1NB . 0.89(2)
C1 C2 . 1.486(12)
C1 H1A . 0.9900
C1 H1B . 0.9900
C2 C3 . 1.534(5)
C2 H2A . 0.9900
C2 H2B . 0.9900
C3 C4 . 1.512(8)
C3 H3A . 0.9900
C3 H3B . 0.9900
C4 H4A . 0.9900
C4 H4B . 0.9900
loop_
_geom_hbond_atom_site_label_D
_geom_hbond_atom_site_label_H
_geom_hbond_atom_site_label_A
_geom_hbond_site_symmetry_A
_geom_hbond_distance_DH
_geom_hbond_distance_HA
_geom_hbond_distance_DA
_geom_hbond_angle_DHA
_geom_hbond_publ_flag
N1 H1NA Cl2 . 0.88(5) 2.54(5) 3.365(2) 156(5) y
N1 H1NB Cl2 5_655 0.89(4) 2.81(6) 3.472(2) 133(5) y
N1 H1NB Cl2 2_555 0.89(4) 2.77(5) 3.365(2) 126(4) y
loop_
_geom_torsion_atom_site_label_1
_geom_torsion_atom_site_label_2
_geom_torsion_atom_site_label_3
_geom_torsion_atom_site_label_4
_geom_torsion
C4 N1 C1 C2 -14(2)
N1 C1 C2 C3 36(2)
C1 C2 C3 C4 -43.9(15)
C1 N1 C4 C3 -13(2)
C2 C3 C4 N1 34.7(13)

_cod_database_fobs_code 1550081
