#------------------------------------------------------------------------------
#$Date: 2018-11-23 06:16:18 +0200 (Fri, 23 Nov 2018) $
#$Revision: 212151 $
#$URL: file:///home/coder/svn-repositories/cod/cif/1/55/02/1550278.cif $
#------------------------------------------------------------------------------
#
# This file is available in the Crystallography Open Database (COD),
# http://www.crystallography.net/. The original data for this entry
# were provided by IUCr Journals, http://journals.iucr.org/.
#
# The file may be used within the scientific community so long as
# proper attribution is given to the journal article from which the
# data were obtained.
#
data_1550278
loop_
_publ_author_name
'Lahmidi, Sanae'
'El Hafi, Mohamed'
'kheira Sebbar, Nada'
'Abad, Nadeem'
'Essassi, El Mokhtar'
'Mague, Joel T.'
_publ_section_title
;
 2-Amino-5-methyl-1,2,4-triazolo[1,5-<i>a</i>]pyrimidin-7(4<i>H</i>)-one
;
_journal_coeditor_code           HB4263
_journal_issue                   11
_journal_name_full               IUCrData
_journal_page_first              x181500
_journal_paper_doi               10.1107/S2414314618015006
_journal_volume                  3
_journal_year                    2018
_chemical_formula_iupac          'C6 H7 N5 O'
_chemical_formula_moiety         'C6 H7 N5 O'
_chemical_formula_sum            'C6 H7 N5 O'
_chemical_formula_weight         165.17
_chemical_name_systematic
;
2-Amino-5-methyl-1,2,4-triazolo[1,5-<i>a</i>]pyrimidin-7(4<i>H</i>)-one
;
_space_group_crystal_system      triclinic
_space_group_IT_number           2
_space_group_name_Hall           '-P 1'
_space_group_name_H-M_alt        'P -1'
_symmetry_space_group_name_Hall  '-P 1'
_symmetry_space_group_name_H-M   'P -1'
_atom_sites_solution_hydrogens   mixed
_atom_sites_solution_primary     direct
_atom_sites_solution_secondary   difmap
_audit_creation_method           SHELXL-2018/1
_cell_angle_alpha                92.023(3)
_cell_angle_beta                 98.309(3)
_cell_angle_gamma                99.741(3)
_cell_formula_units_Z            4
_cell_length_a                   6.5921(14)
_cell_length_b                   8.3935(18)
_cell_length_c                   13.185(3)
_cell_measurement_reflns_used    3414
_cell_measurement_temperature    100(2)
_cell_measurement_theta_max      28.968
_cell_measurement_theta_min      2.466
_cell_volume                     710.1(3)
_computing_cell_refinement
;
<i>SAINT</i> (Bruker, 2016)
;
_computing_data_collection
;
<i>APEX3</i> (Bruker, 2016)
;
_computing_data_reduction
;
<i>SAINT</i> (Bruker, 2016)
;
_computing_molecular_graphics
;
<i>Mercury</i> (Macrae, <i>et al.</i>, 2008)
;
_computing_publication_material
;
<i>SHELXTL</i> (Sheldrick, 2008)
;
_computing_structure_refinement
;
<i>SHELXL2018</i> (Sheldrick, 2015<i>b</i>)
;
_computing_structure_solution
;
<i>SHELXT</i> (Sheldrick, 2015<i>a</i>)
;
_diffrn_ambient_temperature      100(2)
_diffrn_detector_area_resol_mean 8.3333
_diffrn_measured_fraction_theta_full 0.992
_diffrn_measured_fraction_theta_max 0.900
_diffrn_measurement_device_type  'Bruker SMART APEX CCD'
_diffrn_measurement_method       '\w scans'
_diffrn_radiation_monochromator  graphite
_diffrn_radiation_type           MoK\a
_diffrn_radiation_wavelength     0.71073
_diffrn_reflns_av_R_equivalents  0.0234
_diffrn_reflns_av_unetI/netI     0.0369
_diffrn_reflns_limit_h_max       8
_diffrn_reflns_limit_h_min       -9
_diffrn_reflns_limit_k_max       11
_diffrn_reflns_limit_k_min       -11
_diffrn_reflns_limit_l_max       18
_diffrn_reflns_limit_l_min       -18
_diffrn_reflns_number            6817
_diffrn_reflns_theta_full        26.500
_diffrn_reflns_theta_max         29.331
_diffrn_reflns_theta_min         1.564
_diffrn_source                   'fine-focus sealed tube'
_exptl_absorpt_coefficient_mu    0.115
_exptl_absorpt_correction_T_max  0.99
_exptl_absorpt_correction_T_min  0.96
_exptl_absorpt_correction_type   multi-scan
_exptl_absorpt_process_details
;
(SADABS; Krause <i>et al.</i>, 2015)
;
_exptl_crystal_colour            colourless
_exptl_crystal_density_diffrn    1.545
_exptl_crystal_density_method    'not measured'
_exptl_crystal_description       column
_exptl_crystal_F_000             344
_exptl_crystal_size_max          0.394
_exptl_crystal_size_mid          0.156
_exptl_crystal_size_min          0.091
_refine_diff_density_max         0.365
_refine_diff_density_min         -0.259
_refine_ls_extinction_method     none
_refine_ls_goodness_of_fit_ref   1.132
_refine_ls_hydrogen_treatment    mixed
_refine_ls_matrix_type           full
_refine_ls_number_parameters     251
_refine_ls_number_reflns         3503
_refine_ls_number_restraints     0
_refine_ls_restrained_S_all      1.132
_refine_ls_R_factor_all          0.0573
_refine_ls_R_factor_gt           0.0454
_refine_ls_shift/su_max          0.002
_refine_ls_shift/su_mean         0.000
_refine_ls_structure_factor_coef Fsqd
_refine_ls_weighting_details
'w=1/[\s^2^(Fo^2^)+(0.0848P)^2^] where P=(Fo^2^+2Fc^2^)/3'
_refine_ls_weighting_scheme      calc
_refine_ls_wR_factor_gt          0.1298
_refine_ls_wR_factor_ref         0.1377
_reflns_number_gt                2743
_reflns_number_total             3503
_reflns_threshold_expression     'I > 2\s(I)'
_cod_data_source_file            hb4263sup1.cif
_cod_data_source_block           I
_cod_database_code               1550278
_shelx_space_group_comment
;
The symmetry employed for this shelxl refinement is uniquely defined
by the following loop, which should always be used as a source of
symmetry information in preference to the above space-group names.
They are only intended as comments.
;
_shelx_estimated_absorpt_t_min   0.956
_shelx_estimated_absorpt_t_max   0.990
_shelx_hkl_file
;
  -1   0   0  615.64   20.00
  -1   0   0  627.94   20.00
   1   0   0  634.84   19.90
  -2   0   0  700.23   22.30
  -2   0   0  687.13   22.30
   2   0   0  699.93   22.20
  -3   0   0    1.70    0.50
  -3   0   0    1.20    0.50
   3   0   0    1.20    0.30
  -4   0   0   24.00    1.40
   4   0   0   22.80    1.10
   4   0   0   19.90    1.40
  -5   0   0   67.59    2.90
   5   0   0   62.59    2.80
  -6   0   0   65.89    3.10
   6   0   0   63.09    3.00
  -7   0   0   25.10    2.40
   7   0   0   32.40    2.30
  -8   0   0   48.90    3.50
   8   0   0   46.90    3.30
   8  -1   0   66.99    3.70
  -8   1   0   65.79    3.90
   7  -1   0    0.50    1.00
  -7   1   0    0.60    1.40
   6  -1   0   16.40    1.60
  -6   1   0   18.00    1.80
   5  -1   0    0.30    0.60
  -5   1   0   -0.30    0.80
   4  -1   0  160.78    5.30
   4  -1   0  163.58    5.60
  -4   1   0  155.98    5.60
   3  -1   0  486.05   15.70
  -3   1   0  497.35   16.00
   2  -1   0 3069.29   99.69
   2  -1   0 3198.88   99.39
  -2   1   0 3104.69   99.29
   1  -1   0  302.47    9.70
   1  -1   0  311.27    9.80
  -1   1   0  297.57    9.80
   0  -1   0 1270.87   41.30
   0  -1   0 1297.47   41.20
   0   1   0 1312.67   41.20
  -1  -1   0  253.27    8.60
  -1  -1   0  270.47    8.60
  -1  -1   0  273.47    8.60
  -2  -1   0  348.47   11.10
  -2  -1   0  344.87   11.10
  -2  -1   0  336.57   11.20
  -3  -1   0   31.80    1.40
  -3  -1   0   31.30    1.40
  -4  -1   0  357.56   11.70
  -4  -1   0  349.27   11.80
   4   1   0  352.46   11.60
  -5  -1   0  276.77    9.50
   5   1   0  280.57    9.60
  -6  -1   0   17.50    1.90
   6   1   0   17.60    1.70
  -7  -1   0   30.80    2.60
   7   1   0   31.10    2.30
   8   1   0    6.00    1.70
   8  -2   0   12.90    1.80
  -8   2   0   14.00    2.30
   7  -2   0    3.90    1.20
  -7   2   0    2.00    1.50
   6  -2   0    5.90    1.10
  -6   2   0    5.20    1.20
   5  -2   0   33.90    1.80
  -5   2   0   36.50    1.90
   4  -2   0    3.90    0.50
   4  -2   0    2.10    0.60
  -4   2   0    1.50    0.70
   3  -2   0  417.76   13.10
   3  -2   0  403.86   13.30
  -3   2   0  398.06   13.30
   2  -2   0    0.40    0.30
   2  -2   0    0.70    0.30
  -2   2   0    0.10    0.40
   1  -2   0  253.37    8.00
   1  -2   0  244.88    7.90
  -1   2   0  240.18    8.00
   0  -2   0 1260.97   37.30
   0  -2   0 1141.59   37.40
   0   2   0 1112.59   37.30
  -1  -2   0 9999.00  302.47
  -1  -2   0 9560.04  303.37
   1   2   0 8978.60  302.47
  -2  -2   0   11.60    0.80
  -2  -2   0   12.30    0.80
  -2  -2   0   11.80    0.90
  -3  -2   0  180.18    6.30
  -3  -2   0  185.58    6.30
  -3  -2   0  189.38    6.30
  -4  -2   0   10.90    1.10
  -4  -2   0   11.30    1.10
  -4  -2   0   10.40    1.10
  -5  -2   0   51.09    2.60
  -5  -2   0   53.29    2.50
   5   2   0   54.09    2.40
  -6  -2   0    0.00    1.20
   6   2   0   -0.20    0.90
  -7  -2   0    1.00    1.60
   7   2   0    0.80    1.30
   8   2   0   41.60    3.40
   8  -3   0    7.30    1.70
  -8   3   0    6.50    2.10
   7  -3   0   30.40    2.30
  -7   3   0   30.80    2.40
   6  -3   0    1.50    1.00
  -6   3   0    2.00    1.10
   5  -3   0  152.48    5.50
  -5   3   0  154.68    5.70
   4  -3   0   16.60    1.20
   4  -3   0   18.40    1.00
  -4   3   0   20.00    1.40
   3  -3   0   96.39    3.50
   3  -3   0  102.39    3.40
  -3   3   0   94.49    3.60
   2  -3   0  987.30   31.20
   2  -3   0  972.00   31.10
  -2   3   0  963.80   31.30
   1  -3   0   13.40    0.60
   1  -3   0   12.20    0.80
  -1   3   0   12.50    0.80
   0  -3   0    5.60    0.40
   0  -3   0    5.50    0.60
   0   3   0    5.10    0.60
  -1  -3   0   10.40    0.90
  -1  -3   0   10.40    0.60
   1   3   0    7.60    0.60
  -2  -3   0  545.25   17.20
  -2  -3   0  538.15   17.10
   2   3   0  500.35   17.10
  -3  -3   0    4.40    0.70
  -3  -3   0    2.40    0.80
  -3  -3   0    4.00    0.80
  -4  -3   0    3.60    0.80
  -4  -3   0    4.40    0.90
  -4  -3   0    2.70    0.90
  -5  -3   0  184.28    6.60
  -5  -3   0  170.48    6.50
   5   3   0  183.68    6.40
  -6  -3   0   91.49    3.90
   6   3   0   82.29    3.80
   7   3   0    3.70    1.50
   8   3   0    0.00    2.00
   8  -4   0    0.20    1.60
  -8   4   0   -0.50    1.90
   7  -4   0   16.30    1.80
  -7   4   0    7.30    1.60
   6  -4   0   45.90    2.50
  -6   4   0   46.90    2.60
   5  -4   0    1.60    0.80
  -5   4   0    1.90    1.00
   4  -4   0    1.10    0.70
  -4   4   0    0.10    0.70
   3  -4   0   74.89    2.80
   3  -4   0   72.19    2.70
  -3   4   0   73.19    3.00
   2  -4   0   16.30    0.80
   2  -4   0   15.00    1.00
  -2   4   0   12.10    1.10
   1  -4   0  145.39    4.80
   1  -4   0  142.29    5.00
  -1   4   0  144.29    5.00
   0  -4   0  693.13   21.50
   0  -4   0  674.13   21.90
   0   4   0  651.03   21.70
  -1  -4   0  137.79    4.60
  -1  -4   0  140.79    5.00
   1   4   0  135.79    4.80
  -2  -4   0 3126.59   99.59
  -2  -4   0 3048.50   99.89
   2   4   0 3218.38   99.69
  -3  -4   0    9.40    1.00
  -3  -4   0   10.10    1.20
   3   4   0    8.90    1.00
  -4  -4   0    3.60    1.00
  -4  -4   0    3.30    1.00
  -4  -4   0    1.60    0.90
  -5  -4   0    3.10    1.20
  -5  -4   0    3.10    1.20
  -5  -4   0    2.20    1.10
   6   4   0   10.80    1.50
   8  -5   0   -0.90    1.40
  -8   5   0   -0.80    2.10
   7  -5   0    1.00    1.30
  -7   5   0    0.10    1.60
   6  -5   0   99.59    4.10
  -6   5   0  104.89    4.50
   5  -5   0    0.40    0.80
  -5   5   0   -0.40    0.90
   4  -5   0   45.10    2.10
  -4   5   0   48.00    2.40
   3  -5   0    2.00    0.70
   3  -5   0    2.60    0.60
  -3   5   0    0.90    0.80
   2  -5   0  271.67    8.70
   2  -5   0  268.37    9.00
  -2   5   0  251.57    9.00
   1  -5   0  520.35   16.50
   1  -5   0  510.25   16.90
  -1   5   0  506.65   16.80
   0  -5   0  348.17   10.90
   0  -5   0  341.97   11.40
   0   5   0  323.77   11.20
  -1  -5   0   21.50    1.00
  -1  -5   0   19.40    1.40
   1   5   0   17.90    1.30
  -2  -5   0    4.20    0.70
  -2  -5   0    1.50    0.80
   2   5   0    1.30    0.70
  -3  -5   0   13.80    1.30
  -3  -5   0   13.60    1.60
   3   5   0   13.60    1.30
  -4  -5   0   45.10    2.30
  -4  -5   0   40.90    2.50
   4   5   0   42.90    2.30
  -5  -5   0  135.69    5.40
   5   5   0  133.69    5.20
   8  -6   0    1.00    1.70
   7  -6   0    7.30    1.40
  -7   6   0    6.00    1.80
   6  -6   0    0.20    1.00
  -6   6   0    1.60    1.40
   5  -6   0   13.30    1.40
  -5   6   0   13.30    1.70
   4  -6   0   25.30    1.60
  -4   6   0   23.60    1.80
   3  -6   0    6.40    1.00
   3  -6   0    3.20    0.70
  -3   6   0    5.10    1.10
   2  -6   0   47.50    1.90
   2  -6   0   43.60    2.20
  -2   6   0   45.90    2.30
   1  -6   0   22.10    1.60
   1  -6   0   23.60    1.10
  -1   6   0   19.80    1.50
   0  -6   0  166.58    6.10
   0   6   0  166.58    6.00
  -1  -6   0   10.50    1.30
   1   6   0   10.60    1.20
  -2  -6   0   79.79    3.40
   2   6   0   72.39    3.10
  -3  -6   0  115.29    4.70
   3   6   0  106.79    4.30
  -4  -6   0  120.99    5.10
   4   6   0  130.79    4.90
  -5  -6   0    7.70    1.60
   7  -7   0   15.00    1.90
  -7   7   0   11.60    2.30
   6  -7   0    2.80    1.20
  -6   7   0    2.10    1.50
   5  -7   0  100.69    4.00
  -5   7   0  102.59    4.50
  -4   7   0   63.59    3.30
   3  -7   0   59.69    2.80
  -3   7   0   54.79    2.90
   2  -7   0   50.39    2.60
  -2   7   0   47.10    2.60
   1  -7   0  110.79    4.50
  -1   7   0  111.09    4.40
   0  -7   0  181.68    6.80
   0   7   0  187.38    6.70
  -1  -7   0    3.90    1.10
   1   7   0    4.40    1.10
  -2  -7   0   67.99    3.30
   2   7   0   66.09    3.10
  -3  -7   0    8.90    1.70
   3   7   0    7.60    1.40
  -4  -7   0    7.80    1.80
  -5  -7   0    5.60    2.00
  -6   8   0   -0.10    1.70
  -5   8   0    6.10    1.80
  -4   8   0   99.69    4.50
   3  -8   0    3.90    1.20
  -3   8   0    3.70    1.50
   2  -8   0    2.40    1.20
  -2   8   0    3.00    1.40
   1  -8   0   16.20    1.80
  -1   8   0   14.90    1.80
   0  -8   0    3.40    1.20
   0   8   0    3.60    1.20
  -1  -8   0   15.30    1.90
   1   8   0   18.10    1.80
  -2  -8   0    8.10    1.80
   2   8   0    8.40    1.60
  -3  -8   0   43.00    3.30
   3   8   0   41.90    3.00
  -4  -8   0  164.98    7.00
  -5  -8   0   56.69    4.10
  -5   9   0   52.09    3.80
  -4   9   0  242.68    9.20
   3  -9   0   75.59    3.90
  -3   9   0   75.99    4.00
   2  -9   0   52.19    3.20
  -2   9   0   56.29    3.30
   1  -9   0    0.00    1.20
  -1   9   0   -0.90    1.50
   0  -9   0   92.99    4.40
   0   9   0   86.69    4.10
  -1  -9   0   14.90    2.20
   1   9   0   14.80    2.00
  -2  -9   0    1.30    1.60
   2   9   0    0.60    1.50
  -3  -9   0    0.40    1.80
  -4  10   0   11.00    2.40
  -3  10   0   17.30    2.40
   2 -10   0   33.40    2.90
  -2  10   0   36.20    3.00
   1 -10   0    0.20    1.50
  -1  10   0    0.70    1.90
   0 -10   0   -0.50    1.60
   0  10   0    0.90    1.70
  -1 -10   0   16.30    2.60
   1  10   0   26.30    2.70
  -2 -10   0    7.00    3.50
   2 -11   0   11.30    2.70
  -2  11   0   16.00    3.10
   1 -11   0   43.00    4.10
  -1  11   0   44.70    4.20
   0  11   0   35.40    4.00
  -1  11  -1   10.00    2.70
   1 -11   1   19.30    2.80
  -2  11  -1    3.80    2.60
   2 -11   1    4.90    2.50
  -3  11  -1   55.19    4.90
  -2 -10   1    2.20    2.00
  -1 -10   1   29.80    3.40
   0  10  -1   -0.30    1.90
   0 -10   1    0.20    1.80
  -1  10  -1   16.70    2.50
   1 -10   1   16.70    2.40
  -2  10  -1   12.10    2.30
   2 -10   1   14.60    2.30
  -3  10  -1    6.40    2.20
  -4  10  -1   24.00    3.10
  -3  -9   1   14.40    2.50
  -2  -9   1   -0.70    1.70
   1   9  -1   28.80    2.50
  -1  -9   1   27.50    2.60
   0   9  -1   26.10    2.40
   0  -9   1   20.90    2.20
  -1   9  -1    4.10    1.50
   1  -9   1    2.70    1.40
  -2   9  -1    0.20    1.40
   2  -9   1   -0.10    1.10
  -3   9  -1   22.70    2.40
  -4   9  -1    9.00    2.10
  -5   9  -1   52.39    3.60
  -5  -8   1    6.90    2.40
  -4  -8   1  221.18    8.60
  -3  -8   1   62.59    3.50
   2   8  -1    1.10    1.30
  -2  -8   1    0.00    1.30
   1   8  -1   10.40    1.50
  -1  -8   1   13.50    1.80
   0   8  -1    5.40    1.40
   0  -8   1    4.60    1.30
  -1   8  -1   38.00    2.30
  -2   8  -1    8.90    1.60
   2  -8   1   10.30    1.50
   3  -8   1   71.59    3.50
  -4   8  -1    2.00    1.40
  -5   8  -1   -0.20    1.70
  -6   8  -1   15.00    2.20
  -5  -7   1    0.80    1.70
  -4  -7   1    0.90    1.40
   3   7  -1    6.80    1.40
  -3  -7   1    6.80    1.60
   2   7  -1    5.50    1.20
  -2  -7   1    8.50    1.60
   1   7  -1   44.50    2.30
  -1  -7   1   41.30    2.50
   0   7  -1   54.19    2.60
   0  -7   1   47.50    2.70
  -1   7  -1  108.99    4.40
   1  -7   1  115.59    4.50
  -2   7  -1    5.30    1.20
   2  -7   1    5.10    1.10
  -3   7  -1   66.09    3.10
   3  -7   1   66.09    2.80
   3  -7   1   62.79    3.00
  -4   7  -1    4.00    1.30
   4  -7   1    4.20    1.00
  -5   7  -1    2.20    1.40
   5  -7   1    3.20    1.00
  -6   7  -1    2.30    1.80
   6  -7   1    4.00    1.30
  -7   7  -1   22.00    2.80
   7  -7   1   23.80    2.20
  -5  -6   1   11.30    1.70
  -4  -6   1    0.10    1.00
   3   6  -1  742.33   24.00
  -3  -6   1  728.33   24.30
   2   6  -1  434.16   14.50
  -2  -6   1  439.16   14.80
   1   6  -1   16.90    1.40
  -1  -6   1   17.90    1.70
  -1  -6   1   17.00    1.20
   0   6  -1    8.30    1.00
   0  -6   1    8.60    1.10
   0  -6   1    9.90    0.80
  -1   6  -1   -0.20    0.90
   1  -6   1    0.40    0.50
   1  -6   1    0.00    0.70
  -2   6  -1   14.30    1.50
   2  -6   1   15.70    1.30
   2  -6   1   14.80    1.00
  -3   6  -1   29.60    1.90
   3  -6   1   27.80    1.50
   3  -6   1   28.10    1.70
  -4   6  -1    0.80    1.00
   4  -6   1    2.30    0.80
  -5   6  -1   21.70    1.90
   5  -6   1   21.30    1.70
  -6   6  -1   27.70    2.60
   6  -6   1   28.20    2.10
  -7   6  -1   44.90    3.10
   7  -6   1   45.70    2.90
   8  -6   1   11.00    2.10
  -5  -5   1   81.89    3.80
  -5  -5   1   82.99    3.80
   4   5  -1   32.60    2.00
  -4  -5   1   32.20    2.00
  -4  -5   1   27.70    2.10
   3   5  -1   51.29    2.40
  -3  -5   1   57.19    2.80
  -3  -5   1   55.69    2.40
   2   5  -1   78.89    3.10
  -2  -5   1   75.79    3.30
  -2  -5   1   79.89    3.00
   1   5  -1   18.60    1.30
  -1  -5   1   19.40    1.40
  -1  -5   1   20.20    1.00
   0   5  -1  258.87    9.10
   0  -5   1  258.77    9.20
   0  -5   1  291.17    8.90
  -1   5  -1  102.29    3.80
   1  -5   1  104.39    3.60
   1  -5   1  101.79    3.90
  -2   5  -1  106.09    4.00
   2  -5   1  106.79    4.00
   2  -5   1  109.89    3.80
  -3   5  -1   92.49    3.70
   3  -5   1   95.39    3.40
   3  -5   1   92.99    3.50
  -4   5  -1   13.80    1.60
   4  -5   1   13.10    1.20
  -5   5  -1   53.59    2.80
   5  -5   1   49.20    2.30
  -6   5  -1    4.10    1.30
   6  -5   1    4.00    1.00
  -7   5  -1    2.50    1.80
   7  -5   1    0.30    1.20
  -8   5  -1    1.90    2.00
   8  -5   1    1.80    1.50
   7   4  -1   44.00    3.20
  -6  -4   1   11.80    1.80
   5   4  -1    1.90    1.00
  -5  -4   1    1.10    1.10
  -5  -4   1    2.60    1.10
  -4  -4   1  129.09    4.80
  -4  -4   1  128.49    4.80
  -4  -4   1  129.19    4.90
   3   4  -1  327.37   10.90
  -3  -4   1  330.47   11.00
  -3  -4   1  336.17   11.20
   2   4  -1  597.74   19.10
  -2  -4   1  596.74   19.30
  -2  -4   1  574.44   19.10
   1   4  -1  847.72   27.20
  -1  -4   1  842.22   27.40
  -1  -4   1  850.01   27.10
   0   4  -1    2.50    0.60
   0  -4   1    2.10    0.40
   0  -4   1    1.30    0.50
  -1   4  -1   84.99    3.20
   1  -4   1   83.79    3.20
   1  -4   1   86.99    3.00
  -2   4  -1   82.39    3.20
   2  -4   1   86.99    3.00
   2  -4   1   83.09    3.10
  -3   4  -1   63.89    2.70
   3  -4   1   64.89    2.50
   3  -4   1   68.19    2.50
  -4   4  -1   19.50    1.60
   4  -4   1   20.70    1.30
  -5   4  -1    9.90    1.40
   5  -4   1   11.60    1.20
  -6   4  -1   77.99    3.70
   6  -4   1   76.49    3.40
  -7   4  -1    3.00    1.60
   7  -4   1    2.30    1.20
  -8   4  -1    1.10    2.00
   8  -4   1    0.80    1.70
   7   3  -1    0.10    1.50
  -6  -3   1  107.69    4.60
   5   3  -1    0.60    0.80
  -5  -3   1    1.50    1.00
  -5  -3   1    1.60    0.90
  -4  -3   1   86.29    3.40
  -4  -3   1   83.09    3.40
  -4  -3   1   80.39    3.20
  -3  -3   1  111.89    4.10
  -3  -3   1  113.19    4.00
  -3  -3   1  109.59    4.10
   2   3  -1  119.99    4.10
  -2  -3   1  117.39    4.30
  -2  -3   1  119.69    4.10
   1   3  -1   18.40    1.00
  -1  -3   1   20.80    1.10
  -1  -3   1   21.10    0.90
   0   3  -1  143.79    4.90
   0  -3   1  148.09    5.10
   0  -3   1  149.39    4.80
  -1   3  -1    1.60    0.50
   1  -3   1    1.40    0.40
   1  -3   1    1.80    0.30
  -2   3  -1  329.37   11.20
   2  -3   1  350.76   11.00
   2  -3   1  338.87   11.10
  -3   3  -1  575.34   19.20
   3  -3   1  597.94   19.10
   3  -3   1  596.84   18.90
  -4   3  -1    8.90    1.00
   4  -3   1    9.20    1.00
  -5   3  -1   53.39    2.50
   5  -3   1   51.59    2.40
  -6   3  -1    4.20    1.20
   6  -3   1    3.90    1.10
  -7   3  -1   70.79    3.50
   7  -3   1   70.09    3.40
  -8   3  -1    5.00    2.20
   8  -3   1    9.10    1.90
   8   2  -1    8.70    1.90
   7   2  -1   13.60    1.80
  -6  -2   1   15.70    1.80
  -6  -2   1   13.20    1.60
   5   2  -1    6.80    1.00
  -5  -2   1    6.20    1.10
  -5  -2   1    4.60    1.10
   4   2  -1  366.96   12.60
  -4  -2   1  391.56   12.60
  -4  -2   1  387.56   12.70
  -3  -2   1   54.39    2.20
  -3  -2   1   51.79    2.20
  -3  -2   1   50.69    2.10
  -2  -2   1  814.62   26.60
  -2  -2   1  828.22   26.50
  -2  -2   1  835.72   26.50
   1   2  -1 4208.58  135.49
  -1  -2   1 4354.06  135.39
  -1  -2   1 4215.78  136.19
   0   2  -1 1957.20   59.89
   0  -2   1 1748.23   59.79
   0  -2   1 1939.21   59.89
  -1   2  -1  800.72   25.60
   1  -2   1  817.72   25.60
   1  -2   1  783.72   25.50
  -2   2  -1    1.30    0.50
   2  -2   1    1.80    0.40
   2  -2   1    2.60    0.30
  -3   2  -1    1.90    0.60
   3  -2   1    2.00    0.50
   3  -2   1    3.20    0.30
  -4   2  -1  131.09    4.80
   4  -2   1  135.99    4.80
  -5   2  -1   56.59    2.80
   5  -2   1   70.79    2.80
  -6   2  -1    5.90    1.30
   6  -2   1    6.20    1.10
  -7   2  -1  144.49    6.00
   7  -2   1  165.78    6.10
  -8   2  -1    0.50    2.00
   8  -2   1    0.40    1.40
   8   1  -1    5.30    1.70
   7   1  -1   -0.40    1.00
  -7  -1   1    2.40    1.60
   6   1  -1   14.10    1.60
  -6  -1   1   14.50    1.60
   5   1  -1   51.39    2.20
  -5  -1   1   51.79    2.60
  -5  -1   1   51.39    2.40
   4   1  -1    3.30    0.60
  -4  -1   1    2.80    0.70
  -4  -1   1    2.50    0.70
   3   1  -1   35.70    1.60
  -3  -1   1   38.40    1.60
  -3  -1   1   39.90    1.70
  -2  -1   1  108.19    3.80
  -2  -1   1  114.09    3.80
  -1  -1   1  204.88    6.70
  -1  -1   1  203.88    6.70
  -1  -1   1  208.78    6.60
   0   1  -1  332.47   10.70
   0  -1   1  341.47   10.70
   0  -1   1  334.67   10.80
  -1   1  -1  622.34   19.90
   1  -1   1  633.14   19.90
   1  -1   1  609.34   19.80
  -2   1  -1  119.99    4.10
   2  -1   1  121.89    4.10
  -3   1  -1  799.12   24.80
   3  -1   1  765.52   24.40
   3  -1   1  737.03   24.70
  -4   1  -1  157.38    5.40
   4  -1   1  149.49    5.30
   4  -1   1  148.19    5.00
  -5   1  -1   80.39    3.40
   5  -1   1   84.89    3.40
  -6   1  -1   41.30    2.40
   6  -1   1   37.30    2.10
  -7   1  -1    0.20    1.50
   7  -1   1    1.00    1.00
  -8   1  -1   19.30    2.60
   8  -1   1   17.40    2.20
   8   0  -1    0.60    1.60
   7   0  -1    1.40    1.00
  -7   0   1    3.20    1.40
   6   0  -1    0.50    0.80
  -6   0   1    1.60    1.10
  -5   0   1    3.50    0.80
  -5   0   1    4.60    1.00
   4   0  -1   71.99    2.70
  -4   0   1   70.29    2.80
  -4   0   1   74.89    3.00
   3   0  -1  265.57    8.70
  -3   0   1  259.37    8.90
  -3   0   1  278.07    8.80
   2   0  -1   23.50    1.00
  -2   0   1   24.10    1.10
  -2   0   1   24.80    1.00
   1   0  -1 2460.75   80.79
  -1   0   1 2695.63   80.89
  -1   0   1 2458.65   80.79
   0   0  -1    0.70    0.10
   0   0  -1    0.50    0.10
   0   0   1    0.40    0.10
  -1   0  -1  561.84   17.70
  -1   0  -1  546.35   17.80
   1   0   1  564.14   17.80
  -2   0  -1  120.39    3.90
  -2   0  -1  116.89    4.10
   2   0   1  117.59    4.00
  -3   0  -1    7.10    0.80
   3   0   1    6.70    0.70
   3   0   1    7.50    0.60
  -4   0  -1   71.89    3.00
   4   0   1   68.49    2.90
   4   0   1   80.99    2.70
  -5   0  -1   66.49    2.90
   5   0   1   62.89    2.80
  -6   0  -1    5.80    1.40
   6   0   1    4.70    1.00
  -7   0  -1    1.80    1.50
   7   0   1    2.60    1.30
  -8   0  -1   46.20    3.60
   8   0   1   56.99    3.50
   8  -1  -1    6.30    1.80
  -8   1   1    4.80    1.90
   7  -1  -1   70.59    3.40
  -7   1   1   67.49    3.50
   6  -1  -1   75.89    3.30
  -6   1   1   68.19    3.20
   5  -1  -1   14.10    1.20
  -5   1   1   13.60    1.30
   4  -1  -1  251.27    8.20
  -4   1   1  249.48    8.50
  -4   1   1  250.67    8.50
   3  -1  -1   -0.10    0.30
  -3   1   1   -0.10    0.40
  -3   1   1   -0.10    0.50
   2  -1  -1 8465.15  263.27
  -2   1   1 8440.36  263.67
  -2   1   1 7926.21  263.77
   1  -1  -1  580.64   18.20
  -1   1   1  560.04   18.20
  -1   1   1  571.04   18.20
   0  -1  -1   62.29    2.10
   0   1   1   62.99    2.10
  -1  -1  -1  443.96   14.30
  -1  -1  -1  446.16   14.30
  -2  -1  -1  322.67   10.50
  -2  -1  -1  323.47   10.40
  -2  -1  -1  315.77   10.50
  -3  -1  -1  101.29    3.40
  -3  -1  -1   97.59    3.60
   3   1   1   93.59    3.50
  -4  -1  -1  294.67    9.80
   4   1   1  287.77    9.60
   4   1   1  296.27    9.80
  -5  -1  -1    6.60    1.20
   5   1   1    5.40    0.90
  -6  -1  -1    5.40    1.40
   6   1   1    3.20    1.10
  -7  -1  -1   46.90    3.10
   7   1   1   51.29    2.90
  -8  -1  -1   22.80    2.70
   8  -2  -1    0.50    1.50
  -8   2   1    1.40    1.90
   7  -2  -1   20.10    2.00
  -7   2   1   15.40    1.90
   6  -2  -1  111.79    4.40
  -6   2   1  113.39    4.40
   5  -2  -1    0.10    0.60
  -5   2   1    0.20    0.90
   4  -2  -1  988.60   31.40
   4  -2  -1  977.30   31.70
  -4   2   1  980.90   31.70
   3  -2  -1  238.48    7.90
   3  -2  -1  243.18    8.00
  -3   2   1  238.88    8.00
   2  -2  -1 1837.82   57.39
   2  -2  -1 1823.42   57.39
  -2   2   1 1744.93   57.39
   1  -2  -1   29.40    1.00
   1  -2  -1   27.00    1.10
  -1   2   1   24.20    1.10
   0  -2  -1   28.60    0.90
   0  -2  -1   27.50    1.20
   0   2   1   29.00    1.10
  -1  -2  -1 3950.30  125.99
  -1  -2  -1 3925.21  125.69
  -1  -2  -1 3992.20  126.39
  -2  -2  -1  660.83   21.30
  -2  -2  -1  634.34   21.40
  -2  -2  -1  690.23   21.30
  -3  -2  -1    7.50    0.80
  -3  -2  -1    7.70    0.80
  -3  -2  -1    5.10    0.80
  -4  -2  -1   34.90    1.80
  -4  -2  -1   34.10    1.70
   4   2   1   29.30    1.60
  -5  -2  -1    4.20    1.10
   5   2   1    3.80    0.90
  -6  -2  -1    1.00    1.30
   6   2   1    0.80    1.00
  -7  -2  -1   63.29    3.50
   7   2   1   55.19    3.10
   8   2   1   14.00    2.30
  -9   3   1    4.70    4.20
   8  -3  -1   -0.20    1.50
  -8   3   1   -0.90    1.80
   7  -3  -1   46.40    2.80
  -7   3   1   53.39    3.00
   6  -3  -1   34.70    2.10
  -6   3   1   33.60    2.30
   5  -3  -1    8.40    1.10
  -5   3   1    7.60    1.10
   4  -3  -1  128.69    4.60
   4  -3  -1  130.39    4.40
  -4   3   1  118.49    4.60
   3  -3  -1  382.16   12.00
   3  -3  -1  374.86   12.10
  -3   3   1  347.97   12.20
   2  -3  -1   43.10    1.80
   2  -3  -1   44.00    1.70
  -2   3   1   45.10    1.80
   1  -3  -1   46.30    1.60
   1  -3  -1   46.10    1.80
  -1   3   1   41.60    1.80
   0  -3  -1  766.82   23.70
   0  -3  -1  740.73   24.00
   0   3   1  725.53   23.90
  -1  -3  -1  110.29    3.50
  -1  -3  -1   97.79    3.80
   1   3   1  104.59    3.70
  -2  -3  -1  348.07   11.70
  -2  -3  -1  362.36   11.60
  -3  -3  -1   23.90    1.50
  -3  -3  -1   24.20    1.40
  -3  -3  -1   24.90    1.40
  -4  -3  -1    0.10    0.80
  -4  -3  -1    0.40    0.80
  -4  -3  -1    0.00    0.70
  -5  -3  -1   15.60    1.90
  -5  -3  -1   13.90    1.60
   5   3   1   13.10    1.40
  -6  -3  -1    3.40    1.40
   6   3   1    2.30    1.10
  -7  -3  -1   30.00    2.80
   8   3   1    2.70    2.30
   8  -4  -1    6.00    1.80
  -8   4   1    6.20    1.90
   7  -4  -1   13.20    1.70
  -7   4   1   12.00    1.90
   6  -4  -1    1.40    0.90
  -6   4   1    1.30    1.30
   5  -4  -1  204.18    7.10
  -5   4   1  200.68    7.20
   4  -4  -1    3.90    0.70
   4  -4  -1    4.10    0.70
  -4   4   1    4.20    0.90
   3  -4  -1   36.00    1.60
   3  -4  -1   32.90    1.60
  -3   4   1   35.30    1.80
   2  -4  -1    0.40    0.30
   2  -4  -1    1.00    0.60
  -2   4   1    0.80    0.60
   1  -4  -1   43.00    1.90
   1  -4  -1   44.50    1.50
  -1   4   1   40.60    1.80
   0  -4  -1  488.15   16.50
   0  -4  -1  510.55   16.00
   0   4   1  506.65   16.30
  -1  -4  -1  275.27    8.70
  -1  -4  -1  259.77    9.00
   1   4   1  264.27    8.90
  -2  -4  -1  512.25   15.10
  -2  -4  -1  429.76   15.40
   2   4   1  450.35   15.20
  -3  -4  -1  162.18    5.60
  -3  -4  -1  157.28    5.80
   3   4   1  156.38    5.60
  -4  -4  -1   -0.10    0.90
  -4  -4  -1    0.10    0.90
  -4  -4  -1   -0.20    0.80
  -5  -4  -1    3.50    1.20
  -5  -4  -1    4.20    1.30
   5   4   1    2.90    1.00
  -6  -4  -1   12.10    1.90
   8  -5  -1    0.80    1.70
  -8   5   1   -0.60    2.00
   7  -5  -1   11.20    1.50
  -7   5   1    7.30    1.70
   6  -5  -1   67.79    3.00
  -6   5   1   66.39    3.30
   5  -5  -1  109.59    4.10
  -5   5   1   98.79    4.30
   4  -5  -1   82.29    3.10
   4  -5  -1   82.29    3.20
  -4   5   1   77.89    3.40
   3  -5  -1   26.60    1.60
   3  -5  -1   28.70    1.30
  -3   5   1   27.70    1.70
   2  -5  -1   53.69    2.40
   2  -5  -1   57.19    2.10
  -2   5   1   57.59    2.50
   1  -5  -1    3.30    0.40
   1  -5  -1    2.30    0.80
  -1   5   1    1.70    0.70
   0  -5  -1  126.29    4.70
   0  -5  -1  130.19    4.20
   0   5   1  122.69    4.60
  -1  -5  -1  164.38    6.20
  -1  -5  -1  180.98    5.70
   1   5   1  167.88    6.00
  -2  -5  -1  120.49    4.30
  -2  -5  -1  122.09    4.70
   2   5   1  122.59    4.50
  -3  -5  -1   15.60    1.60
   3   5   1   14.90    1.40
  -5  -5  -1   32.20    2.40
   5   5   1   34.40    2.30
   8  -6  -1   16.10    2.20
  -8   6   1   12.40    2.70
   7  -6  -1   11.90    1.70
  -7   6   1    8.40    2.10
   6  -6  -1    0.70    1.00
  -6   6   1    1.80    1.40
   5  -6  -1   18.30    1.50
  -5   6   1   18.30    2.00
   4  -6  -1   98.69    4.50
   4  -6  -1  103.99    3.80
  -4   6   1  100.39    4.20
   3  -6  -1   16.70    1.10
   3  -6  -1   15.00    1.40
  -3   6   1   14.40    1.50
   2  -6  -1  266.07    9.10
  -2   6   1  261.47    9.10
   1  -6  -1    6.70    1.00
  -1   6   1   11.70    1.30
   0  -6  -1    0.30    0.80
   0   6   1    0.60    0.80
  -1  -6  -1    1.50    0.80
   1   6   1    1.80    0.90
  -2  -6  -1    7.80    1.30
   2   6   1    7.70    1.10
  -3  -6  -1  737.63   24.20
   3   6   1  722.83   23.90
  -4  -6  -1    1.70    1.40
   4   6   1    8.20    1.40
  -5  -6  -1    2.90    1.50
   5   6   1    1.90    1.50
  -7   7   1    0.70    2.30
  -6   7   1    1.30    1.50
  -5   7   1   99.39    4.50
  -4   7   1    0.30    1.10
   3  -7  -1    8.80    1.30
  -3   7   1    6.70    1.40
   2  -7  -1    0.20    0.90
  -2   7   1    0.90    1.10
   1  -7  -1   69.39    3.20
  -1   7   1   71.99    3.20
   0  -7  -1    1.30    0.90
   0   7   1    2.80    1.10
   1   7   1  256.37    9.00
  -2  -7  -1    6.60    1.40
   2   7   1    7.60    1.40
  -3  -7  -1   39.80    2.80
   3   7   1   37.40    2.30
  -4  -7  -1   -0.60    1.60
   4   7   1    0.50    1.30
  -5  -7  -1    5.20    2.00
  -6   8   1    5.40    1.80
  -5   8   1    0.40    1.50
  -4   8   1    2.10    1.30
   3  -8  -1   67.59    3.30
  -3   8   1   61.69    3.30
   2  -8  -1    3.10    1.20
  -2   8   1    3.40    1.30
   1  -8  -1    2.80    1.20
  -1   8   1    2.70    1.20
   0  -8  -1   57.29    3.20
   0   8   1   56.99    3.00
  -1  -8  -1    1.40    1.20
   1   8   1    2.70    1.20
  -2  -8  -1    5.70    1.70
   2   8   1    7.20    1.50
  -3  -8  -1    1.00    1.80
   3   8   1   -0.40    1.40
  -4  -8  -1   60.19    4.00
  -5  -8  -1   -0.50    2.20
  -6   9   1    7.30    3.00
  -5   9   1    7.60    2.20
  -4   9   1   10.00    2.10
   3  -9  -1    0.90    1.30
  -3   9   1    1.10    1.60
   2  -9  -1   24.00    2.20
  -2   9   1   25.30    2.60
   1  -9  -1   13.50    1.90
  -1   9   1    7.20    1.80
   0  -9  -1   27.20    2.50
   0   9   1   24.10    2.50
  -1  -9  -1    1.30    1.30
   1   9   1    1.30    1.50
  -2  -9  -1   10.30    2.10
   2   9   1    8.00    1.70
  -3  -9  -1    2.40    2.20
  -4  10   1    5.80    2.30
   3 -10  -1   11.60    2.10
  -3  10   1   11.70    2.50
   2 -10  -1    8.80    1.90
  -2  10   1   10.60    2.40
   1 -10  -1    0.50    1.60
  -1  10   1   -0.60    1.90
   0 -10  -1    1.50    1.70
   0  10   1    0.60    1.90
  -1 -10  -1    0.30    2.20
   1  10   1    1.20    1.90
   2  10   1   12.90    2.80
   2 -11  -1   15.40    2.60
  -2  11   1   16.90    3.10
   1 -11  -1    2.90    2.10
  -1  11   1    7.10    2.80
   0  11   1   -0.10    2.50
  -1  11  -2    5.90    2.70
   1 -11   2    7.00    2.40
  -2  11  -2   13.80    3.00
   2 -11   2   16.30    3.20
  -3  11  -2    6.00    2.90
  -2 -10   2   28.10    3.10
  -1 -10   2    1.10    2.00
   0  10  -2    1.50    1.90
   0 -10   2    0.30    1.80
  -1  10  -2    6.50    2.10
   1 -10   2    6.10    1.90
  -2  10  -2    3.70    2.00
   2 -10   2    1.50    1.80
  -3  10  -2   74.19    4.20
  -4  10  -2    0.80    2.20
  -3  -9   2   70.69    4.30
  -2  -9   2    1.70    1.50
  -1  -9   2   15.30    2.10
   0   9  -2   15.90    2.00
   0  -9   2   17.70    2.10
  -1   9  -2   33.10    2.60
   1  -9   2   28.80    2.60
  -2   9  -2   14.90    1.90
   2  -9   2   15.60    2.00
  -3   9  -2  227.88    8.60
  -4   9  -2  117.49    5.20
  -5   9  -2   15.10    2.30
  -4  -8   2   92.49    4.80
  -3  -8   2   80.99    4.20
  -2  -8   2    8.40    1.80
   1   8  -2    1.70    1.20
  -1  -8   2    2.00    1.30
   0   8  -2   12.20    1.60
   0  -8   2   12.30    1.70
  -1   8  -2    0.50    1.20
   1  -8   2    0.90    1.20
  -2   8  -2  340.07   11.60
   2  -8   2  324.07   11.50
  -3   8  -2  106.69    4.70
  -4   8  -2  101.19    4.50
  -5   8  -2    1.40    1.70
  -6   8  -2    4.20    2.20
   6   7  -2   -0.50    2.30
  -4  -7   2   17.00    2.10
  -3  -7   2    0.90    1.30
   2   7  -2   50.49    2.50
  -2  -7   2   50.79    2.80
   1   7  -2   50.69    2.40
  -1  -7   2   45.40    2.60
   0   7  -2   13.40    1.50
   0  -7   2   14.00    1.60
  -1   7  -2    0.30    0.90
   1  -7   2    1.30    1.00
  -2   7  -2  139.09    5.20
   2  -7   2  130.69    4.80
   2  -7   2  135.69    5.10
  -3   7  -2    9.70    1.40
   3  -7   2    9.40    1.40
   3  -7   2   11.30    1.30
  -4   7  -2   93.39    4.10
   4  -7   2   88.59    3.60
  -5   7  -2   59.69    3.20
   5  -7   2   48.30    2.70
  -6   7  -2    2.90    1.70
   6  -7   2    2.30    1.30
  -7   7  -2   17.60    2.60
   7  -7   2   18.40    2.20
   6   6  -2    1.20    2.10
   5   6  -2    0.20    1.30
  -4  -6   2    8.20    1.40
   3   6  -2  324.07   10.80
  -3  -6   2  320.27   11.20
  -3  -6   2  315.17   11.00
   2   6  -2   50.19    2.40
  -2  -6   2   56.09    2.80
  -2  -6   2   55.39    2.40
   1   6  -2   10.00    1.10
  -1  -6   2   11.00    1.30
  -1  -6   2    8.90    0.90
   0   6  -2    2.40    0.80
   0  -6   2    3.90    0.70
   0  -6   2    5.30    1.10
  -1   6  -2   12.90    1.40
   1  -6   2   12.70    1.00
   1  -6   2    8.10    1.10
  -2   6  -2    0.90    0.90
   2  -6   2    1.20    0.60
   2  -6   2    1.20    0.70
  -3   6  -2  194.78    6.80
   3  -6   2  182.08    6.60
   3  -6   2  188.38    6.50
  -4   6  -2    5.50    1.30
   4  -6   2    8.80    1.10
  -5   6  -2  213.58    8.00
   5  -6   2  217.98    7.60
  -6   6  -2    4.50    1.50
   6  -6   2    4.20    1.10
  -7   6  -2   26.60    2.80
   7  -6   2   29.10    2.50
  -6  -5   2    2.50    1.60
   5   5  -2   10.30    1.50
  -5  -5   2   10.90    1.60
  -4  -5   2   35.80    2.30
  -4  -5   2   34.60    2.20
   3   5  -2   24.00    1.50
  -3  -5   2   27.50    1.90
  -3  -5   2   24.40    1.60
   2   5  -2   25.30    1.50
  -2  -5   2   33.00    1.90
  -2  -5   2   26.70    1.50
   1   5  -2   90.99    3.30
  -1  -5   2   80.09    3.50
  -1  -5   2   93.69    3.20
   0   5  -2   22.20    1.40
   0  -5   2   25.40    1.20
   0  -5   2   23.80    1.50
  -1   5  -2    5.50    0.80
   1  -5   2    6.50    0.70
   1  -5   2    7.70    0.90
  -2   5  -2  109.39    4.30
   2  -5   2  122.29    4.30
   2  -5   2  119.99    4.10
  -3   5  -2   35.30    2.00
   3  -5   2   39.40    1.80
   3  -5   2   37.30    1.80
  -4   5  -2   33.30    2.10
   4  -5   2   31.10    1.70
  -5   5  -2  202.38    7.60
   5  -5   2  213.08    7.40
  -6   5  -2   26.00    2.20
   6  -5   2   28.60    1.90
  -7   5  -2   20.20    2.40
   7  -5   2   22.60    2.00
  -8   5  -2    0.60    2.10
   8  -5   2    0.80    1.60
  -7  -4   2   37.20    3.30
  -6  -4   2   16.00    1.90
   5   4  -2   42.80    2.40
  -5  -4   2   39.50    2.40
   4   4  -2   37.80    1.80
  -4  -4   2   36.90    2.10
  -4  -4   2   37.10    2.10
   3   4  -2    7.20    0.90
  -3  -4   2    9.00    1.10
  -3  -4   2    8.00    1.00
   2   4  -2 1005.20   32.40
  -2  -4   2 1013.40   32.50
  -2  -4   2 1015.30   32.70
   1   4  -2  192.88    6.40
  -1  -4   2  188.28    6.70
  -1  -4   2  195.38    6.40
   0   4  -2   75.39    2.90
   0  -4   2   79.89    3.00
   0  -4   2   82.79    2.80
  -1   4  -2  563.34   18.30
   1  -4   2  574.64   18.20
   1  -4   2  555.44   18.30
  -2   4  -2    2.60    0.70
   2  -4   2    2.20    0.50
   2  -4   2    1.90    0.50
  -3   4  -2   19.20    1.30
   3  -4   2   21.50    1.30
   3  -4   2   23.30    1.10
  -4   4  -2  208.08    7.50
   4  -4   2  221.08    7.40
  -5   4  -2    2.20    1.10
   5  -4   2    0.70    0.70
  -6   4  -2   30.20    2.40
   6  -4   2   30.90    2.00
  -7   4  -2    1.60    1.40
   7  -4   2    1.10    1.10
  -8   4  -2   11.70    2.40
   8  -4   2   10.10    1.80
   8   3  -2    0.30    1.80
  -7  -3   2   41.40    3.20
  -6  -3   2   -0.40    1.20
   5   3  -2   47.00    2.40
  -5  -3   2   48.60    2.50
  -5  -3   2   47.10    2.30
   4   3  -2  113.89    4.50
  -4  -3   2  124.59    4.60
  -4  -3   2  125.69    4.40
  -3  -3   2    0.70    0.60
  -3  -3   2    0.70    0.50
  -3  -3   2    0.30    0.60
   2   3  -2  578.24   18.60
  -2  -3   2  565.84   18.80
  -2  -3   2  590.84   18.70
   1   3  -2   58.49    2.10
  -1  -3   2   58.69    2.30
  -1  -3   2   60.99    2.20
   0   3  -2    3.00    0.50
   0  -3   2    3.70    0.40
   0  -3   2    4.10    0.60
  -1   3  -2   43.60    1.80
   1  -3   2   46.70    1.80
   1  -3   2   45.60    1.70
  -2   3  -2    4.20    0.70
   2  -3   2    4.70    0.50
   2  -3   2    4.60    0.60
  -3   3  -2   -0.20    0.60
   3  -3   2    0.10    0.50
   3  -3   2    0.40    0.30
  -4   3  -2    6.10    1.00
   4  -3   2    5.50    0.80
  -5   3  -2    4.20    1.10
   5  -3   2    4.90    0.90
  -6   3  -2    3.60    1.30
   6  -3   2    2.30    1.10
  -7   3  -2   13.00    2.00
   7  -3   2   17.30    1.90
  -8   3  -2   27.10    2.80
   8  -3   2   24.00    2.50
   8   2  -2   11.20    2.00
  -7  -2   2   34.20    2.70
  -6  -2   2   41.20    2.60
   5   2  -2   14.40    1.30
  -5  -2   2   15.10    1.50
  -5  -2   2   18.70    1.70
   4   2  -2  145.69    5.40
  -4  -2   2  153.78    5.50
  -4  -2   2  159.18    5.30
   3   2  -2    4.40    0.60
  -3  -2   2    4.60    0.60
  -3  -2   2    3.30    0.60
  -2  -2   2   63.49    2.20
  -2  -2   2   61.69    2.40
  -2  -2   2   59.79    2.30
   1   2  -2  700.73   21.90
  -1  -2   2  695.13   22.00
  -1  -2   2  664.93   22.10
   0   2  -2  550.94   17.60
   0  -2   2  550.54   17.60
   0  -2   2  544.95   17.60
  -1   2  -2  174.48    5.80
   1  -2   2  170.58    5.70
   1  -2   2  176.98    5.70
  -2   2  -2  271.17    9.10
   2  -2   2  274.77    9.10
   2  -2   2  283.37    8.90
  -3   2  -2    6.00    0.80
   3  -2   2    1.50    0.50
  -4   2  -2    0.40    0.70
   4  -2   2    0.30    0.60
  -5   2  -2    1.20    0.80
   5  -2   2    0.70    0.80
  -6   2  -2   24.70    2.20
   6  -2   2   30.40    2.00
  -7   2  -2    0.30    1.50
   7  -2   2    1.10    1.10
  -8   2  -2    1.60    2.10
   8  -2   2    1.40    1.70
   8   1  -2   39.70    3.00
   7   1  -2   18.30    2.00
  -6  -1   2   27.70    2.30
  -6  -1   2   36.10    2.10
   5   1  -2   83.79    3.10
  -5  -1   2   77.09    3.20
  -5  -1   2   77.59    3.40
   4   1  -2   75.79    3.00
  -4  -1   2   79.19    3.20
  -4  -1   2   80.69    3.00
   3   1  -2   46.30    1.90
  -3  -1   2   48.70    2.00
  -3  -1   2   48.40    1.90
   2   1  -2    3.80    0.50
  -2  -1   2    5.10    0.60
  -2  -1   2    4.40    0.40
   1   1  -2   60.99    2.20
  -1  -1   2   64.89    2.20
   0   1  -2   92.79    3.10
   0   1  -2   93.69    3.00
   0  -1   2   87.79    3.00
  -1   1  -2  990.20   30.50
  -1   1  -2  938.41   30.40
   1  -1   2  940.91   30.50
  -2   1  -2  242.28    7.90
   2  -1   2  237.48    7.90
  -3   1  -2    0.40    0.50
   3  -1   2    0.40    0.40
  -4   1  -2   43.10    2.10
   4  -1   2   46.30    2.00
  -5   1  -2   37.30    2.20
   5  -1   2   33.90    1.80
  -6   1  -2   -0.30    1.20
   6  -1   2    0.00    0.80
  -7   1  -2   -0.40    1.30
   7  -1   2    0.30    1.20
  -8   1  -2    9.10    2.30
   8  -1   2   11.30    2.10
   8   0  -2    2.30    1.50
   7   0  -2  132.29    5.40
  -7   0   2  134.29    5.30
  -6   0   2   80.59    3.50
  -6   0   2   77.19    3.60
   5   0  -2   20.00    1.30
  -5   0   2   22.50    1.70
  -5   0   2   24.60    1.50
   4   0  -2    1.60    0.50
  -4   0   2    1.70    0.60
  -4   0   2    1.60    0.60
   3   0  -2    1.10    0.40
  -3   0   2    0.70    0.50
  -3   0   2    0.80    0.40
   2   0  -2   67.69    2.50
  -2   0   2   74.99    2.50
  -2   0   2   70.19    2.60
   1   0  -2  626.84   20.40
  -1   0   2  626.14   20.30
  -1   0   2  657.23   20.30
   0   0  -2 1742.13   56.59
   0   0  -2 1787.82   56.69
   0   0   2 1798.82   56.49
  -1   0  -2 2015.00   63.09
  -1   0  -2 1960.50   62.89
   1   0   2 1962.00   63.09
  -2   0  -2    7.90    0.70
  -2   0  -2    8.60    0.50
   2   0   2    7.30    0.60
  -3   0  -2  451.35   14.90
  -3   0  -2  477.55   14.60
   3   0   2  431.06   14.80
  -4   0  -2   -0.30    0.70
   4   0   2   -0.40    0.60
  -5   0  -2   21.80    1.60
   5   0   2   18.60    1.50
  -6   0  -2    6.30    1.30
   6   0   2    7.30    1.10
  -7   0  -2   18.70    2.20
   7   0   2   15.40    1.80
  -8   0  -2    1.30    2.10
   8   0   2    1.10    1.60
   8  -1  -2    3.10    1.40
  -7   1   2   24.70    2.20
   6  -1  -2    6.20    1.20
  -6   1   2    4.60    1.20
   5  -1  -2    2.00    0.60
  -5   1   2    1.20    0.80
  -5   1   2    1.90    0.80
   4  -1  -2  301.87   10.20
  -4   1   2  320.07   10.30
   3  -1  -2  157.18    5.40
  -3   1   2  156.28    5.50
  -3   1   2  168.68    5.50
   2  -1  -2 5253.27  168.48
  -2   1   2 5273.77  168.68
  -2   1   2 5337.27  168.38
   1  -1  -2  446.76   14.50
  -1   1   2  447.76   14.50
  -1   1   2  461.65   14.50
   0  -1  -2 1147.89   36.40
   0   1   2 1226.58   36.40
   0   1   2 1056.89   36.30
  -1  -1  -2  141.99    4.80
  -1  -1  -2  145.99    4.80
   1   1   2  142.89    4.70
  -2  -1  -2   40.50    1.50
  -2  -1  -2   38.50    1.70
   2   1   2   38.20    1.50
  -3  -1  -2   64.69    2.60
  -3  -1  -2   71.49    2.50
   3   1   2   63.59    2.50
  -4  -1  -2   35.60    1.80
  -4  -1  -2   37.00    1.60
   4   1   2   34.20    1.70
  -5  -1  -2    1.10    0.90
   5   1   2    2.40    0.90
  -6  -1  -2    1.10    1.10
   6   1   2    1.50    1.00
  -7  -1  -2   59.39    3.40
   7   1   2   57.49    3.20
  -8  -1  -2   20.30    2.80
   8   1   2   19.20    2.50
   8  -2  -2   -0.20    1.50
  -8   2   2    0.50    1.80
   7  -2  -2    2.40    1.20
  -7   2   2    1.40    1.30
   6  -2  -2   62.19    2.80
  -6   2   2   49.10    2.70
   5  -2  -2  107.89    4.10
  -5   2   2  105.09    4.10
   4  -2  -2 2011.10   63.49
  -4   2   2 2040.40   63.69
  -4   2   2 1927.31   63.69
   3  -2  -2  127.79    4.30
  -3   2   2  126.19    4.40
   2  -2  -2 1151.08   35.40
  -2   2   2 1087.79   35.30
  -2   2   2 1080.19   35.40
   1  -2  -2  171.18    5.80
  -1   2   2  179.08    5.60
  -1   2   2  170.98    5.80
   0  -2  -2  207.68    6.60
   0   2   2  190.28    6.50
  -1  -2  -2   68.89    2.50
   1   2   2   67.49    2.30
  -2  -2  -2  252.87    8.30
  -2  -2  -2  251.67    8.30
   2   2   2  240.98    8.10
  -3  -2  -2  112.49    3.90
  -3  -2  -2  107.39    4.00
   3   2   2  106.09    3.90
  -4  -2  -2    3.20    0.80
  -4  -2  -2    2.20    0.80
   4   2   2    2.60    0.70
  -5  -2  -2    0.00    0.90
   5   2   2    0.60    0.70
  -6  -2  -2   62.19    3.20
   6   2   2   64.59    3.10
  -7  -2  -2    9.80    2.10
   7   2   2    6.60    1.60
  -8  -2  -2   -0.40    1.90
   8   2   2    0.10    1.90
   8  -3  -2    7.60    1.80
  -8   3   2    4.80    1.80
   7  -3  -2    0.00    1.10
  -7   3   2    0.30    1.40
   6  -3  -2  372.16   12.20
  -6   3   2  343.07   12.20
   5  -3  -2   93.59    3.70
  -5   3   2   95.49    3.80
   4  -3  -2  220.38    7.50
   4  -3  -2  225.58    7.40
  -4   3   2  213.08    7.50
   3  -3  -2  524.35   16.90
   3  -3  -2  526.35   17.00
  -3   3   2  516.95   17.10
   2  -3  -2  266.27    8.50
   2  -3  -2  258.87    8.60
  -2   3   2  255.07    8.60
   1  -3  -2   30.70    1.50
   1  -3  -2   33.60    1.20
  -1   3   2   31.70    1.40
   0  -3  -2   52.99    2.10
   0   3   2   48.50    2.00
  -1  -3  -2  608.04   19.70
   1   3   2  621.04   19.40
   1   3   2  588.04   19.60
  -2  -3  -2   27.20    1.40
  -2  -3  -2   28.00    1.50
   2   3   2   26.20    1.20
  -3  -3  -2  298.27    9.90
  -3  -3  -2  298.67    9.90
   3   3   2  282.27    9.70
  -4  -3  -2    3.00    0.90
  -4  -3  -2    3.00    1.00
   4   3   2    2.00    0.70
  -5  -3  -2    5.00    1.30
   5   3   2    2.30    0.90
  -6  -3  -2   36.40    2.60
   6   3   2   38.10    2.40
  -7  -3  -2    8.90    2.10
   7   3   2    8.90    1.70
   8  -4  -2    5.40    1.80
  -8   4   2    5.10    1.90
   7  -4  -2   46.90    2.70
  -7   4   2   53.69    2.90
   6  -4  -2    9.70    1.30
  -6   4   2    9.00    1.50
   5  -4  -2  105.29    3.90
  -5   4   2   96.19    4.00
   4  -4  -2   25.50    1.50
   4  -4  -2   25.30    1.40
  -4   4   2   28.20    1.70
   3  -4  -2   79.09    3.00
   3  -4  -2   79.39    2.90
  -3   4   2   79.19    3.20
   2  -4  -2  220.58    7.40
   2  -4  -2  222.88    7.10
  -2   4   2  209.78    7.40
   1  -4  -2   10.90    1.00
   1  -4  -2   12.40    0.50
  -1   4   2   11.20    0.90
   0  -4  -2  274.37    9.10
   0   4   2  265.37    9.00
  -1  -4  -2  146.59    4.70
  -1  -4  -2  146.49    5.20
   1   4   2  134.59    5.00
  -2  -4  -2    4.20    0.80
   2   4   2    4.40    0.80
  -3  -4  -2   11.80    1.30
  -3  -4  -2   11.90    1.30
   3   4   2   11.80    1.00
  -4  -4  -2  102.39    4.10
  -4  -4  -2  100.89    4.00
   4   4   2   96.89    3.80
  -5  -4  -2   55.49    2.80
  -6  -4  -2    1.90    1.50
  -7  -4  -2   22.50    3.90
   8  -5  -2    2.40    1.70
  -8   5   2    0.60    2.00
   7  -5  -2    8.70    1.60
  -7   5   2    9.20    1.90
   6  -5  -2    0.30    0.90
  -6   5   2    0.00    1.10
   5  -5  -2   38.60    2.00
  -5   5   2   33.90    2.30
   4  -5  -2    0.90    0.80
   4  -5  -2    0.60    0.70
  -4   5   2    0.50    0.90
   3  -5  -2   14.20    1.00
   3  -5  -2   12.20    1.30
  -3   5   2   12.20    1.30
   2  -5  -2  742.93   23.40
   2  -5  -2  711.83   23.70
  -2   5   2  733.43   23.70
   1  -5  -2    1.00    0.70
   1  -5  -2    1.40    0.30
  -1   5   2    0.70    0.70
   0  -5  -2  125.49    4.70
   0   5   2  123.49    4.50
  -1  -5  -2    3.30    0.80
   1   5   2    3.30    0.80
  -2  -5  -2  112.39    4.40
   2   5   2  106.59    4.10
  -3  -5  -2    5.20    1.10
   3   5   2    7.00    1.10
  -4  -5  -2    7.30    1.40
   4   5   2    8.30    1.40
   5   5   2    5.50    1.50
   6   5   2    1.10    1.70
   8  -6  -2    3.50    1.70
  -8   6   2    4.00    2.40
   7  -6  -2   25.40    2.30
  -7   6   2   27.30    2.60
   6  -6  -2    0.60    1.10
  -6   6   2    1.80    1.50
   5  -6  -2    0.00    0.80
  -5   6   2    0.30    1.20
   4  -6  -2  122.89    4.80
   4  -6  -2  132.29    4.60
   3  -6  -2   30.50    1.90
  -3   6   2   35.70    2.20
   2  -6  -2  325.67   11.20
  -2   6   2  332.87   11.20
   1  -6  -2   55.99    2.70
  -1   6   2   56.69    2.50
   0  -6  -2    0.20    0.70
   0   6   2    0.30    0.80
  -1  -6  -2    4.90    1.10
   1   6   2    5.00    0.90
  -2  -6  -2   57.39    2.90
   2   6   2   54.29    2.60
  -3  -6  -2   33.40    2.30
   3   6   2   37.10    2.20
  -4  -6  -2    2.50    1.50
   4   6   2    2.50    1.30
  -5  -6  -2    5.10    1.80
   5   6   2    6.00    1.50
  -7   7   2   -0.10    1.80
  -6   7   2    1.20    1.40
  -5   7   2    9.50    1.70
   4  -7  -2  224.68    8.00
  -4   7   2  223.98    8.20
   3  -7  -2   -0.40    0.90
  -3   7   2    1.10    1.10
   2  -7  -2   18.30    1.80
  -2   7   2   20.60    1.80
   1  -7  -2   96.79    4.20
  -1   7   2   99.99    4.10
   0   7   2  114.19    4.50
  -1  -7  -2  144.79    5.60
   1   7   2  135.49    5.30
  -2  -7  -2    1.20    1.20
   2   7   2    2.60    1.10
  -3  -7  -2    5.60    1.70
   3   7   2    7.70    1.40
  -4  -7  -2    1.20    1.60
   4   7   2    0.80    1.30
  -5  -7  -2   15.10    2.40
  -6   8   2    1.50    2.00
  -5   8   2   -0.90    1.50
  -4   8   2    2.30    1.60
   3  -8  -2   62.49    3.20
  -3   8   2   59.99    3.30
   2  -8  -2    0.00    1.10
  -2   8   2    0.40    1.20
   1  -8  -2   49.90    2.80
  -1   8   2   43.80    2.60
   0  -8  -2    9.00    1.50
   0   8   2    8.70    1.50
  -1  -8  -2    2.10    1.20
   1   8   2    2.60    1.20
  -2  -8  -2    5.90    1.60
   2   8   2    5.10    1.50
  -3  -8  -2    0.00    1.70
   3   8   2    0.70    1.40
  -4  -8  -2    8.50    2.40
   4   8   2    7.30    2.00
  -5  -8  -2    0.10    2.70
  -6   9   2    5.40    2.50
  -5   9   2    0.00    2.20
  -4   9   2   -1.00    1.60
   3  -9  -2    7.90    1.60
  -3   9   2    7.60    2.00
   2  -9  -2   57.39    3.40
  -2   9   2   56.39    3.30
   1  -9  -2    6.80    1.60
  -1   9   2    6.10    1.60
   0  -9  -2    7.10    1.60
   0   9   2    7.30    1.50
  -1  -9  -2    5.10    1.60
   1   9   2    8.80    1.80
  -2  -9  -2    0.90    1.70
   2   9   2    1.30    1.80
  -3  -9  -2    2.50    2.40
   3   9   2    2.90    2.10
  -4  10   2    2.80    2.20
   3 -10  -2    0.40    1.70
  -3  10   2    0.70    2.20
   2 -10  -2   28.10    2.90
  -2  10   2   26.20    2.90
   1 -10  -2    0.30    1.50
  -1  10   2   -0.30    2.00
   0 -10  -2    2.60    1.70
   0  10   2    1.70    1.80
  -1 -10  -2    1.90    1.80
   1  10   2    1.10    2.00
   2  10   2    2.40    2.10
   3 -11  -2   -0.40    2.20
   2 -11  -2    3.40    2.20
  -1  11   2   -0.60    2.60
   1 -11   3   26.10    3.00
  -2  11  -3    9.60    2.80
  -3  11  -3    0.30    2.70
  -2 -10   3   31.60    3.70
  -1 -10   3   41.20    3.50
   0 -10   3   14.10    2.20
  -1  10  -3   11.80    2.20
   1 -10   3   13.20    2.20
  -2  10  -3    0.70    1.90
   2 -10   3    0.20    1.80
  -3  10  -3   10.20    2.40
  -4  10  -3    0.00    2.30
  -3  -9   3   13.70    2.40
  -2  -9   3   10.40    2.00
  -1  -9   3    6.10    1.70
   0   9  -3   13.60    2.00
   0  -9   3   12.40    1.80
  -1   9  -3    0.50    1.60
   1  -9   3   -0.10    1.40
  -2   9  -3    2.40    1.60
   2  -9   3    0.60    1.40
  -3   9  -3   68.39    3.60
  -4   9  -3   10.90    2.20
  -5   9  -3    1.30    1.90
   5   8  -3   16.40    2.90
  -4  -8   3   16.80    2.40
  -3  -8   3   20.40    2.30
  -2  -8   3   -0.40    1.10
  -1  -8   3   11.60    1.70
   0   8  -3    4.10    1.30
   0  -8   3    5.60    1.50
  -1   8  -3  285.37   10.00
   1  -8   3  285.27   10.10
  -2   8  -3   54.19    2.90
   2  -8   3   57.49    3.00
  -3   8  -3   54.29    3.10
  -4   8  -3    7.80    1.60
  -5   8  -3    4.20    1.60
   5  -8   3    4.90    1.50
  -6   8  -3    5.90    2.10
   6  -8   3    5.70    1.70
   7  -8   3   44.30    3.30
   6   7  -3    0.10    2.10
   5   7  -3    3.00    1.70
  -4  -7   3    1.10    1.30
  -3  -7   3   -0.10    1.00
  -2  -7   3   29.70    2.10
   1   7  -3    7.50    1.20
  -1  -7   3    7.20    1.30
   0   7  -3  134.99    5.10
   0  -7   3  142.59    5.00
   0  -7   3  130.79    5.30
  -1   7  -3  201.58    7.20
   1  -7   3  203.48    6.90
   1  -7   3  203.28    7.30
  -2   7  -3   24.20    1.80
   2  -7   3   23.20    1.50
   2  -7   3   27.80    1.90
  -3   7  -3   10.50    1.60
   3  -7   3    9.70    1.10
  -4   7  -3    3.30    1.20
   4  -7   3    5.50    1.10
  -5   7  -3    2.10    1.50
   5  -7   3    3.60    1.20
  -6   7  -3    1.00    1.60
   6  -7   3    0.70    1.40
  -7   7  -3   -0.20    2.00
   7  -7   3    2.10    1.70
   6   6  -3    1.40    1.70
   5   6  -3    1.20    1.30
  -4  -6   3    0.80    1.20
  -4  -6   3   -0.40    1.10
  -3  -6   3   29.30    1.90
  -3  -6   3   25.70    2.00
   2   6  -3    0.40    0.80
  -2  -6   3    0.30    0.70
  -2  -6   3    0.30    0.90
   1   6  -3   22.20    1.50
  -1  -6   3   24.50    1.80
  -1  -6   3   22.40    1.40
   0   6  -3  156.88    5.80
   0  -6   3  179.08    6.10
   0  -6   3  163.18    5.70
  -1   6  -3  138.29    5.10
   1  -6   3  138.49    5.20
   1  -6   3  145.19    4.90
  -2   6  -3  169.08    5.90
   2  -6   3  154.68    5.60
   2  -6   3  159.18    5.70
  -3   6  -3   20.10    1.70
   3  -6   3   15.20    1.30
  -4   6  -3    9.60    1.40
   4  -6   3   11.80    1.20
  -5   6  -3   13.00    1.80
   5  -6   3   13.70    1.50
  -6   6  -3    1.80    1.40
   6  -6   3    3.00    1.20
  -7   6  -3    0.80    1.80
   7  -6   3    0.70    1.50
  -7  -5   3    7.80    2.50
   6   5  -3   -0.40    1.40
  -6  -5   3    0.60    1.50
   5   5  -3    3.70    1.30
  -5  -5   3    3.70    1.40
   4   5  -3    2.60    1.00
  -4  -5   3    4.80    1.10
   3   5  -3    1.60    1.20
  -3  -5   3    1.90    0.90
  -3  -5   3    0.90    0.90
   2   5  -3   11.30    1.10
  -2  -5   3   12.50    1.10
  -2  -5   3   11.70    1.20
   1   5  -3  356.46   11.80
  -1  -5   3  350.06   12.00
  -1  -5   3  368.66   11.80
   0   5  -3   55.29    2.40
   0  -5   3   59.09    2.60
   0  -5   3   60.59    2.30
  -1   5  -3    8.80    1.00
   1  -5   3    9.20    1.00
   1  -5   3    9.30    0.80
  -2   5  -3    6.90    1.00
   2  -5   3    7.50    0.90
   2  -5   3    7.30    0.80
  -3   5  -3  118.69    4.40
   3  -5   3  117.69    4.10
   3  -5   3  100.79    4.10
  -4   5  -3   10.50    1.30
   4  -5   3   11.70    1.10
  -5   5  -3    7.80    1.50
   5  -5   3    8.00    1.10
  -6   5  -3    2.40    1.40
   6  -5   3    2.20    1.00
  -7   5  -3    3.60    1.80
   7  -5   3    3.50    1.40
  -7  -4   3   33.90    3.20
   6   4  -3   22.00    2.20
  -6  -4   3   22.00    2.40
   5   4  -3   14.70    1.70
  -5  -4   3   16.50    1.90
   4   4  -3    1.70    0.90
  -4  -4   3    0.60    0.80
   3   4  -3    8.20    0.80
  -3  -4   3    8.10    1.00
  -3  -4   3    7.70    1.00
   2   4  -3   35.20    1.50
  -2  -4   3   34.00    1.80
  -2  -4   3   37.60    1.70
   1   4  -3    8.30    0.70
  -1  -4   3    9.80    0.80
  -1  -4   3    7.80    0.90
   0   4  -3    8.10    0.80
   0  -4   3    9.00    0.70
   0  -4   3    8.40    0.80
  -1   4  -3   19.20    1.10
   1  -4   3   20.80    1.00
  -2   4  -3    1.10    0.60
   2  -4   3    1.60    0.50
   2  -4   3    1.20    0.50
  -3   4  -3  438.36   14.80
   3  -4   3  456.35   14.50
   3  -4   3  448.56   14.70
  -4   4  -3   17.20    1.60
   4  -4   3   18.60    1.30
  -5   4  -3   41.30    2.40
   5  -4   3   40.00    2.10
  -6   4  -3   -0.20    1.20
   6  -4   3    0.20    0.90
  -7   4  -3    2.00    1.50
   7  -4   3    3.10    1.20
  -8   4  -3   15.90    2.70
   8  -4   3   11.80    2.10
   8   3  -3   27.50    4.50
  -7  -3   3   22.40    2.50
   6   3  -3   60.09    3.30
  -6  -3   3   63.09    3.30
   5   3  -3   32.40    1.90
  -5  -3   3   32.20    2.20
   4   3  -3   20.30    1.50
  -4  -3   3   23.50    1.50
  -4  -3   3   22.60    1.40
   3   3  -3   11.60    0.90
   3   3  -3   12.80    1.10
  -3  -3   3   10.70    1.10
   2   3  -3    9.60    0.70
  -2  -3   3    9.40    0.90
  -2  -3   3   10.20    0.90
   1   3  -3  435.86   14.10
  -1  -3   3  442.86   14.30
  -1  -3   3  437.26   14.20
   0   3  -3  643.74   20.90
   0  -3   3  663.03   20.90
   0  -3   3  645.84   21.00
  -1   3  -3  490.65   15.80
   1  -3   3  484.55   15.70
   1  -3   3  484.25   15.70
  -2   3  -3    3.50    0.60
   2  -3   3    4.70    0.50
   2  -3   3    6.90    0.70
  -3   3  -3    0.20    0.20
  -3   3  -3    0.10    0.60
   3  -3   3   -0.10    0.50
  -4   3  -3    2.60    0.90
   4  -3   3    1.90    0.60
  -5   3  -3    0.70    1.00
   5  -3   3    0.60    0.70
  -6   3  -3  111.39    4.70
   6  -3   3  118.09    4.60
  -7   3  -3   16.50    2.10
   7  -3   3   14.30    1.70
  -8   3  -3   -1.10    1.90
   8  -3   3    0.30    1.60
   8   2  -3   75.69    4.50
  -7  -2   3    3.50    1.50
  -6  -2   3    0.50    1.00
   5   2  -3   10.60    1.20
  -5  -2   3   10.20    1.20
  -5  -2   3    8.00    1.20
   4   2  -3   36.80    1.90
  -4  -2   3   40.00    1.70
  -4  -2   3   39.20    2.00
   3   2  -3  111.69    4.10
  -3  -2   3  113.09    3.80
  -3  -2   3  110.99    4.10
   2   2  -3  391.76   13.20
   2   2  -3  409.46   12.90
  -2  -2   3  408.76   13.20
   1   2  -3   21.30    0.80
   1   2  -3   19.90    1.00
  -1  -2   3   21.40    1.00
   0   2  -3    4.00    0.40
   0   2  -3    4.20    0.50
   0  -2   3    3.80    0.40
  -1   2  -3  388.76   12.00
  -1   2  -3  352.66   12.00
   1  -2   3  370.36   12.00
  -2   2  -3   31.60    1.10
  -2   2  -3   27.70    1.40
   2  -2   3   29.70    1.30
  -3   2  -3   57.79    2.50
   3  -2   3   61.99    2.40
  -4   2  -3    2.30    0.80
   4  -2   3    2.90    0.70
  -5   2  -3   87.99    3.70
   5  -2   3   89.69    3.60
  -6   2  -3   76.69    3.60
   6  -2   3   72.39    3.30
  -7   2  -3    7.90    1.90
   7  -2   3   10.30    1.60
  -8   2  -3    6.80    2.30
   8  -2   3    7.20    1.90
   8   1  -3    1.40    1.80
  -7  -1   3    8.00    1.80
  -6  -1   3  122.09    5.00
   5   1  -3   20.60    1.40
  -5  -1   3   20.40    1.50
  -5  -1   3   19.30    1.60
   4   1  -3   34.30    1.70
  -4  -1   3   37.80    1.90
  -4  -1   3   39.80    1.70
   3   1  -3   27.00    1.40
  -3  -1   3   29.70    1.20
  -3  -1   3   27.80    1.40
   2   1  -3   19.90    1.00
  -2  -1   3   20.10    1.00
  -2  -1   3   22.10    0.80
   1   1  -3  711.33   23.10
  -1  -1   3  727.83   23.00
   0   1  -3  236.88    7.60
   0   1  -3  238.68    7.50
   0  -1   3  222.58    7.60
  -1   1  -3 1036.40   32.80
  -1   1  -3 1029.80   32.90
   1  -1   3 1025.40   32.90
  -2   1  -3  456.55   14.90
  -2   1  -3  479.05   14.60
   2  -1   3  440.46   14.90
  -3   1  -3  398.36   12.70
   3  -1   3  369.16   12.60
  -4   1  -3   99.39    3.70
   4  -1   3   88.79    3.50
  -5   1  -3   13.90    1.50
   5  -1   3   13.80    1.30
  -6   1  -3    0.10    1.20
   6  -1   3    1.50    0.90
  -7   1  -3   59.79    3.50
   7  -1   3   56.49    3.10
  -8   1  -3    0.30    2.20
   8  -1   3    1.20    1.80
   8   0  -3   28.90    2.80
  -7   0   3   13.10    1.90
  -6   0   3   24.60    1.90
  -6   0   3   23.60    1.80
   5   0  -3   28.70    1.60
  -5   0   3   31.70    1.80
  -5   0   3   29.00    1.70
   4   0  -3   21.20    1.20
  -4   0   3   21.60    1.40
  -4   0   3   19.60    1.20
   3   0  -3  139.89    4.90
  -3   0   3  148.79    4.80
  -3   0   3  136.99    5.00
   2   0  -3  216.18    7.40
  -2   0   3  230.78    7.30
  -2   0   3  228.98    7.50
   1   0  -3   14.60    0.70
  -1   0   3   13.90    0.50
  -1   0   3   12.50    0.70
   0   0  -3   13.70    0.60
   0   0   3   14.40    0.70
  -1   0  -3   24.10    0.90
  -1   0  -3   22.30    1.00
   1   0   3   22.00    0.90
  -2   0  -3   27.80    1.40
  -2   0  -3   33.00    1.20
   2   0   3   28.20    1.30
  -3   0  -3   80.39    3.10
  -3   0  -3   83.49    2.80
   3   0   3   78.09    3.00
  -4   0  -3    6.00    1.00
   4   0   3    5.40    0.80
  -5   0  -3    6.40    1.20
   5   0   3   10.50    1.20
  -6   0  -3   38.80    2.60
   6   0   3   41.00    2.40
  -7   0  -3   -1.00    1.60
   7   0   3   -0.10    1.10
  -8   0  -3   50.19    4.00
   8   0   3   55.89    3.70
   8  -1  -3    4.30    1.50
   7  -1  -3    3.00    1.40
  -7   1   3    4.60    1.60
  -6   1   3    1.10    1.10
  -6   1   3   -0.70    0.90
   5  -1  -3    8.70    0.90
  -5   1   3    6.30    1.00
  -5   1   3    7.70    1.00
   4  -1  -3    1.50    0.60
  -4   1   3    1.30    0.70
  -4   1   3    1.70    0.60
   3  -1  -3  495.75   16.10
  -3   1   3  490.55   16.20
  -3   1   3  502.55   16.10
   2  -1  -3   82.29    2.90
  -2   1   3   84.89    3.00
  -2   1   3   83.39    2.90
  -1   1   3 1521.45   49.00
  -1   1   3 1559.14   49.00
   0   1   3   85.99    2.90
   0   1   3   85.79    2.80
  -1  -1  -3  326.07   11.00
  -1  -1  -3  349.17   11.00
   1   1   3  338.07   10.90
  -2  -1  -3  422.16   13.80
  -2  -1  -3  428.76   13.70
   2   1   3  421.76   13.70
  -3  -1  -3   34.20    1.40
  -3  -1  -3   29.50    1.50
   3   1   3   25.00    1.40
  -4  -1  -3  112.19    4.10
  -4  -1  -3  123.19    4.40
   4   1   3  108.89    4.20
  -5  -1  -3    0.50    1.00
   5   1   3    0.80    0.80
  -6  -1  -3    1.10    1.40
   6   1   3    1.10    0.90
  -7  -1  -3   74.59    3.80
   7   1   3   71.69    3.50
  -8  -1  -3  120.79    5.80
   8   1   3  112.09    5.40
   8  -2  -3    3.30    1.50
   7  -2  -3    1.90    1.20
  -7   2   3    2.20    1.30
   6  -2  -3   18.50    1.60
  -6   2   3   15.90    1.50
   5  -2  -3   59.09    2.50
  -5   2   3   64.79    2.70
  -5   2   3   60.29    2.70
   4  -2  -3  527.75   17.10
  -4   2   3  528.15   17.20
  -4   2   3  519.25   17.20
   3  -2  -3  468.15   15.30
  -3   2   3  465.85   15.30
  -3   2   3  474.75   15.30
   2  -2  -3   78.39    2.80
  -2   2   3   80.49    2.80
  -2   2   3   75.29    2.80
   1  -2  -3  303.97   10.30
  -1   2   3  317.17   10.20
  -1   2   3  321.67   10.10
   0  -2  -3  399.56   13.00
   0   2   3  393.86   12.90
   0   2   3  401.86   12.70
  -1  -2  -3    1.90    0.50
  -1  -2  -3    1.20    0.50
   1   2   3    1.50    0.30
  -2  -2  -3   29.20    1.40
  -2  -2  -3   27.90    1.40
   2   2   3   28.70    1.20
  -3  -2  -3   39.80    1.80
  -3  -2  -3   39.50    1.90
   3   2   3   39.00    1.70
  -4  -2  -3   22.10    1.60
  -4  -2  -3   19.60    1.40
   4   2   3   19.00    1.30
  -5  -2  -3  136.89    5.40
   5   2   3  144.39    5.20
  -6  -2  -3   65.29    3.50
   6   2   3   67.09    3.20
  -7  -2  -3   91.19    4.70
   7   2   3   96.99    4.40
   8   2   3    3.90    2.30
   8  -3  -3   11.60    2.00
  -8   3   3    8.90    1.90
   7  -3  -3    2.00    1.10
  -7   3   3    1.60    1.40
   6  -3  -3  313.57   10.40
  -6   3   3  289.47   10.40
   5  -3  -3   19.60    1.50
   5  -3  -3   21.30    1.40
  -5   3   3   22.80    1.60
  -4   3   3  631.44   20.60
   3  -3  -3    3.10    0.60
  -3   3   3    3.60    0.70
  -3   3   3    3.50    0.60
   2  -3  -3   11.40    0.90
  -2   3   3   11.60    0.80
  -2   3   3   12.30    1.00
   1  -3  -3  341.87   11.30
   1  -3  -3  349.77   11.00
  -1   3   3  337.57   11.30
   0  -3  -3   80.89    3.10
   0   3   3   81.89    3.00
  -1  -3  -3   25.40    1.40
   1   3   3   24.90    1.00
   1   3   3   22.10    1.20
  -2  -3  -3  134.69    4.90
  -2  -3  -3  140.19    5.00
   2   3   3  139.79    4.70
  -3  -3  -3   57.19    2.60
  -3  -3  -3   61.29    2.60
   3   3   3   59.09    2.40
  -4  -3  -3   13.70    1.50
  -4  -3  -3   11.00    1.30
   4   3   3   11.10    1.10
  -5  -3  -3  220.18    7.70
   5   3   3  203.78    7.40
  -6  -3  -3   38.00    2.80
   6   3   3   42.70    2.50
  -7  -3  -3    0.20    2.10
   8  -4  -3   71.29    3.70
   7  -4  -3   20.80    2.10
  -7   4   3   19.80    2.00
   6  -4  -3  182.08    6.60
  -6   4   3  181.28    6.80
   5  -4  -3    3.00    0.90
  -5   4   3    3.80    1.10
   4  -4  -3    8.80    1.00
   4  -4  -3   10.50    1.00
  -4   4   3   10.70    1.20
   3  -4  -3   98.49    3.40
   3  -4  -3   95.99    3.60
  -3   4   3   92.99    3.70
   2  -4  -3    1.00    0.30
   2  -4  -3    0.60    0.60
  -2   4   3    1.10    0.60
   1  -4  -3    0.70    0.20
   1  -4  -3    0.70    0.60
  -1   4   3    0.50    0.50
   0  -4  -3   -0.30    0.50
   0   4   3   -0.10    0.60
  -1  -4  -3   48.90    2.20
   1   4   3   43.30    2.00
   1   4   3   46.50    1.60
   2   4   3   50.99    2.30
   2   4   3   53.59    2.00
  -3  -4  -3    2.40    1.00
  -3  -4  -3    3.00    1.00
   3   4   3    3.20    0.70
  -4  -4  -3    9.30    1.30
  -4  -4  -3    7.00    1.40
  -5  -4  -3    9.80    1.60
  -6  -4  -3    3.30    1.60
  -7  -4  -3   -0.20    2.20
   8  -5  -3    8.00    2.00
  -8   5   3    9.00    2.30
   7  -5  -3    0.50    1.30
  -7   5   3   -1.30    1.60
   6  -5  -3    3.10    1.00
  -6   5   3    3.70    1.30
   5  -5  -3    0.00    0.80
  -5   5   3   -0.40    1.10
   4  -5  -3   37.00    1.80
   4  -5  -3   40.50    2.00
   3  -5  -3    6.80    0.70
   3  -5  -3    5.00    0.90
  -3   5   3    5.20    1.10
   2  -5  -3   64.79    2.80
   2  -5  -3   66.99    2.30
  -2   5   3   67.89    2.80
   1  -5  -3  171.48    6.20
  -1   5   3  174.48    6.10
   0  -5  -3    6.30    1.00
   0   5   3    3.20    0.80
  -1  -5  -3   15.10    1.50
   1   5   3   17.60    1.40
  -2  -5  -3   59.39    2.80
   2   5   3   54.89    2.50
  -3  -5  -3   20.10    1.80
   3   5   3   15.30    1.40
  -4  -5  -3   11.60    1.70
   4   5   3   11.50    1.40
   5   5   3   13.80    1.80
   6   5   3   45.10    3.30
   8  -6  -3    5.40    1.90
  -8   6   3    5.40    2.20
   7  -6  -3   -0.10    1.30
  -7   6   3   -1.00    1.60
   6  -6  -3    2.90    1.10
  -6   6   3    2.80    1.40
   5  -6  -3    1.30    0.90
  -5   6   3    1.30    1.10
   4  -6  -3   43.90    2.30
  -4   6   3   40.00    2.40
   3  -6  -3   12.40    1.40
  -3   6   3   12.10    1.40
   2  -6  -3    1.20    0.80
  -2   6   3    0.50    0.80
   1  -6  -3    5.70    1.00
  -1   6   3    5.20    1.00
   0  -6  -3   -0.10    0.80
   0   6   3    0.00    0.90
  -1  -6  -3   10.70    1.40
   1   6   3    9.40    1.20
  -2  -6  -3   24.30    2.00
   2   6   3   26.20    1.80
  -3  -6  -3   52.29    2.90
   3   6   3   48.60    2.60
  -4  -6  -3    0.30    1.40
   4   6   3   -0.30    1.20
   5   6   3   22.30    2.50
   6   6   3    5.20    2.40
  -7   7   3    2.90    1.80
  -6   7   3    1.60    1.70
  -5   7   3    0.30    1.30
   4  -7  -3   70.89    3.40
  -4   7   3   75.49    3.60
   3  -7  -3    6.50    1.20
  -3   7   3    7.50    1.50
   2  -7  -3    1.00    1.10
  -2   7   3    0.70    1.00
   1  -7  -3    1.50    1.10
  -1   7   3    1.60    1.00
   0  -7  -3   45.90    2.70
   0   7   3   46.00    2.40
  -1  -7  -3   64.99    3.30
   1   7   3   64.89    3.10
  -2  -7  -3    0.70    1.10
   2   7   3    0.00    1.10
  -3  -7  -3   -0.40    1.30
   3   7   3    0.10    1.30
  -4  -7  -3    0.40    1.80
   4   7   3    0.10    1.50
   5   7   3    3.90    2.00
  -6   8   3   47.60    3.40
  -5   8   3    1.60    1.80
   4  -8  -3   -0.30    1.30
  -4   8   3   -1.30    1.50
   3  -8  -3   15.20    1.90
  -3   8   3   14.70    1.90
   2  -8  -3   20.10    2.20
  -2   8   3   20.30    2.00
   1  -8  -3  366.76   12.70
  -1   8   3  359.86   12.60
   0  -8  -3    2.80    1.30
   0   8   3    0.80    1.30
  -1  -8  -3   20.10    2.30
   1   8   3   19.40    1.90
  -2  -8  -3    5.00    1.60
   2   8   3    3.60    1.50
  -3  -8  -3    0.00    1.40
   3   8   3   -0.40    1.40
  -4  -8  -3  109.59    5.50
   4   8   3  107.79    5.10
  -6   9   3    0.30    4.00
  -5   9   3   -0.70    2.00
  -4   9   3   15.90    2.40
   3  -9  -3   46.90    3.20
  -3   9   3   49.50    3.20
   2  -9  -3   19.70    2.30
  -2   9   3   19.10    2.30
   1  -9  -3   28.90    2.70
  -1   9   3   32.40    2.80
   0  -9  -3   28.10    2.50
   0   9   3   26.00    2.50
  -1  -9  -3    0.40    1.60
   1   9   3    0.00    1.60
  -2  -9  -3    8.30    2.10
   2   9   3    6.90    1.80
  -3  -9  -3   -0.50    2.20
   3   9   3   -1.80    2.00
  -4  10   3   33.80    3.80
   3 -10  -3    4.00    1.80
  -3  10   3    3.90    2.40
   2 -10  -3    0.10    1.80
  -2  10   3    0.40    2.20
   1 -10  -3   -0.30    1.70
  -1  10   3    0.60    1.90
   0 -10  -3   21.40    2.70
   0  10   3   20.70    2.70
  -1 -10  -3    0.50    1.70
   1  10   3   -0.10    1.90
   2  10   3    4.50    2.40
   3 -11  -3    5.50    2.40
   2 -11  -3   -0.10    3.60
   1 -11   4    2.00    2.10
  -3  11  -4    1.20    2.80
  -1 -10   4    8.50    2.20
   0 -10   4    1.80    1.70
   1 -10   4    1.10    1.70
  -2  10  -4    5.20    2.20
  -3  10  -4    4.30    2.10
  -4  10  -4    0.30    2.10
  -3  -9   4    3.40    1.80
  -2  -9   4   12.80    2.20
  -1  -9   4    0.10    1.40
   0  -9   4    1.20    1.40
  -1   9  -4   16.20    2.10
   1  -9   4   12.60    1.80
  -2   9  -4    9.40    1.80
   2  -9   4   13.10    1.80
  -3   9  -4  120.79    5.30
  -4   9  -4    1.00    1.80
  -5   9  -4    3.10    2.20
   4   8  -4   40.10    3.30
  -3  -8   4    0.40    1.50
  -2  -8   4    1.40    1.30
  -1  -8   4    2.40    1.10
   0   8  -4    7.20    1.50
   0  -8   4    5.30    1.30
  -1   8  -4  270.97    9.60
   1  -8   4  273.17    9.70
  -2   8  -4   20.70    2.00
   2  -8   4   21.40    1.90
  -3   8  -4   77.09    3.60
   3  -8   4   68.09    3.30
  -4   8  -4    2.80    1.60
   4  -8   4    2.90    1.20
  -5   8  -4   13.60    2.30
   5  -8   4   14.80    1.70
  -6   8  -4   29.50    3.10
   6  -8   4   29.10    2.70
   6   7  -4    4.70    2.40
   5   7  -4   -0.40    1.50
   4   7  -4    1.50    1.40
  -3  -7   4    1.90    1.30
  -2  -7   4    4.50    1.30
  -1  -7   4  130.59    5.10
  -1  -7   4  129.29    4.80
   0   7  -4  291.37    9.90
   0  -7   4  288.97   10.10
   0  -7   4  288.37    9.70
  -1   7  -4  235.28    8.10
   1  -7   4  227.68    8.10
   1  -7   4  224.88    7.80
  -2   7  -4   15.20    1.70
   2  -7   4   15.60    1.50
   2  -7   4   13.90    1.40
  -3   7  -4   79.19    3.60
   3  -7   4   72.89    3.10
  -4   7  -4   -0.70    1.20
   4  -7   4    0.50    0.80
  -5   7  -4    1.80    1.40
   5  -7   4    2.40    1.20
  -6   7  -4    9.60    2.00
   6  -7   4   13.20    1.80
   7  -7   4    0.40    1.60
   6   6  -4   15.20    2.30
   5   6  -4    0.60    1.40
  -5  -6   4    0.10    1.40
   4   6  -4    7.20    1.40
  -4  -6   4    7.80    1.40
  -3  -6   4   26.50    1.90
  -3  -6   4   27.80    2.10
  -2  -6   4  160.58    5.70
  -2  -6   4  160.08    6.00
   1   6  -4   54.69    2.50
  -1  -6   4   58.79    2.70
  -1  -6   4   59.89    2.50
   0   6  -4  132.29    4.80
   0  -6   4  127.89    4.70
   0  -6   4  134.19    5.00
  -1   6  -4    0.40    0.90
   1  -6   4    0.50    0.80
   1  -6   4    0.60    0.60
  -2   6  -4   32.80    2.00
   2  -6   4   35.00    1.80
   2  -6   4   32.70    1.80
  -3   6  -4    1.70    0.90
   3  -6   4    3.00    0.80
  -4   6  -4   23.90    1.90
   4  -6   4   29.70    1.80
  -5   6  -4   -0.40    1.30
   5  -6   4   -0.20    0.90
  -6   6  -4   35.90    2.70
   6  -6   4   35.90    2.50
  -7   6  -4   14.20    2.40
   7  -6   4   18.10    2.20
  -7  -5   4    0.60    1.90
   6   5  -4   -0.20    1.40
  -6  -5   4    0.30    1.60
   5   5  -4   21.00    2.10
  -5  -5   4   21.70    2.20
   4   5  -4    3.20    1.00
  -4  -5   4    4.30    1.10
  -3  -5   4    1.90    0.90
   2   5  -4   77.69    3.00
  -2  -5   4   80.79    3.30
  -2  -5   4   76.69    3.10
   1   5  -4   39.00    1.70
  -1  -5   4   38.10    2.00
  -1  -5   4   37.60    1.70
   0   5  -4   60.19    2.50
   0  -5   4   57.99    2.40
   0  -5   4   64.29    2.60
  -1   5  -4  302.37   10.00
   1  -5   4  300.27   10.00
   1  -5   4  297.97   10.10
  -2   5  -4    1.00    0.70
   2  -5   4    0.70    0.60
   2  -5   4    1.30    0.60
  -3   5  -4    4.40    1.00
   3  -5   4    3.80    0.80
  -4   5  -4   47.70    2.50
   4  -5   4   53.49    2.40
  -5   5  -4   24.10    2.10
   5  -5   4   22.60    1.70
  -6   5  -4    1.20    1.30
   6  -5   4    1.80    1.20
  -7   5  -4    6.30    2.00
   7  -5   4    8.30    1.70
  -7  -4   4   16.50    2.40
   6   4  -4   34.10    2.50
  -6  -4   4   32.90    2.50
   5   4  -4   51.79    2.70
  -5  -4   4   46.00    2.70
   4   4  -4    0.30    0.80
  -4  -4   4    0.40    0.90
   3   4  -4    9.50    1.10
  -3  -4   4   10.50    1.10
   2   4  -4  209.08    6.80
  -2  -4   4  205.68    7.00
  -2  -4   4  201.58    7.20
   1   4  -4   44.40    1.70
  -1  -4   4   42.00    2.00
  -1  -4   4   43.90    1.80
   0   4  -4  173.18    5.80
   0  -4   4  185.38    5.90
   0  -4   4  161.08    6.00
  -1   4  -4  414.26   13.80
   1  -4   4  421.36   13.80
   1  -4   4  429.06   13.70
  -2   4  -4  250.37    8.70
   2  -4   4  259.07    8.60
   2  -4   4  258.77    8.50
  -3   4  -4  251.57    8.60
  -4   4  -4    0.40    0.80
   4  -4   4   -0.30    0.60
  -5   4  -4    4.10    1.30
   5  -4   4    3.90    0.90
  -6   4  -4    1.80    1.20
   6  -4   4    4.00    1.20
  -7   4  -4    0.00    1.60
   7  -4   4    2.20    1.40
  -7  -3   4    0.30    1.70
   6   3  -4    0.70    1.10
  -6  -3   4   -0.30    1.30
   5   3  -4   -0.20    0.90
  -5  -3   4   -0.40    0.90
   4   3  -4    1.80    0.80
  -4  -3   4    3.10    0.90
   3   3  -4    2.40    0.50
   3   3  -4    1.70    0.70
  -3  -3   4    1.90    0.70
   2   3  -4    4.00    0.70
   2   3  -4    6.30    0.60
  -2  -3   4    8.00    0.80
   1   3  -4   19.50    1.10
   1   3  -4   19.10    0.90
  -1  -3   4   19.00    1.10
   0   3  -4  174.08    5.80
   0   3  -4  179.48    5.90
   0  -3   4  170.58    5.90
  -1   3  -4  355.36   11.60
  -1   3  -4  353.96   11.70
   1  -3   4  362.56   11.70
  -2   3  -4  526.45   16.40
  -2   3  -4  509.75   16.70
   2  -3   4  497.85   16.60
  -3   3  -4   -0.30    0.70
   3  -3   4    0.20    0.60
  -4   3  -4   57.39    2.60
   4  -3   4   60.59    2.50
  -5   3  -4  158.98    6.00
   5  -3   4  164.78    5.90
  -6   3  -4   20.60    2.20
   6  -3   4   19.00    1.80
  -7   3  -4    3.00    1.70
   7  -3   4    1.90    1.30
  -8   3  -4   15.40    2.90
  -8  -2   4   12.40    2.50
  -7  -2   4    0.30    1.30
   6   2  -4   51.59    2.70
  -6  -2   4   56.39    3.10
   5   2  -4    3.60    0.90
  -5  -2   4    2.70    1.10
   4   2  -4  256.47    9.20
  -4  -2   4  274.67    8.90
  -4  -2   4  279.27    9.30
   3   2  -4  317.87   10.80
  -3  -2   4  335.37   10.50
  -3  -2   4  315.27   10.80
   2   2  -4    6.20    0.40
   2   2  -4    5.10    0.60
  -2  -2   4    5.40    0.70
   1   2  -4  824.32   26.70
   1   2  -4  835.52   26.50
  -1  -2   4  835.12   26.70
   0   2  -4   51.69    2.00
   0   2  -4   52.29    1.90
   0  -2   4   52.79    2.00
  -1   2  -4  124.29    4.20
  -1   2  -4  124.79    4.10
   1  -2   4  120.09    4.20
  -2   2  -4  210.18    7.10
  -2   2  -4  213.28    6.80
   2  -2   4  208.18    7.10
  -3   2  -4  219.28    7.40
   3  -2   4  211.98    7.30
  -4   2  -4   59.59    2.70
   4  -2   4   60.79    2.50
  -5   2  -4   66.49    3.10
   5  -2   4   61.99    2.80
  -6   2  -4    1.50    1.40
   6  -2   4    1.70    0.90
  -7   2  -4    2.20    1.80
   7  -2   4    1.40    1.10
  -8   2  -4    5.30    2.10
   8  -2   4    3.30    2.00
  -8  -1   4    4.90    2.20
  -7  -1   4    3.30    1.50
  -6  -1   4  166.78    6.40
   5   1  -4   44.80    2.20
  -5  -1   4   44.80    2.50
  -5  -1   4   45.40    2.30
   4   1  -4   20.00    1.40
  -4  -1   4   24.00    1.20
  -4  -1   4   19.40    1.40
   3   1  -4    6.80    0.80
  -3  -1   4    7.60    0.90
  -3  -1   4    7.30    0.60
   2   1  -4   21.10    1.20
  -2  -1   4   23.60    1.20
  -2  -1   4   23.00    0.80
   1   1  -4  595.54   19.80
  -1  -1   4  635.54   19.80
   0   1  -4    2.80    0.40
   0   1  -4    2.40    0.30
   0  -1   4    1.80    0.40
  -1   1  -4    6.20    0.60
  -1   1  -4    6.20    0.50
   1  -1   4    6.40    0.50
  -2   1  -4   45.50    1.90
  -2   1  -4   48.30    1.60
   2  -1   4   43.20    1.80
  -3   1  -4    1.00    0.60
   3  -1   4    1.00    0.50
  -4   1  -4   45.50    2.20
   4  -1   4   44.50    2.10
  -5   1  -4  197.58    7.10
   5  -1   4  192.98    6.90
  -6   1  -4  115.49    4.90
   6  -1   4  114.39    4.60
  -7   1  -4   -0.50    1.70
   7  -1   4    0.80    1.30
  -8   1  -4   13.20    2.70
   8  -1   4   20.70    2.40
   8   0  -4   50.49    3.60
  -7   0   4    3.00    1.50
  -6   0   4   -0.20    1.10
   5   0  -4   29.70    1.70
  -5   0   4   28.30    1.70
  -5   0   4   32.10    1.90
   4   0  -4   58.29    2.40
  -4   0   4   65.89    2.30
  -4   0   4   49.40    2.50
   3   0  -4    2.50    0.60
  -3   0   4    1.70    0.50
  -3   0   4    1.90    0.40
   2   0  -4  398.86   13.30
  -2   0   4  417.96   13.10
  -2   0   4  407.86   13.30
   1   0  -4   19.50    1.00
  -1   0   4   20.30    0.80
  -1   0   4   20.80    0.90
   0   0  -4 1367.96   42.50
   0   0  -4 1332.17   42.60
   0   0   4 1306.17   42.50
  -1   0  -4  496.95   16.10
  -1   0  -4  491.85   16.20
   1   0   4  512.95   16.10
  -2   0  -4  796.02   24.80
  -2   0  -4  754.62   25.00
   2   0   4  776.22   24.90
  -3   0  -4    0.10    0.70
  -3   0  -4   -0.10    0.30
   3   0   4    0.00    0.50
  -4   0  -4  156.28    5.70
   4   0   4  156.18    5.50
  -5   0  -4   29.30    2.10
   5   0   4   25.80    1.70
  -6   0  -4    4.50    1.40
   6   0   4    5.20    1.20
  -7   0  -4   14.90    2.30
   7   0   4   17.20    2.00
  -8   0  -4   12.20    2.50
   8   0   4   19.70    2.70
   8  -1  -4   30.10    2.60
  -7   1   4   -0.40    1.20
  -6   1   4    1.50    1.00
  -6   1   4    0.80    1.00
   5  -1  -4   18.60    1.40
  -5   1   4   21.40    1.60
  -5   1   4   20.30    1.40
   4  -1  -4   84.69    3.20
  -4   1   4   84.19    3.10
  -4   1   4   83.39    3.30
   3  -1  -4   27.30    1.30
  -3   1   4   28.70    1.40
  -3   1   4   28.50    1.30
   2  -1  -4  154.58    5.40
  -2   1   4  159.28    5.30
  -2   1   4  160.88    5.30
   1  -1  -4    7.90    0.70
  -1   1   4    7.10    0.50
  -1   1   4    8.10    0.50
   0  -1  -4  223.28    7.40
   0  -1  -4  220.68    7.50
   0   1   4  233.58    7.30
  -1  -1  -4  148.39    5.10
  -1  -1  -4  150.78    5.00
  -2  -1  -4   62.99    2.50
  -2  -1  -4   66.19    2.40
   2   1   4   63.59    2.40
  -3  -1  -4  117.59    4.00
  -3  -1  -4  112.99    4.20
   3   1   4  107.09    4.00
  -4  -1  -4    0.30    0.80
   4   1   4    0.00    0.60
  -5  -1  -4   38.90    2.40
   5   1   4   36.20    2.00
  -6  -1  -4  339.87   12.00
   6   1   4  344.17   11.80
  -7  -1  -4   22.60    2.60
   7   1   4   23.20    2.40
   8  -2  -4    2.60    1.60
   7  -2  -4    1.30    1.10
  -6   2   4    5.90    1.30
  -6   2   4    6.00    1.30
   5  -2  -4    3.90    0.90
  -5   2   4    3.10    0.80
  -5   2   4    4.20    0.90
   4  -2  -4  381.96   12.70
  -4   2   4  372.96   12.80
  -4   2   4  400.86   12.70
   3  -2  -4  210.58    7.00
  -3   2   4  194.58    7.00
  -3   2   4  216.98    7.00
   2  -2  -4   65.79    2.60
  -2   2   4   69.29    2.50
  -2   2   4   66.89    2.40
  -1   2   4  724.53   22.80
  -1   2   4  706.23   23.00
   0  -2  -4    1.30    0.40
   0   2   4    1.00    0.40
   0   2   4    0.70    0.20
  -1  -2  -4  164.08    5.60
  -1  -2  -4  164.78    5.60
   1   2   4  162.58    5.40
  -2  -2  -4  137.89    4.90
  -2  -2  -4  139.99    4.80
   2   2   4  135.69    4.70
  -3  -2  -4   44.90    2.10
  -3  -2  -4   48.60    2.10
   3   2   4   45.00    1.90
  -4  -2  -4    6.10    1.10
   4   2   4    5.50    0.90
  -5  -2  -4   17.20    1.80
   5   2   4   21.60    1.60
  -6  -2  -4  122.59    5.30
   6   2   4  124.59    5.00
  -7  -2  -4   17.00    2.50
   7   2   4   17.80    2.10
   8  -3  -4    1.40    1.40
   7  -3  -4   39.90    2.60
  -7   3   4   38.50    2.70
   6  -3  -4  257.87    8.90
  -6   3   4  249.68    8.90
   5  -3  -4   76.49    3.20
  -5   3   4   82.59    3.40
  -5   3   4   76.59    3.30
   4  -3  -4  572.44   18.60
  -4   3   4  580.14   18.60
  -4   3   4  552.94   18.60
   3  -3  -4   89.69    3.60
  -3   3   4  102.89    3.60
  -3   3   4  103.99    3.70
   2  -3  -4    5.70    0.80
  -2   3   4    4.00    0.50
  -2   3   4    4.30    0.70
   1  -3  -4  184.28    6.60
  -1   3   4  200.48    6.50
  -1   3   4  193.98    6.20
   0  -3  -4   25.30    1.40
   0   3   4   26.40    1.30
   0   3   4   27.30    0.90
  -1  -3  -4  106.79    3.90
   1   3   4  105.49    3.50
   1   3   4   99.99    3.80
  -2  -3  -4   71.89    3.00
  -2  -3  -4   74.99    3.00
   2   3   4   76.29    2.70
  -3  -3  -4   39.80    2.00
  -3  -3  -4   40.90    2.10
   3   3   4   39.10    1.80
  -4  -3  -4  130.79    5.20
  -4  -3  -4  136.29    5.00
   4   3   4  133.79    4.90
  -5  -3  -4   49.50    2.90
   5   3   4   52.19    2.60
  -6  -3  -4    6.70    1.80
  -7  -3  -4  105.69    5.30
   8  -4  -4  140.59    5.90
   7  -4  -4    2.00    1.30
  -7   4   4    2.20    1.50
   6  -4  -4  321.17   10.90
  -6   4   4  311.37   11.00
   5  -4  -4    0.60    0.90
   5  -4  -4    0.80    0.70
  -5   4   4    0.20    0.90
   4  -4  -4  112.99    4.30
   4  -4  -4  118.49    4.20
  -4   4   4  117.69    4.40
   3  -4  -4   14.70    1.20
   3  -4  -4   16.50    1.00
  -3   4   4   17.20    1.30
   2  -4  -4    9.00    1.00
   2  -4  -4   11.90    0.70
  -2   4   4   12.00    1.00
   1  -4  -4   37.40    1.90
  -1   4   4   41.10    1.80
   0  -4  -4    8.00    1.00
   0   4   4    8.90    1.00
  -1  -4  -4   43.40    2.00
   1   4   4   39.00    1.90
  -2  -4  -4    2.20    0.80
   2   4   4    3.00    0.90
  -3  -4  -4  243.08    8.70
  -3  -4  -4  257.57    8.70
  -4  -4  -4  151.38    5.70
  -4  -4  -4  153.08    5.80
  -5  -4  -4    1.70    1.40
  -6  -4  -4    4.50    2.00
  -7  -4  -4    3.60    2.40
   8  -5  -4   53.49    3.40
  -8   5   4   50.19    3.70
   7  -5  -4   38.50    2.60
  -7   5   4   41.30    3.00
   6  -5  -4    1.10    1.00
  -6   5   4    0.60    1.20
   5  -5  -4    6.50    1.00
   5  -5  -4    5.20    1.80
  -5   5   4    3.60    1.10
   4  -5  -4   22.30    1.70
   4  -5  -4   25.10    1.40
  -4   5   4   27.80    1.80
   3  -5  -4  104.69    3.60
   3  -5  -4  100.19    4.00
  -3   5   4  104.99    4.00
   2  -5  -4   17.00    1.30
  -2   5   4   17.70    1.50
   1  -5  -4  354.76   12.20
  -1   5   4  372.16   12.20
   0  -5  -4   36.90    2.00
   0   5   4   37.70    1.90
  -1  -5  -4   47.70    2.40
   1   5   4   42.70    2.10
  -2  -5  -4    8.10    1.20
   2   5   4   10.70    1.20
  -3  -5  -4   19.70    1.80
   3   5   4   17.80    1.70
  -4  -5  -4    6.50    1.40
   4   5   4    7.80    1.30
   5   5   4    1.20    1.50
   6   5   4    2.90    1.90
  -8   6   4    4.40    2.40
  -7   6   4    3.70    1.70
  -6   6   4    1.30    1.50
  -5   6   4    4.90    1.30
   4  -6  -4    1.00    1.00
  -4   6   4    0.60    1.20
   3  -6  -4    1.10    0.90
  -3   6   4    1.40    1.00
   2  -6  -4   37.30    2.10
  -2   6   4   36.50    2.10
   1  -6  -4    0.10    0.80
  -1   6   4    0.10    0.90
   0  -6  -4   63.69    3.00
   0   6   4   68.39    2.90
  -1  -6  -4   76.99    3.50
   1   6   4   70.29    3.10
  -2  -6  -4   12.60    1.50
   2   6   4   15.60    1.60
  -3  -6  -4    4.20    1.30
   3   6   4    6.20    1.20
  -4  -6  -4   47.10    3.10
   4   6   4   44.00    2.80
   5   6   4    0.40    1.80
   6   6   4   -0.20    2.00
  -7   7   4    0.30    2.00
  -6   7   4   49.90    3.30
  -5   7   4   11.60    1.80
   4  -7  -4    4.50    1.40
  -4   7   4    3.00    1.50
   3  -7  -4    8.70    1.40
  -3   7   4    7.20    1.40
   2  -7  -4  101.29    4.20
  -2   7   4   94.49    4.10
   1  -7  -4   23.80    2.10
  -1   7   4   27.70    1.90
   0  -7  -4   18.50    1.90
   0   7   4   20.60    1.80
  -1  -7  -4    1.00    1.20
   1   7   4    0.90    1.00
  -2  -7  -4   18.40    2.20
   2   7   4   21.90    1.90
  -3  -7  -4   13.00    1.80
   3   7   4   10.50    1.60
  -4  -7  -4    1.70    1.90
   4   7   4    3.00    1.50
   5   7   4    1.00    2.00
  -6   8   4   66.19    3.90
  -5   8   4    4.70    1.80
   4  -8  -4    5.90    1.50
  -4   8   4    4.10    1.60
   3  -8  -4    6.70    1.60
  -3   8   4    7.50    1.80
   2  -8  -4   94.19    4.40
  -2   8   4   97.59    4.30
   1  -8  -4   15.00    1.90
  -1   8   4   14.60    1.70
   0  -8  -4    8.00    1.60
   0   8   4    8.10    1.50
  -1  -8  -4    2.50    1.30
   1   8   4    1.30    1.40
  -2  -8  -4    4.30    1.70
   2   8   4    4.90    1.60
  -3  -8  -4    2.90    1.60
   3   8   4    4.10    1.80
  -4  -8  -4   30.30    3.30
   4   8   4   27.80    3.20
   4  -9  -4    6.90    1.90
  -4   9   4    3.50    2.20
   3  -9  -4  204.58    8.20
  -3   9   4  227.88    8.40
   2  -9  -4   19.00    2.30
  -2   9   4   22.10    2.40
   1  -9  -4    1.40    1.50
  -1   9   4    0.90    1.70
   0  -9  -4    3.80    1.60
   0   9   4    2.90    1.50
  -1  -9  -4   35.70    3.20
   1   9   4   41.20    3.00
  -2  -9  -4   17.10    2.50
   2   9   4   15.50    2.40
  -3  -9  -4   10.00    2.90
   3   9   4   12.00    2.30
  -4  10   4   30.60    3.40
   3 -10  -4   11.10    2.10
  -3  10   4   16.40    3.00
   2 -10  -4   86.39    4.80
  -2  10   4  101.09    5.10
   1 -10  -4    9.10    2.10
  -1  10   4   10.00    2.40
   0 -10  -4   15.60    2.60
   0  10   4   21.30    2.80
   1  10   4   -0.60    2.20
   1 -11   5   23.50    3.00
  -1 -10   5   27.80    3.20
   0 -10   5   14.50    2.30
   1 -10   5   11.20    2.00
  -3  10  -5    3.00    2.30
   3   9  -5   29.60    3.20
  -2  -9   5    0.50    1.70
  -1  -9   5    1.90    1.50
   0  -9   5    7.00    1.50
   1  -9   5   71.69    3.60
  -2   9  -5   64.49    3.60
  -3   9  -5    0.40    1.80
  -4   9  -5   21.00    2.50
  -5   9  -5   19.50    2.90
   4   8  -5    1.30    1.60
   3   8  -5    0.70    1.30
  -2  -8   5   47.40    3.10
  -1  -8   5   42.90    2.80
   0  -8   5   22.80    2.10
  -1   8  -5   12.30    1.70
   1  -8   5    8.20    1.40
  -2   8  -5    2.30    1.40
   2  -8   5    2.10    1.40
   2  -8   5    2.90    1.10
  -3   8  -5    2.30    1.30
   3  -8   5    4.90    1.30
  -4   8  -5   58.49    3.30
   4  -8   5   60.89    3.00
  -5   8  -5  119.79    5.60
   5  -8   5  128.49    5.20
  -6   8  -5    4.50    2.10
   6  -8   5    3.80    1.70
   5   7  -5    0.30    1.60
   4   7  -5    3.10    1.40
   3   7  -5    0.00    1.00
  -3  -7   5    0.80    1.50
  -2  -7   5   -0.10    0.90
  -2  -7   5    0.20    1.00
  -1  -7   5  186.38    6.60
  -1  -7   5  187.28    7.00
   0   7  -5    6.20    1.20
   0  -7   5    9.20    1.30
   0  -7   5    7.80    1.00
  -1   7  -5   49.30    2.50
   1  -7   5   50.09    2.30
   1  -7   5   46.60    2.50
  -2   7  -5  208.98    7.60
   2  -7   5  213.08    7.60
   2  -7   5  219.48    7.50
  -3   7  -5   19.50    2.00
   3  -7   5   18.90    1.50
  -4   7  -5   30.50    2.50
   4  -7   5   32.50    2.00
  -5   7  -5   38.50    2.70
   5  -7   5   36.70    2.30
  -6   7  -5   25.90    2.80
   6  -7   5   31.60    2.70
   6   6  -5    1.00    1.70
  -6  -6   5    3.00    2.00
   5   6  -5    4.30    1.50
  -5  -6   5    5.80    1.60
   4   6  -5    9.80    1.60
  -4  -6   5    6.90    1.30
   3   6  -5   41.20    2.50
  -3  -6   5   43.20    2.30
  -2  -6   5  249.97    8.70
  -2  -6   5  240.28    8.40
  -1  -6   5  755.82   24.60
  -1  -6   5  762.82   24.90
   0   6  -5   27.30    1.70
   0  -6   5   29.60    1.60
   0  -6   5   31.60    1.80
  -1   6  -5    5.10    1.00
   1  -6   5    5.60    0.90
   1  -6   5    6.50    1.00
  -2   6  -5  117.19    4.50
   2  -6   5  111.99    4.30
   2  -6   5  121.29    4.40
  -3   6  -5    0.70    1.00
   3  -6   5    0.50    0.70
  -4   6  -5    6.50    1.30
   4  -6   5    7.50    1.20
  -5   6  -5    1.50    1.40
   5  -6   5    1.60    1.10
  -6   6  -5    4.50    1.80
   6  -6   5    2.60    1.40
  -7   6  -5    3.60    2.20
   7  -6   5    5.20    1.80
  -7  -5   5   -0.20    2.10
   6   5  -5   14.30    2.00
  -6  -5   5   16.80    2.20
   5   5  -5    6.30    1.40
  -5  -5   5    8.60    1.50
   4   5  -5  146.89    5.80
  -4  -5   5  158.38    5.80
   3   5  -5   34.00    2.10
  -3  -5   5   31.40    1.90
   2   5  -5   90.69    3.60
  -2  -5   5   87.69    3.50
   1   5  -5    9.00    0.90
  -1  -5   5    9.40    1.10
  -1  -5   5    6.70    0.80
   0   5  -5   18.60    1.30
   0  -5   5   19.70    1.40
   0  -5   5   21.30    1.20
  -1   5  -5    0.00    0.70
   1  -5   5    0.10    0.60
   1  -5   5   -0.10    0.60
  -2   5  -5    6.90    0.80
  -2   5  -5    6.10    1.00
   2  -5   5    7.40    0.90
  -3   5  -5  416.16   13.90
   3  -5   5  415.26   13.80
  -4   5  -5  400.56   13.60
   4  -5   5  400.46   13.40
  -5   5  -5    3.70    1.40
   5  -5   5    3.80    1.00
  -6   5  -5    2.40    1.30
   6  -5   5    6.00    1.40
  -7   5  -5    3.50    1.90
   7  -5   5    5.20    1.60
  -7  -4   5    1.60    1.70
   6   4  -5   19.60    2.10
  -6  -4   5   19.20    2.20
   5   4  -5    1.00    1.10
  -5  -4   5    0.70    1.10
   4   4  -5  151.08    5.40
  -4  -4   5  133.79    5.30
   3   4  -5  154.38    5.70
  -3  -4   5  158.98    5.70
   2   4  -5   37.40    1.90
  -2  -4   5   36.10    1.80
   1   4  -5  238.68    7.70
   1   4  -5  235.58    8.00
  -1  -4   5  229.98    7.90
   0   4  -5  300.87    9.90
   0   4  -5  309.67   10.00
   0  -4   5  289.77    9.90
  -1   4  -5    0.10    0.50
  -1   4  -5    0.20    0.50
   1  -4   5    0.40    0.50
  -2   4  -5   11.60    0.90
  -2   4  -5    9.10    1.00
   2  -4   5   11.00    1.00
  -3   4  -5    7.00    1.10
   3  -4   5    7.80    1.00
  -4   4  -5    1.40    0.90
   4  -4   5    1.70    0.80
  -5   4  -5    4.10    1.30
   5  -4   5    6.20    1.10
  -6   4  -5  116.79    4.90
   6  -4   5  116.69    4.70
  -7   4  -5   34.40    3.40
   7  -4   5   39.70    2.80
  -7  -3   5    3.90    1.80
   6   3  -5    0.30    1.10
  -6  -3   5    0.30    1.30
   5   3  -5  167.58    6.00
  -5  -3   5  154.58    6.10
   4   3  -5    1.70    0.80
  -4  -3   5    1.60    0.90
   3   3  -5   80.19    3.20
  -3  -3   5   75.49    3.10
   2   3  -5   76.19    3.20
   2   3  -5   83.59    2.80
  -2  -3   5   92.09    3.20
   1   3  -5  200.38    6.40
   1   3  -5  191.28    6.70
  -1  -3   5  193.38    6.60
   0   3  -5  504.55   17.10
   0   3  -5  528.65   16.90
   0  -3   5  544.95   17.10
  -1   3  -5  379.96   12.00
  -1   3  -5  358.26   12.00
   1  -3   5  366.26   12.10
  -2   3  -5    2.10    0.70
  -2   3  -5    3.00    0.50
   2  -3   5    2.60    0.60
  -3   3  -5   43.00    2.10
   3  -3   5   46.10    2.00
  -4   3  -5  563.74   18.90
   4  -3   5  583.54   18.90
  -5   3  -5  155.18    5.90
   5  -3   5  155.88    5.80
  -6   3  -5    3.50    1.50
   6  -3   5    3.30    1.00
  -7   3  -5   29.40    3.00
   7  -3   5   28.60    2.50
  -8  -2   5   40.20    3.70
  -7  -2   5   15.10    2.10
   6   2  -5    2.10    1.20
  -6  -2   5    0.90    1.30
   5   2  -5   19.80    1.60
  -5  -2   5   22.50    1.90
   4   2  -5    4.50    0.90
  -4  -2   5    5.20    0.90
   3   2  -5   64.89    2.70
  -3  -2   5   66.19    2.70
   2   2  -5    9.90    0.90
  -2  -2   5    9.30    0.80
   1   2  -5  411.46   13.30
   1   2  -5  423.66   13.60
  -1  -2   5  413.06   13.60
   0   2  -5  606.84   20.10
   0   2  -5  623.54   19.90
   0  -2   5  636.34   20.10
  -1   2  -5  587.64   18.90
  -1   2  -5  590.34   18.90
   1  -2   5  583.24   19.00
  -2   2  -5  126.89    4.20
  -2   2  -5  126.49    4.50
   2  -2   5  122.59    4.40
  -3   2  -5   22.20    1.40
   3  -2   5   26.80    1.40
  -4   2  -5  294.97    9.80
   4  -2   5  271.37    9.60
  -5   2  -5   14.70    1.70
   5  -2   5   16.70    1.50
  -6   2  -5    0.70    1.50
   6  -2   5   -0.70    0.90
  -7   2  -5    4.10    1.70
   7  -2   5    4.30    1.50
  -8  -1   5    5.60    2.00
  -7  -1   5   32.00    2.80
   6   1  -5   -0.10    1.00
  -6  -1   5    0.10    1.10
   5   1  -5   65.39    2.90
  -5  -1   5   68.59    3.10
   4   1  -5  312.37   10.60
  -4  -1   5  313.27   10.70
  -4  -1   5  318.37   10.30
   3   1  -5   12.60    1.00
  -3  -1   5   13.70    1.10
  -3  -1   5   13.70    0.70
   2   1  -5  180.58    6.20
  -2  -1   5  182.98    6.20
   1   1  -5   20.90    1.10
  -1  -1   5   20.10    0.70
  -1  -1   5   18.60    1.00
   0   1  -5  125.19    4.10
   0   1  -5  119.19    4.00
   0  -1   5  115.19    4.10
  -1   1  -5  667.33   21.30
  -1   1  -5  672.83   21.40
   1  -1   5  652.23   21.40
  -2   1  -5  364.56   11.70
  -2   1  -5  356.76   11.90
   2  -1   5  363.46   11.90
  -3   1  -5  131.29    4.90
   3  -1   5  136.19    4.80
  -4   1  -5  177.88    6.40
   4  -1   5  174.38    6.20
   5  -1   5  240.38    8.40
  -6   1  -5  173.68    6.70
   6  -1   5  173.38    6.50
  -7   1  -5   22.10    2.60
   7  -1   5   28.10    2.40
  -8   0   5   46.60    3.40
  -7   0   5  142.49    5.90
   6   0  -5   24.80    1.90
  -6   0   5   22.00    2.00
   5   0  -5    4.60    0.90
  -5   0   5    3.40    0.90
   4   0  -5    0.40    0.60
  -4   0   5    0.60    0.60
  -4   0   5    0.50    0.60
   3   0  -5  120.69    4.60
  -3   0   5  126.29    4.70
  -3   0   5  143.59    4.40
   2   0  -5  552.94   18.20
  -2   0   5  561.44   18.10
  -2   0   5  568.04   17.90
   1   0  -5    7.90    0.70
  -1   0   5    7.70    0.50
  -1   0   5    7.80    0.70
   0   0  -5    0.10    0.30
   0   0  -5    0.50    0.30
   0   0   5    0.40    0.30
  -1   0  -5    3.60    0.50
  -1   0  -5    3.50    0.60
   1   0   5    3.90    0.50
  -2   0  -5    4.50    0.50
  -2   0  -5    3.80    0.70
   2   0   5    3.70    0.60
  -3   0  -5  445.96   13.90
  -3   0  -5  429.16   14.20
   3   0   5  411.96   14.10
  -4   0  -5    2.10    0.90
   4   0   5    1.80    0.70
  -5   0  -5   52.19    2.70
   5   0   5   54.29    2.60
  -6   0  -5    7.30    1.60
   6   0   5    8.20    1.20
  -7   0  -5    1.10    1.70
   7   0   5    0.20    1.40
   8  -1  -5   11.00    2.20
  -7   1   5    8.70    1.70
  -6   1   5   23.00    2.00
   5  -1  -5  229.28    7.80
  -5   1   5  214.28    7.70
  -5   1   5  234.28    8.00
   4  -1  -5   42.00    2.00
  -4   1   5   45.20    1.90
  -4   1   5   42.40    2.10
   3  -1  -5  732.43   23.70
  -3   1   5  726.23   23.70
  -3   1   5  741.53   23.60
   2  -1  -5    6.50    0.70
  -2   1   5    1.70    0.40
  -2   1   5    1.40    0.50
   1  -1  -5   11.00    0.90
  -1   1   5   11.40    0.70
  -1   1   5   11.60    0.70
   0  -1  -5  555.64   17.30
   0  -1  -5  534.45   17.40
   0   1   5  519.35   17.20
  -1  -1  -5   62.49    2.50
  -1  -1  -5   68.09    2.50
   1   1   5   65.49    2.30
  -2  -1  -5  430.06   14.30
  -2  -1  -5  438.76   14.20
   2   1   5  436.16   14.10
  -3  -1  -5  267.67    9.30
  -3  -1  -5  281.67    9.10
   3   1   5  273.47    9.20
  -4  -1  -5   10.50    1.30
   4   1   5   10.80    1.10
  -5  -1  -5   30.20    2.10
   5   1   5   29.90    1.90
  -6  -1  -5   73.09    3.70
   6   1   5   65.39    3.20
  -7  -1  -5   49.00    3.70
   7   1   5   52.29    3.10
   8  -2  -5    2.40    1.60
  -7   2   5    0.60    1.20
  -6   2   5  259.27    9.30
  -6   2   5  264.07    9.10
   5  -2  -5   93.09    3.80
  -5   2   5   96.19    3.90
  -5   2   5   99.19    3.70
   4  -2  -5   26.90    1.50
  -4   2   5   22.30    1.60
  -4   2   5   29.50    1.50
   3  -2  -5   94.69    3.60
  -3   2   5   97.89    3.50
  -3   2   5   95.69    3.50
   2  -2  -5   31.40    1.60
  -2   2   5   32.90    1.40
  -2   2   5   31.60    1.40
   1  -2  -5  249.08    8.40
  -1   2   5  251.87    8.30
  -1   2   5  251.97    8.20
   0  -2  -5   46.80    2.00
   0   2   5   48.70    1.70
   0   2   5   48.20    1.90
  -1  -2  -5  125.59    4.50
  -1  -2  -5  127.79    4.50
   1   2   5  125.69    4.20
  -2  -2  -5   14.20    1.10
  -2  -2  -5   13.00    1.10
   2   2   5   12.70    0.90
  -3  -2  -5  161.88    6.00
  -3  -2  -5  173.78    5.90
   3   2   5  162.98    5.70
  -4  -2  -5  385.96   13.00
   4   2   5  379.36   12.70
  -5  -2  -5   32.30    2.40
   5   2   5   34.30    2.00
  -6  -2  -5  149.79    6.30
   6   2   5  166.18    6.10
  -7  -2  -5   -1.00    1.90
   7   2   5   -0.30    1.60
   8  -3  -5    0.00    1.60
   7  -3  -5   22.30    2.20
  -6   3   5  159.98    5.90
  -6   3   5  142.49    5.60
   5  -3  -5  484.05   15.80
  -5   3   5  474.95   15.80
  -5   3   5  472.95   15.90
   4  -3  -5  118.69    4.40
  -4   3   5  117.39    4.40
  -4   3   5  122.09    4.40
   3  -3  -5   47.30    2.20
  -3   3   5   50.29    2.10
  -3   3   5   45.70    2.00
   2  -3  -5  587.14   19.20
  -2   3   5  600.74   18.90
  -2   3   5  577.24   19.10
   1  -3  -5  156.38    5.80
  -1   3   5  165.58    5.70
  -1   3   5  171.08    5.40
   0  -3  -5    0.50    0.50
   0   3   5    0.30    0.50
   0   3   5    0.50    0.30
  -1  -3  -5   16.40    1.20
   1   3   5   15.70    1.10
   1   3   5   15.00    0.80
  -2  -3  -5    0.20    0.70
  -2  -3  -5   -0.10    0.70
   2   3   5   -0.20    0.40
  -3  -3  -5   32.50    1.90
  -3  -3  -5   36.30    2.10
   3   3   5   33.30    1.60
  -4  -3  -5  443.06   15.20
   4   3   5  454.95   14.80
  -5  -3  -5   38.70    2.50
  -6  -3  -5   46.20    3.30
  -7  -3  -5   76.19    4.70
   8  -4  -5   27.20    2.80
   7  -4  -5   12.40    1.70
  -7   4   5   13.40    1.90
   6  -4  -5  127.79    5.00
  -6   4   5  130.29    5.10
   5  -4  -5  306.77   10.40
   5  -4  -5  305.47   10.30
  -5   4   5  295.67   10.40
   4  -4  -5   32.40    1.90
  -4   4   5   28.60    1.70
  -4   4   5   30.60    1.80
   3  -4  -5   16.10    1.30
  -3   4   5   15.30    1.10
  -3   4   5   16.40    1.30
   2  -4  -5    2.20    0.70
  -2   4   5    2.50    0.80
  -2   4   5    1.90    0.50
   1  -4  -5    1.70    0.70
  -1   4   5    2.60    0.70
   0  -4  -5  764.42   25.10
   0   4   5  777.62   25.00
  -1  -4  -5   26.50    1.60
   1   4   5   28.90    1.50
  -2  -4  -5  138.09    5.30
   2   4   5  145.79    5.20
  -3  -4  -5   34.40    2.10
  -3  -4  -5   33.30    2.00
  -4  -4  -5    5.50    1.30
  -4  -4  -5    3.90    1.20
  -5  -4  -5   82.89    3.90
  -6  -4  -5    9.00    2.20
   8  -5  -5  238.98    8.90
   7  -5  -5    2.70    1.30
  -7   5   5    2.50    1.50
   6  -5  -5    1.40    1.10
  -6   5   5    0.80    1.30
   5  -5  -5   26.30    1.90
   5  -5  -5   23.90    1.70
  -5   5   5   26.30    2.00
   4  -5  -5   84.79    3.30
   4  -5  -5   90.19    3.60
  -4   5   5   83.39    3.70
   3  -5  -5  195.38    7.10
  -3   5   5  204.98    7.10
   2  -5  -5   31.40    1.90
  -2   5   5   29.50    1.80
   1  -5  -5   71.29    3.10
  -1   5   5   75.79    3.10
   0  -5  -5  102.79    4.20
   0   5   5  108.99    4.10
  -1  -5  -5   29.40    2.00
   1   5   5   32.00    1.90
  -2  -5  -5  113.39    4.70
   2   5   5  117.79    4.50
  -3  -5  -5    7.20    1.30
   3   5   5   10.80    1.40
  -4  -5  -5    0.40    1.20
   4   5   5    1.00    1.10
   5   5   5    6.70    1.80
   6   5   5    8.50    2.40
  -8   6   5    6.60    2.40
  -7   6   5   20.30    2.50
  -6   6   5   24.50    2.30
   5  -6  -5    0.60    1.20
  -5   6   5    0.30    1.40
   4  -6  -5  250.27    9.20
  -4   6   5  273.07    9.30
   3  -6  -5  341.77   11.90
  -3   6   5  356.66   12.00
   2  -6  -5    6.40    1.20
  -2   6   5    6.60    1.20
   1  -6  -5    8.80    1.30
  -1   6   5    8.20    1.20
   0  -6  -5  102.99    4.30
   0   6   5  104.79    4.20
  -1  -6  -5   36.80    2.30
   1   6   5   41.70    2.30
  -2  -6  -5    7.50    1.40
   2   6   5   11.50    1.50
  -3  -6  -5    9.90    1.70
   3   6   5    8.40    1.40
  -4  -6  -5    1.20    1.30
   4   6   5    2.10    1.40
   5   6   5   77.89    4.30
  -7   7   5   12.40    2.30
  -6   7   5   12.10    2.10
  -5   7   5   55.39    3.20
   4  -7  -5   65.39    3.40
  -4   7   5   67.49    3.40
   3  -7  -5  151.68    6.00
  -3   7   5  160.98    6.10
   2  -7  -5   31.00    2.30
  -2   7   5   37.60    2.40
   1  -7  -5   16.10    1.80
  -1   7   5   12.20    1.50
   0  -7  -5   37.90    2.40
   0   7   5   37.70    2.40
  -1  -7  -5  154.68    6.30
   1   7   5  166.68    6.10
  -2  -7  -5    0.50    1.20
   2   7   5    0.10    1.10
  -3  -7  -5    2.20    1.40
   3   7   5    1.60    1.50
  -4  -7  -5    2.70    1.70
   4   7   5    1.80    1.60
  -6   8   5   -0.20    2.10
  -5   8   5    1.80    1.70
   4  -8  -5   -0.30    1.40
  -4   8   5    0.80    1.70
   3  -8  -5  227.18    8.50
  -3   8   5  233.08    8.60
   2  -8  -5   53.09    3.10
  -2   8   5   49.20    2.90
   1  -8  -5    1.10    1.20
  -1   8   5    2.90    1.30
   0  -8  -5   20.50    2.30
   0   8   5   21.30    2.20
  -1  -8  -5    3.70    1.40
   1   8   5    3.50    1.40
  -2  -8  -5   22.20    2.70
   2   8   5   24.80    2.30
  -3  -8  -5   -1.10    1.80
   3   8   5    0.30    1.80
  -4  -8  -5   10.70    2.70
   4   8   5   14.60    4.00
  -5   9   5    9.60    2.70
   4  -9  -5    0.30    1.70
  -4   9   5   -0.30    2.20
   3  -9  -5    0.90    1.60
  -3   9   5   -0.50    1.80
   2  -9  -5   21.50    2.30
  -2   9   5   20.20    2.50
   1  -9  -5  105.79    5.00
  -1   9   5   99.19    4.70
   0  -9  -5    0.70    1.40
   0   9   5    0.40    1.50
  -1  -9  -5   17.80    2.40
   1   9   5   21.60    2.60
  -2  -9  -5  144.89    6.70
   2   9   5  148.59    6.20
   4 -10  -5   13.30    2.70
   3 -10  -5   46.40    3.80
  -3  10   5   51.39    3.80
   2 -10  -5   32.00    3.30
  -2  10   5   34.50    3.30
   1 -10  -5   56.89    4.00
  -1  10   5   50.69    4.00
   0 -10  -5   32.00    3.20
   0  10   5   38.10    3.50
   1  10  -6    4.70    1.80
   0 -10   6   18.00    2.40
   1 -10   6    0.40    1.70
  -4  10  -6    9.10    2.80
   3   9  -6   20.70    2.60
   2   9  -6   -0.50    1.60
   0  -9   6    6.20    1.60
   1  -9   6  156.18    6.20
  -3   9  -6    3.80    1.80
  -4   9  -6    0.80    2.10
  -5   9  -6   13.60    2.90
   4   8  -6    0.80    1.80
   3   8  -6   26.10    2.50
   2   8  -6   27.80    2.30
   0  -8   6   16.00    1.60
   0  -8   6   12.80    1.70
   1  -8   6   40.30    2.30
   1  -8   6   41.90    2.60
  -2   8  -6   18.60    2.00
   2  -8   6   14.20    1.60
  -3   8  -6    1.10    1.40
   3  -8   6    0.40    1.20
  -4   8  -6   28.40    2.80
   4  -8   6   30.00    2.20
  -5   8  -6    1.10    1.90
   5  -8   6    0.60    1.50
   6  -8   6    3.70    1.90
   5   7  -6   28.00    3.00
   4   7  -6    7.70    1.60
  -4  -7   6    6.10    1.60
   3   7  -6    3.40    1.40
  -3  -7   6    2.90    1.30
   2   7  -6   19.60    2.00
  -2  -7   6   16.60    1.70
   1   7  -6  109.19    4.50
  -1  -7   6  108.09    4.20
   0  -7   6    6.20    1.10
   0  -7   6    2.90    1.00
  -1   7  -6   88.99    3.70
   1  -7   6   89.99    3.60
  -2   7  -6   89.59    4.00
   2  -7   6  100.89    3.90
  -3   7  -6  561.74   18.80
   3  -7   6  561.34   18.60
  -4   7  -6    6.30    1.60
   4  -7   6    6.80    1.30
  -5   7  -6   15.80    2.20
   5  -7   6   22.10    2.10
  -6   7  -6    0.00    2.10
   6  -7   6    0.90    1.60
   6   6  -6    0.00    1.80
  -6  -6   6    0.70    1.90
   5   6  -6   20.90    2.40
  -5  -6   6   22.00    2.40
   4   6  -6    3.40    1.20
  -4  -6   6    2.00    1.30
   3   6  -6  108.19    4.50
  -3  -6   6  102.89    4.20
   2   6  -6    4.50    1.20
  -2  -6   6    3.70    0.90
   1   6  -6   31.30    1.90
  -1  -6   6   31.50    1.80
   0   6  -6  163.88    5.70
   0   6  -6  162.48    5.90
   0  -6   6  156.58    5.70
  -1   6  -6  124.29    4.60
  -1   6  -6  120.99    4.60
   1  -6   6  128.29    4.60
  -2   6  -6    1.60    1.00
  -2   6  -6    1.50    0.80
   2  -6   6    0.90    0.70
  -3   6  -6    6.60    1.40
   3  -6   6    4.40    0.90
  -4   6  -6   14.30    1.80
   4  -6   6   14.00    1.50
  -5   6  -6   29.00    2.60
   5  -6   6   27.30    2.00
  -6   6  -6   10.30    2.10
   6  -6   6   11.10    1.80
  -7  -5   6    1.70    2.20
   6   5  -6   19.40    2.30
  -6  -5   6   21.00    2.40
   5   5  -6  127.39    5.20
  -5  -5   6  130.69    5.30
   4   5  -6   22.80    2.00
  -4  -5   6   22.50    1.80
   3   5  -6  449.66   14.70
  -3  -5   6  418.26   14.50
   2   5  -6   22.70    1.60
  -2  -5   6   20.40    1.50
   1   5  -6   21.40    1.50
  -1  -5   6   23.50    1.40
   0   5  -6    0.40    0.70
   0   5  -6    0.00    0.60
   0  -5   6    0.00    0.60
  -1   5  -6    8.70    1.10
  -1   5  -6    9.30    1.00
   1  -5   6    7.20    0.90
  -2   5  -6   49.99    2.10
  -2   5  -6   47.10    2.40
   2  -5   6   49.30    2.30
  -3   5  -6  395.16   13.30
   3  -5   6  397.76   13.30
  -4   5  -6  109.99    4.60
   4  -5   6  119.89    4.50
  -5   5  -6   24.30    2.10
   5  -5   6   21.30    1.80
   6  -5   6  112.09    4.80
  -7   5  -6    6.80    2.40
   7  -5   6    9.50    1.80
  -7  -4   6    1.70    1.90
   6   4  -6   42.00    2.70
  -6  -4   6   38.50    2.70
   5   4  -6   53.59    2.90
  -5  -4   6   55.39    2.90
   4   4  -6    1.50    1.00
  -4  -4   6    1.50    0.90
   3   4  -6   48.60    2.40
  -3  -4   6   50.69    2.30
   2   4  -6    2.50    0.70
  -2  -4   6    1.60    0.70
   1   4  -6   59.69    2.50
   1   4  -6   61.79    2.20
  -1  -4   6   60.29    2.50
   0   4  -6  133.09    4.40
   0   4  -6  130.09    4.60
   0  -4   6  118.19    4.50
  -1   4  -6  416.06   13.90
  -1   4  -6  427.46   13.90
   1  -4   6  429.86   14.00
  -2   4  -6   17.70    1.40
  -2   4  -6   17.50    1.10
   2  -4   6   19.10    1.20
  -3   4  -6    5.00    1.10
   3  -4   6    4.10    0.90
  -4   4  -6   -0.10    1.00
   4  -4   6   -0.50    0.70
  -5   4  -6   -0.30    1.10
   5  -4   6    0.20    0.90
  -6   4  -6   74.39    3.70
   6  -4   6   71.19    3.40
  -7   4  -6    8.40    2.30
   7  -4   6    6.90    1.70
  -7  -3   6   63.79    4.00
   6   3  -6   43.70    2.80
  -6  -3   6   48.50    3.00
   5   3  -6    0.10    1.00
  -5  -3   6    0.60    1.00
   4   3  -6  198.98    7.60
  -4  -3   6  235.98    7.80
   3   3  -6    3.60    0.80
  -3  -3   6    3.70    0.80
   2   3  -6   63.99    2.70
  -2  -3   6   61.99    2.60
   1   3  -6  243.68    7.80
   1   3  -6  237.58    8.10
  -1  -3   6  238.88    8.10
   0   3  -6   10.70    0.80
   0   3  -6   12.80    1.00
   0  -3   6   11.10    0.90
  -1   3  -6  222.98    7.50
  -1   3  -6  225.88    7.50
   1  -3   6  225.28    7.60
  -2   3  -6   79.09    2.80
  -2   3  -6   75.99    3.10
   2  -3   6   79.49    3.00
  -3   3  -6   98.19    3.90
   3  -3   6  106.79    3.90
  -4   3  -6   46.40    2.40
   4  -3   6   50.59    2.30
  -5   3  -6  203.18    7.40
   5  -3   6  199.68    7.30
  -6   3  -6    0.50    1.30
   6  -3   6   -0.20    1.00
  -7   3  -6   18.70    2.60
   7  -3   6   15.80    2.10
  -7  -2   6  136.99    5.90
   6   2  -6    3.80    1.30
  -6  -2   6    2.60    1.40
   5   2  -6    4.20    1.10
  -5  -2   6    5.00    1.10
   4   2  -6   15.20    1.40
  -4  -2   6   15.50    1.50
   3   2  -6   13.20    1.20
  -3  -2   6   12.80    1.20
   2   2  -6  179.78    6.30
  -2  -2   6  185.38    6.30
   1   2  -6  192.08    6.20
   1   2  -6  193.88    6.60
  -1  -2   6  196.18    6.60
   0   2  -6  177.98    5.90
   0   2  -6  173.78    5.80
   0  -2   6  171.38    5.90
  -1   2  -6  213.58    7.00
  -1   2  -6  208.28    7.00
   1  -2   6  208.68    7.10
  -2   2  -6  479.05   15.20
  -2   2  -6  472.25   15.40
   2  -2   6  459.55   15.40
  -3   2  -6   28.30    1.80
  -4   2  -6   -0.70    0.90
   4  -2   6    0.00    0.70
  -5   2  -6    0.40    1.20
   5  -2   6    0.20    0.90
  -6   2  -6    1.50    1.40
   6  -2   6    0.10    1.10
  -7   2  -6    6.90    2.20
   7  -2   6    4.80    1.50
  -8  -1   6    5.90    2.20
  -7  -1   6   28.80    2.80
   6   1  -6  143.89    5.70
  -6  -1   6  157.88    6.00
   5   1  -6    1.50    0.90
  -5  -1   6    2.10    1.00
   4   1  -6  263.47    9.00
  -4  -1   6  261.07    9.10
   3   1  -6  559.54   18.50
  -3  -1   6  574.24   18.50
   2   1  -6    1.00    0.50
  -2  -1   6    0.60    0.50
   1   1  -6  133.89    4.70
  -1  -1   6  137.19    4.70
   0   1  -6   54.09    2.10
   0   1  -6   53.59    2.00
   0  -1   6   51.49    2.10
  -1   1  -6   44.40    1.80
  -1   1  -6   45.30    1.80
   1  -1   6   41.30    1.80
  -2   1  -6   42.90    2.00
  -2   1  -6   48.20    1.80
   2  -1   6   46.20    2.00
  -3   1  -6   82.59    3.40
   3  -1   6   82.59    3.20
  -4   1  -6   56.49    2.70
   4  -1   6   56.09    2.50
  -5   1  -6  218.98    8.20
   5  -1   6  234.58    8.10
  -6   1  -6   54.79    3.30
   6  -1   6   57.39    3.00
  -7   1  -6   27.70    3.20
   7  -1   6   31.00    2.60
  -8   0   6   44.30    3.50
  -7   0   6   52.69    3.30
   6   0  -6  176.38    6.20
  -6   0   6  158.58    6.40
   5   0  -6   -0.30    0.80
  -5   0   6    0.90    0.80
   4   0  -6   13.10    1.30
  -4   0   6   13.10    1.30
  -4   0   6   16.20    1.40
   3   0  -6  279.37    9.60
  -3   0   6  298.37    9.30
  -3   0   6  281.67    9.60
   2   0  -6  117.79    4.30
  -2   0   6  117.89    4.30
  -2   0   6  127.79    4.00
   1   0  -6  272.07    9.00
  -1   0   6  278.07    8.80
  -1   0   6  260.27    8.90
   0   0  -6  684.53   22.30
   0   0  -6  689.23   22.20
   0   0   6  696.63   22.20
  -1   0  -6  633.94   20.70
  -1   0  -6  664.63   20.80
   1   0   6  633.14   20.70
  -2   0  -6  736.03   24.20
  -2   0  -6  767.82   24.10
   2   0   6  739.23   24.10
  -3   0  -6   34.90    1.80
  -3   0  -6   36.70    2.00
   3   0   6   35.30    1.70
  -4   0  -6    9.50    1.40
   4   0   6    7.80    1.00
  -5   0  -6   40.70    2.60
   5   0   6   43.30    2.30
  -6   0  -6   70.89    3.70
   6   0   6   76.19    3.40
  -7   0  -6    0.60    2.10
   7   0   6    2.40    1.60
  -8   1   6    6.10    2.20
  -7   1   6    4.10    1.50
   6  -1  -6  165.18    6.00
  -6   1   6  160.78    6.20
   5  -1  -6   17.90    1.50
  -5   1   6   18.90    1.60
   4  -1  -6   20.60    1.40
  -4   1   6   22.10    1.30
  -4   1   6   19.10    1.40
   3  -1  -6  243.08    8.10
  -3   1   6  233.88    8.10
  -3   1   6  238.88    7.90
   2  -1  -6  268.97    9.50
  -2   1   6  290.97    9.40
  -2   1   6  294.27    9.30
   1  -1  -6  655.33   22.00
  -1   1   6  691.83   21.80
  -1   1   6  688.53   21.80
   0  -1  -6  276.67    9.30
   0  -1  -6  278.27    9.20
   0   1   6  282.67    9.10
  -1  -1  -6  149.09    5.10
  -1  -1  -6  146.99    5.10
   1   1   6  146.29    5.00
  -2  -1  -6    7.00    0.90
  -2  -1  -6    6.80    0.80
   2   1   6    7.00    0.80
  -3  -1  -6    1.10    0.80
  -3  -1  -6    1.00    0.60
   3   1   6    1.00    0.60
  -4  -1  -6    0.40    0.90
   4   1   6   -0.90    0.70
  -5  -1  -6   64.99    3.40
   5   1   6   67.09    3.00
  -6  -1  -6   69.29    3.80
   6   1   6   70.09    3.30
  -7  -1  -6  113.69    5.60
   7   1   6  121.39    5.10
   8  -2  -6    7.10    2.00
  -7   2   6    1.60    1.30
   6  -2  -6   73.59    3.30
  -6   2   6   73.59    3.50
   5  -2  -6  269.27    9.20
  -5   2   6  261.17    9.30
  -5   2   6  270.07    9.10
   4  -2  -6   30.70    1.70
  -4   2   6   27.70    1.60
  -4   2   6   29.10    1.60
   3  -2  -6    1.20    0.70
  -3   2   6    0.90    0.60
  -3   2   6    0.70    0.60
   2  -2  -6   63.29    2.70
  -2   2   6   63.59    2.50
  -2   2   6   72.29    2.50
   1  -2  -6  768.12   25.30
  -1   2   6  799.82   25.20
  -1   2   6  781.92   25.20
   0  -2  -6  273.77    9.10
   0   2   6  279.57    9.00
   0   2   6  260.37    8.80
  -1  -2  -6  559.44   18.30
  -1  -2  -6  549.15   18.30
   1   2   6  575.74   18.10
  -2  -2  -6  186.78    6.50
  -2  -2  -6  181.48    6.50
   2   2   6  188.58    6.30
  -3  -2  -6   88.09    3.50
  -3  -2  -6   90.09    3.60
   3   2   6   90.19    3.40
  -4  -2  -6    5.60    1.30
   4   2   6    5.30    0.90
  -5  -2  -6   -0.20    1.30
   5   2   6   -0.30    0.90
  -6  -2  -6    4.40    1.80
   6   2   6    6.40    1.40
  -7  -2  -6   13.80    2.30
   8  -3  -6   10.10    2.00
  -7   3   6    8.00    1.60
  -6   3   6   16.40    1.70
  -6   3   6   19.40    1.80
   5  -3  -6   65.89    2.90
  -5   3   6   62.09    2.80
  -5   3   6   62.79    2.90
   4  -3  -6   29.70    1.80
  -4   3   6   30.90    1.70
  -4   3   6   27.90    1.70
   3  -3  -6    0.80    0.70
  -3   3   6    1.40    0.60
  -3   3   6    2.20    0.80
   2  -3  -6  476.25   15.80
  -2   3   6  472.75   15.60
  -2   3   6  484.75   15.50
   1  -3  -6    8.00    0.90
  -1   3   6    7.40    0.80
  -1   3   6    8.10    0.60
   0  -3  -6  206.98    7.40
   0   3   6  214.08    7.30
   0   3   6  222.88    7.00
  -1  -3  -6    6.80    1.00
   1   3   6    5.50    0.60
   1   3   6    4.40    0.80
  -2  -3  -6  200.28    7.10
  -2  -3  -6  202.08    7.10
  -3  -3  -6   76.69    3.20
  -3  -3  -6   74.79    3.20
   3   3   6   68.59    2.80
  -4  -3  -6   96.79    4.10
  -5  -3  -6    3.00    1.40
  -6  -3  -6    8.60    2.00
   8  -4  -6  114.89    5.30
   7  -4  -6  146.69    5.80
   6  -4  -6   16.40    1.80
  -6   4   6   15.00    1.80
   5  -4  -6  142.69    5.40
  -5   4   6  141.49    5.30
  -5   4   6  138.39    5.30
   4  -4  -6  230.48    7.80
  -4   4   6  208.18    7.60
  -4   4   6  217.78    7.60
   3  -4  -6    0.50    0.80
  -3   4   6    0.20    0.60
  -3   4   6    0.70    0.80
   2  -4  -6    1.60    0.80
  -2   4   6    0.60    0.50
  -2   4   6    0.40    0.70
   1  -4  -6  131.19    4.90
  -1   4   6  131.09    4.70
   0  -4  -6  149.88    5.50
   0   4   6  147.79    5.30
  -1  -4  -6  102.49    4.10
   1   4   6  103.69    3.90
  -2  -4  -6  528.15   17.90
   2   4   6  552.14   17.80
  -3  -4  -6  224.98    8.00
  -3  -4  -6  224.88    8.10
  -4  -4  -6   74.79    3.50
  -5  -4  -6    2.20    1.70
  -6  -4  -6   11.40    2.40
   8  -5  -6   55.79    3.70
   7  -5  -6    2.10    1.40
  -7   5   6    1.40    1.70
   6  -5  -6   32.30    2.20
  -6   5   6   29.10    2.30
   5  -5  -6   24.10    2.00
   5  -5  -6   25.70    2.10
  -5   5   6   25.30    2.10
   4  -5  -6  290.17   10.30
  -4   5   6  306.77   10.30
   3  -5  -6   28.70    1.90
  -3   5   6   28.10    1.90
   2  -5  -6  197.68    6.90
  -2   5   6  183.38    6.70
   1  -5  -6   52.59    2.60
  -1   5   6   51.19    2.50
   0  -5  -6    0.70    0.80
   0   5   6    0.60    0.80
  -1  -5  -6  362.86   12.40
   1   5   6  363.76   12.30
  -2  -5  -6   89.29    3.90
   2   5   6   87.39    3.70
  -3  -5  -6   80.99    3.70
   3   5   6   76.79    3.50
   4   5   6   11.20    1.70
   5   5   6   27.10    2.80
  -7   6   6   38.00    3.30
  -6   6   6   -0.30    1.50
   5  -6  -6    0.90    1.20
  -5   6   6    0.00    1.30
   4  -6  -6  255.87    9.00
  -4   6   6  246.88    9.00
   3  -6  -6   30.50    2.10
  -3   6   6   31.40    2.20
   2  -6  -6    9.30    1.30
  -2   6   6    7.10    1.20
   1  -6  -6   22.50    1.80
  -1   6   6   22.70    1.80
   0  -6  -6    2.00    1.00
   0   6   6    2.10    1.00
  -1  -6  -6  159.58    6.30
   1   6   6  165.28    6.10
  -2  -6  -6    0.70    1.20
   2   6   6    0.30    1.10
  -3  -6  -6    6.50    1.60
   3   6   6    5.80    1.30
   4   6   6   53.29    3.30
   5   6   6    0.30    2.20
  -7   7   6    4.70    2.20
  -6   7   6    4.20    1.90
   5  -7  -6    8.00    1.70
  -5   7   6    1.80    1.50
   4  -7  -6   43.80    2.80
  -4   7   6   43.10    2.80
   3  -7  -6  164.18    6.30
  -3   7   6  158.08    6.30
   2  -7  -6  159.98    6.20
  -2   7   6  161.58    6.20
   1  -7  -6    2.70    1.20
  -1   7   6    3.00    1.20
   0  -7  -6   84.79    4.00
   0   7   6   89.59    3.90
  -1  -7  -6    1.30    1.20
   1   7   6    2.10    1.20
  -2  -7  -6   42.50    3.00
   2   7   6   41.90    2.70
  -3  -7  -6    7.10    1.90
   3   7   6   10.70    1.90
  -4  -7  -6   61.99    4.40
   4   7   6   78.99    4.20
  -6   8   6   61.09    4.00
  -5   8   6   18.40    2.60
   4  -8  -6   13.20    2.00
  -4   8   6    8.90    1.90
   3  -8  -6   48.40    2.90
  -3   8   6   49.80    3.30
   2  -8  -6   18.50    2.20
  -2   8   6   16.30    2.00
   1  -8  -6   16.50    1.90
  -1   8   6   13.20    1.80
   0  -8  -6    0.20    1.40
   0   8   6   -0.70    1.40
  -1  -8  -6   44.10    3.20
   1   8   6   40.10    2.80
  -2  -8  -6   58.79    3.90
   2   8   6   61.69    3.60
  -3  -8  -6    9.30    2.20
   3   8   6    8.40    2.30
  -4  -8  -6    4.20    2.50
  -5   9   6    9.80    2.60
   4  -9  -6    6.50    2.00
  -4   9   6    8.50    2.50
   3  -9  -6   13.00    2.20
  -3   9   6   16.30    2.60
   2  -9  -6  175.78    7.30
  -2   9   6  177.28    7.20
   1  -9  -6   22.70    2.50
  -1   9   6   20.10    2.40
   0  -9  -6    6.40    1.90
   0   9   6    7.00    2.00
  -1  -9  -6    4.00    2.00
   1   9   6    6.40    2.20
  -2  -9  -6    0.10    2.00
   2   9   6   -0.50    2.00
   4 -10  -6    4.50    2.40
   3 -10  -6    4.40    2.10
  -3  10   6    5.30    2.80
   2 -10  -6   61.99    4.40
  -2  10   6   65.29    4.50
   1 -10  -6   17.00    2.50
  -1  10   6   21.40    3.00
   1  10  -7    8.10    2.30
   0  10  -7    0.40    1.80
   2   9  -7   -0.40    1.60
   1   9  -7    3.40    1.50
   0   9  -7   52.19    3.30
  -1   9  -7   25.20    2.40
  -4   9  -7    4.30    2.20
   4  -9   7    4.90    2.00
   5  -9   7   16.10    2.40
   4   8  -7   -0.20    1.90
   3   8  -7   30.80    2.70
   2   8  -7   10.10    1.70
   1   8  -7    9.00    1.50
  -1  -8   7    9.60    1.40
   0   8  -7   41.10    2.60
   0  -8   7   34.20    2.30
  -1   8  -7    1.90    1.30
   1  -8   7    1.30    1.00
   2  -8   7   19.90    2.00
  -3   8  -7   19.00    2.20
   3  -8   7   19.80    2.10
  -4   8  -7   20.40    2.40
   4  -8   7   23.30    2.20
  -5   8  -7   -0.50    2.10
   5  -8   7   -0.70    1.60
   5   7  -7    3.00    2.00
   4   7  -7    8.10    1.80
  -4  -7   7    6.80    1.70
   3   7  -7    9.00    1.60
  -3  -7   7    9.90    1.60
   2   7  -7   10.00    1.50
  -2  -7   7   10.70    1.40
   1   7  -7    0.50    1.10
  -1  -7   7    0.90    0.90
   0   7  -7    5.10    1.20
   0  -7   7    3.80    1.00
  -1   7  -7   46.60    2.50
   1  -7   7   43.50    2.30
  -2   7  -7  276.97    9.80
   2  -7   7  285.27    9.70
  -3   7  -7   24.90    2.20
   3  -7   7   30.50    2.00
  -4   7  -7   31.10    2.40
   4  -7   7   31.00    2.30
  -5   7  -7   14.00    2.30
   5  -7   7   13.70    1.90
  -6   7  -7    0.40    1.90
   6  -7   7    0.30    1.50
   6   6  -7   -0.40    1.90
  -6  -6   7    0.80    1.90
   5   6  -7    8.20    1.90
  -5  -6   7    6.50    1.70
   4   6  -7    2.40    1.20
  -4  -6   7    3.10    1.30
   3   6  -7  100.19    4.30
  -3  -6   7   94.89    4.00
   2   6  -7   26.00    2.00
  -2  -6   7   22.50    1.70
   1   6  -7  150.38    5.60
  -1  -6   7  147.49    5.40
   0   6  -7    3.00    0.90
   0  -6   7    2.60    0.80
  -1   6  -7  176.28    6.40
  -1   6  -7  185.48    6.40
   1  -6   7  175.58    6.40
  -2   6  -7   -0.30    1.00
   2  -6   7   -0.10    0.80
  -3   6  -7    0.60    1.10
   3  -6   7    0.20    0.90
  -4   6  -7    0.00    1.20
   4  -6   7    0.50    1.10
  -5   6  -7   33.40    2.60
   5  -6   7   38.40    2.40
  -6   6  -7   30.30    2.90
   6  -6   7   31.50    2.80
   7   5  -7    5.80    2.60
   6   5  -7   26.40    2.70
  -6  -5   7   22.50    2.60
   5   5  -7    4.20    1.50
  -5  -5   7    2.50    1.50
   4   5  -7   70.79    3.40
  -4  -5   7   78.09    3.50
   3   5  -7  385.16   13.40
  -3  -5   7  401.16   13.30
   2   5  -7   54.99    2.70
  -2  -5   7   56.89    2.60
   1   5  -7   91.49    3.70
  -1  -5   7   93.09    3.60
   0   5  -7   78.49    3.20
   0  -5   7   75.89    3.00
  -1   5  -7    2.80    0.90
  -1   5  -7    3.40    0.80
   1  -5   7    4.80    0.90
  -2   5  -7  196.68    6.90
  -2   5  -7  202.78    7.00
   2  -5   7  196.38    7.00
  -3   5  -7   12.80    1.50
   3  -5   7   11.30    1.30
  -4   5  -7   82.49    3.80
   4  -5   7   83.39    3.60
  -5   5  -7    0.90    1.20
   5  -5   7    2.00    1.20
  -6   5  -7  109.59    5.20
   6  -5   7  113.09    4.80
  -7  -4   7   23.50    2.80
   6   4  -7   20.40    2.40
  -6  -4   7   16.80    2.20
   5   4  -7  143.39    5.60
  -5  -4   7  140.49    5.70
   4   4  -7  138.89    5.40
  -4  -4   7  142.99    5.50
   3   4  -7    3.90    0.90
  -3  -4   7    5.30    1.00
   2   4  -7    8.20    1.00
  -2  -4   7    7.30    0.90
   1   4  -7   90.99    3.60
  -1  -4   7   90.79    3.50
   0   4  -7   16.40    1.10
   0   4  -7   18.20    1.30
   0  -4   7   17.40    1.30
  -1   4  -7   15.00    1.20
  -1   4  -7   18.10    1.20
   1  -4   7   17.10    1.30
  -2   4  -7    8.00    1.10
  -2   4  -7    9.90    1.00
   2  -4   7   10.50    1.20
  -3   4  -7    3.30    1.00
   3  -4   7    4.70    1.00
  -4   4  -7    8.30    1.40
   4  -4   7    4.80    1.00
  -5   4  -7   40.50    2.70
   5  -4   7   45.10    2.60
  -6   4  -7   38.20    2.80
   6  -4   7   36.30    2.50
  -7   4  -7    8.20    2.40
   7  -4   7    8.20    1.90
  -7  -3   7   51.19    3.60
   6   3  -7   17.20    2.00
  -6  -3   7   14.20    1.80
   5   3  -7  123.99    4.90
  -5  -3   7  114.29    4.80
   4   3  -7   13.80    1.40
  -4  -3   7   14.00    1.50
   3   3  -7   94.89    3.70
  -3  -3   7   85.69    3.60
   2   3  -7  114.19    4.20
  -2  -3   7  108.29    4.10
   1   3  -7  243.78    8.20
  -1  -3   7  236.48    8.10
   0   3  -7   22.60    1.10
   0   3  -7   23.80    1.30
   0  -3   7   23.10    1.40
  -1   3  -7   29.50    1.50
  -1   3  -7   31.70    1.50
   1  -3   7   31.00    1.60
  -2   3  -7    1.30    0.70
  -2   3  -7    1.80    0.50
   2  -3   7    1.50    0.70
  -3   3  -7   60.79    2.70
   3  -3   7   63.29    2.70
  -4   3  -7  400.86   13.70
   4  -3   7  406.36   13.60
  -5   3  -7   53.19    2.80
   5  -3   7   49.60    2.60
  -6   3  -7   26.00    2.70
   6  -3   7   25.80    2.30
  -7   3  -7   17.80    2.70
   7  -3   7   21.50    2.30
  -7  -2   7   10.50    2.10
   6   2  -7   26.90    2.20
  -6  -2   7   28.50    2.50
   5   2  -7    4.10    1.20
  -5  -2   7    4.80    1.20
   4   2  -7   -0.60    0.70
  -4  -2   7    0.40    0.90
   3   2  -7  407.06   13.40
  -3  -2   7  397.56   13.40
   2   2  -7   21.00    1.40
  -2  -2   7   20.20    1.30
   1   2  -7  391.56   13.20
   1   2  -7  410.36   12.80
  -1  -2   7  396.06   13.20
   0   2  -7   40.40    1.80
   0   2  -7   40.50    1.60
   0  -2   7   37.90    1.70
  -1   2  -7   72.89    2.70
  -1   2  -7   71.29    2.70
   1  -2   7   66.89    2.70
  -2   2  -7  130.69    4.40
  -2   2  -7  129.09    4.70
   2  -2   7  123.69    4.60
  -3   2  -7    9.10    1.10
   3  -2   7    9.00    1.00
  -4   2  -7   54.99    2.80
   4  -2   7   57.89    2.70
  -5   2  -7    0.10    1.30
   5  -2   7    0.50    0.90
  -6   2  -7   -0.90    1.40
   6  -2   7   -0.30    1.20
  -7   2  -7   35.30    3.20
   7  -2   7   39.10    3.00
  -8  -1   7    1.20    2.30
  -7  -1   7   66.89    3.90
   6   1  -7   33.50    2.30
  -6  -1   7   32.00    2.50
   5   1  -7    2.30    1.00
  -5  -1   7    3.40    1.10
   4   1  -7   14.30    1.40
  -4  -1   7   15.50    1.40
   3   1  -7   25.50    1.50
  -3  -1   7   24.70    1.50
   2   1  -7  231.38    7.90
  -2  -1   7  230.68    7.80
   1   1  -7  296.67   10.10
  -1  -1   7  308.87   10.00
   0   1  -7  333.27   10.70
   0   1  -7  325.47   10.90
   0  -1   7  330.47   10.90
  -1   1  -7   28.30    1.40
  -1   1  -7   29.80    1.40
   1  -1   7   30.90    1.50
  -2   1  -7   38.20    1.60
  -2   1  -7   35.40    1.80
   2  -1   7   33.90    1.70
  -3   1  -7    9.40    1.20
   3  -1   7    7.30    1.00
  -4   1  -7   34.70    2.10
   4  -1   7   36.40    2.00
  -5   1  -7    5.50    1.40
   5  -1   7    3.80    1.10
  -6   1  -7   34.80    2.90
   6  -1   7   33.30    2.40
  -7   1  -7   40.20    3.60
   7  -1   7   39.30    3.00
  -8   0   7    7.40    2.10
  -7   0   7   35.80    2.70
   6   0  -7  143.69    5.50
  -6   0   7  139.59    5.70
   5   0  -7   39.70    2.30
  -5   0   7   44.20    2.40
   4   0  -7    0.70    0.80
  -4   0   7    0.40    0.70
   3   0  -7    1.60    0.70
  -3   0   7    1.60    0.40
  -3   0   7    1.20    0.60
   2   0  -7  338.57   11.30
  -2   0   7  327.47   11.20
  -2   0   7  354.36   11.00
   1   0  -7  183.78    6.40
  -1   0   7  190.28    6.10
  -1   0   7  186.18    6.30
   0   0  -7   28.70    1.40
   0   0  -7   26.10    1.30
   0   0   7   25.90    1.30
  -1   0  -7   81.99    3.10
  -1   0  -7   87.29    3.10
   1   0   7   84.49    3.10
  -2   0  -7    0.10    0.70
  -2   0  -7    0.50    0.50
   2   0   7    0.20    0.50
  -3   0  -7   -0.10    0.80
   3   0   7    1.20    0.70
  -4   0  -7   13.80    1.60
   4   0   7   12.80    1.40
  -5   0  -7  152.98    6.00
   5   0   7  158.08    5.80
  -6   0  -7    6.60    1.70
   6   0   7    6.10    1.40
  -7   0  -7   48.10    3.90
   7   0   7   44.50    3.20
  -8   1   7    1.80    2.10
  -7   1   7   17.40    2.10
   6  -1  -7   96.29    4.00
  -6   1   7   92.89    4.20
   5  -1  -7  143.89    5.40
  -5   1   7  142.49    5.40
   4  -1  -7   -0.20    0.70
  -4   1   7   -0.10    0.70
  -4   1   7    0.00    0.80
   3  -1  -7   36.80    1.90
  -3   1   7   34.60    1.80
  -3   1   7   40.40    1.60
   2  -1  -7  303.17   10.40
  -2   1   7  307.97   10.20
  -2   1   7  314.97   10.10
   1  -1  -7   54.29    2.30
  -1   1   7   56.69    2.20
  -1   1   7   58.29    2.10
   0  -1  -7   19.50    1.20
   0  -1  -7   17.30    1.10
   0   1   7   19.10    1.00
  -1  -1  -7    1.40    0.60
  -1  -1  -7    2.20    0.70
   1   1   7    1.50    0.50
  -2  -1  -7   19.80    1.30
  -2  -1  -7   15.20    1.30
   2   1   7   19.60    1.20
  -3  -1  -7   17.00    1.50
   3   1   7   15.10    1.20
  -4  -1  -7  117.19    4.70
   4   1   7  118.99    4.50
  -5  -1  -7   -0.90    1.20
   5   1   7    0.00    1.00
  -6  -1  -7   83.89    4.10
   6   1   7   80.99    3.70
   7   1   7    0.40    1.80
  -8   2   7    7.90    2.10
  -7   2   7   15.50    2.00
   6  -2  -7   43.60    2.50
  -6   2   7   45.50    2.70
   5  -2  -7   98.69    4.00
  -5   2   7   98.59    4.00
   4  -2  -7    4.60    0.90
  -4   2   7    5.80    0.90
  -4   2   7    4.10    0.90
   3  -2  -7  194.28    6.70
  -3   2   7  194.78    6.50
  -3   2   7  183.28    6.60
   2  -2  -7  410.56   13.90
  -2   2   7  419.16   13.60
  -2   2   7  424.16   13.60
   1  -2  -7    0.90    0.60
  -1   2   7    0.50    0.40
  -1   2   7    0.60    0.50
   0  -2  -7   98.29    3.80
   0   2   7  101.09    3.50
   0   2   7  101.79    3.60
  -1  -2  -7    0.00    0.60
  -1  -2  -7    0.40    0.60
   1   2   7    0.40    0.50
  -2  -2  -7  170.58    6.10
  -2  -2  -7  178.38    6.20
   2   2   7  168.28    5.90
  -3  -2  -7   17.60    1.50
  -3  -2  -7   15.90    1.40
   3   2   7   15.30    1.20
  -4  -2  -7   19.10    1.90
   4   2   7   19.00    1.50
  -5  -2  -7   33.90    2.70
   5   2   7   36.90    2.20
  -6  -2  -7   52.09    3.50
   8  -3  -7    3.70    2.00
  -7   3   7    0.90    1.50
   6  -3  -7    2.10    1.20
  -6   3   7    2.00    1.30
   5  -3  -7   68.79    3.30
  -5   3   7   75.89    3.30
  -5   3   7   77.09    3.20
   4  -3  -7   38.00    2.10
  -4   3   7   40.30    2.00
  -4   3   7   40.80    2.10
   3  -3  -7  116.09    4.20
  -3   3   7  107.09    4.00
  -3   3   7  105.69    4.00
  -2   3   7  178.38    6.20
  -2   3   7  178.58    6.00
   1  -3  -7  398.76   13.40
  -1   3   7  401.96   13.30
  -1   3   7  408.16   13.00
   0  -3  -7  103.29    4.00
   0   3   7  101.19    3.80
   0   3   7  107.29    3.60
  -1  -3  -7   17.20    1.40
   1   3   7   18.30    1.00
   1   3   7   18.70    1.30
  -2  -3  -7   13.00    1.30
  -2  -3  -7   11.60    1.40
  -3  -3  -7    4.60    1.10
  -3  -3  -7    4.30    1.10
  -4  -3  -7   26.70    2.10
  -5  -3  -7   58.19    3.30
  -6  -3  -7    4.20    2.20
   8  -4  -7    0.30    1.70
   7  -4  -7   12.00    1.90
  -6   4   7   17.30    1.90
  -6   4   7   15.70    1.80
   5  -4  -7   40.80    2.40
  -5   4   7   36.60    2.20
  -5   4   7   32.20    2.20
   4  -4  -7  208.88    7.20
  -4   4   7  194.88    6.90
  -4   4   7  188.18    7.00
   3  -4  -7   27.90    1.90
  -3   4   7   28.60    1.60
  -3   4   7   32.70    1.80
   2  -4  -7   62.99    2.80
  -2   4   7   62.59    2.70
   1  -4  -7  137.29    5.10
  -1   4   7  137.19    5.00
   0  -4  -7   21.60    1.50
   0   4   7   15.90    1.30
  -1  -4  -7   51.99    2.50
   1   4   7   46.60    2.30
  -2  -4  -7  140.09    5.30
   2   4   7  135.19    5.10
  -3  -4  -7   42.40    2.50
  -3  -4  -7   33.80    2.40
  -4  -4  -7    2.10    1.50
  -5  -4  -7    1.90    1.70
  -6   5   7    2.00    1.50
   5  -5  -7   27.00    2.20
  -5   5   7   29.40    2.30
   4  -5  -7   40.70    2.40
  -4   5   7   39.80    2.40
   3  -5  -7   14.60    1.40
  -3   5   7   14.40    1.60
   2  -5  -7    9.20    1.20
  -2   5   7    5.20    1.00
   1  -5  -7   40.20    2.20
  -1   5   7   36.00    2.10
   0  -5  -7  448.36   15.00
   0   5   7  441.46   14.80
  -1  -5  -7    2.80    1.10
   1   5   7    2.70    0.90
  -2  -5  -7   13.40    1.60
   2   5   7   11.40    1.50
  -3  -5  -7    1.60    1.30
   3   5   7    1.90    1.30
   4   5   7   20.40    2.10
   5   5   7   10.40    2.00
  -7   6   7    1.00    2.10
  -6   6   7   10.50    1.80
   5  -6  -7   13.40    1.80
  -5   6   7   10.40    1.80
   4  -6  -7    4.70    1.40
  -4   6   7    4.20    1.40
   3  -6  -7   53.99    2.90
  -3   6   7   51.59    2.90
   2  -6  -7   16.40    1.80
  -2   6   7   18.60    1.80
   1  -6  -7  150.38    6.00
  -1   6   7  156.18    5.80
   0  -6  -7  255.27    9.20
   0   6   7  254.07    9.00
  -1  -6  -7   21.40    2.00
   1   6   7   22.50    2.00
  -2  -6  -7    4.10    1.30
   2   6   7    6.10    1.30
  -3  -6  -7   22.40    2.40
   3   6   7   21.60    2.10
   4   6   7    5.50    1.80
  -7   7   7    0.70    2.10
  -6   7   7    3.10    2.10
   5  -7  -7   36.20    2.80
  -5   7   7   34.60    2.90
   4  -7  -7    0.20    1.30
  -4   7   7    0.20    1.60
   3  -7  -7   10.50    1.70
  -3   7   7    7.90    1.50
   2  -7  -7   37.20    2.70
  -2   7   7   43.60    2.70
   1  -7  -7   54.49    3.00
  -1   7   7   51.19    2.90
   0  -7  -7    5.70    1.50
   0   7   7    5.70    1.40
  -1  -7  -7   17.60    2.10
   1   7   7   15.40    1.80
  -2  -7  -7    4.90    1.50
   2   7   7    2.80    1.50
  -3  -7  -7   25.60    2.90
   3   7   7   27.30    2.80
   4   7   7   13.60    3.70
  -6   8   7    3.00    2.20
   5  -8  -7    0.10    1.80
  -5   8   7    2.20    2.20
   4  -8  -7    9.30    2.00
  -4   8   7    7.40    2.00
   3  -8  -7   12.30    2.00
  -3   8   7   14.10    2.20
   2  -8  -7  108.79    5.00
  -2   8   7  111.89    4.90
   1  -8  -7   23.80    2.50
  -1   8   7   22.60    2.50
   0  -8  -7    2.70    1.70
   0   8   7    2.60    1.50
  -1  -8  -7    0.60    1.60
   1   8   7    1.80    1.50
  -2  -8  -7   27.90    3.10
   2   8   7   28.70    2.90
  -3  -8  -7    3.70    2.10
  -5   9   7    3.70    2.60
   4  -9  -7   25.10    2.90
  -4   9   7   26.40    3.20
   3  -9  -7   42.20    3.40
  -3   9   7   39.50    3.60
   2  -9  -7   19.40    2.50
  -2   9   7   15.00    2.30
   1  -9  -7    1.40    1.70
  -1   9   7    0.20    1.70
   0  -9  -7   17.80    2.50
   0   9   7   23.10    2.70
  -1  -9  -7    1.10    1.80
   1   9   7    0.40    1.90
   4 -10  -7   13.30    4.70
   3 -10  -7   -0.30    3.80
   0  10  -8    8.70    2.10
   2   9  -8   -0.80    1.80
   1   9  -8    4.50    1.70
   0   9  -8    0.80    1.60
   2  -9   8    5.80    2.40
   3  -9   8    1.10    1.70
   4  -9   8   -1.10    1.90
   3   8  -8    0.90    1.70
   2   8  -8   13.60    2.00
  -2  -8   8   10.40    1.60
   1   8  -8   28.10    2.50
  -1  -8   8   26.30    2.20
   0   8  -8   -0.80    1.20
   0  -8   8    0.70    1.20
  -1   8  -8   56.99    3.00
   1  -8   8   50.19    2.80
   2  -8   8    2.00    1.30
  -3   8  -8    3.70    2.80
   3  -8   8    4.60    1.60
  -4   8  -8   88.09    4.60
   4  -8   8   94.89    4.30
  -5   8  -8   19.40    2.90
   5  -8   8   22.60    2.50
   5   7  -8   17.00    2.90
  -5  -7   8   17.10    2.50
   4   7  -8   20.00    2.40
  -4  -7   8   21.00    2.30
   3   7  -8    9.70    1.80
  -3  -7   8   12.50    1.60
   2   7  -8   43.70    2.80
  -2  -7   8   45.80    2.50
   1   7  -8    4.90    1.30
  -1  -7   8    6.10    1.20
   0   7  -8   15.70    1.80
   0  -7   8   20.20    1.60
  -1   7  -8    5.80    1.20
   1  -7   8    7.20    1.30
   2  -7   8   16.00    1.80
  -3   7  -8    0.60    1.30
   3  -7   8    1.90    1.10
  -4   7  -8   72.69    3.90
   4  -7   8   74.59    3.70
  -5   7  -8   24.70    2.70
   5  -7   8   23.20    2.60
  -6  -6   8    6.70    2.00
   5   6  -8   -0.50    1.40
  -5  -6   8    0.10    1.60
   4   6  -8    2.50    1.30
  -4  -6   8    3.10    1.30
   3   6  -8   -0.10    1.10
  -3  -6   8    0.00    1.00
   2   6  -8   55.29    2.80
  -2  -6   8   48.80    2.60
   1   6  -8    3.20    1.10
  -1  -6   8    2.30    0.90
   0   6  -8    0.10    0.90
   0  -6   8    0.30    0.70
  -1   6  -8    0.50    0.90
   1  -6   8   -0.60    0.90
  -2   6  -8   -0.10    1.00
   2  -6   8   -0.20    1.00
  -3   6  -8   88.79    4.00
   3  -6   8   91.79    3.90
  -4   6  -8   51.39    3.00
   4  -6   8   48.80    2.70
  -5   6  -8   25.80    2.70
   5  -6   8   32.60    2.50
  -6   6  -8   22.80    2.90
   6  -6   8   25.60    2.50
   6   5  -8    6.50    1.90
  -6  -5   8    7.40    2.00
   5   5  -8   64.89    3.40
  -5  -5   8   63.59    3.50
   4   5  -8   58.29    3.10
  -4  -5   8   54.19    3.00
   3   5  -8    4.30    1.20
  -3  -5   8    5.70    1.10
   2   5  -8    2.80    1.00
  -2  -5   8    3.50    1.00
   1   5  -8  186.48    6.60
  -1  -5   8  179.78    6.50
   0   5  -8    2.40    0.80
   0  -5   8    2.90    0.80
  -1   5  -8    4.10    1.00
  -1   5  -8    4.20    0.90
   1  -5   8    3.60    1.00
  -2   5  -8   15.00    1.60
   2  -5   8   16.30    1.40
  -3   5  -8   27.10    2.00
   3  -5   8   27.40    1.80
  -4   5  -8   16.40    1.80
   4  -5   8   16.30    1.60
  -5   5  -8   10.30    1.70
   5  -5   8    8.70    1.60
  -6   5  -8  101.79    5.00
   6  -5   8   92.29    4.50
   7   4  -8    3.60    2.20
  -7  -4   8    3.90    2.20
   6   4  -8   11.80    2.00
  -6  -4   8    9.80    2.00
   5   4  -8  362.96   12.70
  -5  -4   8  368.06   12.80
   4   4  -8    5.10    1.20
  -4  -4   8    5.30    1.30
   3   4  -8   27.10    1.90
  -3  -4   8   29.70    1.90
   2   4  -8   51.39    2.50
  -2  -4   8   49.60    2.30
   1   4  -8   14.80    1.30
  -1  -4   8   13.60    1.20
   0   4  -8  121.29    4.50
   0  -4   8  117.99    4.40
  -1   4  -8  257.87    8.90
  -1   4  -8  267.27    8.90
   1  -4   8  269.77    9.10
  -2   4  -8   47.00    2.30
   2  -4   8   47.00    2.20
  -3   4  -8   87.39    3.50
   3  -4   8   76.29    3.40
  -4   4  -8  306.97   10.80
   4  -4   8  311.37   10.70
  -5   4  -8    1.60    1.40
   5  -4   8    1.50    1.20
  -6   4  -8  192.48    7.60
   6  -4   8  199.68    7.50
   7   3  -8  102.49    5.10
  -7  -3   8  125.49    5.70
   6   3  -8   66.79    3.50
  -6  -3   8   61.59    3.50
   5   3  -8   55.19    2.90
  -5  -3   8   51.99    2.90
   4   3  -8    7.40    1.30
  -4  -3   8    8.00    1.20
   3   3  -8   52.09    2.50
  -3  -3   8   48.30    2.30
   2   3  -8  180.18    6.40
  -2  -3   8  173.28    6.20
   1   3  -8   90.09    3.50
  -1  -3   8   86.99    3.40
   0   3  -8    9.60    1.10
   0   3  -8    8.90    0.90
   0  -3   8   10.50    1.00
  -1   3  -8   80.79    3.10
  -1   3  -8   83.89    3.10
   1  -3   8   74.99    3.10
  -2   3  -8    4.00    0.70
  -2   3  -8    2.90    0.90
   2  -3   8    3.60    0.80
  -3   3  -8   11.00    1.30
   3  -3   8   11.20    1.20
  -4   3  -8  159.28    6.00
   4  -3   8  156.08    5.80
  -5   3  -8    1.20    1.50
   5  -3   8    0.30    1.00
  -6   3  -8    7.50    1.90
   6  -3   8    2.40    1.50
   7   2  -8  148.79    6.20
  -7  -2   8  151.18    6.40
   6   2  -8    0.60    1.20
  -6  -2   8    1.10    1.40
   5   2  -8    1.10    1.10
  -5  -2   8    1.40    1.10
   4   2  -8   85.79    3.70
  -4  -2   8   91.79    3.80
   3   2  -8   33.50    1.90
  -3  -2   8   32.60    1.80
   2   2  -8    9.20    1.00
  -2  -2   8    9.80    1.00
   1   2  -8   14.90    1.10
  -1  -2   8   11.90    1.00
   0   2  -8  208.48    7.00
   0   2  -8  215.78    7.20
   0  -2   8  209.88    7.20
  -1   2  -8   11.20    1.00
  -1   2  -8   10.90    1.00
   1  -2   8   11.90    1.10
  -2   2  -8    1.60    0.80
  -2   2  -8    2.60    0.60
   2  -2   8    2.40    0.70
   3  -2   8   45.00    2.20
  -4   2  -8    0.60    1.20
   4  -2   8    0.00    0.80
  -5   2  -8  106.69    4.70
  -6   2  -8  114.19    5.30
   6  -2   8  126.29    5.10
   7  -2   8   14.00    2.10
  -7  -1   8   35.40    3.20
   6   1  -8   32.80    2.40
  -6  -1   8   29.10    2.40
   5   1  -8   91.39    3.90
  -5  -1   8   88.79    3.90
   4   1  -8    9.60    1.30
  -4  -1   8    8.30    1.10
   3   1  -8  200.18    7.10
  -3  -1   8  205.88    7.10
   2   1  -8  232.48    7.90
  -2  -1   8  226.48    7.80
   1   1  -8  170.38    5.90
  -1  -1   8  170.48    5.50
  -1  -1   8  156.68    5.70
   0   1  -8    0.70    0.60
   0   1  -8    0.40    0.50
   0  -1   8    0.30    0.50
  -1   1  -8   14.50    1.10
  -1   1  -8   14.80    1.10
   1  -1   8   13.40    1.10
  -2   1  -8    4.50    0.70
  -2   1  -8    3.70    0.80
   2  -1   8    3.90    0.80
  -3   1  -8    1.80    1.00
   3  -1   8    1.70    0.70
  -4   1  -8   15.60    1.70
   4  -1   8   14.20    1.50
  -5   1  -8   12.70    1.80
   5  -1   8   10.90    1.40
  -6   1  -8   13.80    2.10
   6  -1   8   15.80    1.80
   7  -1   8    0.60    1.60
  -8   0   8    2.10    2.40
  -7   0   8    9.80    2.10
   6   0  -8    9.80    1.50
  -6   0   8    6.40    1.40
   5   0  -8   31.10    2.00
  -5   0   8   36.30    2.20
   4   0  -8   20.60    1.50
  -4   0   8   16.30    1.40
   3   0  -8  178.38    6.20
  -3   0   8  164.68    6.10
   2   0  -8   57.79    2.50
  -2   0   8   55.99    2.00
  -2   0   8   48.50    2.20
   1   0  -8   27.60    1.50
  -1   0   8   25.80    1.40
  -1   0   8   29.30    1.20
   0   0  -8   41.60    1.80
   0   0  -8   42.50    1.90
   0   0   8   42.60    1.80
  -1   0  -8   27.10    1.50
  -1   0  -8   30.20    1.50
   1   0   8   28.00    1.50
  -2   0  -8    9.70    1.10
  -2   0  -8    9.60    1.20
   2   0   8    9.10    1.00
  -3   0  -8  220.78    7.70
   3   0   8  212.18    7.50
  -4   0  -8   35.60    2.30
   4   0   8   32.80    2.00
  -5   0  -8    2.40    1.50
   5   0   8    0.50    1.10
  -6   0  -8   31.00    2.80
   6   0   8   31.60    2.50
   7   0   8   -0.50    1.60
  -8   1   8    2.90    1.90
  -7   1   8   14.90    2.10
   6  -1  -8   12.40    1.60
  -6   1   8    9.20    1.60
   5  -1  -8  115.59    4.60
  -5   1   8  110.59    4.60
   4  -1  -8   45.90    2.40
  -4   1   8   49.90    2.40
   3  -1  -8   -0.10    0.70
  -3   1   8    1.30    0.60
  -3   1   8    0.40    0.70
   2  -1  -8   26.10    1.60
  -2   1   8   26.50    1.40
  -2   1   8   26.80    1.30
   1  -1  -8   96.59    3.70
  -1   1   8  101.09    3.50
  -1   1   8   96.59    3.60
   0  -1  -8  488.65   16.00
   0  -1  -8  497.65   16.10
   0   1   8  486.95   15.90
  -1  -1  -8  143.69    5.10
  -1  -1  -8  136.99    5.00
   1   1   8  141.89    4.90
  -2  -1  -8   24.30    1.50
  -2  -1  -8   22.40    1.60
   2   1   8   21.40    1.30
  -3  -1  -8   28.10    1.90
   3   1   8   27.80    1.60
  -4  -1  -8   10.40    1.50
   4   1   8   12.70    1.40
  -5  -1  -8   12.60    1.80
   5   1   8   17.50    1.80
  -6  -1  -8   34.80    3.20
   6   1   8   32.00    2.50
  -8   2   8    3.50    2.30
  -7   2   8   32.00    2.80
   6  -2  -8    0.30    1.20
  -6   2   8    0.70    1.20
   5  -2  -8   14.20    1.60
  -5   2   8    9.20    1.30
   4  -2  -8   32.70    2.00
  -4   2   8   29.70    1.90
  -4   2   8   33.40    1.90
   3  -2  -8    6.70    1.00
  -3   2   8    5.10    0.90
  -3   2   8    6.50    0.90
   2  -2  -8   55.19    2.50
  -2   2   8   57.39    2.30
  -2   2   8   60.89    2.40
   1  -2  -8   39.90    2.00
  -1   2   8   40.60    1.80
  -1   2   8   36.70    1.70
   0  -2  -8    6.80    0.90
   0   2   8    6.30    0.70
   0   2   8    7.30    0.90
  -1  -2  -8    1.40    0.70
  -1  -2  -8    1.20    0.70
   1   2   8    1.80    0.60
  -2  -2  -8    9.70    1.20
  -2  -2  -8    5.50    1.00
   2   2   8    7.10    0.80
  -3  -2  -8   21.10    1.90
   3   2   8   19.50    1.40
  -4  -2  -8    0.00    1.20
   4   2   8   -0.30    0.90
  -5  -2  -8    1.60    1.60
  -6  -2  -8    1.80    2.00
  -8   3   8    0.20    2.20
  -7   3   8    0.90    1.60
   6  -3  -8    5.70    1.40
  -6   3   8    5.70    1.50
   5  -3  -8  103.69    4.30
  -5   3   8  103.89    4.30
   4  -3  -8    0.70    0.80
  -4   3   8    0.20    0.80
  -4   3   8    0.20    0.90
   3  -3  -8   41.40    2.20
  -3   3   8   41.50    2.00
  -3   3   8   39.70    2.00
   2  -3  -8    0.20    0.80
  -2   3   8    1.30    0.70
  -2   3   8    1.70    0.60
   1  -3  -8   15.10    1.30
  -1   3   8   16.30    1.20
  -1   3   8   17.00    1.00
   0  -3  -8    1.40    0.80
   0   3   8    2.40    0.80
  -1  -3  -8   40.30    2.20
   1   3   8   43.00    2.10
  -2  -3  -8   20.00    1.60
  -2  -3  -8   22.30    1.70
  -3  -3  -8   32.30    2.20
  -3  -3  -8   31.30    2.10
  -4  -3  -8    0.00    1.30
  -5  -3  -8   -0.40    1.70
  -6  -3  -8    0.50    2.40
   8  -4  -8    3.00    1.90
  -7   4   8    5.80    1.70
   6  -4  -8    6.80    1.60
  -6   4   8   14.10    1.80
   5  -4  -8   25.10    2.20
  -5   4   8   28.00    2.00
  -5   4   8   28.90    2.20
   4  -4  -8    1.40    1.00
  -4   4   8    0.40    1.00
   3  -4  -8   95.09    4.00
  -3   4   8   93.59    3.80
   2  -4  -8    0.10    0.90
  -2   4   8    0.10    0.70
   1  -4  -8    0.30    0.80
  -1   4   8    0.70    0.80
   0  -4  -8   69.69    3.20
   0   4   8   74.89    3.10
  -1  -4  -8   10.70    1.40
   1   4   8   14.60    1.50
  -2  -4  -8   83.49    3.70
   2   4   8   83.59    3.50
  -3  -4  -8   15.80    1.90
   3   4   8   15.50    1.70
  -4  -4  -8    1.60    1.40
  -5  -4  -8   31.50    3.20
   5  -5  -8    4.70    1.40
  -5   5   8    5.00    1.50
   4  -5  -8   42.30    2.60
  -4   5   8   39.70    2.50
   3  -5  -8    1.00    0.90
  -3   5   8    1.10    1.00
   2  -5  -8   51.79    2.80
  -2   5   8   55.49    2.60
   1  -5  -8  251.17    9.00
  -1   5   8  252.07    8.80
   0  -5  -8  247.88    8.90
   0   5   8  248.98    8.70
  -1  -5  -8   12.20    1.60
   1   5   8   12.30    1.50
  -2  -5  -8   77.79    3.60
   2   5   8   74.39    3.40
  -3  -5  -8   23.10    2.50
   3   5   8   23.10    2.00
   4   5   8   -1.10    1.50
   5   5   8    2.20    2.10
  -6   6   8   22.80    2.60
   5  -6  -8    0.60    1.30
  -5   6   8    1.90    1.50
   4  -6  -8    0.40    1.10
  -4   6   8    2.70    1.40
   3  -6  -8  105.59    4.70
  -3   6   8  122.39    4.80
   2  -6  -8  158.78    6.10
  -2   6   8  155.98    6.00
   1  -6  -8   89.29    4.00
  -1   6   8   89.39    3.80
   0  -6  -8   58.69    3.20
   0   6   8   64.69    3.10
  -1  -6  -8   33.10    2.50
   1   6   8   30.50    2.20
  -2  -6  -8   29.30    2.60
   2   6   8   34.00    2.30
  -3  -6  -8    0.40    1.50
   3   6   8    0.60    1.50
   4   6   8    0.40    2.00
  -6   7   8    8.40    2.10
   5  -7  -8    0.20    1.50
  -5   7   8    0.20    1.80
   4  -7  -8   -0.30    1.20
  -4   7   8    0.20    1.70
   3  -7  -8  123.19    5.30
  -3   7   8  123.59    5.30
   2  -7  -8   34.30    2.50
  -2   7   8   34.00    2.40
   1  -7  -8   80.69    4.00
  -1   7   8   79.09    3.80
   0  -7  -8   67.49    3.60
   0   7   8   69.09    3.50
  -1  -7  -8    0.30    1.30
   1   7   8    0.40    1.30
  -2  -7  -8    9.70    2.00
   2   7   8    6.50    1.70
  -3  -7  -8    3.50    2.00
   3   7   8    2.60    2.00
  -6   8   8   28.90    3.30
   5  -8  -8   21.40    2.70
  -5   8   8   14.10    2.60
   4  -8  -8   26.80    2.90
  -4   8   8   22.30    2.80
   3  -8  -8   26.80    2.60
  -3   8   8   30.50    2.70
   2  -8  -8    5.30    1.60
  -2   8   8    5.50    1.70
   1  -8  -8    6.20    1.80
  -1   8   8    6.90    1.70
   0  -8  -8    9.00    1.90
   0   8   8   15.30    2.20
  -1  -8  -8   17.40    2.40
   1   8   8   18.90    2.30
  -2  -8  -8   38.50    3.60
   2   8   8   40.40    3.10
  -3  -8  -8    2.30    2.50
   5  -9  -8   -0.50    2.40
   4  -9  -8   14.90    2.50
  -4   9   8   16.70    2.70
   3  -9  -8    4.00    2.20
  -3   9   8    5.30    2.40
   2  -9  -8    3.00    2.00
  -2   9   8    5.90    2.30
   1  -9  -8   23.30    2.80
  -1   9   8   19.00    2.60
   0  -9  -8   61.49    4.30
   0   9   8   62.79    4.00
   0  10  -9   12.00    2.40
   2   9  -9   17.50    2.50
   1   9  -9    2.70    1.80
   0   9  -9   10.70    2.00
   1  -9   9   21.20    2.30
   2  -9   9    6.00    1.80
   3  -9   9   -0.60    1.70
   4  -9   9    1.00    2.20
   3   8  -9    0.10    1.80
  -3  -8   9   -0.60    1.60
   2   8  -9    4.80    1.80
  -2  -8   9    2.70    1.50
   1   8  -9    3.70    1.50
  -1  -8   9    3.80    1.40
   0   8  -9    5.40    1.50
   0  -8   9    4.80    1.40
   1  -8   9   16.70    1.80
   2  -8   9    5.60    1.60
   3  -8   9   14.60    2.00
  -4   8  -9    2.50    3.30
   4  -8   9    1.40    1.60
  -5  -7   9   15.70    2.30
   4   7  -9    1.60    1.70
  -4  -7   9    0.50    1.70
   3   7  -9    0.40    1.30
  -3  -7   9   -0.70    1.30
   2   7  -9    2.80    1.40
  -2  -7   9    2.80    1.20
   1   7  -9    4.00    1.30
  -1  -7   9    6.90    1.30
   0   7  -9   -0.10    1.10
   0  -7   9   -0.30    1.10
  -1   7  -9   27.00    2.20
   1  -7   9   26.50    1.90
   2  -7   9    7.70    1.50
  -3   7  -9   48.60    4.30
   3  -7   9   46.90    2.80
  -4   7  -9   51.89    3.30
   4  -7   9   51.39    3.00
  -5   7  -9    1.70    2.00
   5  -7   9   -1.90    1.70
   5   6  -9    5.50    1.90
  -5  -6   9    3.10    1.60
   4   6  -9   17.70    2.10
  -4  -6   9   18.20    2.10
   3   6  -9    9.20    1.60
  -3  -6   9    7.80    1.40
   2   6  -9    5.40    1.30
  -2  -6   9    7.70    1.30
   1   6  -9    0.20    0.90
  -1  -6   9    1.00    0.90
   0   6  -9  102.59    4.10
   0  -6   9   95.29    3.90
  -1   6  -9    9.50    1.30
   1  -6   9    7.50    1.20
   2  -6   9  322.37   11.10
  -3   6  -9   16.00    1.80
   3  -6   9   20.40    2.00
  -4   6  -9    4.70    1.60
   4  -6   9    5.10    1.50
  -5   6  -9    3.90    1.90
   5  -6   9    2.00    1.60
   6   5  -9   19.60    2.70
  -6  -5   9   14.90    2.30
   5   5  -9    4.50    1.60
  -5  -5   9    3.30    1.60
   4   5  -9   -0.40    1.20
  -4  -5   9    0.30    1.10
   3   5  -9   13.10    1.60
  -3  -5   9    7.90    1.30
   2   5  -9   49.10    2.60
  -2  -5   9   52.59    2.60
   1   5  -9    0.70    0.90
  -1  -5   9    0.80    0.90
   0   5  -9  236.68    8.40
   0  -5   9  243.48    8.40
  -1   5  -9   97.39    3.80
   1  -5   9   95.79    3.90
  -2   5  -9   14.40    1.50
   2  -5   9   15.20    1.70
  -3   5  -9    1.70    1.20
   3  -5   9    2.60    1.10
  -4   5  -9   35.20    2.40
   4  -5   9   36.80    2.30
  -5   5  -9   28.30    2.90
   5  -5   9   28.00    2.30
  -6   5  -9   -0.40    1.90
   6  -5   9    0.70    1.70
   7   4  -9   26.10    3.00
   6   4  -9    0.80    1.50
  -6  -4   9   -0.30    1.70
   5   4  -9   45.20    2.90
  -5  -4   9   41.10    3.00
   4   4  -9    4.10    1.20
  -4  -4   9    6.20    1.40
   3   4  -9   65.09    3.10
  -3  -4   9   58.59    2.90
   2   4  -9   41.10    2.30
  -2  -4   9   44.50    2.20
   1   4  -9   25.10    1.70
  -1  -4   9   20.20    1.50
   0   4  -9   19.80    1.50
   0  -4   9   21.70    1.40
  -1   4  -9    1.40    0.80
  -1   4  -9    0.90    0.80
   1  -4   9    1.80    0.80
  -2   4  -9   13.80    1.40
   2  -4   9   16.70    1.60
  -3   4  -9   94.59    4.10
   3  -4   9  104.39    4.10
  -4   4  -9  142.69    5.70
   4  -4   9  142.79    5.50
  -5   4  -9  111.09    4.90
   5  -4   9  112.79    4.70
  -6   4  -9    6.40    2.10
   6  -4   9    7.40    1.90
   7   3  -9  107.19    5.20
  -7  -3   9  108.59    5.50
   6   3  -9   27.80    2.40
  -6  -3   9   17.80    2.30
   5   3  -9   34.90    2.40
  -5  -3   9   40.70    2.70
   4   3  -9    1.20    1.10
  -4  -3   9    1.20    1.00
   3   3  -9   37.60    2.20
  -3  -3   9   39.40    2.10
   2   3  -9   52.19    2.50
  -2  -3   9   49.20    2.30
   1   3  -9    6.00    1.00
  -1  -3   9    6.70    1.00
   0   3  -9   50.49    2.30
   0  -3   9   50.79    2.30
  -1   3  -9   35.50    1.80
  -1   3  -9   35.50    1.80
   1  -3   9   34.90    1.90
  -2   3  -9  304.77   10.30
   2  -3   9  301.47   10.30
  -3   3  -9  246.78    8.50
   3  -3   9  235.08    8.40
  -4   3  -9  101.89    4.60
   4  -3   9  114.79    4.50
  -5   3  -9    3.70    1.50
   5  -3   9    5.50    1.30
  -6   3  -9   16.50    2.30
   6  -3   9   20.90    2.30
   7   2  -9    1.60    1.70
  -7  -2   9    1.40    1.90
   6   2  -9    4.90    1.50
  -6  -2   9    3.40    1.60
   5   2  -9   17.60    1.80
  -5  -2   9   11.90    1.60
   4   2  -9   25.90    1.80
  -4  -2   9   25.60    2.00
   3   2  -9    0.90    0.80
  -3  -2   9    1.40    0.80
   2   2  -9   33.10    1.90
  -2  -2   9   30.20    1.70
   1   2  -9    0.70    0.70
  -1  -2   9    1.10    0.70
   0   2  -9   -0.10    0.60
   0   2  -9    0.30    0.60
   0  -2   9    0.30    0.70
  -1   2  -9   28.40    1.60
  -1   2  -9   26.60    1.60
   1  -2   9   31.50    1.60
  -2   2  -9  474.15   15.50
   2  -2   9  461.65   15.50
  -3   2  -9    0.40    0.90
   3  -2   9   -0.10    0.80
  -4   2  -9  158.98    5.90
   4  -2   9  145.89    5.70
  -5   2  -9   52.89    3.20
   5  -2   9   52.59    2.80
  -6   2  -9   17.30    2.50
   6  -2   9   16.60    2.00
   7   1  -9    0.00    1.60
  -7  -1   9    1.50    1.80
   6   1  -9   -0.10    1.30
  -6  -1   9   -0.30    1.20
   5   1  -9   57.19    2.90
  -5  -1   9   61.49    3.10
   4   1  -9   27.70    2.00
  -4  -1   9   27.60    1.90
   3   1  -9   29.60    1.80
  -3  -1   9   30.60    1.80
   2   1  -9   31.20    1.70
  -2  -1   9   30.00    1.60
   1   1  -9    2.80    0.80
  -1  -1   9    3.60    0.60
  -1  -1   9    3.10    0.70
   0   1  -9  226.68    7.80
   0   1  -9  226.08    7.60
   0  -1   9  229.58    7.80
  -1   1  -9   55.29    2.40
  -1   1  -9   56.29    2.40
   1  -1   9   58.09    2.50
  -2   1  -9  371.36   12.50
  -2   1  -9  390.06   12.70
   2  -1   9  373.96   12.60
  -3   1  -9  146.29    5.40
   3  -1   9  143.39    5.30
  -4   1  -9    3.20    1.20
   4  -1   9    5.50    1.20
  -5   1  -9    3.60    1.70
   5  -1   9    2.50    1.20
  -6   1  -9   92.69    4.50
   6  -1   9   84.69    4.10
   7   0  -9   45.70    4.10
  -7   0   9   42.40    3.20
   6   0  -9   28.60    2.30
  -6   0   9   20.60    2.30
   5   0  -9  133.49    5.20
  -5   0   9  128.89    5.20
   4   0  -9    9.20    1.30
  -4   0   9    8.60    1.20
   3   0  -9    6.00    1.00
  -3   0   9    5.60    1.00
   2   0  -9   44.40    2.20
  -2   0   9   39.00    2.00
   1   0  -9    0.10    0.70
  -1   0   9   -0.20    0.50
  -1   0   9   -0.30    0.50
   0   0  -9  249.08    8.40
   0   0  -9  237.48    8.20
   0   0   9  248.68    8.30
  -1   0  -9    2.90    0.80
  -1   0  -9    4.70    0.80
   1   0   9    4.70    0.80
  -2   0  -9    7.30    1.00
  -2   0  -9    6.80    1.10
   2   0   9    8.20    1.00
  -3   0  -9    0.20    1.00
   3   0   9    0.70    0.80
  -4   0  -9   34.90    2.50
   4   0   9   35.00    2.10
  -5   0  -9   28.20    2.40
   5   0   9   25.60    2.20
  -6   0  -9   -0.40    2.00
   6   0   9    0.20    1.30
  -7   1   9   26.10    2.60
   6  -1  -9   15.80    1.80
  -6   1   9   10.40    1.60
   5  -1  -9    2.30    1.20
  -5   1   9    2.20    1.10
   4  -1  -9   95.79    4.00
  -4   1   9   99.69    4.00
   3  -1  -9  146.59    5.50
  -3   1   9  145.89    5.30
   2  -1  -9   11.90    1.30
  -2   1   9   10.20    1.10
  -2   1   9   10.00    0.90
   1  -1  -9    0.90    0.70
  -1   1   9    0.70    0.60
  -1   1   9    0.20    0.60
   0  -1  -9   23.40    1.50
   0   1   9   24.00    1.40
   0   1   9   22.40    1.40
  -1  -1  -9    0.60    0.80
  -1  -1  -9    0.70    0.80
   1   1   9    0.50    0.60
  -2  -1  -9   44.90    2.40
  -2  -1  -9   49.90    2.30
   2   1   9   48.80    2.20
  -3  -1  -9  139.89    5.40
   3   1   9  141.79    5.10
  -4  -1  -9   44.30    2.80
   4   1   9   47.60    2.50
  -5  -1  -9  166.08    6.90
   5   1   9  183.58    6.60
  -6  -1  -9    2.90    2.20
  -8   2   9    3.90    2.30
  -7   2   9   26.30    2.80
   6  -2  -9   32.10    2.40
  -6   2   9   32.70    2.60
   5  -2  -9   64.99    3.20
  -5   2   9   61.29    3.10
   4  -2  -9   -0.50    0.80
  -4   2   9    0.00    0.90
   3  -2  -9   76.69    3.10
  -3   2   9   60.49    2.80
  -3   2   9   66.69    2.70
   2  -2  -9  206.48    7.20
  -2   2   9  202.58    6.90
  -2   2   9  201.28    6.90
   1  -2  -9   15.20    1.30
  -1   2   9   13.10    1.10
  -1   2   9   14.80    1.10
   0  -2  -9   27.10    1.80
   0   2   9   24.10    1.50
   0   2   9   26.60    1.40
  -1  -2  -9  261.37    9.10
  -1  -2  -9  260.87    9.10
   1   2   9  269.97    8.80
  -2  -2  -9    9.60    1.20
  -2  -2  -9    7.30    1.20
   2   2   9    8.60    1.00
  -3  -2  -9  210.48    7.70
   3   2   9  213.28    7.60
  -4  -2  -9   84.59    3.90
  -5  -2  -9    4.30    1.70
  -8   3   9    1.40    2.30
  -7   3   9   -0.10    1.60
   6  -3  -9    0.10    1.30
  -6   3   9    0.30    1.30
   5  -3  -9    0.60    1.10
  -5   3   9    0.10    1.10
   4  -3  -9  230.58    8.50
  -4   3   9  250.87    9.10
  -4   3   9  239.38    8.30
   3  -3  -9    1.50    1.00
  -3   3   9    1.40    0.90
  -3   3   9    1.20    0.80
  -2   3   9   57.29    2.50
  -2   3   9   59.19    2.40
   1  -3  -9   52.49    2.50
  -1   3   9   46.70    2.20
   0  -3  -9   12.00    1.30
   0   3   9    8.00    1.00
  -1  -3  -9   19.40    1.70
   1   3   9   19.80    1.60
  -2  -3  -9  123.69    4.80
  -2  -3  -9  118.19    4.80
  -3  -3  -9    6.60    1.50
  -4  -3  -9   86.99    4.20
  -5  -3  -9    2.00    2.10
   8  -4  -9    6.40    2.20
  -7   4   9    1.40    2.00
   6  -4  -9    2.90    1.50
   5  -4  -9    2.20    1.30
   4  -4  -9   92.59    4.00
  -4   4   9   90.59    3.90
   3  -4  -9    3.50    1.20
  -3   4   9    2.70    1.00
   2  -4  -9  160.38    6.00
  -2   4   9  160.68    5.80
   1  -4  -9    4.50    1.10
  -1   4   9    4.60    1.00
   0  -4  -9    0.30    0.90
   0   4   9    0.30    0.80
  -1  -4  -9   40.00    2.40
   1   4   9   42.50    2.30
  -2  -4  -9   95.19    4.10
   2   4   9   96.99    4.10
   3   4   9    7.30    1.40
  -5  -4  -9    3.90    2.20
   6  -5  -9    9.20    1.80
   5  -5  -9   15.50    1.90
  -5   5   9   13.20    1.80
   4  -5  -9    6.80    1.40
  -4   5   9    6.10    1.40
   3  -5  -9  102.59    4.40
  -3   5   9  108.29    4.30
   2  -5  -9    0.20    1.00
  -2   5   9    1.20    1.00
   1  -5  -9    8.20    1.30
  -1   5   9    6.50    1.30
   0  -5  -9   15.20    1.80
   0   5   9   14.10    1.60
  -1  -5  -9   12.80    1.70
   1   5   9   10.50    1.40
  -2  -5  -9   10.90    1.70
   2   5   9   11.90    1.70
  -3  -5  -9    3.90    1.60
   3   5   9    4.80    1.70
   4   5   9    3.70    1.90
   5  -6  -9   16.10    2.10
  -5   6   9   17.20    2.20
   4  -6  -9    5.90    1.60
  -4   6   9    5.40    1.60
   3  -6  -9   12.30    1.80
  -3   6   9    7.80    1.50
   2  -6  -9  157.98    6.20
  -2   6   9  156.58    6.00
   1  -6  -9   45.30    2.90
  -1   6   9   53.09    2.90
   0  -6  -9   52.39    3.00
   0   6   9   55.79    2.80
  -1  -6  -9    1.30    1.30
   1   6   9    1.40    1.30
  -2  -6  -9    8.70    1.70
   2   6   9   11.30    1.70
  -3  -6  -9   69.29    4.00
   3   6   9   74.49    3.90
  -6   7   9    1.70    2.20
   5  -7  -9   15.50    2.30
  -5   7   9   14.50    2.40
   4  -7  -9   43.40    3.00
  -4   7   9   34.00    2.80
   3  -7  -9   27.70    2.40
  -3   7   9   20.30    2.30
   2  -7  -9  243.68    9.20
  -2   7   9  249.78    9.00
   1  -7  -9    0.10    1.50
  -1   7   9    1.20    1.30
   0  -7  -9    0.20    1.30
   0   7   9   -0.10    1.30
  -1  -7  -9   28.90    2.60
   1   7   9   33.80    2.50
  -2  -7  -9    8.10    2.00
   2   7   9    7.70    1.80
  -3  -7  -9   13.60    2.50
  -6   8   9    0.40    2.50
   5  -8  -9   30.60    3.50
  -5   8   9   23.40    3.20
   4  -8  -9   95.29    4.90
  -4   8   9   95.39    4.80
   3  -8  -9   18.90    2.50
  -3   8   9   24.30    2.70
   2  -8  -9    1.30    1.60
  -2   8   9    0.30    1.60
   1  -8  -9   -0.60    1.70
  -1   8   9   -1.20    1.70
   0  -8  -9   15.80    2.50
   0   8   9   18.80    2.50
  -1  -8  -9   -0.10    1.90
   1   8   9    0.80    2.00
  -2  -8  -9    3.70    2.00
   4  -9  -9    2.10    2.30
   3  -9  -9    2.70    2.20
  -3   9   9    3.90    2.50
   2  -9  -9   -0.40    1.80
  -2   9   9    0.00    2.20
   1  -9  -9    2.00    2.30
  -1   9   9    2.40    2.00
   1   9 -10   17.10    2.50
   0   9 -10  184.58    7.30
   0  -9  10  176.58    7.00
   1  -9  10    1.70    1.50
   2  -9  10    4.30    1.90
   3  -9  10   10.00    2.30
  -4  -8  10    2.60    2.30
   3   8 -10    2.60    2.20
  -3  -8  10    1.20    1.80
   2   8 -10   89.89    4.60
  -2  -8  10   89.69    4.20
   1   8 -10   14.00    2.10
  -1  -8  10   13.70    1.80
   0   8 -10    1.40    1.40
   0  -8  10    2.00    1.50
   1  -8  10   16.50    1.90
   2  -8  10    1.40    1.60
   3  -8  10    0.40    1.70
   4  -8  10    1.00    1.70
   4   7 -10   -0.70    1.60
  -4  -7  10    0.30    1.80
   3   7 -10   59.89    3.60
  -3  -7  10   53.49    3.20
   2   7 -10    1.80    1.40
  -2  -7  10    2.10    1.40
   1   7 -10   72.79    3.60
  -1  -7  10   67.49    3.20
   0   7 -10   18.40    2.10
   0  -7  10   17.30    1.70
   1  -7  10   67.49    3.20
   2  -7  10   21.50    2.10
   3  -7  10   16.90    2.00
  -4   7 -10    1.30    2.90
   4  -7  10    0.20    1.70
  -5   7 -10   17.80    2.80
   5   6 -10   22.10    2.70
  -5  -6  10   18.70    2.60
   4   6 -10    3.70    1.50
  -4  -6  10    2.30    1.40
   3   6 -10   64.59    3.40
  -3  -6  10   64.29    3.30
   2   6 -10    8.00    1.50
  -2  -6  10    6.40    1.30
   1   6 -10   32.30    2.30
  -1  -6  10   30.60    2.00
   0   6 -10   31.20    2.20
   0  -6  10   29.00    1.90
  -1   6 -10   76.49    3.70
   1  -6  10   84.39    3.70
   2  -6  10   27.00    2.00
   3  -6  10   -0.50    1.20
  -4   6 -10    4.10    1.70
   4  -6  10    4.70    1.60
  -5   6 -10    1.70    2.10
   5  -6  10    0.00    1.50
   6   5 -10    1.30    2.10
  -6  -5  10    1.60    3.10
   5   5 -10    4.50    1.90
  -5  -5  10    2.80    1.80
   4   5 -10    2.60    1.40
  -4  -5  10    2.80    1.30
   3   5 -10   14.60    1.80
  -3  -5  10   12.00    1.60
   2   5 -10    0.00    1.10
  -2  -5  10    0.80    1.00
   1   5 -10   34.00    2.10
  -1  -5  10   37.10    2.20
   0   5 -10   13.90    1.50
   0  -5  10    9.30    1.20
  -1   5 -10    1.30    1.00
   1  -5  10    1.80    1.00
   2  -5  10  104.89    4.30
  -3   5 -10   32.20    2.40
   3  -5  10   28.10    2.10
  -4   5 -10   20.50    2.20
   4  -5  10   19.90    2.20
  -5   5 -10    8.00    2.20
   5  -5  10    9.30    1.70
   6   4 -10   47.10    3.50
  -6  -4  10   47.80    3.60
   5   4 -10    7.90    1.80
  -5  -4  10    7.20    1.70
   4   4 -10    8.40    1.50
  -4  -4  10    8.40    1.50
   3   4 -10    0.60    1.10
  -3  -4  10    0.00    0.90
   2   4 -10    0.60    1.00
  -2  -4  10    0.40    0.80
   1   4 -10  181.68    6.60
  -1  -4  10  184.78    6.60
   0   4 -10   93.39    3.70
   0  -4  10   87.49    3.60
  -1   4 -10   23.40    1.70
   1  -4  10   20.70    1.60
  -2   4 -10   40.50    2.30
   2  -4  10   37.70    2.30
  -3   4 -10    6.30    1.50
   3  -4  10    7.00    1.30
  -4   4 -10    6.90    1.70
   4  -4  10    5.90    1.30
  -5   4 -10   43.80    3.10
   5  -4  10   44.90    3.00
  -6   4 -10    0.70    2.20
   7   3 -10   86.19    4.80
   6   3 -10   29.20    2.80
  -6  -3  10   26.50    2.60
   5   3 -10    6.30    1.40
  -5  -3  10    6.60    1.50
   4   3 -10    0.70    1.00
  -4  -3  10    0.00    1.10
   3   3 -10  124.79    5.00
  -3  -3  10  133.79    5.00
   2   3 -10   -0.30    0.90
  -2  -3  10    0.90    0.70
   1   3 -10   89.39    3.60
  -1  -3  10   84.19    3.50
   0   3 -10    0.20    0.80
   0  -3  10    0.40    0.70
  -1   3 -10   50.49    2.50
  -1   3 -10   57.29    2.50
   1  -3  10   59.09    2.60
  -2   3 -10  111.59    4.20
   2  -3  10  103.89    4.20
  -3   3 -10    4.20    1.20
   3  -3  10    3.30    1.10
  -4   3 -10  105.39    4.60
   4  -3  10  118.79    4.70
  -5   3 -10    0.00    1.70
   5  -3  10    0.70    1.20
  -6   3 -10   12.30    2.60
   6  -3  10   12.80    2.10
   7   2 -10   14.70    2.30
  -7  -2  10   10.10    2.20
   6   2 -10   -0.50    1.30
  -6  -2  10    0.80    1.60
   5   2 -10   15.90    1.80
  -5  -2  10   15.40    1.80
   4   2 -10   55.79    2.80
  -4  -2  10   54.89    2.80
   3   2 -10  126.89    5.00
  -3  -2  10  129.09    4.90
   2   2 -10   48.80    2.40
  -2  -2  10   49.30    2.30
   1   2 -10  324.17   11.00
  -1  -2  10  320.07   10.90
   0   2 -10  368.16   12.60
   0  -2  10  384.86   12.60
  -1   2 -10    1.30    0.90
  -1   2 -10    1.40    0.80
   1  -2  10    1.40    0.80
  -2   2 -10  495.35   16.40
   2  -2  10  498.25   16.50
  -3   2 -10    2.50    1.20
   3  -2  10    2.10    1.00
  -4   2 -10   13.10    1.70
   4  -2  10   14.10    1.60
  -5   2 -10    3.20    1.80
   5  -2  10    4.70    1.50
  -6   2 -10    4.40    2.10
   6  -2  10    6.80    1.90
   7   1 -10   -0.60    1.80
  -7  -1  10    0.50    1.90
   6   1 -10    0.60    1.30
  -6  -1  10   -1.00    1.40
   5   1 -10   95.59    4.10
  -5  -1  10   90.79    4.20
   4   1 -10   29.80    2.00
  -4  -1  10   25.30    1.90
   3   1 -10   49.20    2.50
  -3  -1  10   52.39    2.40
   2   1 -10   35.90    2.10
  -2  -1  10   35.10    1.90
   1   1 -10  160.88    5.80
  -1  -1  10  160.68    5.70
   0   1 -10   93.79    3.50
   0   1 -10   92.99    3.70
   0  -1  10   92.19    3.60
  -1   1 -10   19.20    1.50
  -1   1 -10   16.80    1.40
   1  -1  10   24.20    1.50
  -2   1 -10    1.90    1.00
   2  -1  10    1.70    0.80
  -3   1 -10   18.60    1.90
   3  -1  10   21.20    1.70
  -4   1 -10  325.57   11.40
   4  -1  10  324.37   11.20
  -5   1 -10   41.30    2.90
   5  -1  10   46.60    2.80
  -6   1 -10   32.90    3.60
   6  -1  10   28.90    2.90
   7   0 -10    3.40    1.80
  -7   0  10    2.40    1.90
   6   0 -10   13.30    1.80
  -6   0  10   10.60    1.80
   5   0 -10   22.90    2.10
  -5   0  10   18.20    1.80
   4   0 -10  290.07   10.40
  -4   0  10  303.77   10.30
   3   0 -10   15.20    1.50
  -3   0  10   14.90    1.40
   2   0 -10    0.50    0.80
  -2   0  10    0.00    0.70
   1   0 -10  124.79    4.60
  -1   0  10  120.29    4.50
  -1   0  10  120.29    4.20
   0   0 -10   10.10    1.20
   0   0 -10    9.90    1.00
   0   0  10   10.30    1.10
  -1   0 -10  237.08    8.30
  -1   0 -10  240.28    8.30
   1   0  10  249.08    8.30
  -2   0 -10  202.48    7.20
  -2   0 -10  198.18    7.00
   2   0  10  201.38    7.00
  -3   0 -10   43.20    2.50
   3   0  10   47.70    2.30
  -4   0 -10  183.88    7.00
   4   0  10  183.68    6.70
  -5   0 -10    2.10    1.60
   5   0  10    1.20    1.20
  -6   0 -10   16.90    2.50
   6   0  10   18.70    2.30
   7  -1 -10   33.70    3.00
  -7   1  10   31.90    2.90
   6  -1 -10    3.40    1.30
  -6   1  10    1.40    1.20
   5  -1 -10    8.50    1.50
  -5   1  10    7.70    1.30
   4  -1 -10   51.19    2.70
  -4   1  10   49.00    2.50
   3  -1 -10    7.50    1.20
  -3   1  10    6.70    1.00
   2  -1 -10    3.10    0.90
  -2   1  10    3.00    0.80
   1  -1 -10  143.69    5.40
  -1   1  10  150.48    5.10
  -1   1  10  138.39    5.10
   0  -1 -10  168.28    5.90
   0   1  10  151.78    5.60
   0   1  10  162.78    5.60
  -1  -1 -10   71.09    3.00
  -1  -1 -10   68.99    3.00
   1   1  10   67.09    2.80
  -2  -1 -10   23.10    1.80
  -2  -1 -10   21.60    1.70
   2   1  10   23.50    1.60
  -3  -1 -10   43.50    2.50
   3   1  10   42.00    2.30
  -4  -1 -10    5.70    1.50
   4   1  10    9.90    1.40
  -5  -1 -10   46.70    3.10
  -7   2  10   52.99    3.70
   6  -2 -10    3.10    1.50
  -6   2  10    3.50    1.40
   5  -2 -10   -0.30    1.00
  -5   2  10    0.00    1.00
   4  -2 -10    7.00    1.20
  -4   2  10    3.90    1.00
   3  -2 -10  145.09    5.70
  -3   2  10  154.08    5.50
   2  -2 -10   49.70    2.50
  -2   2  10   43.30    2.10
  -2   2  10   42.40    2.10
   1  -2 -10  101.49    4.10
  -1   2  10   98.19    3.80
  -1   2  10  101.69    3.70
   0  -2 -10  182.38    6.60
   0   2  10  178.98    6.20
   0   2  10  179.78    6.30
  -1  -2 -10  107.79    4.20
  -1  -2 -10  106.59    4.30
   1   2  10  109.69    4.00
  -2  -2 -10   70.19    3.20
  -2  -2 -10   67.89    3.10
  -3  -2 -10   -0.40    1.20
  -4  -2 -10   97.59    4.60
  -5  -2 -10   13.90    2.40
  -8   3  10   -0.10    4.40
  -7   3  10    1.10    1.80
   6  -3 -10    1.10    1.40
  -6   3  10    1.20    1.40
   5  -3 -10    0.40    1.20
  -5   3  10    0.00    1.20
   4  -3 -10   72.09    3.40
  -4   3  10   70.99    3.20
   3  -3 -10  208.88    7.60
  -3   3  10  210.08    7.20
  -3   3  10  200.08    7.20
  -2   3  10   27.10    1.70
   1  -3 -10    0.60    1.00
  -1   3  10    0.10    0.80
   0  -3 -10  114.09    4.50
   0   3  10  105.59    4.20
  -1  -3 -10  530.25   17.90
   1   3  10  538.75   17.70
  -2  -3 -10   19.10    2.00
   2   3  10   20.70    1.80
  -3  -3 -10    5.70    1.50
  -4  -3 -10   11.40    1.90
  -5  -3 -10   44.40    3.70
   6  -4 -10    2.80    1.60
   5  -4 -10    5.20    1.50
   4  -4 -10    1.90    1.30
   3  -4 -10    4.80    1.30
  -3   4  10    6.90    1.30
   2  -4 -10   79.09    3.60
  -2   4  10   74.39    3.30
   1  -4 -10   23.90    1.90
  -1   4  10   30.10    1.90
   0  -4 -10   15.40    1.70
   0   4  10   13.40    1.50
  -1  -4 -10   25.10    2.10
   1   4  10   28.30    2.00
  -2  -4 -10   38.70    2.60
   2   4  10   39.80    2.40
   3   4  10   12.10    1.70
   6  -5 -10    8.20    2.00
   5  -5 -10    9.50    1.80
   4  -5 -10   11.90    1.80
  -4   5  10    9.40    1.70
   3  -5 -10   -0.20    1.00
  -3   5  10    1.20    1.30
   2  -5 -10   98.89    4.20
  -2   5  10   96.29    4.10
   1  -5 -10    5.60    1.40
  -1   5  10    5.50    1.30
   0  -5 -10   13.80    1.80
   0   5  10   15.40    1.70
  -1  -5 -10  142.29    5.80
   1   5  10  145.79    5.70
  -2  -5 -10  130.79    5.50
   2   5  10  135.99    5.40
   3   5  10   36.30    2.70
   4   5  10    1.50    2.10
   6  -6 -10   17.50    2.40
   5  -6 -10    2.50    1.60
  -5   6  10    4.40    2.80
   4  -6 -10    8.10    1.70
  -4   6  10    8.50    1.80
   3  -6 -10   17.00    2.00
  -3   6  10   16.40    2.00
   2  -6 -10   52.89    3.20
  -2   6  10   57.19    3.10
   1  -6 -10   17.90    2.00
  -1   6  10   14.70    1.80
   0  -6 -10    5.00    1.60
   0   6  10    4.30    1.50
  -1  -6 -10    4.50    1.60
   1   6  10    1.00    1.30
  -2  -6 -10   55.09    3.50
   2   6  10   47.70    3.10
   3   6  10   93.89    4.80
   5  -7 -10   29.90    3.20
  -5   7  10   32.70    3.40
   4  -7 -10  106.59    5.10
  -4   7  10  115.89    5.20
   3  -7 -10    2.70    1.60
  -3   7  10    4.80    1.80
   2  -7 -10   39.60    2.90
  -2   7  10   38.70    2.70
   1  -7 -10   97.79    4.70
  -1   7  10  101.89    4.70
   0  -7 -10    3.20    1.70
   0   7  10    2.00    1.70
  -1  -7 -10    5.40    2.00
   1   7  10    4.00    1.60
  -2  -7 -10   13.80    2.50
   2   7  10   19.50    2.60
   5  -8 -10    4.30    2.30
  -5   8  10    0.70    2.50
   4  -8 -10   50.19    4.00
  -4   8  10   43.80    3.90
   3  -8 -10   18.00    2.60
  -3   8  10   24.00    2.90
   2  -8 -10    4.90    2.10
  -2   8  10    3.40    1.90
   1  -8 -10    2.50    1.80
  -1   8  10    1.50    1.90
   0  -8 -10   62.39    4.00
   0   8  10   62.89    4.00
  -1  -8 -10    1.30    1.90
  -1  -9  11    0.40    1.70
   0  -9  11   37.80    3.20
   1  -9  11    0.60    1.70
   2  -9  11    3.00    2.90
  -3  -8  11   43.40    3.40
   2   8 -11    0.80    1.60
  -2  -8  11    0.80    1.70
   1   8 -11   39.80    3.00
  -1  -8  11   43.10    3.00
   0   8 -11    3.40    1.70
   0  -8  11    5.00    1.70
   1  -8  11    3.50    1.50
   2  -8  11    2.30    1.60
   3  -8  11   -0.20    1.60
  -4  -7  11  146.79    6.30
   3   7 -11    0.00    1.70
  -3  -7  11   -0.60    1.50
   2   7 -11   -1.10    1.50
  -2  -7  11    0.80    1.30
   1   7 -11    7.70    1.70
  -1  -7  11    9.80    1.50
   0   7 -11    0.90    1.30
   0  -7  11   -0.50    1.10
   1  -7  11  129.29    5.30
   2  -7  11   -0.50    1.30
   3  -7  11    1.00    1.50
   4  -7  11   10.10    2.10
  -5  -6  11   -0.90    3.10
   4   6 -11   32.30    3.10
  -4  -6  11   24.00    2.50
   3   6 -11   41.00    3.00
  -3  -6  11   40.80    2.80
   2   6 -11   64.39    3.50
  -2  -6  11   68.79    3.30
   1   6 -11   66.89    3.30
  -1  -6  11   58.59    3.00
   0   6 -11   26.70    2.20
   0  -6  11   21.70    2.00
   1  -6  11   54.09    3.00
   2  -6  11    2.50    1.30
   3  -6  11    0.20    1.50
   4  -6  11    5.50    1.70
  -5   6 -11    5.00    2.60
   5   5 -11    2.40    1.70
  -5  -5  11    2.20    1.70
   4   5 -11   46.70    3.10
  -4  -5  11   42.90    3.00
   3   5 -11  147.99    5.70
  -3  -5  11  130.69    5.40
   2   5 -11   68.79    3.40
  -2  -5  11   63.69    3.20
   1   5 -11   79.59    3.50
  -1  -5  11   76.79    3.50
   0   5 -11  196.68    7.00
   0  -5  11  183.18    6.90
   1  -5  11    4.50    1.10
   2  -5  11  241.08    8.70
   3  -5  11    0.50    1.20
  -4   5 -11   20.40    2.40
   4  -5  11   14.70    1.90
  -5   5 -11    3.20    2.20
   5  -5  11    1.90    1.60
   6   4 -11   40.80    3.20
  -6  -4  11   36.10    3.50
   5   4 -11   -0.80    1.60
  -5  -4  11    0.90    1.50
   4   4 -11   37.50    2.70
  -4  -4  11   37.80    2.60
   3   4 -11    2.20    1.30
  -3  -4  11    0.90    1.10
   2   4 -11  581.34   19.20
  -2  -4  11  568.54   19.10
   1   4 -11   19.90    1.70
  -1  -4  11   15.60    1.50
   0   4 -11  187.68    6.60
   0  -4  11  176.88    6.60
  -1   4 -11   22.90    1.70
   1  -4  11   20.40    1.70
   2  -4  11   15.80    1.70
  -3   4 -11    0.10    1.30
   3  -4  11   -0.70    1.00
  -4   4 -11   -0.20    1.50
   4  -4  11    0.00    1.30
  -5   4 -11    3.90    1.90
   5  -4  11    4.30    1.60
   6   3 -11   34.80    3.10
  -6  -3  11   31.10    2.90
   5   3 -11    0.70    1.40
  -5  -3  11    0.70    1.50
   4   3 -11  145.39    5.70
  -4  -3  11  140.09    5.60
   3   3 -11    5.50    1.30
  -3  -3  11    1.80    0.90
   2   3 -11  234.88    8.50
  -2  -3  11  240.48    8.40
   1   3 -11   79.39    3.40
  -1  -3  11   80.19    3.40
   0   3 -11   26.20    1.90
   0  -3  11   30.10    1.80
  -1   3 -11   63.39    2.80
   1  -3  11   61.59    2.90
  -2   3 -11   83.79    3.50
   2  -3  11   75.39    3.50
  -3   3 -11  476.85   15.90
   3  -3  11  466.35   15.90
  -4   3 -11    0.60    1.50
   4  -3  11   -0.10    1.10
  -5   3 -11    0.20    1.80
   5  -3  11   -0.20    1.30
   7   2 -11    3.80    2.30
   6   2 -11    3.90    1.80
  -6  -2  11    2.40    1.80
   5   2 -11  243.88    8.90
  -5  -2  11  234.78    8.80
   4   2 -11    7.00    1.30
  -4  -2  11   11.90    1.50
   3   2 -11    7.70    1.30
  -3  -2  11    6.10    1.10
   2   2 -11   77.09    3.40
  -2  -2  11   78.29    3.30
   1   2 -11  201.38    7.30
  -1  -2  11  212.48    7.30
   0   2 -11   21.50    1.70
   0  -2  11   23.10    1.50
  -1   2 -11  588.24   20.10
  -1   2 -11  624.24   20.10
   1  -2  11  619.84   20.10
  -2   2 -11    2.70    1.10
   2  -2  11    3.00    1.10
  -3   2 -11    8.50    1.50
   3  -2  11    8.60    1.40
  -4   2 -11   -0.40    1.50
   4  -2  11    0.70    1.10
  -5   2 -11    0.60    1.90
   5  -2  11    1.30    1.30
   7   1 -11   14.60    2.50
  -7  -1  11   10.10    2.40
   6   1 -11   23.90    2.60
  -6  -1  11   16.50    2.10
   5   1 -11   16.20    1.90
  -5  -1  11   20.00    2.10
   4   1 -11   38.50    2.60
  -4  -1  11   39.60    2.40
   3   1 -11    1.10    1.00
  -3  -1  11    0.40    0.80
   2   1 -11    7.40    1.30
  -2  -1  11    5.00    1.00
   1   1 -11   76.59    3.30
  -1  -1  11   78.29    3.20
   0   1 -11  706.53   23.00
   0  -1  11  695.73   22.90
  -1   1 -11    3.20    1.00
  -1   1 -11    4.50    1.00
   1  -1  11    3.40    1.00
  -2   1 -11   96.69    4.00
   2  -1  11  102.39    4.00
  -3   1 -11   45.20    2.70
   3  -1  11   48.10    2.60
  -4   1 -11   50.99    3.10
   4  -1  11   42.10    2.70
  -5   1 -11   16.90    2.50
   5  -1  11   16.00    2.00
   6  -1  11    0.80    1.90
   7   0 -11    4.50    2.10
  -7   0  11    0.90    1.80
   6   0 -11    0.30    1.30
  -6   0  11   -0.10    1.30
   5   0 -11    5.90    1.50
  -5   0  11    5.30    1.40
   4   0 -11   57.99    3.10
  -4   0  11   62.09    3.00
   3   0 -11   12.30    1.50
  -3   0  11    9.20    1.30
   2   0 -11  305.77   10.90
  -2   0  11  327.77   10.70
   1   0 -11   24.40    1.80
  -1   0  11   26.20    1.60
   0   0 -11  752.12   25.00
   0   0 -11  783.92   24.80
   0   0  11  754.42   24.80
  -1   0 -11    0.60    0.90
  -1   0 -11    0.90    0.90
   1   0  11    1.00    0.80
  -2   0 -11   36.90    2.20
   2   0  11   38.70    2.10
  -3   0 -11    8.00    1.60
   3   0  11    8.40    1.30
  -4   0 -11   49.20    3.00
   4   0  11   48.00    2.70
  -5   0 -11    0.20    1.90
   5   0  11    0.80    1.50
   6   0  11    3.50    2.10
   7  -1 -11   23.50    2.70
  -7   1  11   30.00    3.30
   6  -1 -11    9.00    1.80
  -6   1  11    8.00    1.80
   5  -1 -11    0.30    1.10
  -5   1  11    1.40    1.30
   4  -1 -11  170.78    6.60
  -4   1  11  174.68    6.40
   3  -1 -11   96.59    4.00
  -3   1  11   92.29    3.80
   2  -1 -11  203.88    7.30
  -2   1  11  195.88    7.00
   1  -1 -11   14.40    1.60
  -1   1  11   13.40    1.20
  -1   1  11   15.30    1.30
   0  -1 -11  269.77    9.70
   0   1  11  270.67    9.40
   0   1  11  295.57    9.40
  -1  -1 -11  106.29    4.20
  -1  -1 -11  105.59    4.30
   1   1  11  108.89    4.10
  -2  -1 -11  192.18    7.20
   2   1  11  200.68    7.00
  -3  -1 -11    0.10    1.30
   3   1  11   -0.20    1.00
  -4  -1 -11   -0.20    1.50
  -5  -1 -11   49.00    3.70
   7  -2 -11    6.60    2.10
  -7   2  11    3.40    1.90
   6  -2 -11    0.60    1.50
  -6   2  11   -0.50    1.50
   5  -2 -11    0.40    1.20
  -5   2  11   -0.10    1.20
   4  -2 -11   12.80    1.60
  -4   2  11   15.40    1.60
   3  -2 -11  158.38    6.10
  -3   2  11  159.08    5.80
   2  -2 -11   23.50    1.90
  -2   2  11   20.10    1.50
   1  -2 -11    6.80    1.20
  -1   2  11    6.10    1.00
  -1   2  11    6.30    1.00
   0  -2 -11  245.28    9.00
   0   2  11  263.87    8.80
   0   2  11  257.97    8.90
  -1  -2 -11  167.68    6.40
   1   2  11  179.28    6.30
  -2  -2 -11   19.60    1.80
  -2  -2 -11   17.00    1.70
  -3  -2 -11  144.59    5.80
  -4  -2 -11   39.80    3.20
  -5  -2 -11   -1.00    1.90
  -7   3  11    4.20    2.20
   6  -3 -11    9.90    1.90
  -6   3  11    6.60    1.80
   5  -3 -11    3.10    1.40
  -5   3  11    3.90    1.40
   4  -3 -11   12.20    1.60
   3  -3 -11   43.90    2.60
  -2   3  11  105.99    4.10
   1  -3 -11   39.30    2.40
  -1   3  11   36.60    2.10
   0  -3 -11   47.40    2.80
   0   3  11   54.69    2.60
  -1  -3 -11    4.60    1.40
   1   3  11    5.80    1.20
  -2  -3 -11  129.59    5.30
   2   3  11  133.19    5.30
  -3  -3 -11    3.10    1.60
  -4  -3 -11   -0.80    1.80
   5  -4 -11    1.50    1.40
   4  -4 -11    2.00    1.30
   3  -4 -11    1.10    1.20
  -3   4  11    1.70    1.30
   2  -4 -11   75.49    3.60
  -2   4  11   80.39    3.40
   1  -4 -11  259.17    9.40
  -1   4  11  260.27    9.10
   0  -4 -11  128.89    5.40
   0   4  11  136.69    5.20
  -1  -4 -11  126.09    5.10
   1   4  11  120.39    4.90
  -2  -4 -11  210.58    7.90
   2   4  11  213.78    7.90
   3   4  11   41.50    3.00
   4   4  11    4.30    2.00
   6  -5 -11   23.20    2.70
   5  -5 -11    1.00    1.50
   4  -5 -11    6.70    1.50
   3  -5 -11   45.40    2.80
  -3   5  11   42.70    2.70
   2  -5 -11  201.98    7.80
  -2   5  11  214.08    7.60
   1  -5 -11   17.10    2.00
  -1   5  11   18.00    2.00
   0  -5 -11   81.79    3.90
   0   5  11   77.39    3.60
  -1  -5 -11   23.50    2.50
   1   5  11   27.90    2.30
  -2  -5 -11   58.89    3.50
   2   5  11   62.69    3.50
   3   5  11    1.10    1.70
   6  -6 -11    1.40    2.10
   5  -6 -11   49.00    3.50
   4  -6 -11   -0.60    1.50
  -4   6  11   -0.20    1.80
   3  -6 -11    0.50    1.60
  -3   6  11    0.00    1.40
   2  -6 -11    1.90    1.50
  -2   6  11    2.90    1.50
   1  -6 -11  125.69    5.50
  -1   6  11  127.79    5.30
   0  -6 -11   46.40    3.00
   0   6  11   42.80    2.70
  -1  -6 -11   -0.80    1.50
   1   6  11    1.00    1.50
  -2  -6 -11   56.89    3.90
   2   6  11   57.79    3.70
   6  -7 -11    0.20    2.80
   5  -7 -11    1.10    2.20
   4  -7 -11   52.19    3.80
  -4   7  11   51.79    3.70
   3  -7 -11   20.00    2.50
  -3   7  11   17.90    2.50
   2  -7 -11    0.80    1.80
  -2   7  11   -0.10    1.80
   1  -7 -11   70.79    4.20
  -1   7  11   70.09    3.80
   0  -7 -11   19.40    2.50
   0   7  11   21.60    2.50
  -1  -7 -11    8.60    2.20
   1   7  11    7.30    2.10
  -2  -7 -11   52.09    4.10
  -5   8  11   35.30    4.10
  -4   8  11  166.98    7.30
   3  -8 -11    0.40    1.90
  -3   8  11   -0.80    2.30
   2  -8 -11    0.10    1.90
  -2   8  11    0.30    2.10
   1  -8 -11   -0.60    2.00
  -1   8  11   -0.60    2.00
  -2  -8  12   43.60    3.30
   1   8 -12   97.19    4.90
  -1  -8  12   91.09    4.60
   0  -8  12    0.30    1.80
   1  -8  12   15.90    2.10
   2  -8  12    0.10    1.60
   3   7 -12   43.90    3.40
  -3  -7  12   47.80    3.10
   2   7 -12    4.60    2.00
  -2  -7  12    4.60    1.80
   1   7 -12    7.60    2.00
  -1  -7  12    8.00    1.80
   0   7 -12    0.10    1.50
   0  -7  12   -0.60    1.50
   1  -7  12   22.60    2.40
   2  -7  12   12.70    2.10
   3  -7  12   16.50    2.20
   4   6 -12    3.80    2.00
  -4  -6  12    5.40    1.90
   3   6 -12  102.39    5.00
  -3  -6  12  109.29    4.80
   2   6 -12    1.40    1.60
  -2  -6  12    0.40    1.40
   1   6 -12   17.20    2.00
  -1  -6  12   17.40    1.90
   0   6 -12  106.79    4.60
   0  -6  12  105.99    4.60
   1  -6  12    6.90    1.60
   2  -6  12    5.30    1.60
   3  -6  12    2.20    1.70
   4  -6  12    7.80    2.20
   5   5 -12   30.80    3.40
  -5  -5  12   28.80    3.20
   4   5 -12    4.60    1.70
  -4  -5  12    5.70    1.80
   3   5 -12   74.59    3.70
  -3  -5  12   67.99    3.50
   2   5 -12   19.60    2.20
  -2  -5  12   18.40    2.10
   1   5 -12   12.10    1.70
  -1  -5  12   11.40    1.50
   0   5 -12    7.50    1.50
   0  -5  12    9.40    1.50
   1  -5  12    0.50    1.20
   2  -5  12    5.20    1.40
   3  -5  12    8.90    1.60
   4  -5  12   19.80    2.40
  -5   5 -12   83.19    4.60
   5   4 -12   36.30    3.10
  -5  -4  12   28.10    2.80
   4   4 -12    0.00    1.40
  -4  -4  12    1.20    1.50
   3   4 -12  194.88    7.30
  -3  -4  12  187.28    7.10
   2   4 -12    6.50    1.40
  -2  -4  12    5.30    1.30
   1   4 -12    4.00    1.20
  -1  -4  12    3.20    1.20
   0   4 -12   -0.30    1.00
   0  -4  12    0.10    0.90
   1  -4  12  114.99    4.70
   2  -4  12   61.09    3.20
   3  -4  12   24.00    2.40
  -4   4 -12    4.20    1.80
   4  -4  12    3.50    1.70
  -5   4 -12   42.00    3.70
   6   3 -12   25.00    2.80
  -6  -3  12   17.10    2.50
   5   3 -12   11.20    2.00
  -5  -3  12    5.20    1.60
   4   3 -12   29.60    2.30
  -4  -3  12   24.90    2.30
   3   3 -12   39.80    2.50
  -3  -3  12   36.20    2.20
   2   3 -12  237.08    8.50
  -2  -3  12  234.68    8.40
   1   3 -12    4.30    1.20
  -1  -3  12    2.10    1.00
   0   3 -12   92.19    3.80
   0  -3  12   86.49    3.70
  -1   3 -12   11.80    2.30
   1  -3  12   10.70    1.40
   2  -3  12    0.10    1.00
  -3   3 -12    1.70    1.50
   3  -3  12    1.10    1.10
  -4   3 -12   21.10    2.40
   4  -3  12   22.00    2.30
  -5   3 -12    9.00    2.50
   5  -3  12    9.90    2.10
   6   2 -12   35.10    3.30
  -6  -2  12   35.90    3.00
   5   2 -12    0.20    1.30
  -5  -2  12   -0.20    1.50
   4   2 -12   25.90    2.10
  -4  -2  12   25.40    2.20
   3   2 -12    2.60    1.10
  -3  -2  12    3.00    1.00
   2   2 -12   22.00    2.00
  -2  -2  12   19.90    1.80
   1   2 -12  104.89    4.20
  -1  -2  12  102.89    4.20
   0   2 -12  107.99    4.20
   0  -2  12  101.79    4.10
  -1   2 -12   31.20    2.10
   1  -2  12   34.30    2.20
  -2   2 -12  105.69    4.40
   2  -2  12  107.39    4.40
  -3   2 -12    3.10    1.50
   3  -2  12    5.30    1.40
  -4   2 -12    3.90    1.80
   4  -2  12    4.50    1.40
  -5   2 -12    1.20    2.30
   5  -2  12    0.40    1.50
   7   1 -12   15.70    2.60
   6   1 -12   19.80    2.50
  -6  -1  12   13.80    2.30
   5   1 -12   43.50    3.00
  -5  -1  12   41.30    2.80
   4   1 -12   61.09    3.20
  -4  -1  12   56.29    3.00
   3   1 -12   69.49    3.40
  -3  -1  12   65.39    3.10
   2   1 -12  222.78    8.20
  -2  -1  12  229.98    8.00
   1   1 -12  549.95   18.00
  -1  -1  12  529.55   17.90
   0   1 -12   36.90    2.20
   0  -1  12   35.10    2.00
  -1   1 -12    2.90    1.10
   1  -1  12    2.30    1.00
  -2   1 -12   35.40    2.30
  -3   1 -12    4.20    1.50
   3  -1  12    4.90    1.40
  -4   1 -12   10.80    2.10
   4  -1  12    9.00    1.50
  -5   1 -12   -0.70    2.10
   5  -1  12   -0.60    1.60
   7   0 -12    8.80    2.40
  -7   0  12    8.30    2.20
   6   0 -12   -0.70    1.70
  -6   0  12   -1.00    1.60
   5   0 -12   26.90    2.50
  -5   0  12   28.00    2.30
   4   0 -12    1.80    1.20
  -4   0  12    0.60    1.20
   3   0 -12    1.80    1.00
  -3   0  12    1.00    0.90
   2   0 -12  294.67   10.10
  -2   0  12  275.87    9.80
   1   0 -12  194.38    7.30
  -1   0  12  208.18    7.10
   0   0 -12   14.60    1.60
   0   0  12   15.20    1.30
  -1   0 -12   56.49    2.90
  -1   0 -12   56.09    2.80
   1   0  12   62.39    2.80
  -2   0 -12   65.99    3.20
  -3   0 -12  151.58    6.00
   3   0  12  157.08    5.90
  -4   0 -12    7.50    1.70
   4   0  12    7.40    1.60
  -5   0 -12    1.70    2.10
   5   0  12    2.20    1.80
   7  -1 -12    1.00    2.00
  -7   1  12   -0.70    1.90
   6  -1 -12   14.50    2.20
  -6   1  12   15.30    2.20
   5  -1 -12    2.40    1.30
  -5   1  12    2.50    1.30
   4  -1 -12   12.60    1.80
  -4   1  12   12.50    1.70
   3  -1 -12    0.70    1.10
  -3   1  12    1.10    1.00
   2  -1 -12   22.20    2.00
  -2   1  12   18.60    1.60
   1  -1 -12  120.79    4.90
  -1   1  12  121.29    4.60
   0  -1 -12   43.00    2.50
   0   1  12   43.50    2.20
   0   1  12   44.00    2.20
  -1  -1 -12   -0.30    1.00
  -1  -1 -12   -0.40    1.00
   1   1  12   -0.30    0.90
  -2  -1 -12  274.57    9.70
   2   1  12  277.17    9.60
  -3  -1 -12   18.20    2.00
  -4  -1 -12    1.80    1.80
  -5  -1 -12   15.60    4.50
   7  -2 -12   37.00    3.60
  -7   2  12   37.30    3.80
   6  -2 -12    0.00    1.70
  -6   2  12   -0.10    1.60
   5  -2 -12    7.80    1.80
  -5   2  12    4.00    1.50
   4  -2 -12   43.00    2.80
  -4   2  12   38.50    2.50
   3  -2 -12    0.70    1.10
  -3   2  12    0.30    1.00
   2  -2 -12   16.00    1.90
  -2   2  12   17.00    1.60
   1  -2 -12   17.50    1.80
  -1   2  12   17.00    1.50
   0  -2 -12   16.20    1.80
   0   2  12   15.30    1.50
  -1  -2 -12  145.29    5.60
   1   2  12  143.89    5.50
  -2  -2 -12    2.20    1.40
  -3  -2 -12   24.70    2.30
  -4  -2 -12   26.50    3.10
   7  -3 -12    5.00    2.40
   6  -3 -12   25.80    2.90
   5  -3 -12    0.90    1.30
   4  -3 -12   -0.80    1.30
   3  -3 -12   34.70    2.60
   2  -3 -12  105.39    4.70
   1  -3 -12   45.60    2.90
  -1   3  12   50.29    2.50
   0  -3 -12   27.70    2.20
   0   3  12   23.60    1.90
  -1  -3 -12   90.39    4.20
   1   3  12   97.39    4.10
   2   3  12   18.40    2.10
  -3  -3 -12   27.50    2.70
  -4  -3 -12   13.40    2.60
   6  -4 -12    6.10    2.10
   5  -4 -12    5.90    1.90
   4  -4 -12    3.10    1.70
   3  -4 -12    0.60    1.40
   2  -4 -12    2.40    1.40
  -2   4  12    3.40    1.30
   1  -4 -12   30.20    2.50
  -1   4  12   31.40    2.20
   0  -4 -12   34.00    2.50
   0   4  12   36.00    2.20
  -1  -4 -12   30.10    2.60
   1   4  12   34.60    2.40
  -2  -4 -12   53.39    3.60
   2   4  12   50.99    3.20
   3   4  12    0.20    1.70
   6  -5 -12    4.30    2.10
   5  -5 -12    1.30    1.70
   4  -5 -12    3.40    1.50
   3  -5 -12  117.99    5.20
   2  -5 -12    7.10    1.50
  -2   5  12    6.30    1.60
   1  -5 -12   26.00    2.60
  -1   5  12   27.50    2.30
   0  -5 -12   -0.50    1.40
   0   5  12    0.00    1.20
  -1  -5 -12    0.70    1.40
   1   5  12   -0.20    1.50
  -2  -5 -12    5.80    2.00
   2   5  12    2.20    1.80
   6  -6 -12   16.20    2.70
   5  -6 -12  123.69    5.80
   4  -6 -12    2.70    1.70
   3  -6 -12   -0.70    1.50
  -3   6  12    0.70    1.70
   2  -6 -12   12.30    2.20
  -2   6  12   16.40    2.20
   1  -6 -12    2.10    1.50
  -1   6  12    2.10    1.50
   0  -6 -12    2.80    1.70
   0   6  12    4.00    1.70
  -1  -6 -12   17.80    2.60
   1   6  12   14.40    2.10
  -2  -6 -12   14.60    2.50
   2   6  12   14.30    2.70
   4  -7 -12    1.40    2.20
   3  -7 -12    9.20    2.30
  -3   7  12   10.80    2.30
   2  -7 -12   12.00    2.40
  -2   7  12   10.90    2.20
   1  -7 -12    9.10    2.40
  -1   7  12   13.40    2.40
   0  -7 -12   15.30    2.60
   0   7  12   19.40    2.50
  -1  -7 -12   35.60    3.60
  -3   8  12    1.90    2.30
  -2   8  12    0.10    2.30
   1   8 -13    0.70    2.30
   2   7 -13   24.80    2.80
  -2  -7  13   21.60    2.50
   1   7 -13   53.49    3.60
  -1  -7  13   46.40    3.10
   0  -7  13    4.30    1.80
   1  -7  13    1.40    1.70
   2  -7  13    2.00    1.70
   3   6 -13    7.30    2.10
  -3  -6  13    6.60    1.90
   2   6 -13    0.60    1.70
  -2  -6  13   -0.20    1.50
   1   6 -13    8.00    1.70
  -1  -6  13    8.60    1.60
   0   6 -13    2.50    1.50
   0  -6  13    1.60    1.40
   1  -6  13    7.10    1.70
   2  -6  13   -0.50    1.70
   3  -6  13   49.99    3.30
   4   5 -13   21.30    2.60
  -4  -5  13   15.60    2.30
   3   5 -13    1.40    1.50
  -3  -5  13    0.70    1.50
   2   5 -13   76.29    3.90
  -2  -5  13   69.69    3.60
   1   5 -13   27.60    2.50
  -1  -5  13   28.00    2.40
   0   5 -13   45.90    3.00
   0  -5  13   49.99    2.80
   1  -5  13    7.90    1.50
   2  -5  13    7.40    1.60
   5   4 -13   13.00    2.40
  -5  -4  13   13.60    2.20
   4   4 -13   -1.10    1.60
  -4  -4  13   -0.10    1.60
   3   4 -13    0.10    1.50
  -3  -4  13    0.80    1.20
   2   4 -13   66.89    3.50
  -2  -4  13   64.19    3.20
   1   4 -13    0.30    1.10
  -1  -4  13    0.30    1.00
   0   4 -13   22.80    2.10
   0  -4  13   24.50    2.10
   1  -4  13   51.09    2.90
   2  -4  13   10.10    1.80
   3  -4  13    5.40    1.60
   4  -4  13   34.20    3.20
  -5   4 -13   -1.80    4.10
   5   3 -13   64.59    3.80
  -5  -3  13   69.49    4.00
   4   3 -13  104.69    4.70
  -4  -3  13  102.19    4.60
   3   3 -13   20.00    2.30
  -3  -3  13   19.20    2.00
   2   3 -13   28.60    2.40
  -2  -3  13   28.30    2.00
   1   3 -13   94.19    4.10
  -1  -3  13   97.29    4.10
   0   3 -13   -0.70    1.20
   0  -3  13    0.60    1.00
   1  -3  13   97.49    4.10
   2  -3  13   17.80    1.90
   3  -3  13   62.69    3.40
  -4   3 -13    2.40    2.10
   4  -3  13    4.20    1.70
  -5   3 -13    0.90    2.50
   6   2 -13   63.09    4.20
  -6  -2  13   55.99    4.00
   5   2 -13    0.80    1.60
  -5  -2  13    1.80    1.70
   4   2 -13  104.99    4.70
  -4  -2  13   99.59    4.50
   3   2 -13    7.60    1.50
  -3  -2  13    9.40    1.50
   2   2 -13  121.89    5.00
  -2  -2  13  119.69    4.80
   1   2 -13   57.89    3.00
  -1  -2  13   59.39    3.00
   0   2 -13   15.00    1.70
   0  -2  13   15.70    1.70
   1  -2  13   32.30    2.30
   2  -2  13   71.19    3.40
  -3   2 -13    0.80    1.60
   3  -2  13    1.20    1.40
  -4   2 -13    2.20    1.90
   4  -2  13    1.00    1.70
  -5   2 -13    4.60    2.60
   6   1 -13    1.00    1.70
  -6  -1  13    1.60    1.90
   5   1 -13   31.30    2.90
  -5  -1  13   32.00    2.80
   4   1 -13   -0.30    1.30
  -4  -1  13    0.40    1.10
   3   1 -13   23.60    2.00
  -3  -1  13   20.70    2.00
   2   1 -13   39.40    2.60
  -2  -1  13   38.60    2.20
   1   1 -13  150.88    6.00
  -1  -1  13  164.28    5.90
   0   1 -13   88.39    3.80
   0  -1  13   78.09    3.50
  -1   1 -13   52.19    2.80
   1  -1  13   53.99    2.70
  -2   1 -13   48.80    2.90
   2  -1  13   53.29    2.90
  -3   1 -13    2.50    1.50
   3  -1  13    2.00    1.40
  -4   1 -13   19.50    2.60
   4  -1  13   24.80    2.60
   5  -1  13    1.20    2.00
   6   0 -13    2.00    1.90
  -6   0  13    1.70    1.70
   5   0 -13    9.70    2.00
  -5   0  13    6.80    1.60
   4   0 -13    9.80    1.80
  -4   0  13    6.60    1.40
   3   0 -13  222.18    8.30
  -3   0  13  221.68    8.00
   2   0 -13   97.19    4.40
  -2   0  13  108.49    4.20
   1   0 -13    3.20    1.30
  -1   0  13    1.50    0.90
   0   0 -13  103.79    4.40
   0   0  13  101.39    4.10
  -1   0 -13   20.50    2.10
   1   0  13   23.10    1.90
  -2   0 -13    0.40    1.40
   2   0  13   -0.20    1.10
  -3   0 -13    1.00    1.60
   3   0  13    0.60    1.40
  -4   0 -13   13.80    2.40
   4   0  13   15.50    2.10
   7  -1 -13   34.00    4.10
   6  -1 -13    1.90    1.80
  -6   1  13    1.40    1.80
   5  -1 -13    0.60    1.60
  -5   1  13   -0.10    1.40
   4  -1 -13  213.48    8.20
  -4   1  13  223.58    8.00
   3  -1 -13   62.29    3.20
  -3   1  13   56.89    2.80
   2  -1 -13  188.58    7.10
  -2   1  13  186.98    6.80
   1  -1 -13   24.30    2.10
  -1   1  13   24.90    1.80
   0  -1 -13    0.30    1.20
   0   1  13   -0.30    0.90
  -1  -1 -13  127.59    5.20
  -1  -1 -13  134.79    5.10
   1   1  13  126.29    5.40
  -2  -1 -13    3.30    1.50
  -3  -1 -13   18.50    2.20
  -4  -1 -13    4.50    2.30
   7  -2 -13   46.70    4.70
  -7   2  13   49.30    4.30
   6  -2 -13  120.89    5.60
  -6   2  13  116.19    5.40
   5  -2 -13   19.60    2.40
  -5   2  13   22.60    2.40
   4  -2 -13   81.29    4.00
  -4   2  13   73.29    3.70
   3  -2 -13   -0.20    1.30
   2  -2 -13   22.90    2.10
   1  -2 -13   14.70    1.80
   0  -2 -13  295.87   10.70
   0   2  13  306.17   10.30
  -1  -2 -13   45.60    2.80
   1   2  13   44.00    2.50
  -2  -2 -13    1.40    1.50
  -3  -2 -13    7.10    1.80
  -4  -2 -13   -0.10    2.20
   6  -3 -13    5.00    2.20
   5  -3 -13    7.90    1.80
   4  -3 -13    0.70    1.50
   3  -3 -13   25.00    2.40
   2  -3 -13   76.69    3.90
   1  -3 -13    6.80    1.50
   0  -3 -13    5.90    1.60
   0   3  13    8.10    1.40
  -1  -3 -13    3.60    1.60
   1   3  13    3.80    1.40
   2   3  13    7.70    1.70
   3   3  13   20.70    2.60
   6  -4 -13   15.60    2.80
   5  -4 -13   32.30    3.40
   4  -4 -13    2.50    1.80
   3  -4 -13    2.90    1.70
   2  -4 -13    2.50    1.50
   1  -4 -13   51.79    3.00
  -1   4  13   51.79    2.90
   0  -4 -13    2.90    1.50
   0   4  13    4.40    1.40
  -1  -4 -13   12.80    2.00
   1   4  13   15.70    2.00
   2   4  13   25.40    2.60
   3   4  13   16.30    2.40
   5  -5 -13   13.70    2.60
   4  -5 -13    0.20    1.80
   3  -5 -13   47.40    3.40
   2  -5 -13   19.40    2.30
  -2   5  13   23.60    2.40
   1  -5 -13    3.10    1.80
  -1   5  13    1.50    1.50
   0  -5 -13   17.80    2.20
   0   5  13   24.20    2.50
  -1  -5 -13    0.00    1.80
   1   5  13   -0.30    1.70
   2   5  13   21.30    2.60
   4  -6 -13   93.89    4.90
   3  -6 -13    4.00    2.00
   2  -6 -13   27.30    3.20
  -2   6  13   24.30    2.80
   1  -6 -13    7.00    2.20
  -1   6  13   13.00    2.30
   0  -6 -13    5.40    2.20
   0   6  13    3.80    1.80
  -1  -6 -13   59.69    4.20
   1   6  13   61.89    4.00
  -3   7  13   15.40    2.80
  -2   7  13    2.10    2.30
  -1   7  13   14.10    2.70
   1   7 -14    0.90    1.90
   2   6 -14    4.10    2.00
  -2  -6  14    3.70    1.90
   1   6 -14   -0.30    1.70
  -1  -6  14    2.50    1.70
   0  -6  14    1.50    1.50
   1  -6  14    0.50    1.60
   2  -6  14   12.20    3.40
   3   5 -14    4.60    1.80
  -3  -5  14    3.20    1.70
   2   5 -14    2.60    1.70
  -2  -5  14    2.00    1.60
   1   5 -14   45.30    3.10
  -1  -5  14   39.60    2.70
   0  -5  14   15.60    2.00
   1  -5  14    5.00    1.70
   2  -5  14    5.20    1.90
   4   4 -14   23.20    2.70
  -4  -4  14   21.00    2.50
   3   4 -14    6.30    1.80
  -3  -4  14    5.20    1.50
   2   4 -14   16.20    2.10
  -2  -4  14   12.90    1.70
   1   4 -14    9.20    1.70
  -1  -4  14    5.30    1.40
   0   4 -14    1.30    1.50
   0  -4  14    0.00    1.30
   1  -4  14   66.69    3.50
   2  -4  14    0.50    1.40
   3  -4  14   -1.20    1.80
   5   3 -14   16.60    2.90
  -5  -3  14   13.10    2.20
   4   3 -14    0.30    1.50
  -4  -3  14   -0.10    1.60
   3   3 -14    9.70    1.70
  -3  -3  14    9.40    1.70
   2   3 -14   -0.50    1.40
  -2  -3  14   -0.10    1.10
   1   3 -14   36.30    2.50
  -1  -3  14   39.10    2.60
   0   3 -14   49.60    2.90
   0  -3  14   50.69    2.70
   1  -3  14    0.30    1.30
   2  -3  14    5.20    1.70
   3  -3  14    0.30    1.70
   4  -3  14   -0.30    2.20
   5   2 -14    1.70    2.00
  -5  -2  14    3.10    2.00
   4   2 -14   21.40    2.40
  -4  -2  14   23.80    2.30
   3   2 -14   34.90    2.60
  -3  -2  14   36.80    2.60
   2   2 -14   11.40    1.60
  -2  -2  14   10.80    1.60
   1   2 -14   17.20    2.10
  -1  -2  14   20.70    2.00
   0   2 -14   12.10    1.70
   0  -2  14   14.30    1.60
   1  -2  14   23.90    2.20
   2  -2  14   44.40    2.80
   3  -2  14    5.10    1.60
  -4   2 -14   24.60    3.00
   4  -2  14   27.00    2.80
   5   1 -14   32.00    2.80
  -5  -1  14   26.10    2.70
   4   1 -14   15.40    2.10
  -4  -1  14   10.50    1.80
   3   1 -14    0.10    1.30
  -3  -1  14    0.40    1.30
   2   1 -14    5.40    1.40
  -2  -1  14    4.40    1.30
   1   1 -14   -0.40    1.20
  -1  -1  14    0.70    1.10
   0   1 -14   85.49    3.90
   0  -1  14   83.89    3.70
   1  -1  14   13.30    1.70
   2  -1  14    7.40    1.60
  -3   1 -14    0.90    1.80
   3  -1  14   -0.10    1.50
  -4   1 -14    6.60    2.30
   4  -1  14    4.60    2.10
   6   0 -14    7.80    2.30
  -6   0  14    5.80    2.30
   5   0 -14   -1.70    1.70
  -5   0  14    0.40    1.70
   4   0 -14   75.49    4.00
  -4   0  14   69.49    3.50
   3   0 -14   74.19    3.80
  -3   0  14   77.89    3.60
   2   0 -14   38.50    2.70
  -2   0  14   34.30    2.30
   1   0 -14   12.40    1.80
  -1   0  14   11.60    1.50
   0   0 -14    2.70    1.40
   0   0  14    2.30    1.10
   1   0  14    9.50    1.50
   2   0  14    4.90    1.50
  -3   0 -14   22.10    2.50
  -4   0 -14    7.90    2.50
   6  -1 -14    0.20    1.80
  -6   1  14    3.60    2.20
   5  -1 -14   69.99    3.90
  -5   1  14   63.49    3.60
   4  -1 -14  162.08    6.50
  -4   1  14  149.69    6.10
   3  -1 -14   32.20    2.70
  -3   1  14   30.80    2.30
   2  -1 -14   32.60    2.70
  -2   1  14   33.70    2.30
   1  -1 -14    1.90    1.20
  -1   1  14    0.70    1.10
   0  -1 -14   40.40    2.80
  -1  -1 -14    3.20    1.50
  -2  -1 -14    2.70    1.60
  -3  -1 -14    1.10    1.90
  -4  -1 -14    1.70    2.40
   6  -2 -14   41.30    3.90
   5  -2 -14   31.10    3.20
   4  -2 -14   95.29    4.60
   3  -2 -14   34.30    2.90
   2  -2 -14    0.40    1.40
   1  -2 -14    4.40    1.60
   0  -2 -14   31.60    2.60
  -1  -2 -14    3.40    1.50
   1   2  14    3.30    1.50
   2   2  14   15.40    2.00
  -3  -2 -14   26.70    2.90
   5  -3 -14    1.00    1.80
   4  -3 -14   18.70    2.50
   3  -3 -14   56.69    3.50
   2  -3 -14  112.99    5.20
   1  -3 -14   20.80    2.40
   0  -3 -14    0.40    1.50
   0   3  14   -0.70    1.50
  -1  -3 -14   65.59    3.80
   1   3  14   60.89    3.40
   2   3  14    2.30    1.90
   3   3  14   -1.10    1.80
   5  -4 -14   -0.10    2.20
   4  -4 -14   51.99    3.60
   3  -4 -14    3.30    1.90
   2  -4 -14   27.20    2.90
   1  -4 -14   -0.70    1.30
   0  -4 -14    0.30    1.70
   0   4  14   -0.40    1.50
  -1  -4 -14    0.30    1.80
   1   4  14   -0.30    1.70
   2   4  14   20.40    2.70
   4  -5 -14   -0.70    2.00
   3  -5 -14   33.90    3.10
   2  -5 -14    2.90    1.90
   1  -5 -14    0.40    1.70
  -1   5  14   -0.60    1.60
   0  -5 -14   15.60    2.40
   0   5  14   11.60    2.20
  -1  -5 -14    2.10    2.20
   1   5  14    0.90    2.00
   2  -6 -14   22.90    3.20
   1  -6 -14    2.10    2.10
  -1   6  14    0.70    2.10
   0  -6 -14   29.40    4.70
   0   6  14   31.00    3.30
  -2   7  14   -0.60    2.10
   1   6 -15    0.50    2.00
   2   5 -15    3.00    2.00
  -2  -5  15    2.40    1.70
   1   5 -15   -0.20    1.60
  -1  -5  15    0.80    1.50
   0  -5  15   13.30    2.00
   1  -5  15    0.50    1.70
   3   4 -15    0.30    1.80
  -3  -4  15    0.10    1.70
   2   4 -15   -0.30    1.70
  -2  -4  15    1.00    1.40
   1   4 -15    3.20    1.80
  -1  -4  15    0.90    1.40
   0  -4  15    3.00    1.50
   1  -4  15   42.30    3.00
   2  -4  15    6.40    1.90
   4   3 -15   15.50    2.50
  -4  -3  15   12.00    2.30
   3   3 -15    1.70    1.80
  -3  -3  15    0.60    1.40
   2   3 -15    0.20    1.60
  -2  -3  15   -0.70    1.40
   1   3 -15   47.40    3.10
  -1  -3  15   46.80    2.90
   0   3 -15    5.60    1.70
   0  -3  15    7.70    1.60
   1  -3  15    0.00    1.50
   2  -3  15    1.90    1.80
   3  -3  15    8.60    2.20
   4   2 -15    6.10    2.10
  -4  -2  15    5.90    1.90
   3   2 -15    3.30    1.70
  -3  -2  15    2.70    1.40
   2   2 -15    0.20    1.40
  -2  -2  15    0.10    1.20
   1   2 -15   13.60    2.00
  -1  -2  15   12.00    1.70
   0   2 -15    1.00    1.50
   0  -2  15   -0.20    1.10
   1  -2  15   19.10    2.00
   2  -2  15   12.90    2.10
   3  -2  15   -0.40    1.70
   5   1 -15   -0.40    2.30
  -5  -1  15    0.20    1.80
   4   1 -15    4.70    2.00
  -4  -1  15    4.30    1.60
   3   1 -15   28.50    2.60
  -3  -1  15   29.40    2.30
   2   1 -15    7.30    1.60
  -2  -1  15    8.90    1.60
   1   1 -15    5.20    1.60
  -1  -1  15    5.20    1.40
   0   1 -15   49.40    3.10
   0  -1  15   50.09    2.90
   1  -1  15   30.40    2.40
   2  -1  15   44.80    3.10
   3  -1  15   42.10    3.30
   5   0 -15   -0.40    2.00
  -5   0  15   -0.20    1.90
   4   0 -15   55.39    3.50
  -4   0  15   54.19    3.40
   3   0 -15    8.80    1.90
  -3   0  15    6.90    1.60
   2   0 -15   18.10    2.20
  -2   0  15   17.90    1.90
   1   0 -15   18.10    2.10
  -1   0  15   14.70    1.70
   0   0 -15    2.40    1.50
   0   0  15    3.20    1.30
   1   0  15   10.40    1.70
  -6   1  15   25.30    3.30
   5  -1 -15   59.89    4.20
  -5   1  15   58.89    4.00
   4  -1 -15    2.80    1.90
  -4   1  15    0.80    1.60
   3  -1 -15   31.30    2.70
  -3   1  15   29.30    2.50
   2  -1 -15   22.70    2.40
   1  -1 -15    5.40    1.70
   0  -1 -15    2.20    1.70
  -3  -1 -15    1.10    2.20
   5  -2 -15    9.80    2.50
   4  -2 -15   10.30    2.10
   3  -2 -15   39.60    3.30
   2  -2 -15    7.90    2.00
   1  -2 -15    6.20    1.70
   0  -2 -15   45.80    3.10
   2   2  15    6.30    2.10
   3   2  15    6.50    2.10
   4  -3 -15    3.70    2.00
   3  -3 -15    1.00    2.00
   2  -3 -15   15.80    2.40
   1  -3 -15    3.60    1.90
   0  -3 -15   -1.20    1.50
   1   3  15   12.20    2.30
   2   3  15    0.90    2.00
   4  -4 -15  149.09    7.30
   3  -4 -15    1.20    2.20
   2  -4 -15   53.29    3.60
   1  -4 -15   23.90    2.90
   0  -4 -15    0.00    2.00
  -1  -4 -15   18.30    3.10
   1   4  15   16.60    2.50
   2  -5 -15    8.00    2.30
   1  -5 -15    1.60    2.10
   0  -5 -15    2.80    2.10
   0   5  15    1.80    2.00
  -1  -5 -15   12.40    3.00
   1   5 -16   70.29    4.40
   2   4 -16   19.30    2.60
  -2  -4  16   14.90    2.60
   1   4 -16   11.00    2.30
  -1  -4  16   15.10    2.30
   0  -4  16   23.80    2.60
   1  -4  16   74.69    5.80
   3   3 -16    0.10    2.00
  -3  -3  16    2.20    1.60
   2   3 -16    0.60    1.60
  -2  -3  16    2.10    1.70
   1   3 -16   42.20    3.30
  -1  -3  16   42.90    3.20
   0  -3  16   45.20    3.20
   1  -3  16   63.09    3.60
   2  -3  16   24.90    3.10
  -4  -2  16    0.50    1.70
   3   2 -16   70.39    4.30
  -3  -2  16   65.39    3.70
   2   2 -16   28.20    3.00
  -2  -2  16   27.20    2.70
   1   2 -16   -1.40    1.70
  -1  -2  16    0.00    1.40
   0  -2  16    9.70    1.90
   1  -2  16   24.80    2.50
   2  -2  16   11.80    2.30
   4   1 -16    4.80    2.30
  -4  -1  16    6.60    2.10
   3   1 -16   26.40    3.10
  -3  -1  16   29.60    2.50
   2   1 -16    1.70    1.70
  -2  -1  16    3.80    1.60
   1   1 -16   12.30    2.20
  -1  -1  16   15.20    1.90
   0   1 -16    3.90    1.80
   0  -1  16    2.00    1.50
   1  -1  16   17.70    2.00
   2  -1  16   -0.30    1.80
   3  -1  16    4.80    3.20
  -5   0  16    3.80    2.40
   4   0 -16   17.80    2.60
  -4   0  16   22.10    2.50
   3   0 -16    3.00    1.90
  -3   0  16    3.40    1.70
   2   0 -16   90.89    4.70
  -2   0  16   95.89    4.30
   1   0 -16   46.70    3.40
  -1   0  16   42.00    2.90
   0   0 -16   17.90    2.30
   4  -1 -16   11.70    2.30
   3  -1 -16   -1.10    1.60
   2  -1 -16   51.49    3.60
   1  -1 -16    0.80    1.60
   0  -1 -16    1.20    1.90
   3  -2 -16   46.80    3.80
   2  -2 -16    2.10    2.10
   1  -2 -16   30.00    3.20
   0  -2 -16    1.20    1.90
   3  -3 -16   -0.30    2.10
   2  -3 -16    1.30    2.10
   1  -3 -16   73.39    4.50
   0  -3 -16   11.90    2.20
   1  -4 -16    4.00    1.90
   0  -4 -16    2.50    2.20
   1   4 -17    5.90    2.30
   2   3 -17   14.20    2.80
   1   3 -17   64.09    4.20
   2   2 -17    0.40    2.00
  -2  -2  17   -0.20    1.70
   1   2 -17   24.40    2.70
  -1  -2  17   30.00    3.00
   0  -2  17   -1.20    1.80
   1  -2  17   84.89    4.60
  -3  -1  17   86.89    4.60
   2   1 -17    7.30    2.20
  -2  -1  17    4.80    1.90
   1   1 -17   21.00    2.70
  -1  -1  17   21.60    2.40
   0  -1  17   12.70    2.30
   1  -1  17   11.40    2.20
  -4   0  17   73.19    4.50
  -3   0  17   17.50    2.40
   2   0 -17    0.80    2.10
   1   0 -17   12.70    2.50
   2  -1 -17   27.50    3.10
   1  -1 -17   38.80    3.70
   2  -2 -17    1.40    2.60
   1  -2 -17    5.00    2.30
   0  -2 -17    4.10    2.30
   1   2 -18    1.60    3.90
   1   1 -18   17.40    3.10
  -1  -1  18   18.60    2.60
   0   0   0    0.00    0.00
_computing_structure_solution     'SHELXT 2014/5 (Sheldrick, 2014)'
;
_shelx_hkl_checksum              60459
_shelx_res_file
;
TITL JTM977_0m_a.res in P-1
    JTM977_0m_a.res
    created by SHELXL-2018/1 at 16:53:54 on 01-Aug-2018
REM Old TITL JTM977_0m in P-1
REM SHELXT solution in P-1
REM R1 0.122,  Rweak 0.003,  Alpha 0.023,  Orientation as input
REM Formula found by SHELXT:  C21 N3
CELL  0.71073   6.5921   8.3935  13.1847   92.023   98.309   99.741
ZERR    4.000   0.0014   0.0018   0.0028    0.003    0.003    0.003
LATT  1
SFAC C H N O
UNIT 24 28 20 4
TEMP -173
SIZE 0.091 0.156 0.394
L.S. 5
BOND $H
LIST 4
FMAP 2
PLAN 5
OMIT -1   2  14
CONF
ACTA 53
HTAB N1 N7
EQIV $1 -x, -y+1, -z+1
HTAB N5 N2_$1
EQIV $2 x, y, z+1
HTAB N5 O2_$2
EQIV $3 -x+1, -y+1, -z+1
HTAB N6 N3_$3
EQIV $4 -x+1, -y, -z+1
HTAB N10 O1_$4
EQIV $5 -x, -y, -z
HTAB N10 N8_$5
MPLA N1 > N4 C2 > C6
MPLA N6 > N9 C8 > C12
WGHT    0.084800
FVAR       0.73779
O1    4    0.718729    0.153236    0.678475    11.00000    0.02878    0.03386 =
         0.01707    0.00721   -0.00212    0.00873
N1    3    0.457255    0.261276    0.397103    11.00000    0.02348    0.01987 =
         0.01067    0.00093    0.00031    0.00195
H1    2    0.396061    0.275202    0.337358    11.00000    0.04713
N2    3    0.229452    0.381119    0.493823    11.00000    0.02233    0.02024 =
         0.01147    0.00149    0.00009    0.00185
N3    3    0.385258    0.324819    0.653187    11.00000    0.02337    0.02007 =
         0.01161    0.00120    0.00127    0.00334
H3    2    0.832757    0.096621    0.500764    11.00000    0.03826
N4    3    0.483120    0.269434    0.576060    11.00000    0.02165    0.01742 =
         0.01162    0.00117    0.00106    0.00244
N5    3    0.099074    0.460377    0.643733    11.00000    0.02783    0.02884 =
         0.01134    0.00313    0.00235    0.00903
H5A   2    0.000393    0.500512    0.598797    11.00000    0.03746
H5B   2    0.090018    0.443542    0.708670    11.00000    0.02658
C1    1    0.696345    0.142617    0.305162    11.00000    0.03046    0.02753 =
         0.02083   -0.00103    0.00536    0.00336
AFIX 137
H1A   2    0.781469    0.238609    0.283004    11.00000   -1.50000
H1B   2    0.574460    0.105785    0.252660    11.00000   -1.50000
H1C   2    0.779082    0.056198    0.314946    11.00000   -1.50000
AFIX   0
C2    1    0.626216    0.184197    0.404119    11.00000    0.02107    0.01794 =
         0.01958   -0.00061    0.00344   -0.00171
C3    1    0.720989    0.148906    0.496935    11.00000    0.02087    0.02142 =
         0.02003    0.00041    0.00088    0.00386
C4    1    0.651380    0.186166    0.591716    11.00000    0.02206    0.01823 =
         0.01754    0.00202   -0.00073    0.00031
C5    1    0.233638    0.389260    0.599226    11.00000    0.02342    0.01573 =
         0.01253    0.00087   -0.00034   -0.00056
C6    1    0.386921    0.305464    0.483650    11.00000    0.02070    0.01589 =
         0.01157    0.00041   -0.00103   -0.00186
O2    4    0.099212    0.386833   -0.137307    11.00000    0.02417    0.02947 =
         0.01076    0.00046   -0.00050    0.00444
N6    3    0.376981    0.562219    0.149783    11.00000    0.01944    0.02028 =
         0.01132   -0.00062    0.00012    0.00356
H6    2    0.438231    0.602135    0.217005    11.00000    0.03472
N7    3    0.248073    0.290267    0.195380    11.00000    0.01970    0.01933 =
         0.01167    0.00050    0.00018    0.00325
N8    3    0.092672    0.193331    0.032273    11.00000    0.01805    0.01815 =
         0.01297    0.00183    0.00038    0.00286
N9    3    0.184600    0.354927    0.033843    11.00000    0.01679    0.01897 =
         0.00976    0.00026    0.00083    0.00366
N10   3    0.063690    0.015865    0.164968    11.00000    0.02676    0.01845 =
         0.01225    0.00232   -0.00082    0.00192
H10A  2    0.122777   -0.015330    0.221776    11.00000    0.02321
H10B  2    0.013433   -0.059800    0.119678    11.00000    0.02234
C7    1    0.493617    0.833060    0.099812    11.00000    0.03117    0.01852 =
         0.01946    0.00009    0.00522    0.00325
AFIX 137
H7A   2    0.530492    0.885495    0.038129    11.00000   -1.50000
H7B   2    0.620513    0.831601    0.148471    11.00000   -1.50000
H7C   2    0.402030    0.893396    0.131765    11.00000   -1.50000
AFIX   0
C8    1    0.383627    0.663446    0.070968    11.00000    0.01830    0.01973 =
         0.01581    0.00250    0.00443    0.00688
C9    1    0.292405    0.610616   -0.026497    11.00000    0.02077    0.02159 =
         0.01350    0.00331    0.00342    0.00745
H9    2    0.300906    0.689345   -0.081009    11.00000    0.01882
C10   1    0.185473    0.447626   -0.052444    11.00000    0.01658    0.02573 =
         0.01208    0.00293    0.00288    0.00823
C11   1    0.134341    0.161535    0.130233    11.00000    0.01570    0.02053 =
         0.01262    0.00070    0.00170    0.00514
C12   1    0.275507    0.407170    0.131175    11.00000    0.01566    0.02048 =
         0.01045   -0.00006    0.00034    0.00536
HKLF 4
REM  JTM977_0m_a.res in P-1
REM R1 =  0.0454 for    2743 Fo > 4sig(Fo)  and  0.0573 for all    3503 data
REM    251 parameters refined using      0 restraints
END
WGHT      0.0861      0.0000
REM Highest difference peak  0.365,  deepest hole -0.259,  1-sigma level  0.065
Q1    1   0.2372  0.3799  0.0826  11.00000  0.05    0.37
Q2    1   0.3159  0.6293  0.0220  11.00000  0.05    0.36
Q3    1   0.2149  0.3864  0.5415  11.00000  0.05    0.35
Q4    1   0.6899  0.1593  0.5382  11.00000  0.05    0.35
Q5    1   0.8404  0.1554  0.3178  11.00000  0.05    0.31
;
_shelx_res_checksum              87241
loop_
_space_group_symop_operation_xyz
'x, y, z'
'-x, -y, -z'
loop_
_atom_site_type_symbol
_atom_site_label
_atom_site_fract_x
_atom_site_fract_y
_atom_site_fract_z
_atom_site_U_iso_or_equiv
_atom_site_adp_type
_atom_site_calc_flag
_atom_site_occupancy
O O1 0.71873(17) 0.15324(13) 0.67848(8) 0.0266(3) Uani d 1
N N1 0.45726(19) 0.26128(14) 0.39710(9) 0.0185(3) Uani d 1
H H1 0.396(4) 0.275(2) 0.3374(17) 0.047(6) Uiso d 1
N N2 0.22945(19) 0.38112(14) 0.49382(9) 0.0185(3) Uani d 1
N N3 0.38526(19) 0.32482(14) 0.65319(9) 0.0185(3) Uani d 1
H H3 0.833(3) 0.097(2) 0.5008(14) 0.038(5) Uiso d 1
N N4 0.48312(19) 0.26943(14) 0.57606(9) 0.0172(3) Uani d 1
N N5 0.0991(2) 0.46038(16) 0.64373(10) 0.0222(3) Uani d 1
H H5A 0.000(3) 0.501(2) 0.5988(15) 0.037(5) Uiso d 1
H H5B 0.090(3) 0.444(2) 0.7087(15) 0.027(5) Uiso d 1
C C1 0.6963(3) 0.1426(2) 0.30516(12) 0.0264(4) Uani d 1
H H1A 0.781469 0.238609 0.283004 0.040 Uiso calc 1
H H1B 0.574460 0.105785 0.252660 0.040 Uiso calc 1
H H1C 0.779082 0.056198 0.314946 0.040 Uiso calc 1
C C2 0.6262(2) 0.18420(17) 0.40412(11) 0.0201(3) Uani d 1
C C3 0.7210(2) 0.14891(18) 0.49694(12) 0.0210(3) Uani d 1
C C4 0.6514(2) 0.18617(17) 0.59172(11) 0.0200(3) Uani d 1
C C5 0.2336(2) 0.38926(17) 0.59923(10) 0.0180(3) Uani d 1
C C6 0.3869(2) 0.30546(17) 0.48365(10) 0.0170(3) Uani d 1
O O2 0.09921(16) 0.38683(13) -0.13731(7) 0.0218(3) Uani d 1
N N6 0.37698(19) 0.56222(14) 0.14978(9) 0.0173(3) Uani d 1
H H6 0.438(3) 0.602(2) 0.2170(15) 0.035(5) Uiso d 1
N N7 0.24807(18) 0.29027(14) 0.19538(9) 0.0172(3) Uani d 1
N N8 0.09267(18) 0.19333(14) 0.03227(9) 0.0166(3) Uani d 1
N N9 0.18460(18) 0.35493(14) 0.03384(8) 0.0153(3) Uani d 1
N N10 0.0637(2) 0.01587(16) 0.16497(10) 0.0197(3) Uani d 1
H H10A 0.123(3) -0.015(2) 0.2218(14) 0.023(4) Uiso d 1
H H10B 0.013(3) -0.060(2) 0.1197(14) 0.022(4) Uiso d 1
C C7 0.4936(3) 0.83306(18) 0.09981(12) 0.0231(3) Uani d 1
H H7A 0.530492 0.885495 0.038129 0.035 Uiso calc 1
H H7B 0.620513 0.831601 0.148471 0.035 Uiso calc 1
H H7C 0.402030 0.893396 0.131765 0.035 Uiso calc 1
C C8 0.3836(2) 0.66345(17) 0.07097(11) 0.0173(3) Uani d 1
C C9 0.2924(2) 0.61062(18) -0.02650(11) 0.0180(3) Uani d 1
H H9 0.301(3) 0.6893(19) -0.0810(13) 0.019(4) Uiso d 1
C C10 0.1855(2) 0.44763(18) -0.05244(11) 0.0175(3) Uani d 1
C C11 0.1343(2) 0.16154(17) 0.13023(10) 0.0161(3) Uani d 1
C C12 0.2755(2) 0.40717(17) 0.13117(10) 0.0155(3) Uani d 1
loop_
_atom_site_aniso_label
_atom_site_aniso_U_11
_atom_site_aniso_U_22
_atom_site_aniso_U_33
_atom_site_aniso_U_12
_atom_site_aniso_U_13
_atom_site_aniso_U_23
O1 0.0288(6) 0.0339(6) 0.0171(5) 0.0087(5) -0.0021(4) 0.0072(5)
N1 0.0235(7) 0.0199(6) 0.0107(6) 0.0020(5) 0.0003(5) 0.0009(5)
N2 0.0223(6) 0.0202(6) 0.0115(6) 0.0019(5) 0.0001(5) 0.0015(5)
N3 0.0234(6) 0.0201(6) 0.0116(6) 0.0033(5) 0.0013(5) 0.0012(5)
N4 0.0217(6) 0.0174(6) 0.0116(6) 0.0024(5) 0.0011(5) 0.0012(4)
N5 0.0278(7) 0.0288(7) 0.0113(6) 0.0090(6) 0.0023(5) 0.0031(5)
C1 0.0305(9) 0.0275(8) 0.0208(8) 0.0034(7) 0.0054(6) -0.0010(6)
C2 0.0211(7) 0.0179(7) 0.0196(7) -0.0017(6) 0.0034(6) -0.0006(5)
C3 0.0209(7) 0.0214(7) 0.0200(7) 0.0039(6) 0.0009(6) 0.0004(6)
C4 0.0221(7) 0.0182(7) 0.0175(7) 0.0003(6) -0.0007(6) 0.0020(5)
C5 0.0234(7) 0.0157(7) 0.0125(7) -0.0006(6) -0.0003(5) 0.0009(5)
C6 0.0207(7) 0.0159(7) 0.0116(6) -0.0019(5) -0.0010(5) 0.0004(5)
O2 0.0242(5) 0.0295(6) 0.0108(5) 0.0044(4) -0.0005(4) 0.0005(4)
N6 0.0194(6) 0.0203(6) 0.0113(6) 0.0036(5) 0.0001(5) -0.0006(5)
N7 0.0197(6) 0.0193(6) 0.0117(6) 0.0032(5) 0.0002(5) 0.0005(4)
N8 0.0180(6) 0.0182(6) 0.0130(6) 0.0029(5) 0.0004(5) 0.0018(4)
N9 0.0168(6) 0.0190(6) 0.0098(6) 0.0037(5) 0.0008(4) 0.0003(4)
N10 0.0268(7) 0.0184(6) 0.0122(6) 0.0019(5) -0.0008(5) 0.0023(5)
C7 0.0312(8) 0.0185(7) 0.0195(7) 0.0033(6) 0.0052(6) 0.0001(6)
C8 0.0183(7) 0.0197(7) 0.0158(7) 0.0069(5) 0.0044(5) 0.0025(5)
C9 0.0208(7) 0.0216(7) 0.0135(7) 0.0075(6) 0.0034(5) 0.0033(5)
C10 0.0166(7) 0.0257(8) 0.0121(6) 0.0082(6) 0.0029(5) 0.0029(5)
C11 0.0157(6) 0.0205(7) 0.0126(6) 0.0051(5) 0.0017(5) 0.0007(5)
C12 0.0157(6) 0.0205(7) 0.0105(6) 0.0054(5) 0.0003(5) -0.0001(5)
loop_
_atom_type_symbol
_atom_type_description
_atom_type_scat_dispersion_real
_atom_type_scat_dispersion_imag
_atom_type_scat_source
C C 0.0033 0.0016 'International Tables Vol C Tables 4.2.6.8 and 6.1.1.4'
H H 0.0000 0.0000 'International Tables Vol C Tables 4.2.6.8 and 6.1.1.4'
N N 0.0061 0.0033 'International Tables Vol C Tables 4.2.6.8 and 6.1.1.4'
O O 0.0106 0.0060 'International Tables Vol C Tables 4.2.6.8 and 6.1.1.4'
loop_
_geom_angle_atom_site_label_1
_geom_angle_atom_site_label_2
_geom_angle_atom_site_label_3
_geom_angle
C6 N1 C2 119.78(12)
C6 N1 H1 122.1(14)
C2 N1 H1 118.0(14)
C6 N2 C5 102.16(12)
C5 N3 N4 101.88(11)
C6 N4 N3 109.13(11)
C6 N4 C4 125.85(12)
N3 N4 C4 125.00(11)
C5 N5 H5A 115.3(12)
C5 N5 H5B 118.1(12)
H5A N5 H5B 124.6(16)
C2 C1 H1A 109.5
C2 C1 H1B 109.5
H1A C1 H1B 109.5
C2 C1 H1C 109.5
H1A C1 H1C 109.5
H1B C1 H1C 109.5
C3 C2 N1 120.58(14)
C3 C2 C1 123.06(14)
N1 C2 C1 116.36(13)
C2 C3 C4 123.05(14)
C2 C3 H3 119.9(12)
C4 C3 H3 117.0(12)
O1 C4 N4 120.04(14)
O1 C4 C3 128.36(15)
N4 C4 C3 111.60(12)
N5 C5 N3 122.72(13)
N5 C5 N2 122.06(13)
N3 C5 N2 115.20(13)
N2 C6 N1 129.32(13)
N2 C6 N4 111.63(12)
N1 C6 N4 119.05(13)
C12 N6 C8 119.56(12)
C12 N6 H6 120.7(11)
C8 N6 H6 119.7(11)
C12 N7 C11 101.97(11)
C11 N8 N9 101.91(11)
C12 N9 N8 109.40(11)
C12 N9 C10 125.84(13)
N8 N9 C10 124.76(11)
C11 N10 H10A 121.1(11)
C11 N10 H10B 116.2(12)
H10A N10 H10B 114.5(16)
C8 C7 H7A 109.5
C8 C7 H7B 109.5
H7A C7 H7B 109.5
C8 C7 H7C 109.5
H7A C7 H7C 109.5
H7B C7 H7C 109.5
C9 C8 N6 121.13(13)
C9 C8 C7 123.36(13)
N6 C8 C7 115.51(12)
C8 C9 C10 122.51(13)
C8 C9 H9 118.0(9)
C10 C9 H9 119.5(9)
O2 C10 N9 120.15(14)
O2 C10 C9 128.04(14)
N9 C10 C9 111.81(12)
N8 C11 N10 122.11(13)
N8 C11 N7 115.47(12)
N10 C11 N7 122.36(13)
N7 C12 N6 129.63(12)
N7 C12 N9 111.24(12)
N6 C12 N9 119.13(12)
loop_
_geom_bond_atom_site_label_1
_geom_bond_atom_site_label_2
_geom_bond_distance
O1 C4 1.2244(17)
N1 C6 1.3549(18)
N1 C2 1.373(2)
N1 H1 0.85(2)
N2 C6 1.3252(19)
N2 C5 1.3850(18)
N3 C5 1.3425(18)
N3 N4 1.3871(16)
N4 C6 1.3586(18)
N4 C4 1.4028(19)
N5 C5 1.339(2)
N5 H5A 0.93(2)
N5 H5B 0.881(18)
C1 C2 1.495(2)
C1 H1A 0.9800
C1 H1B 0.9800
C1 H1C 0.9800
C2 C3 1.358(2)
C3 C4 1.434(2)
C3 H3 0.92(2)
O2 C10 1.2301(17)
N6 C12 1.3553(18)
N6 C8 1.3662(18)
N6 H6 0.944(19)
N7 C12 1.3247(18)
N7 C11 1.3934(18)
N8 C11 1.3272(17)
N8 N9 1.3869(16)
N9 C12 1.3592(17)
N9 C10 1.4009(18)
N10 C11 1.3528(19)
N10 H10A 0.863(18)
N10 H10B 0.845(18)
C7 C8 1.493(2)
C7 H7A 0.9800
C7 H7B 0.9800
C7 H7C 0.9800
C8 C9 1.362(2)
C9 C10 1.434(2)
C9 H9 0.994(16)
loop_
_geom_hbond_atom_site_label_D
_geom_hbond_atom_site_label_H
_geom_hbond_atom_site_label_A
_geom_hbond_site_symmetry_A
_geom_hbond_distance_DH
_geom_hbond_distance_HA
_geom_hbond_distance_DA
_geom_hbond_angle_DHA
_geom_hbond_publ_flag
N1 H1 N7 . 0.85(2) 2.00(2) 2.8520(18) 176(2) yes
N5 H5A N2 2_566 0.93(2) 2.20(2) 3.1240(18) 173.3(17) yes
N5 H5B O2 1_556 0.881(18) 2.097(19) 2.9733(18) 172.7(16) yes
N6 H6 N3 2_666 0.944(19) 1.94(2) 2.8724(17) 168.6(17) yes
N10 H10A O1 2_656 0.863(18) 2.069(18) 2.8935(17) 159.5(16) yes
N10 H10B N8 2 0.845(18) 2.220(19) 3.0330(19) 161.2(16) yes
loop_
_geom_torsion_atom_site_label_1
_geom_torsion_atom_site_label_2
_geom_torsion_atom_site_label_3
_geom_torsion_atom_site_label_4
_geom_torsion
C5 N3 N4 C6 0.68(14)
C5 N3 N4 C4 -177.92(13)
C6 N1 C2 C3 1.3(2)
C6 N1 C2 C1 -178.81(13)
N1 C2 C3 C4 1.0(2)
C1 C2 C3 C4 -178.83(13)
C6 N4 C4 O1 -176.24(13)
N3 N4 C4 O1 2.1(2)
C6 N4 C4 C3 3.1(2)
N3 N4 C4 C3 -178.51(12)
C2 C3 C4 O1 176.27(15)
C2 C3 C4 N4 -3.0(2)
N4 N3 C5 N5 -179.14(13)
N4 N3 C5 N2 -0.87(15)
C6 N2 C5 N5 178.99(13)
C6 N2 C5 N3 0.71(16)
C5 N2 C6 N1 179.09(14)
C5 N2 C6 N4 -0.21(15)
C2 N1 C6 N2 179.42(13)
C2 N1 C6 N4 -1.3(2)
N3 N4 C6 N2 -0.30(16)
C4 N4 C6 N2 178.28(12)
N3 N4 C6 N1 -179.69(11)
C4 N4 C6 N1 -1.1(2)
C11 N8 N9 C12 0.65(14)
C11 N8 N9 C10 179.64(12)
C12 N6 C8 C9 -0.9(2)
C12 N6 C8 C7 178.26(12)
N6 C8 C9 C10 -0.2(2)
C7 C8 C9 C10 -179.29(13)
C12 N9 C10 O2 179.35(13)
N8 N9 C10 O2 0.5(2)
C12 N9 C10 C9 -1.25(19)
N8 N9 C10 C9 179.92(11)
C8 C9 C10 O2 -179.49(14)
C8 C9 C10 N9 1.17(19)
N9 N8 C11 N10 176.94(12)
N9 N8 C11 N7 -0.47(15)
C12 N7 C11 N8 0.11(16)
C12 N7 C11 N10 -177.30(13)
C11 N7 C12 N6 -179.56(13)
C11 N7 C12 N9 0.33(15)
C8 N6 C12 N7 -179.24(14)
C8 N6 C12 N9 0.89(19)
N8 N9 C12 N7 -0.64(15)
C10 N9 C12 N7 -179.62(12)
N8 N9 C12 N6 179.26(11)
C10 N9 C12 N6 0.3(2)

_cod_database_fobs_code 1550278
