#------------------------------------------------------------------------------
#$Date: 2018-12-01 06:39:35 +0200 (Sat, 01 Dec 2018) $
#$Revision: 212278 $
#$URL: file:///home/coder/svn-repositories/cod/cif/1/55/03/1550312.cif $
#------------------------------------------------------------------------------
#
# This file is available in the Crystallography Open Database (COD),
# http://www.crystallography.net/. The original data for this entry
# were provided by IUCr Journals, http://journals.iucr.org/.
#
# The file may be used within the scientific community so long as
# proper attribution is given to the journal article from which the
# data were obtained.
#
data_1550312
loop_
_publ_author_name
'Loubidi, Mohamed'
'Jouha, Jabrane'
'Tber, Zahira'
'El Hafi, Mohamed'
'Essassi, El Mokhtar'
'Mague, Joel T.'
_publ_section_title
;
 3,4,6-Trimethyl-1-phenyl-5-(thiophen-3-yl)-1<i>H</i>-pyrazolo[3,4-<i>b</i>]pyridine
;
_journal_coeditor_code           SJ4195
_journal_issue                   11
_journal_name_full               IUCrData
_journal_page_first              x181593
_journal_paper_doi               10.1107/S2414314618015936
_journal_volume                  3
_journal_year                    2018
_chemical_formula_iupac          'C19 H17 N3 S'
_chemical_formula_moiety         'C19 H17 N3 S'
_chemical_formula_sum            'C19 H17 N3 S'
_chemical_formula_weight         319.41
_chemical_name_systematic
3,4,6-Trimethyl-1-phenyl-5-(thiophen-3-yl)-1<i>H</i>-pyrazolo[3,4-<i>b</i>]pyridine
_space_group_crystal_system      triclinic
_space_group_IT_number           2
_space_group_name_Hall           '-P 1'
_space_group_name_H-M_alt        'P -1'
_symmetry_space_group_name_Hall  '-P 1'
_symmetry_space_group_name_H-M   'P -1'
_atom_sites_solution_hydrogens   mixed
_atom_sites_solution_primary     direct
_atom_sites_solution_secondary   difmap
_audit_creation_method           SHELXL-2017/1
_cell_angle_alpha                82.5480(10)
_cell_angle_beta                 78.176(2)
_cell_angle_gamma                76.607(2)
_cell_formula_units_Z            2
_cell_length_a                   7.6672(3)
_cell_length_b                   9.9098(4)
_cell_length_c                   11.4101(4)
_cell_measurement_reflns_used    5350
_cell_measurement_temperature    150(2)
_cell_measurement_theta_max      72.2423
_cell_measurement_theta_min      3.9731
_cell_volume                     822.39(6)
_computing_cell_refinement
;
<i>SAINT</i> (Bruker, 2016)
;
_computing_data_collection
;
<i>APEX3</i> (Bruker, 2016)
;
_computing_data_reduction
;
<i>SAINT</i>  (Bruker, 2016)
;
_computing_molecular_graphics
;
<i>DIAMOND</i> (Brandenburg & Putz, 2012)
;
_computing_publication_material
;
<i>SHELXTL</i> (Sheldrick, 2008)
;
_computing_structure_refinement
;
<i>SHELXL2018</i> (Sheldrick, 2015<i>b</i>)
;
_computing_structure_solution
;
<i>SHELXT</i> (Sheldrick, 2015<i>a</i>)
;
_diffrn_ambient_temperature      150(2)
_diffrn_detector_area_resol_mean 10.4167
_diffrn_measured_fraction_theta_full 0.959
_diffrn_measured_fraction_theta_max 0.936
_diffrn_measurement_device_type  'Bruker D8 VENTURE PHOTON 100 CMOS'
_diffrn_measurement_method       '\w scans'
_diffrn_radiation_monochromator  mirror
_diffrn_radiation_type           CuK\a
_diffrn_radiation_wavelength     1.54178
_diffrn_reflns_av_R_equivalents  0.0268
_diffrn_reflns_av_unetI/netI     0.0363
_diffrn_reflns_limit_h_max       9
_diffrn_reflns_limit_h_min       -8
_diffrn_reflns_limit_k_max       11
_diffrn_reflns_limit_k_min       -11
_diffrn_reflns_limit_l_max       13
_diffrn_reflns_limit_l_min       -14
_diffrn_reflns_number            6351
_diffrn_reflns_theta_full        68.000
_diffrn_reflns_theta_max         72.235
_diffrn_reflns_theta_min         3.973
_diffrn_source                   'INCOATEC I\mS micro-focus source'
_exptl_absorpt_coefficient_mu    1.753
_exptl_absorpt_correction_T_max  0.77
_exptl_absorpt_correction_T_min  0.63
_exptl_absorpt_correction_type   multi-scan
_exptl_absorpt_process_details
;
(<i>SADABS</i>; Krause <i>et al.</i>, 2015)
;
_exptl_crystal_colour            colourless
_exptl_crystal_density_diffrn    1.290
_exptl_crystal_density_method    'not measured'
_exptl_crystal_description       column
_exptl_crystal_F_000             336
_exptl_crystal_size_max          0.430
_exptl_crystal_size_mid          0.166
_exptl_crystal_size_min          0.159
_refine_diff_density_max         0.243
_refine_diff_density_min         -0.260
_refine_ls_extinction_method     none
_refine_ls_goodness_of_fit_ref   1.035
_refine_ls_hydrogen_treatment    mixed
_refine_ls_matrix_type           full
_refine_ls_number_parameters     262
_refine_ls_number_reflns         3048
_refine_ls_number_restraints     1
_refine_ls_restrained_S_all      1.037
_refine_ls_R_factor_all          0.0470
_refine_ls_R_factor_gt           0.0426
_refine_ls_shift/su_max          0.000
_refine_ls_shift/su_mean         0.000
_refine_ls_structure_factor_coef Fsqd
_refine_ls_weighting_details
'w=1/[\s^2^(Fo^2^)+(0.0631P)^2^+0.2279P] where P=(Fo^2^+2Fc^2^)/3'
_refine_ls_weighting_scheme      calc
_refine_ls_wR_factor_gt          0.1126
_refine_ls_wR_factor_ref         0.1171
_reflns_number_gt                2722
_reflns_number_total             3048
_reflns_threshold_expression     'I > 2\s(I)'
_cod_data_source_file            sj4195sup1.cif
_cod_data_source_block           I
_cod_database_code               1550312
_shelx_space_group_comment
;
The symmetry employed for this shelxl refinement is uniquely defined
by the following loop, which should always be used as a source of
symmetry information in preference to the above space-group names.
They are only intended as comments.
;
_shelx_estimated_absorpt_t_min   0.519
_shelx_estimated_absorpt_t_max   0.768
_shelx_hkl_file
;
  -2   0   0 2733.73  110.39
  -3   0   0 1272.67   51.39
  -4   0   0  148.19    6.80
  -4   0   0  145.39    7.30
   5   0   0   15.60    1.90
   5   0   0   15.40    1.50
   5   0   0   11.20    2.30
   5   0   0   14.20    1.40
   6   0   0  124.09    5.50
   6   0   0  125.19    5.80
   6   0   0  130.59    5.70
   7   0   0  133.49    5.90
   7   0   0  143.69    6.10
   7   0   0  121.09    5.70
   8   0   0   45.20    2.40
   8   0   0   45.60    2.50
   8  -1   0    1.10    0.90
   8  -1   0   -0.50    0.60
   7  -1   0   15.30    1.80
   7  -1   0   13.40    1.10
   7  -1   0   14.90    1.30
   6  -1   0   94.69    4.50
   6  -1   0   91.59    4.30
   6  -1   0   93.29    4.10
   5  -1   0  346.77   14.60
   5  -1   0  342.47   14.30
   5  -1   0  357.86   14.40
  -4   1   0  644.54   26.90
  -3   1   0  606.54   25.00
  -2   1   0 2628.04  106.19
   1  -1   0 5084.79  200.28
  -1   1   0 4843.12  200.08
   0  -1   0  206.38    8.20
   0   1   0  195.38    8.20
  -1  -1   0 1762.22   70.89
  -2  -1   0 2142.69   87.19
  -2  -1   0 2184.18   87.29
  -3  -1   0  110.69    5.10
  -3  -1   0  116.89    5.00
  -4  -1   0  211.48    8.80
  -4  -1   0  209.68    9.10
   4   1   0  187.08    9.00
   5   1   0   40.80    2.50
   5   1   0   41.50    2.70
   5   1   0   41.20    2.60
   6   1   0   36.30    3.20
   6   1   0   39.50    2.40
   7   1   0  179.98    7.70
   7   1   0  173.18    7.60
   7   1   0  172.78    7.60
   8   1   0    0.80    1.00
   8   1   0    0.70    0.80
   8  -2   0   22.60    1.40
   8  -2   0   22.80    1.40
   7  -2   0   43.60    2.70
   7  -2   0   42.90    2.50
   7  -2   0   37.30    2.20
   6  -2   0  387.76   16.50
   6  -2   0  397.76   16.30
   6  -2   0  410.46   16.60
   5  -2   0  746.43   30.30
   5  -2   0  745.63   30.10
   5  -2   0  746.33   30.40
   4  -2   0   13.60    1.10
   4  -2   0   11.00    1.20
  -4   2   0   15.50    3.00
  -3   2   0 1103.19   45.10
   2  -2   0   52.79    2.90
  -2   2   0   54.69    3.10
   1  -2   0  306.27   12.80
  -1   2   0  310.87   12.90
   0  -2   0 1729.43   70.89
   0   2   0 1770.32   70.89
  -1  -2   0  295.77   12.40
   1   2   0  315.57   12.40
   4   2   0  804.72   32.50
   5   2   0   11.70    2.50
   5   2   0   17.60    1.70
   5   2   0   14.20    1.80
   5   2   0   12.40    1.60
   6   2   0    0.20    0.80
   6   2   0   -0.50    0.80
   6   2   0    0.90    1.20
   7   2   0   28.80    2.10
   7   2   0   29.60    2.10
   7   2   0   27.20    2.30
   8   2   0  262.87   11.10
   8   2   0  270.67   11.20
   8  -3   0   10.70    0.80
   8  -3   0   11.40    0.90
   7  -3   0    0.60    0.60
   7  -3   0    0.90    0.50
   6  -3   0   24.20    2.20
   6  -3   0   21.40    1.60
   6  -3   0   23.30    1.40
   5  -3   0  386.46   15.70
   5  -3   0  381.26   15.80
   4  -3   0  210.38    9.30
   4  -3   0  220.58    9.00
   4  -3   0  222.18    9.20
  -3   3   0  243.78   11.00
   2  -3   0 1053.19   45.00
  -2   3   0 1153.48   45.00
   1  -3   0   85.69    4.10
  -1   3   0   87.39    4.10
   0  -3   0    0.60    0.40
   0   3   0    0.80    0.40
  -1  -3   0 1770.82   71.99
   1   3   0 1777.32   71.49
   3   3   0   15.30    1.10
   4   3   0   36.70    1.90
   5   3   0    8.20    1.20
   5   3   0   10.30    1.50
   6   3   0  102.19    4.90
   6   3   0  107.39    4.90
   7   3   0   15.30    1.60
   7   3   0   10.70    1.50
   8   3   0   49.10    2.60
   8   3   0   50.39    2.60
   9   3   0    1.90    0.70
   7  -4   0    6.40    0.70
   7  -4   0    6.60    0.80
   6  -4   0   75.39    3.60
   6  -4   0   78.69    3.50
   5  -4   0  265.17   11.20
   5  -4   0  262.27   10.90
   4  -4   0  158.98    6.70
   4  -4   0  159.08    6.80
   4  -4   0  155.98    7.00
   3  -4   0    2.30    0.70
   3  -4   0    1.90    0.60
  -2   4   0   90.59    4.60
  -2   4   0   81.89    3.90
   1  -4   0  420.86   18.20
  -1   4   0  443.96   18.10
   0  -4   0   21.80    1.60
   0   4   0   23.20    1.50
  -1  -4   0  193.78    8.40
   1   4   0  205.68    8.30
   1   4   0  189.98    8.10
  -2  -4   0    2.70    0.70
   2   4   0    2.30    0.60
   3   4   0    2.90    0.60
   4   4   0  350.66   14.60
   4   4   0  339.47   14.60
   4   4   0  361.96   14.50
   5   4   0  125.09    5.80
   5   4   0  129.39    5.80
   5   4   0  133.49    5.70
   6   4   0  304.07   13.20
   6   4   0  324.97   13.30
   6   4   0  314.57   13.20
   7   4   0    3.60    1.10
   7   4   0    3.80    1.30
   8   4   0    0.10    0.60
   8   4   0    0.40    0.60
   9   4   0    0.70    0.60
   9   4   0    1.30    0.60
   7  -5   0   10.40    0.80
   7  -5   0   11.20    1.00
   6  -5   0   10.40    0.90
   6  -5   0   10.50    1.00
   5  -5   0   13.40    1.20
   5  -5   0   14.60    1.00
   4  -5   0   80.89    3.90
   4  -5   0   81.19    4.20
   4  -5   0   83.69    3.70
   3  -5   0   21.90    1.50
   3  -5   0   23.40    1.30
   3  -5   0   20.50    2.30
   2  -5   0  125.29    5.50
   2  -5   0  127.59    5.60
  -2   5   0  137.39    5.70
  -1   5   0   59.79    2.90
  -1   5   0   63.89    3.80
   0  -5   0  425.26   18.70
   0   5   0  451.15   18.10
   0   5   0  451.65   18.50
  -1  -5   0  235.58   10.40
   1   5   0  243.58   10.30
   1   5   0  241.98   10.00
   2   5   0  336.47   14.50
   2   5   0  360.76   14.30
   3   5   0  621.14   25.30
   4   5   0  302.77   12.60
   4   5   0  307.17   12.50
   4   5   0  295.37   12.60
   5   5   0  101.59    4.80
   5   5   0  106.09    4.70
   5   5   0  104.69    4.80
   6   5   0   19.80    1.70
   6   5   0   20.80    1.70
   6   5   0   19.50    1.70
   7   5   0    4.20    1.10
   7   5   0    3.90    1.20
   8   5   0    2.60    1.00
   9   5   0    0.60    0.50
   9   5   0    0.70    0.50
   6  -6   0   -0.10    0.40
   6  -6   0    0.50    0.50
   5  -6   0    3.60    0.70
   5  -6   0    2.80    0.80
   4  -6   0   31.70    1.70
   4  -6   0   32.60    1.90
   4  -6   0   28.30    2.80
   3  -6   0   28.30    1.50
   3  -6   0   28.20    1.70
   3  -6   0   23.90    2.50
   2  -6   0   39.90    2.50
   2  -6   0   40.00    2.10
   2  -6   0   43.00    2.20
  -2   6   0   42.70    2.30
   1  -6   0  345.07   15.30
   1  -6   0  371.86   15.30
  -1   6   0  399.16   15.30
   0   6   0  276.07   12.40
  -1  -6   0   63.89    5.40
   1   6   0   67.39    3.10
   1   6   0   64.89    4.00
   2   6   0  104.89    4.90
   2   6   0  109.39    4.80
   3   6   0  138.89    5.80
   3   6   0  134.99    5.90
   3   6   0  123.99    5.90
   4   6   0  110.29    5.00
   4   6   0  109.69    4.90
   4   6   0  104.39    4.90
   5   6   0    1.20    0.70
   5   6   0    1.70    0.70
   5   6   0    3.60    1.20
   6   6   0    0.40    0.80
   6   6   0   -0.30    0.60
   6   6   0    0.30    0.80
   7   6   0   53.89    2.80
   7   6   0   55.89    3.10
   8   6   0   54.69    2.70
   8   6   0   60.19    3.00
   6  -7   0   10.10    0.70
   6  -7   0   10.60    0.80
   5  -7   0    0.60    0.60
   5  -7   0    0.40    0.40
   4  -7   0    0.20    0.60
   4  -7   0    0.00    0.50
   3  -7   0   72.69    3.60
   3  -7   0   68.99    3.20
   3  -7   0   66.79    3.30
   2  -7   0  131.89    5.60
   2  -7   0  130.99    5.80
   2  -7   0  128.39    5.70
   1  -7   0  116.69    5.20
   1  -7   0  110.69    5.20
  -1   7   0  128.09    5.30
   0  -7   0   13.00    1.50
   0   7   0   12.30    1.20
   1   7   0  220.68    9.40
   2   7   0  167.58    7.30
   2   7   0  167.48    7.30
   3   7   0   56.09    3.10
   3   7   0   60.49    3.00
   3   7   0   65.49    3.20
   4   7   0  184.58    8.00
   4   7   0  185.58    8.00
   4   7   0  185.48    8.10
   5   7   0  100.49    4.60
   5   7   0  100.89    4.60
   5   7   0   92.89    4.70
   6   7   0  178.88    7.70
   6   7   0  164.98    7.70
   6   7   0  184.68    7.70
   7   7   0   28.90    1.70
   7   7   0   28.30    1.80
   7   7   0   29.10    2.30
   8   7   0    0.10    0.40
   8   7   0    0.30    0.40
   5  -8   0    4.30    0.70
   4  -8   0    2.30    0.80
   4  -8   0    1.30    0.60
   3  -8   0    9.50    1.00
   3  -8   0    9.00    1.00
   2  -8   0    4.70    1.10
   2  -8   0    6.40    1.10
   2  -8   0    6.70    1.20
   1  -8   0   48.30    2.50
   1  -8   0   46.70    2.60
  -1   8   0   47.50    2.60
   0  -8   0   51.79    2.80
   0   8   0   55.09    2.80
   1   8   0    9.60    1.10
   2   8   0   66.79    3.30
   3   8   0  423.66   17.20
   3   8   0  388.16   17.00
   3   8   0  422.56   17.10
   4   8   0    5.10    1.00
   4   8   0    6.60    1.30
   4   8   0    6.00    1.20
   5   8   0   13.40    1.40
   5   8   0   14.00    1.40
   5   8   0   13.70    1.30
   6   8   0   25.80    1.70
   6   8   0   23.20    1.70
   6   8   0   24.50    1.70
   7   8   0    5.10    0.90
   7   8   0    4.80    1.80
   7   8   0    4.70    1.00
   8   8   0    3.40    0.70
   4  -9   0    2.60    0.80
   3  -9   0   31.40    1.70
   2  -9   0    8.40    1.10
   1  -9   0    4.40    1.80
   1  -9   0    4.10    0.90
  -1   9   0    2.70    2.00
   0  -9   0   70.99    3.30
   0   9   0   66.79    3.40
  -1  -9   0  123.59    5.30
   1   9   0  116.09    5.40
   2   9   0   38.60    2.30
   3   9   0   49.99    2.70
   4   9   0   12.00    1.50
   4   9   0   11.40    1.20
   5   9   0    2.50    0.90
   5   9   0    2.00    0.70
   6   9   0   59.09    3.00
   6   9   0   59.09    2.80
   7   9   0   15.90    1.20
   0 -10   0    4.10    1.20
   0  10   0    3.50    1.40
  -1 -10   0   73.09    3.40
   1  10   0   71.59    3.60
  -2 -10   0    6.30    1.10
   2  10   0    3.90    1.00
   3  10   0    4.30    0.90
   4  10   0   17.80    1.40
   5  10   0   14.00    1.30
   5  10   0   12.30    1.40
   6  10   0    1.00    0.90
   6  10   0    1.30    0.60
  -1 -11   0   88.69    3.70
   1  11   0   75.49    3.90
  -2 -11   0    4.10    0.90
   2  11   0    2.90    1.00
  -3 -11   0   23.90    1.40
   3  11   0   26.00    1.60
  -4 -11   0   -0.40    0.40
   4  11   0    0.10    0.60
  -5 -11   0   12.10    0.90
  -5 -11   1    0.30    0.30
   4  11  -1   20.60    1.50
  -4 -11   1   20.40    1.20
   3  11  -1   39.80    2.20
  -3 -11   1   41.00    2.00
   2  11  -1    4.10    1.20
  -2 -11   1    6.40    0.80
  -1 -11   1   37.80    1.90
   0 -11   1    4.00    1.20
   6  10  -1    2.50    0.90
   5  10  -1   21.90    1.50
   5  10  -1   20.30    1.50
   4  10  -1    4.50    1.00
   3  10  -1    0.60    0.60
  -3 -10   1    0.30    0.50
   2  10  -1   -0.80    0.60
  -2 -10   1    0.40    0.40
   1  10  -1   21.20    1.60
  -1 -10   1   24.30    1.50
   0 -10   1   27.90    1.70
   1 -10   1    1.10    0.70
   7   9  -1    2.10    0.70
   6   9  -1    2.10    0.80
   6   9  -1    2.60    1.10
   5   9  -1   -0.10    0.60
   5   9  -1    0.90    0.70
   4   9  -1    2.30    0.80
   4   9  -1    4.40    1.00
   3   9  -1   45.50    2.60
   3   9  -1   46.00    2.70
   2   9  -1   40.20    2.30
   1   9  -1   13.80    1.40
  -1  -9   1   14.10    1.30
   0   9  -1   31.90    2.10
   0  -9   1   31.80    1.90
   1  -9   1   86.09    4.00
   2  -9   1    1.20    0.80
   3  -9   1    1.00    0.90
   4  -9   1   -0.70    1.00
   7   8  -1    5.80    0.80
   7   8  -1    5.80    0.90
   6   8  -1    5.80    1.00
   6   8  -1    4.80    1.10
   6   8  -1    6.10    1.00
   5   8  -1    5.10    1.00
   5   8  -1    6.40    1.10
   5   8  -1    6.10    1.10
   4   8  -1   19.70    1.60
   4   8  -1   17.10    1.50
   4   8  -1   15.00    1.40
   3   8  -1   51.59    2.80
   3   8  -1   52.89    2.80
   2   8  -1   61.59    3.20
   1   8  -1  232.18    9.90
   0   8  -1  158.58    6.80
   0  -8   1  151.98    6.70
  -1   8  -1  212.38    9.00
   1  -8   1  205.58    8.80
   2  -8   1   71.79    3.50
   2  -8   1   68.39    3.30
   3  -8   1   20.40    1.50
   3  -8   1   19.90    1.80
   4  -8   1    1.20    0.70
   4  -8   1    1.40    0.60
   5  -8   1    3.20    0.70
   5  -8   1    2.60    0.80
   8   7  -1   -0.10    0.40
   8   7  -1    0.70    0.40
   7   7  -1    0.00    0.50
   7   7  -1    0.50    1.10
   7   7  -1    0.20    0.50
   6   7  -1    5.50    1.20
   6   7  -1    6.40    1.00
   5   7  -1   20.80    1.60
   5   7  -1   16.80    1.50
   5   7  -1   17.20    1.50
   4   7  -1  314.37   13.10
   4   7  -1  311.97   13.20
   4   7  -1  315.47   13.20
   3   7  -1  289.97   11.60
   3   7  -1  233.98   11.90
   3   7  -1  304.17   11.70
   2   7  -1   86.99    3.90
   2   7  -1   76.79    4.00
   1   7  -1  281.57   11.90
   0   7  -1  274.37   11.20
   0  -7   1  261.07   11.10
  -1   7  -1   36.90    2.10
   1  -7   1   33.70    2.00
   1  -7   1   35.90    2.30
   2  -7   1    0.50    0.80
   2  -7   1   -0.30    0.70
   2  -7   1    0.00    0.80
   3  -7   1  142.19    6.30
   3  -7   1  144.39    6.20
   3  -7   1  143.89    6.10
   4  -7   1  174.38    8.40
   4  -7   1  186.38    7.90
   4  -7   1  194.18    7.70
   5  -7   1    9.30    0.90
   5  -7   1    9.80    0.80
   6  -7   1    0.40    0.40
   6  -7   1   -0.50    0.50
   8   6  -1   11.20    1.10
   8   6  -1   12.10    1.00
   7   6  -1  104.69    4.60
   7   6  -1  104.79    4.60
   7   6  -1   94.89    4.90
   6   6  -1   72.39    3.50
   6   6  -1   74.49    3.60
   6   6  -1   65.69    3.60
   5   6  -1  126.59    5.60
   5   6  -1  121.49    5.60
   4   6  -1   86.59    4.20
   4   6  -1   90.39    4.10
   4   6  -1   86.19    4.10
   3   6  -1  111.69    4.90
   3   6  -1  106.19    5.00
   3   6  -1  108.49    5.00
   2   6  -1   57.39    3.00
   2   6  -1   55.19    2.80
   1   6  -1  161.58    6.90
   1   6  -1  160.78    7.90
   0   6  -1    4.00    1.10
   0   6  -1    9.20    3.30
   1  -6   1  209.98    8.80
   1  -6   1  200.08    8.60
   2  -6   1   87.89    4.00
   2  -6   1   87.09    3.90
   2  -6   1   84.49    4.00
   3  -6   1   31.80    1.90
   3  -6   1   34.00    1.80
   3  -6   1   33.20    2.20
   4  -6   1    0.20    0.50
   4  -6   1    0.60    0.60
   4  -6   1    1.00    0.90
   5  -6   1   38.50    1.90
   5  -6   1   35.70    2.00
   5  -6   1   34.50    2.40
   6  -6   1    2.00    0.70
   6  -6   1    2.10    0.60
   8   5  -1   21.20    1.30
   8   5  -1   20.00    1.40
   7   5  -1   23.60    1.80
   7   5  -1   25.00    1.70
   6   5  -1   47.70    2.70
   6   5  -1   48.40    2.70
   6   5  -1   48.30    2.90
   5   5  -1   47.30    2.70
   5   5  -1   50.19    2.60
   5   5  -1   47.00    2.60
   4   5  -1   37.90    2.20
   4   5  -1   37.30    2.00
   4   5  -1   36.60    2.30
   3   5  -1   90.39    4.70
   3   5  -1  103.29    4.50
   3   5  -1  107.89    4.80
   2   5  -1 1193.98   46.20
   2   5  -1 1155.98   45.80
  -2  -5   1 1058.39   46.10
   1   5  -1   82.29    3.90
   1   5  -1   85.29    4.50
  -1  -5   1  100.09    4.60
   0   5  -1   93.49    4.00
   0   5  -1   95.89    4.70
   0  -5   1   79.09    4.80
  -1   5  -1   51.09    2.60
  -1   5  -1   54.49    3.50
   2  -5   1  128.39    5.40
   2  -5   1  119.09    5.50
   2  -5   1  129.39    5.50
   3  -5   1    8.10    1.10
   3  -5   1    8.00    1.50
   3  -5   1    6.10    0.90
   4  -5   1  586.44   24.30
   4  -5   1  590.44   24.40
   4  -5   1  614.64   24.20
   5  -5   1  218.98    9.50
   5  -5   1  229.78    9.40
   5  -5   1  222.58    9.50
   6  -5   1    0.20    0.50
   6  -5   1   -0.30    0.50
   7  -5   1   33.20    1.60
   7  -5   1   30.30    1.70
   8   4  -1  100.49    4.40
   8   4  -1   97.89    4.50
   7   4  -1   17.70    1.50
   7   4  -1   17.10    1.60
   6   4  -1   27.90    2.00
   6   4  -1   30.60    2.10
   6   4  -1   31.20    2.10
   5   4  -1  426.26   17.40
   5   4  -1  406.36   17.50
   5   4  -1  433.36   17.50
   4   4  -1  158.48    6.80
   4   4  -1  156.18    6.60
   4   4  -1  146.79    6.80
   3   4  -1  224.98    9.40
   2   4  -1    3.50    0.60
   2   4  -1    3.50    1.00
   1   4  -1  719.43   29.40
   1   4  -1  756.52   29.70
  -1  -4   1  708.63   29.70
  -1   4  -1  259.87   10.60
   1  -4   1  225.58   10.60
  -2   4  -1  173.68    8.10
   3  -4   1   62.09    3.20
   3  -4   1   62.99    2.90
   3  -4   1   65.39    3.10
   4  -4   1   27.10    1.70
   4  -4   1   22.60    2.00
   4  -4   1   27.10    1.50
   5  -4   1  255.17   10.60
   5  -4   1  245.18   10.40
   5  -4   1  253.17   10.60
   6  -4   1   21.80    1.30
   6  -4   1   21.00    1.50
   7  -4   1    4.00    0.70
   7  -4   1    4.70    0.80
   8   3  -1   38.90    2.20
   8   3  -1   42.10    2.30
   7   3  -1    3.00    1.30
   7   3  -1    3.20    0.80
   6   3  -1    7.10    1.70
   6   3  -1    6.20    1.50
   6   3  -1    7.80    1.50
   5   3  -1   52.29    2.90
   5   3  -1   50.59    2.70
   5   3  -1   49.20    2.80
   4   3  -1  209.78    8.80
   2   3  -1 2048.10   78.79
   2   3  -1 1859.21   78.59
  -2  -3   1 1969.70   79.19
   1   3  -1 9999.00  401.86
  -1  -3   1 9986.80  401.66
   0  -3   1  294.67   12.30
  -1   3  -1   91.89    4.20
   1  -3   1   84.29    4.10
  -2   3  -1   73.09    3.70
   2  -3   1   65.69    3.70
  -3   3  -1   65.69    3.90
   4  -3   1  357.66   14.70
   4  -3   1  357.06   14.80
   4  -3   1  358.06   14.60
   5  -3   1  400.66   16.20
   5  -3   1  377.36   16.00
   5  -3   1  382.96   15.80
   6  -3   1   14.80    1.10
   6  -3   1   10.50    1.80
   6  -3   1   15.90    1.30
   7  -3   1    5.60    0.90
   7  -3   1    5.60    0.70
   7  -3   1    5.70    1.40
   8  -3   1   15.30    1.00
   8  -3   1   15.40    1.00
   8   2  -1   16.40    1.90
   8   2  -1   17.40    1.70
   7   2  -1  240.68   10.10
   7   2  -1  234.48   10.00
   6   2  -1  391.86   16.30
   6   2  -1  392.26   16.30
   5   2  -1  113.59    5.30
   5   2  -1  114.99    5.30
   5   2  -1  116.59    5.20
   4   2  -1   29.50    1.70
  -4  -2   1   27.80    2.50
  -4  -2   1   30.70    2.30
   3   2  -1   -0.30    0.40
  -3  -2   1    0.70    0.60
   2   2  -1 1086.29   43.20
  -2  -2   1 1055.39   43.20
   0   2  -1 8054.69  321.17
   0  -2   1 7911.81  320.87
  -1   2  -1  878.31   34.30
   1  -2   1  798.42   33.90
  -2   2  -1  940.51   36.80
   2  -2   1  857.71   36.60
  -3   2  -1  548.85   22.10
   3  -2   1  510.75   22.20
  -4   2  -1   91.79    5.30
   4  -2   1   91.39    4.00
   4  -2   1   93.69    4.20
   5  -2   1   29.20    2.10
   5  -2   1   27.60    1.60
   5  -2   1   29.50    1.80
   6  -2   1  144.89    6.30
   6  -2   1  139.19    6.00
   6  -2   1  135.29    6.10
   7  -2   1   75.49    3.60
   7  -2   1   70.79    4.10
   7  -2   1   76.99    3.40
   8  -2   1    0.70    0.60
   8  -2   1    0.00    0.50
   7   1  -1   48.50    2.90
   7   1  -1   50.29    2.90
   7   1  -1   46.40    2.90
   6   1  -1   36.00    2.50
   6   1  -1   36.90    2.50
   6   1  -1   37.10    2.40
   5   1  -1   11.70    2.00
   5   1  -1   10.10    2.00
   5   1  -1   12.30    2.30
   4   1  -1  111.39    5.10
  -4  -1   1  110.49    5.80
  -4  -1   1  122.99    5.60
  -3  -1   1   11.50    1.10
  -3  -1   1    8.90    1.20
  -2  -1   1  849.12   34.40
   1   1  -1 2405.36  100.49
  -1  -1   1 2566.74  100.49
   0   1  -1  135.09    5.70
   0  -1   1  141.39    5.70
  -1   1  -1 2712.83  114.09
   1  -1   1 2933.91  114.19
  -2   1  -1 1734.03   70.79
   2  -1   1 1765.12   70.59
  -3   1  -1 2444.76   97.09
   3  -1   1 2380.06   97.19
  -4   1  -1  787.62   32.40
   5  -1   1    1.40    0.80
   5  -1   1    0.80    0.80
   5  -1   1    2.30    0.70
   6  -1   1  188.48    8.00
   6  -1   1  188.98    8.20
   6  -1   1  194.78    8.30
   7  -1   1  158.78    7.00
   7  -1   1  156.68    6.80
   7  -1   1  167.68    7.10
   8  -1   1   20.50    1.30
   8  -1   1   25.40    1.70
   8  -1   1   20.20    1.40
   7   0  -1   97.39    4.60
   7   0  -1   89.69    4.30
   6   0  -1  560.04   22.50
   6   0  -1  550.04   22.40
   6   0  -1  529.45   22.20
   5   0  -1   89.39    4.00
   5   0  -1   95.89    4.20
   5   0  -1   86.89    4.50
   4   0  -1  277.97   12.40
  -4   0   1  321.47   13.10
  -4   0   1  298.67   13.50
  -3   0   1  605.94   25.00
  -3   0   1  609.54   25.20
  -2   0   1  912.01   37.60
  -2   0   1  944.21   37.70
  -1   0   1 1109.69   45.20
   0   0  -1  634.64   26.40
   0   0   1  654.53   26.30
  -1   0  -1  281.67   11.80
   1   0   1  301.17   11.80
  -2   0  -1 1260.77   51.29
   2   0   1 1281.47   51.19
  -3   0  -1  932.81   37.80
   5   0   1   25.90    2.40
   5   0   1   28.70    2.20
   5   0   1   32.10    1.80
   5   0   1   34.10    2.00
   6   0   1    9.30    2.90
   6   0   1   12.60    1.80
   6   0   1   15.10    1.40
   6   0   1   14.60    1.40
   7   0   1  320.27   12.90
   7   0   1  293.87   12.60
   7   0   1  311.97   12.80
   7   0   1  301.47   12.90
   8   0   1    1.00    0.70
   8   0   1    1.40    0.70
   8  -1  -1    6.00    1.10
   7  -1  -1    2.80    1.00
   7  -1  -1    2.10    0.90
   6  -1  -1    1.10    0.60
   6  -1  -1    6.40    2.10
   5  -1  -1   58.39    4.00
   5  -1  -1   72.59    3.20
   5  -1  -1   76.89    3.40
  -4   1   1   37.70    3.20
  -3   1   1  588.04   25.20
  -3   1   1  614.64   24.90
  -2   1   1    0.40    0.40
  -1   1   1    9.40    0.70
  -3  -1  -1  152.38    6.40
  -4  -1  -1   55.69    3.20
  -4  -1  -1   53.99    2.80
   5   1   1  201.08    8.60
   5   1   1  207.68    8.60
   5   1   1  195.78    8.70
   6   1   1    0.60    1.00
   6   1   1   -0.90    0.90
   6   1   1    0.00    0.70
   7   1   1   50.29    2.70
   7   1   1   51.69    2.90
   7   1   1   50.49    2.80
   8   1   1   31.20    1.90
   8   1   1   30.90    2.10
   8   1   1   32.20    2.00
   8  -2  -1    1.30    0.70
   8  -2  -1   -0.80    0.70
   7  -2  -1    0.60    0.50
   7  -2  -1    1.40    0.70
   6  -2  -1  130.99    5.60
   6  -2  -1  132.39    5.80
   5  -2  -1  470.55   19.10
   5  -2  -1  462.85   19.00
   4  -2  -1   66.49    3.00
   4  -2  -1   66.79    3.20
  -3   2   1   38.30    2.60
  -2   2   1 2240.88   90.29
  -1   2   1 1935.51   78.59
   0   2   1 2748.23  111.19
   5   2   1  293.67   12.10
   5   2   1  283.07   12.10
   5   2   1  287.87   12.10
   6   2   1    0.70    0.80
   6   2   1    4.40    1.50
   7   2   1   26.00    1.90
   7   2   1   26.60    2.00
   7   2   1   26.50    2.00
   8   2   1    7.80    1.20
   8   2   1    6.30    1.30
   8   2   1    5.70    1.30
   9   2   1   -0.70    0.60
   8  -3  -1    0.60    0.60
   8  -3  -1    1.10    0.60
   7  -3  -1   15.60    1.20
   7  -3  -1   14.70    1.00
   6  -3  -1   12.50    1.20
   6  -3  -1   13.70    1.00
   5  -3  -1    1.70    0.60
   5  -3  -1    0.90    0.50
   4  -3  -1   68.39    3.30
   4  -3  -1   69.59    3.10
  -3   3   1 1114.19   45.90
  -2   3   1 1285.17   52.29
  -1   3   1   22.70    1.60
   0  -3  -1  188.68    8.00
   0   3   1  185.68    7.90
  -1  -3  -1  190.78    7.70
   1   3   1  180.88    7.70
   3   3   1  258.27   10.60
   4   3   1  203.68    8.50
   5   3   1   43.70    2.60
   5   3   1   41.20    3.00
   5   3   1   47.40    2.70
   5   3   1   47.50    2.50
   6   3   1    0.00    0.70
   6   3   1    0.00    0.60
   6   3   1    0.30    1.10
   7   3   1   37.50    2.60
   7   3   1   42.00    2.50
   7   3   1   45.00    2.50
   8   3   1   39.70    2.20
   8   3   1   38.20    2.20
   9   3   1   -0.30    0.70
   9   3   1    0.90    0.60
   7  -4  -1    5.30    0.60
   7  -4  -1    5.50    0.80
   6  -4  -1   41.90    2.20
   6  -4  -1   41.90    2.00
   5  -4  -1    0.80    0.50
   5  -4  -1    0.10    0.60
   4  -4  -1    8.00    1.10
   4  -4  -1    8.80    0.90
   3  -4  -1  350.56   14.20
   3  -4  -1  342.37   14.30
  -3   4   1  351.16   14.50
  -2   4   1   14.80    1.20
  -2   4   1   12.70    2.10
  -1   4   1  172.38    7.60
  -1   4   1  190.38    8.10
   0  -4  -1  234.28    9.70
   0   4   1  228.98    9.50
   0   4   1  208.68    9.30
  -1  -4  -1  120.49    5.10
   1   4   1  118.79    5.00
   1   4   1  110.29    5.00
   2   4   1    0.60    0.30
   3   4   1   51.79    2.40
   4   4   1   48.30    3.70
   4   4   1   45.00    2.30
   5   4   1  273.77   11.20
   5   4   1  263.87   11.30
   5   4   1  267.27   11.30
   6   4   1    9.00    1.40
   6   4   1   10.80    1.40
   7   4   1   64.19    3.20
   7   4   1   61.99    3.30
   8   4   1   97.79    4.40
   8   4   1   94.99    4.40
   9   4   1    9.90    1.00
   9   4   1   10.70    1.10
   7  -5  -1    0.20    0.40
   7  -5  -1    0.30    0.40
   6  -5  -1   11.70    0.90
   6  -5  -1   12.60    1.10
   5  -5  -1    1.00    0.60
   5  -5  -1   -0.40    0.50
   4  -5  -1  160.68    6.80
   4  -5  -1  163.08    7.00
   3  -5  -1    0.70    0.60
   3  -5  -1    0.10    0.50
   2  -5  -1  404.86   16.90
   2  -5  -1  410.86   17.00
  -2   5   1  430.56   17.10
  -1   5   1  124.69    6.10
  -1   5   1  121.79    5.40
   0   5   1   33.20    2.30
   0   5   1   31.40    1.70
   1   5   1   29.60    1.60
   1   5   1   30.70    1.90
   2   5   1  286.07   11.80
   3   5   1   71.09    3.20
   4   5   1    9.50    1.50
   4   5   1   13.60    1.10
   5   5   1  161.18    7.00
   5   5   1  159.78    7.10
   5   5   1  159.98    6.90
   6   5   1  224.98   10.00
   6   5   1  239.78   10.10
   6   5   1  238.18   10.00
   7   5   1    1.30    0.70
   7   5   1    1.10    0.70
   8   5   1   20.80    1.50
   8   5   1   20.10    1.60
   9   5   1    2.60    0.80
   9   5   1    4.30    0.70
   6  -6  -1   18.00    1.00
   6  -6  -1   17.90    1.20
   5  -6  -1    2.60    0.80
   5  -6  -1    3.60    0.70
   4  -6  -1   24.20    1.60
   4  -6  -1   25.40    1.40
   3  -6  -1    2.80    0.90
   3  -6  -1    2.20    0.70
   2  -6  -1  132.19    5.70
   2  -6  -1  137.19    5.90
  -2   6   1  136.99    6.00
   1  -6  -1  480.25   19.80
   1  -6  -1  480.05   19.80
  -1   6   1  499.05   19.90
   0   6   1   73.79    3.30
   0   6   1   69.49    4.40
   1   6   1   -0.10    1.50
   2   6   1  848.82   34.40
   3   6   1  121.19    6.00
   3   6   1  137.49    5.90
   3   6   1  135.19    5.70
   4   6   1   18.80    1.30
   4   6   1   19.50    1.60
   4   6   1   17.20    1.70
   5   6   1  446.06   17.80
   5   6   1  420.26   17.90
   5   6   1  427.66   17.80
   6   6   1   32.00    2.10
   6   6   1   33.50    2.80
   6   6   1   30.50    2.10
   7   6   1   25.10    1.70
   7   6   1   26.50    1.80
   8   6   1   22.70    1.50
   8   6   1   24.70    1.50
   6  -7  -1   19.40    1.10
   6  -7  -1   19.20    1.00
   5  -7  -1    0.10    0.40
   5  -7  -1    0.10    0.50
   4  -7  -1   55.09    2.50
   4  -7  -1   51.79    2.60
   3  -7  -1   37.30    2.10
   3  -7  -1   37.00    1.90
   2  -7  -1    9.10    1.00
   2  -7  -1    8.80    1.10
  -2   7   1   10.10    1.30
   1  -7  -1    7.20    1.10
   1  -7  -1    4.00    1.20
   1  -7  -1    6.00    1.30
  -1   7   1    6.80    1.00
   0  -7  -1  306.27   12.70
   0  -7  -1  293.47   12.70
   0   7   1  319.87   12.80
  -1  -7  -1    5.40    1.50
   1   7   1    5.50    0.80
   2   7   1    7.90    0.90
   2   7   1    7.40    1.50
   3   7   1    6.00    1.30
   3   7   1    6.00    0.90
   3   7   1    7.80    1.50
   4   7   1  168.98    7.40
   4   7   1  167.48    7.40
   5   7   1    9.50    1.30
   5   7   1    7.60    1.30
   5   7   1    8.80    1.10
   6   7   1    8.10    1.20
   6   7   1    7.50    1.20
   6   7   1    6.90    1.20
   7   7   1   -0.20    0.50
   7   7   1   -0.30    0.60
   8   7   1   24.50    1.50
   8   7   1   25.90    1.50
   5  -8  -1    3.70    0.60
   5  -8  -1    2.50    0.60
   4  -8  -1    7.00    0.80
   4  -8  -1    7.70    0.80
   3  -8  -1    9.40    1.00
   3  -8  -1    9.20    0.90
   2  -8  -1   50.79    2.40
   2  -8  -1   46.60    2.50
   1  -8  -1   56.89    2.80
  -1   8   1   59.49    3.00
   0  -8  -1   14.90    1.70
   0  -8  -1   16.20    1.40
   0   8   1   15.40    1.30
   1   8   1    6.20    0.90
   2   8   1   32.70    1.90
   3   8   1    3.70    1.30
   3   8   1    4.30    0.80
   4   8   1   42.00    2.40
   4   8   1   37.90    2.40
   5   8   1    3.20    1.20
   5   8   1    1.20    0.70
   5   8   1    1.20    0.60
   6   8   1    6.20    1.20
   6   8   1    7.70    1.20
   6   8   1    7.30    1.10
   7   8   1    3.50    0.90
   7   8   1    3.50    0.90
   8   8   1    5.60    0.80
   8   8   1    3.80    0.70
   4  -9  -1    1.00    0.50
   4  -9  -1    2.70    0.80
   3  -9  -1    0.60    0.50
   3  -9  -1    0.20    0.80
   2  -9  -1   -0.30    0.60
   1  -9  -1   16.70    1.40
  -1   9   1   18.20    1.60
   0  -9  -1  353.16   14.10
   0  -9  -1  336.17   14.20
   0   9   1  341.97   14.30
  -1  -9  -1   10.30    1.40
   1   9   1   11.10    1.20
   2   9   1   74.99    3.70
   3   9   1   98.39    4.70
   4   9   1   65.19    3.30
   4   9   1   65.19    3.30
   5   9   1    8.10    1.30
   5   9   1    7.90    1.10
   5   9   1    7.60    1.10
   6   9   1    4.60    1.10
   6   9   1    4.60    0.90
   7   9   1    2.10    0.80
   3 -10  -1    2.60    1.00
   2 -10  -1   30.90    1.70
   0  10   1    2.10    0.80
  -1 -10  -1   30.80    1.90
   1  10   1   28.00    1.90
  -2 -10  -1   65.09    3.10
   2  10   1   60.19    3.10
   3  10   1    1.50    0.70
   4  10   1   44.20    2.40
   5  10   1   31.30    2.00
   6  10   1    5.10    1.30
   6  10   1    9.00    1.30
   1  11   1    5.50    1.20
  -2 -11  -1   36.00    2.00
   2  11   1   35.50    2.00
  -3 -11  -1   11.40    1.10
   3  11   1   11.80    1.20
  -4 -11  -1   13.90    1.10
   4  11   1   18.00    1.30
  -5 -11  -1    2.50    0.50
   5  11   1    2.80    1.00
  -4 -11   2    3.50    0.90
   3  11  -2   10.10    1.30
  -3 -11   2   11.10    0.90
   2  11  -2   26.20    2.00
  -2 -11   2   30.20    1.50
  -1 -11   2    6.20    0.80
   0 -11   2   -0.80    0.50
  -6 -10   2   35.70    1.70
   5  10  -2   59.99    2.90
   5  10  -2   53.59    2.70
   4  10  -2   29.40    1.80
   3  10  -2   15.00    1.40
  -3 -10   2   18.30    1.30
   2  10  -2   18.40    1.50
  -2 -10   2   21.20    1.30
   1  10  -2    1.10    0.90
  -1 -10   2    3.80    0.80
   0 -10   2   40.80    2.10
   1 -10   2   43.40    2.20
   2 -10   2   -0.30    0.90
   6   9  -2   48.00    2.60
   6   9  -2   47.60    2.30
   5   9  -2    0.40    0.70
   5   9  -2   -0.50    0.50
   4   9  -2   68.89    3.20
   4   9  -2   62.89    3.40
   3   9  -2    5.20    1.20
   3   9  -2    3.50    0.90
   2   9  -2   11.10    1.30
  -2  -9   2   15.00    1.40
   1   9  -2   44.10    2.60
  -1  -9   2   48.10    2.40
   0   9  -2   26.30    2.10
   0  -9   2   30.90    1.70
   1  -9   2    0.10    0.60
   2  -9   2   15.90    1.40
   3  -9   2   95.99    4.30
   7   8  -2   18.40    1.10
   6   8  -2    3.90    0.80
   6   8  -2    3.30    1.20
   5   8  -2   51.69    2.90
   5   8  -2   55.69    2.80
   5   8  -2   58.39    2.80
   4   8  -2   65.19    3.10
   4   8  -2   58.99    3.20
   3   8  -2   68.09    3.40
   3   8  -2   68.49    3.50
   2   8  -2   10.50    1.70
   2   8  -2   12.40    1.30
   1   8  -2    0.50    0.60
  -1  -8   2    3.00    1.10
   0   8  -2   38.00    2.30
   0  -8   2   35.90    2.10
   1  -8   2   30.50    1.90
   2  -8   2   20.10    1.60
   3  -8   2  100.69    4.40
   3  -8   2  103.99    4.60
   3  -8   2   97.99    4.50
   4  -8   2    0.00    0.60
   4  -8   2    0.60    0.80
   4  -8   2    3.00    1.00
   5  -8   2    0.20    0.50
   5  -8   2    1.10    0.70
   8   7  -2    0.00    0.40
   7   7  -2   15.80    1.20
   7   7  -2   13.70    1.20
   7   7  -2   16.50    1.80
   6   7  -2   30.10    1.90
   6   7  -2   24.90    1.90
   6   7  -2   26.70    2.20
   5   7  -2   11.00    1.30
   5   7  -2    7.70    1.10
   5   7  -2    8.60    1.20
   4   7  -2   26.60    1.80
   4   7  -2   25.20    1.70
   4   7  -2   25.40    1.80
   3   7  -2  183.68    8.10
   3   7  -2  187.18    8.20
   3   7  -2  191.28    8.10
   2   7  -2   56.69    2.90
   2   7  -2   53.59    3.00
   1   7  -2    5.90    1.90
   1   7  -2    3.30    0.90
   0   7  -2   -0.60    0.70
   0  -7   2    0.00    0.60
  -1   7  -2   48.80    2.70
   1  -7   2   47.30    2.50
   2  -7   2   24.10    1.80
   2  -7   2   22.30    1.70
   2  -7   2   21.40    1.70
   3  -7   2  121.59    5.10
   3  -7   2  111.99    5.20
   3  -7   2  116.69    5.30
   4  -7   2  323.47   13.60
   4  -7   2  305.37   12.50
   4  -7   2  289.07   12.70
   5  -7   2    0.20    0.60
   5  -7   2   -0.10    0.50
   6  -7   2    6.10    0.60
   6  -7   2    6.20    0.80
   8   6  -2   13.50    1.00
   7   6  -2    7.00    1.10
   7   6  -2    9.40    1.20
   7   6  -2    8.00    1.70
   6   6  -2  151.38    6.50
   6   6  -2  139.89    6.60
   6   6  -2  152.08    6.50
   5   6  -2  139.39    6.40
   5   6  -2  147.59    6.60
   4   6  -2  106.09    4.90
   4   6  -2  101.19    4.80
   4   6  -2  109.99    4.90
   2   6  -2    8.70    1.40
   2   6  -2    7.30    1.50
   2   6  -2    8.30    1.00
   1   6  -2    3.60    0.80
   1   6  -2    2.60    2.40
   0   6  -2   97.79    4.40
  -1   6  -2    7.00    1.70
   1  -6   2    8.80    1.20
   2  -6   2   13.30    1.50
   2  -6   2   13.10    1.30
   2  -6   2   11.40    1.40
   3  -6   2   33.80    1.90
   3  -6   2   33.40    1.80
   3  -6   2   28.90    2.00
   4  -6   2   42.50    2.50
   4  -6   2   44.00    2.40
   4  -6   2   46.40    2.20
   5  -6   2   13.10    1.60
   5  -6   2   15.40    1.10
   5  -6   2   17.40    1.30
   6  -6   2    0.90    0.40
   6  -6   2    1.20    0.50
   6  -6   2    1.70    1.00
   8   5  -2    6.70    1.10
   8   5  -2    6.10    0.90
   7   5  -2    3.40    1.20
   7   5  -2    5.10    1.10
   7   5  -2    7.70    1.80
   6   5  -2   34.40    2.30
   6   5  -2   39.30    2.30
   6   5  -2   36.30    2.30
   5   5  -2  139.99    6.20
   5   5  -2  134.59    6.30
   5   5  -2  141.69    6.20
   4   5  -2  101.19    4.60
   4   5  -2  101.49    4.70
   4   5  -2  100.39    4.70
   3   5  -2  395.26   16.30
   3   5  -2  398.36   16.30
   3   5  -2  387.86   16.30
   2   5  -2 4510.65  170.58
  -2  -5   2 3969.80  170.38
   1   5  -2 2214.68   86.89
   1   5  -2 2300.07   87.59
  -1  -5   2 1976.40   87.49
   0   5  -2  154.48    7.30
   0   5  -2  147.59    6.40
  -1   5  -2    7.60    2.70
  -1   5  -2    7.40    1.10
   2  -5   2   92.19    4.10
   2  -5   2   91.39    4.20
   2  -5   2   92.09    4.30
   3  -5   2    3.60    0.90
   3  -5   2    5.50    1.30
   3  -5   2    4.10    0.90
   4  -5   2   87.99    3.90
   4  -5   2   85.09    4.00
   4  -5   2   91.09    4.20
   5  -5   2   15.00    1.30
   5  -5   2   15.00    1.10
   5  -5   2   15.70    1.60
   6  -5   2    1.30    0.80
   6  -5   2    1.20    0.60
   6  -5   2    2.00    0.60
   7  -5   2    1.00    0.40
   7  -5   2    0.50    0.50
   8   4  -2   18.20    2.10
   8   4  -2   18.90    1.40
   7   4  -2  184.18    8.90
   7   4  -2  216.88    8.60
   6   4  -2  136.09    6.00
   6   4  -2  129.29    6.00
   6   4  -2  129.59    6.00
   5   4  -2   42.20    2.60
   5   4  -2   42.70    2.40
   4   4  -2   42.00    2.50
   4   4  -2   37.00    2.30
   4   4  -2   39.70    2.20
   3   4  -2  964.60   37.80
   3   4  -2  947.61   37.20
  -3  -4   2  848.02   37.70
   2   4  -2  277.87   11.50
   2   4  -2  285.77   12.00
  -2  -4   2  270.77   11.80
   1   4  -2  989.70   39.10
   1   4  -2  988.00   38.60
  -1  -4   2  896.91   38.90
   0   4  -2    4.70    1.20
   0   4  -2    3.90    0.80
   0  -4   2    4.60    1.30
  -1   4  -2  706.93   29.30
  -2   4  -2  109.99    5.80
   3  -4   2   93.49    4.20
   3  -4   2   92.59    4.00
   3  -4   2   89.79    4.30
   4  -4   2    1.60    0.70
   4  -4   2    0.10    0.80
   4  -4   2    0.90    0.60
   5  -4   2  178.68    7.70
   5  -4   2  178.68    7.40
   5  -4   2  170.98    7.60
   6  -4   2    0.30    0.50
   6  -4   2    1.20    0.60
   6  -4   2    0.40    0.70
   7  -4   2    3.80    0.70
   7  -4   2    3.20    0.80
   8   3  -2   61.89    3.00
   7   3  -2  212.48    9.00
   7   3  -2  205.28    8.90
   6   3  -2   23.90    2.00
   6   3  -2   28.00    2.10
   6   3  -2   24.50    1.90
   5   3  -2  262.57   11.20
   5   3  -2  251.47   11.30
   5   3  -2  281.97   11.30
   4   3  -2  487.35   19.80
   4   3  -2  452.95   19.80
   4   3  -2  504.95   19.80
   3   3  -2  557.84   22.30
  -3  -3   2  539.65   22.70
   2   3  -2  187.68    7.90
  -2  -3   2  170.38    7.70
   1   3  -2  240.48   10.00
  -1  -3   2  231.68    9.90
   0  -3   2   52.29    2.60
  -1   3  -2  150.38    7.00
   1  -3   2  150.78    6.70
  -2   3  -2  905.71   34.90
   2  -3   2  793.72   34.90
  -3   3  -2  341.47   14.90
   4  -3   2   11.40    1.20
   4  -3   2    9.20    1.50
   4  -3   2    9.50    1.00
   5  -3   2   41.30    2.30
   5  -3   2   40.80    2.40
   6  -3   2  262.07   11.70
   6  -3   2  290.27   11.80
   6  -3   2  287.07   11.60
   7  -3   2   15.30    1.50
   7  -3   2   13.80    1.20
   7  -3   2   14.00    1.00
   8  -3   2    9.60    0.90
   8  -3   2    9.60    1.00
   7   2  -2   95.69    4.60
   7   2  -2   93.69    4.40
   6   2  -2   62.79    3.40
   6   2  -2   54.49    3.30
   6   2  -2   56.99    3.10
   5   2  -2    1.70    1.00
   5   2  -2    1.10    0.70
   4   2  -2    2.80    0.80
  -4  -2   2    3.80    2.20
   3   2  -2  107.09    4.70
  -3  -2   2  109.79    5.10
   2   2  -2 2310.17   91.59
  -2  -2   2 2231.68   91.69
   1   2  -2 2053.79   85.39
  -1  -2   2 2187.88   86.19
   0  -2   2 2162.78   87.39
  -1   2  -2  756.52   31.30
   1  -2   2  785.52   31.30
  -2   2  -2   28.90    1.70
   2  -2   2   24.40    1.70
  -3   2  -2   18.70    1.80
   3  -2   2   16.20    2.10
  -4   2  -2  160.28    7.70
   4  -2   2  156.38    6.60
   4  -2   2  151.08    6.50
   4  -2   2  148.09    6.70
   5  -2   2  134.49    5.90
   5  -2   2  132.49    5.90
   5  -2   2  131.79    5.70
   6  -2   2   90.69    4.30
   6  -2   2   92.09    4.10
   6  -2   2   94.09    4.40
   7  -2   2    8.30    0.90
   7  -2   2    7.10    1.30
   7  -2   2    7.40    1.00
   8  -2   2    2.20    0.70
   8  -2   2    3.30    1.20
   8  -2   2    1.10    0.60
   6   1  -2    2.20    1.20
   6   1  -2    2.00    1.10
   5   1  -2   48.40    2.60
   5   1  -2   48.90    3.00
   5   1  -2   39.60    3.20
   4   1  -2  161.48    7.10
  -4  -1   2  167.68    7.90
   3   1  -2    8.60    0.90
  -3  -1   2    7.70    1.50
   2   1  -2   19.50    1.40
  -2  -1   2   19.80    1.40
   1   1  -2 3920.21  164.18
  -1  -1   2 4191.18  164.08
   0   1  -2  303.37   12.80
   0  -1   2  317.77   12.70
  -1   1  -2  856.31   35.00
   1  -1   2  878.81   35.00
  -2   1  -2  133.79    5.80
   2  -1   2  134.09    5.80
  -3   1  -2  316.07   13.20
   3  -1   2  312.47   13.30
  -4   1  -2  232.58   10.30
   5  -1   2    4.10    1.10
   5  -1   2    2.30    0.90
   5  -1   2    3.40    0.80
   5  -1   2    2.90    1.30
   6  -1   2    1.20    0.70
   6  -1   2    2.20    1.20
   6  -1   2    1.80    0.80
   6  -1   2    1.20    0.80
   7  -1   2   65.19    3.30
   7  -1   2   61.39    3.00
   7  -1   2   64.19    3.50
   8  -1   2    0.80    0.60
   8  -1   2    1.00    0.60
   8  -1   2    1.80    0.70
   6   0  -2  227.68    9.60
   6   0  -2  237.28    9.80
   5   0  -2   16.40    1.70
   5   0  -2   17.00    1.80
   5   0  -2   14.80    1.40
   4   0  -2  483.05   20.30
  -4   0   2  507.65   21.20
   3   0  -2   63.49    3.10
  -3   0   2   69.19    3.50
  -3   0   2   64.29    3.80
  -2   0   2   84.29    4.00
   1   0  -2 2774.42  112.99
  -1   0   2 2807.62  113.29
   0   0  -2  280.67   11.70
   0   0   2  287.57   11.60
  -1   0  -2   94.59    4.00
   1   0   2   94.89    4.00
  -2   0  -2 1716.63   70.79
   2   0   2 1778.52   70.29
  -3   0  -2    0.40    0.40
   3   0   2    0.30    0.60
  -4   0  -2  144.69    6.60
   5   0   2   57.89    3.40
   5   0   2   65.09    3.20
   5   0   2   63.49    3.00
   5   0   2   62.59    3.20
   6   0   2  250.67   10.40
   6   0   2  247.48   10.20
   6   0   2  253.27   10.40
   6   0   2  226.18   11.30
   7   0   2   -0.10    0.70
   7   0   2    3.40    1.10
   7   0   2    1.00    0.70
   7   0   2    0.50    1.00
   8   0   2   -0.30    0.60
   8   0   2    1.10    0.70
   9   0   2    1.00    0.60
   7  -1  -2    1.30    0.70
   7  -1  -2    2.10    0.90
   6  -1  -2    5.20    1.20
   6  -1  -2    3.60    0.90
   5  -1  -2    0.90    0.60
   5  -1  -2    0.70    0.80
   4  -1  -2    4.60    1.10
   4  -1  -2    5.40    1.30
  -4   1   2    6.70    3.00
   3  -1  -2 1484.45   60.99
  -3   1   2 1569.14   61.69
  -3   1   2 1495.85   61.89
  -2   1   2  376.56   15.70
  -2   1   2  365.86   15.50
  -1   1   2 1835.32   74.29
   0  -1  -2  312.17   12.90
   0   1   2  316.87   12.90
  -1  -1  -2 2433.16  101.69
   1   1   2 2604.34  101.69
  -2  -1  -2  278.37   11.70
   2   1   2  295.57   11.70
  -3  -1  -2   97.99    4.20
  -4  -1  -2  181.78    7.80
   5   1   2    1.60    0.90
   5   1   2    4.60    1.40
   5   1   2    1.20    0.90
   6   1   2   49.50    3.80
   6   1   2   57.79    2.90
   6   1   2   55.09    3.00
   6   1   2   55.49    3.00
   7   1   2  303.27   12.80
   7   1   2  303.37   12.80
   7   1   2  304.37   12.80
   8   1   2   11.60    1.30
   8   1   2   13.40    1.50
   8   1   2    9.40    1.20
   9   1   2   29.90    1.90
   9   1   2   41.70    2.00
   7  -2  -2    0.70    0.70
   7  -2  -2    3.00    0.70
   6  -2  -2    0.50    0.50
   6  -2  -2    0.60    0.70
   5  -2  -2  121.59    5.20
   5  -2  -2  121.19    5.40
   4  -2  -2  395.96   16.00
   4  -2  -2  393.56   16.10
   4  -2  -2  391.06   16.30
   3  -2  -2  880.51   37.50
  -3   2   2  972.30   38.30
  -2   2   2  268.17   11.30
  -2   2   2  254.37   11.60
  -1   2   2  918.61   38.20
  -1   2   2  959.40   38.30
   0   2   2 1759.12   73.59
   0   2   2 1868.51   73.89
   1   2   2  408.26   16.50
   5   2   2  173.88    7.80
   5   2   2  181.08    7.80
   5   2   2  185.58    7.80
   6   2   2    0.30    1.00
   6   2   2    1.60    0.90
   7   2   2   65.59    3.40
   7   2   2   64.69    3.30
   7   2   2   65.69    3.40
   8   2   2    0.40    0.70
   8   2   2    0.40    0.70
   8   2   2   -0.50    0.60
   9   2   2    1.30    0.60
   7  -3  -2   25.30    1.50
   7  -3  -2   23.80    1.30
   6  -3  -2    1.80    0.70
   6  -3  -2    1.20    0.50
   5  -3  -2   91.19    4.00
   5  -3  -2   90.49    4.10
   4  -3  -2  148.89    6.30
   4  -3  -2  146.79    6.40
   3  -3  -2  608.84   25.40
   3  -3  -2  648.74   25.60
   2  -3  -2   17.40    1.30
  -1   3   2  199.18    8.70
   0   3   2  129.79    5.70
   1   3   2 3300.67  130.29
   1   3   2 3145.89  130.09
   4   3   2  389.66   15.90
   5   3   2  179.08    7.30
   5   3   2  158.58    7.20
   5   3   2  157.98    7.20
   6   3   2   38.80    2.40
   6   3   2   37.70    2.30
   6   3   2   38.50    2.40
   7   3   2    1.50    0.80
   7   3   2    3.10    1.10
   8   3   2    1.50    0.70
   8   3   2    3.20    1.10
   8   3   2    2.00    1.00
   9   3   2   -0.50    0.50
   9   3   2   -0.10    0.70
   7  -4  -2   28.50    1.50
   7  -4  -2   27.60    1.40
   6  -4  -2    1.40    1.00
   6  -4  -2    1.00    0.60
   5  -4  -2   79.19    3.70
   5  -4  -2   79.69    3.50
   4  -4  -2   48.70    2.50
   3  -4  -2  164.28    6.70
   3  -4  -2  156.48    6.80
  -2   4   2  810.62   33.70
  -1   4   2  863.51   35.40
   0   4   2  414.56   17.40
   0   4   2  436.66   17.70
   1   4   2  241.78    9.80
   1   4   2  228.68    9.70
   2   4   2   90.79    4.00
   3   4   2  261.37   10.80
   4   4   2  366.26   15.00
   5   4   2   58.49    2.90
   5   4   2   55.49    3.00
   5   4   2   56.49    3.00
   5   4   2   60.39    3.20
   6   4   2    2.20    1.10
   6   4   2   -0.10    0.60
   6   4   2    0.30    0.60
   7   4   2  141.99    6.40
   7   4   2  139.99    6.40
   7   4   2  147.39    6.50
   8   4   2    2.60    1.00
   9   4   2   -0.30    0.60
   9   4   2    0.40    0.40
   7  -5  -2   12.50    0.90
   7  -5  -2   11.80    0.80
   6  -5  -2    4.20    0.80
   6  -5  -2    5.20    0.70
   5  -5  -2   58.99    2.70
   4  -5  -2   32.90    1.70
   4  -5  -2   31.00    1.90
   3  -5  -2   48.80    2.40
   3  -5  -2   49.60    2.50
  -3   5   2   49.70    2.60
   2  -5  -2   62.19    2.80
   2  -5  -2   54.69    2.70
  -2   5   2   60.29    2.90
  -1   5   2   26.70    2.70
  -1   5   2   24.90    1.50
   0   5   2   10.40    0.90
   0   5   2   10.70    1.60
   1   5   2  132.49    5.60
   1   5   2  128.89    5.80
   2   5   2  123.79    5.30
   3   5   2  208.18    8.70
   4   5   2    1.00    0.80
   4   5   2    0.50    0.80
   4   5   2   -0.30    0.40
   5   5   2    0.70    0.70
   5   5   2    0.20    0.60
   5   5   2    1.10    0.70
   6   5   2   83.79    4.10
   6   5   2   83.49    4.10
   7   5   2   -1.20    0.70
   7   5   2    1.30    0.70
   8   5   2    0.40    0.60
   8   5   2    0.60    0.60
   9   5   2   21.70    1.50
   9   5   2   23.60    1.30
   6  -6  -2    2.90    0.50
   6  -6  -2    3.30    0.70
   5  -6  -2   -0.30    0.40
   5  -6  -2    1.10    0.50
   4  -6  -2    7.50    1.00
   4  -6  -2    7.00    0.80
   3  -6  -2   33.50    1.90
   3  -6  -2   33.40    1.80
  -3   6   2   36.20    2.20
   2  -6  -2    9.20    1.00
   2  -6  -2   11.80    1.10
  -2   6   2    9.30    1.10
   1  -6  -2  369.46   15.10
   1  -6  -2  346.67   15.00
  -1   6   2  389.16   15.30
   0  -6  -2   29.50    1.90
   0   6   2   33.40    1.80
   0   6   2   32.90    3.40
   1   6   2   64.29    2.90
   1   6   2   56.19    3.70
   2   6   2  139.09    6.00
   3   6   2   28.50    2.10
   3   6   2   26.60    1.60
   4   6   2   54.59    2.70
   4   6   2   54.39    2.90
   4   6   2   54.49    3.00
   5   6   2   54.49    2.90
   5   6   2   55.49    2.80
   5   6   2   56.59    3.00
   6   6   2   23.00    1.90
   6   6   2   25.50    1.80
   6   6   2   24.70    1.90
   7   6   2   60.79    3.10
   7   6   2   61.59    3.10
   8   6   2    0.20    0.50
   8   6   2   -0.20    0.50
   9   6   2    4.20    0.70
   9   6   2    4.30    0.70
   6  -7  -2   21.80    1.20
   6  -7  -2   22.60    1.10
   5  -7  -2    1.90    0.60
   5  -7  -2    1.10    0.50
   4  -7  -2    0.60    0.50
   4  -7  -2    0.40    0.50
   3  -7  -2   20.50    1.40
   3  -7  -2   20.10    1.30
   2  -7  -2    6.50    0.90
   2  -7  -2    7.70    1.00
  -2   7   2    6.50    1.20
   1  -7  -2  167.18    7.30
   1  -7  -2  174.48    7.40
  -1   7   2  182.58    7.60
   0  -7  -2    0.80    0.60
   0   7   2    0.60    0.40
  -1  -7  -2    3.90    1.20
   1   7   2    4.80    0.70
  -2  -7  -2   -0.40    0.80
   2   7   2    1.10    0.90
   2   7   2    0.70    0.40
   3   7   2  224.98    9.80
   3   7   2  232.58    9.80
   4   7   2   10.60    1.40
   4   7   2    8.70    1.00
   4   7   2   11.10    1.60
   5   7   2   11.40    1.60
   5   7   2   11.20    1.50
   5   7   2   15.70    1.30
   6   7   2    1.30    0.70
   6   7   2    2.20    0.70
   6   7   2   -0.40    0.80
   7   7   2   43.20    2.30
   7   7   2   41.60    2.30
   8   7   2   26.60    1.70
   8   7   2   23.50    1.50
   5  -8  -2    0.10    0.40
   5  -8  -2    0.80    0.60
   4  -8  -2   20.30    1.20
   4  -8  -2   20.20    1.10
   3  -8  -2    1.30    0.60
   3  -8  -2    2.20    0.80
   2  -8  -2   13.60    1.10
   2  -8  -2   11.20    1.10
  -2   8   2   10.80    1.50
   1  -8  -2   71.59    3.40
  -1   8   2   76.29    3.60
   0  -8  -2    0.50    0.60
   0   8   2    0.80    0.50
  -1  -8  -2  124.69    6.50
   1   8   2  144.59    6.00
  -2  -8  -2   57.69    3.00
   2   8   2   58.89    3.00
   3   8   2    7.10    1.40
   3   8   2    4.40    0.80
   4   8   2   35.10    2.20
   4   8   2   34.20    2.50
   4   8   2   36.80    2.30
   5   8   2   17.40    1.40
   5   8   2   17.70    1.70
   5   8   2   18.10    1.60
   6   8   2   23.30    1.60
   6   8   2   19.90    1.70
   6   8   2   23.80    1.70
   7   8   2   -0.40    0.50
   7   8   2   -0.30    0.50
   8   8   2    4.50    1.00
   8   8   2    2.60    0.80
   4  -9  -2    3.00    0.70
   4  -9  -2    1.10    0.50
   3  -9  -2    7.10    0.80
   3  -9  -2    6.10    0.80
   2  -9  -2   86.29    3.90
   1  -9  -2   57.49    2.70
  -1   9   2   56.79    2.90
   0  -9  -2  232.08    9.30
   0   9   2  213.28    9.50
  -1  -9  -2    2.00    0.80
   1   9   2    2.70    0.90
   2   9   2   14.00    1.30
   3   9   2    6.10    0.90
   4   9   2   38.50    2.20
   5   9   2   11.70    1.20
   5   9   2   13.50    1.30
   5   9   2   10.80    1.50
   6   9   2   24.10    1.60
   6   9   2   25.70    1.90
   6   9   2   26.20    1.70
   7   9   2   99.89    4.40
   7   9   2  100.79    4.40
   3 -10  -2    0.70    0.50
   2 -10  -2    8.60    0.90
   1 -10  -2    0.80    0.70
   0 -10  -2   12.90    1.30
   0  10   2    9.90    1.20
   1  10   2   13.40    1.30
  -2 -10  -2  109.19    4.80
   2  10   2  106.99    5.00
   3  10   2   75.19    3.70
   4  10   2   55.69    2.80
   6  10   2    3.10    1.30
   0  11   2    1.20    1.20
   1  11   2   23.30    1.60
   2  11   2    0.60    0.60
   3  11   2   15.40    1.20
  -4 -11  -2    0.30    0.70
   4  11   2    0.20    0.60
  -5 -11  -2   10.10    1.00
   5  11   2    9.50    1.10
  -3 -11   3   12.50    1.00
  -2 -11   3    3.40    0.60
  -1 -11   3   -0.50    0.40
   0 -11   3    0.60    0.50
   5  10  -3    7.70    1.70
  -5 -10   3    8.20    0.80
   4  10  -3   91.89    4.40
  -4 -10   3   98.59    4.20
   3  10  -3   18.80    1.50
  -3 -10   3   17.50    1.20
   2  10  -3    1.50    0.90
  -2 -10   3    1.10    0.40
   1  10  -3   -0.90    1.50
  -1 -10   3    0.60    0.40
   0 -10   3    4.90    0.80
   1 -10   3    4.30    0.90
   2 -10   3   42.10    2.40
   6   9  -3   11.00    0.90
   6   9  -3   11.80    1.50
   5   9  -3    7.90    1.20
   5   9  -3    9.20    1.00
   4   9  -3    8.00    1.20
   4   9  -3    8.30    1.10
   3   9  -3   14.30    1.40
   3   9  -3   16.20    1.40
   2   9  -3    0.80    0.70
  -2  -9   3    1.20    0.60
   1   9  -3   11.40    1.50
  -1  -9   3   16.10    1.20
   0  -9   3   49.50    2.50
   1  -9   3    0.60    1.10
   2  -9   3    7.10    1.10
   3  -9   3  175.08    7.40
   7   8  -3    4.30    0.70
   6   8  -3   16.40    1.20
   6   8  -3   16.60    1.50
   5   8  -3    6.80    1.10
   5   8  -3    5.20    1.00
   4   8  -3    0.80    0.60
   4   8  -3    0.60    0.70
   3   8  -3   40.00    2.20
   3   8  -3   35.10    2.30
   2   8  -3    6.80    1.40
   2   8  -3    7.50    1.10
   1   8  -3   35.20    2.50
  -1  -8   3   33.70    2.00
   0  -8   3    1.70    0.60
   1  -8   3    0.80    0.60
   2  -8   3   24.10    1.70
   3  -8   3    0.90    0.70
   4  -8   3   14.40    1.40
   4  -8   3   14.30    1.10
   7   7  -3    5.70    1.70
   7   7  -3    2.80    0.70
   6   7  -3    8.40    1.20
   6   7  -3    9.60    1.10
   6   7  -3    7.20    1.00
   5   7  -3   30.00    1.90
   5   7  -3   31.80    1.90
   5   7  -3   30.20    2.00
   4   7  -3   29.20    2.00
   4   7  -3   32.20    2.00
   4   7  -3   31.90    2.00
   3   7  -3  802.22   32.30
   3   7  -3  779.72   32.20
   2   7  -3 1147.29   45.90
   2   7  -3 1114.29   45.70
   1   7  -3  122.29    5.50
   1   7  -3  118.89    5.50
   0   7  -3   19.50    1.60
   0  -7   3   20.00    1.50
   1  -7   3    5.60    1.00
   2  -7   3    5.00    1.10
   3  -7   3   48.90    2.80
   3  -7   3   53.19    2.60
   3  -7   3   54.79    2.80
   4  -7   3   47.30    2.60
   4  -7   3   44.30    2.20
   4  -7   3   43.40    2.40
   5  -7   3   -0.10    0.50
   5  -7   3    1.10    0.70
   5  -7   3    0.40    0.60
   6  -7   3    1.50    0.70
   8   6  -3    4.80    0.80
   7   6  -3   24.80    2.00
   7   6  -3   24.30    1.50
   7   6  -3   26.90    1.60
   6   6  -3    6.30    1.60
   6   6  -3    6.10    1.20
   6   6  -3    3.90    1.00
   5   6  -3   13.30    1.50
   5   6  -3   13.20    1.30
   5   6  -3   12.80    1.30
   4   6  -3   17.70    1.50
   4   6  -3   18.40    1.70
   4   6  -3   20.60    1.50
   3   6  -3    1.10    0.60
   3   6  -3   -0.40    0.70
   3   6  -3    1.30    0.70
   2   6  -3   42.50    2.50
   2   6  -3   46.40    2.40
   1   6  -3   98.69    4.70
   1   6  -3  106.29    4.70
   0   6  -3  180.58    7.70
   0  -6   3  181.38    7.70
   1  -6   3  243.28   10.20
   2  -6   3  165.88    7.00
   3  -6   3   54.29    2.90
   3  -6   3   58.19    3.00
   3  -6   3   60.39    2.80
   4  -6   3  133.19    5.80
   4  -6   3  134.59    5.70
   4  -6   3  132.09    5.90
   5  -6   3   82.09    3.80
   5  -6   3   80.49    3.60
   5  -6   3   75.79    3.70
   6  -6   3   15.00    0.90
   6  -6   3   13.40    1.30
   6  -6   3   14.80    1.10
   8   5  -3   79.49    3.50
   7   5  -3    6.10    1.30
   7   5  -3    6.00    1.10
   7   5  -3    6.00    1.70
   6   5  -3    7.50    1.30
   6   5  -3    9.40    1.50
   6   5  -3    8.90    1.40
   5   5  -3   37.90    2.30
   5   5  -3   41.30    2.40
   5   5  -3   37.80    2.40
   4   5  -3  205.98    8.70
   4   5  -3  191.88    8.70
   4   5  -3  205.58    8.70
   3   5  -3   36.70    2.40
   3   5  -3   42.50    2.20
   2   5  -3   42.20    2.20
   2   5  -3   35.80    2.30
   2   5  -3   44.50    4.20
   2   5  -3   41.10    2.50
   1   5  -3    9.40    2.70
   1   5  -3    6.30    0.90
   0   5  -3  865.31   35.40
   0   5  -3  832.22   34.30
  -1   5  -3    1.20    1.20
   1  -5   3    1.20    0.60
   2  -5   3    9.10    1.30
   2  -5   3    9.30    1.30
   3  -5   3   77.29    3.70
   3  -5   3   80.89    3.60
   3  -5   3   77.99    3.80
   4  -5   3   54.69    2.60
   4  -5   3   56.29    2.90
   4  -5   3   54.29    2.80
   5  -5   3   10.30    1.40
   5  -5   3   12.20    1.20
   5  -5   3   10.50    1.00
   6  -5   3   21.90    1.30
   6  -5   3   19.50    1.40
   6  -5   3   21.90    1.60
   7  -5   3    1.20    0.50
   7  -5   3    1.10    0.70
   7  -5   3    0.80    0.40
   8   4  -3   25.20    1.60
   7   4  -3   66.19    4.00
   7   4  -3   71.19    3.30
   7   4  -3   68.29    3.40
   6   4  -3   18.60    1.60
   6   4  -3   16.40    1.70
   6   4  -3   19.80    1.80
   5   4  -3   10.50    1.70
   5   4  -3   11.50    1.30
   5   4  -3   11.00    1.40
   4   4  -3   15.00    1.80
   4   4  -3   11.90    1.50
   4   4  -3   15.30    1.30
   3   4  -3  642.14   25.40
   3   4  -3  612.44   25.40
   3   4  -3  611.84   25.30
   2   4  -3 1901.71   76.29
   2   4  -3 2025.10   77.09
  -2  -4   3 1770.52   76.79
   1   4  -3 2432.66   95.29
   1   4  -3 2364.66   94.59
  -1  -4   3 2275.77   95.09
   0   4  -3  439.86   17.20
   0   4  -3  394.86   16.40
   0  -4   3  368.96   17.60
  -1   4  -3   54.19    3.50
   2  -4   3   74.89    3.90
   3  -4   3    7.20    1.40
   3  -4   3    6.30    1.30
   3  -4   3    5.80    1.00
   4  -4   3   53.49    3.00
   4  -4   3   50.69    2.60
   4  -4   3   55.09    2.70
   5  -4   3   29.70    1.80
   5  -4   3   29.00    2.00
   5  -4   3   28.30    1.80
   6  -4   3    3.30    1.20
   6  -4   3    1.80    0.70
   7  -4   3   17.00    1.10
   7  -4   3   17.10    1.20
   7  -4   3   20.30    1.40
   7   3  -3   53.09    2.70
   6   3  -3   12.10    1.50
   6   3  -3   13.70    1.90
   6   3  -3   11.10    1.60
   5   3  -3  166.48    8.20
   5   3  -3  186.88    8.00
   5   3  -3  192.28    8.00
   4   3  -3   11.00    1.60
   4   3  -3    8.50    2.00
   4   3  -3   10.10    1.10
   3   3  -3  316.97   12.60
   3   3  -3  320.47   13.50
  -3  -3   3  275.87   13.20
   2   3  -3 1063.99   40.90
   2   3  -3  985.30   40.20
  -2  -3   3  942.21   40.60
   1   3  -3  328.87   13.30
  -1  -3   3  321.87   13.70
   0   3  -3  114.89    5.30
   0  -3   3  109.29    5.20
  -1   3  -3    1.10    0.60
   1  -3   3    2.60    1.20
  -2   3  -3  100.89    5.20
  -3   3  -3  122.89    6.30
   3  -3   3  115.59    5.20
   3  -3   3  108.99    5.30
   4  -3   3   24.60    1.70
   4  -3   3   23.30    1.80
   4  -3   3   23.00    1.40
   5  -3   3   10.30    1.50
   5  -3   3    8.10    1.20
   5  -3   3    7.90    0.90
   6  -3   3   62.19    3.10
   6  -3   3   58.09    2.80
   6  -3   3   60.89    3.00
   7  -3   3    1.30    0.60
   7  -3   3   -0.10    0.60
   7  -3   3    0.70    0.50
   8  -3   3   25.20    1.40
   8  -3   3   23.60    1.60
   7   2  -3  118.19    5.30
   6   2  -3   83.79    4.10
   6   2  -3   70.39    4.70
   6   2  -3   86.69    4.00
   5   2  -3   72.39    3.70
   5   2  -3   74.49    4.10
   5   2  -3   73.69    3.70
   4   2  -3   34.10    2.30
   4   2  -3   34.30    2.00
  -4  -2   3   35.90    4.10
   3   2  -3  138.79    5.80
  -3  -2   3  125.59    6.40
   2   2  -3   30.40    1.70
   2   2  -3   37.80    2.30
  -2  -2   3   29.00    2.10
   1   2  -3  215.48    9.40
  -1  -2   3  222.38    9.40
   0   2  -3 1366.16   54.69
   0  -2   3 1339.47   54.59
  -1   2  -3   24.90    1.60
  -2   2  -3    3.80    1.10
   2  -2   3    3.00    1.10
  -3   2  -3  381.46   16.30
   4  -2   3   99.89    4.40
   4  -2   3   99.39    4.60
   4  -2   3  101.89    4.60
   5  -2   3  298.87   12.20
   5  -2   3  299.57   12.10
   5  -2   3  298.77   12.30
   5  -2   3  272.67   12.40
   6  -2   3   87.99    3.90
   6  -2   3   89.99    4.40
   6  -2   3   85.99    4.20
   7  -2   3    3.40    1.10
   7  -2   3    1.10    0.60
   7  -2   3    0.90    0.70
   8  -2   3    3.70    0.80
   6   1  -3    0.50    1.20
   5   1  -3  271.17   12.10
   5   1  -3  306.67   12.30
   4   1  -3    7.70    1.10
  -4  -1   3   10.50    3.20
   3   1  -3    0.90    0.50
  -3  -1   3    0.30    1.30
   2   1  -3   75.79    3.50
   2   1  -3   79.99    4.00
  -2  -1   3   76.09    3.90
   1   1  -3 3139.59  126.39
  -1  -1   3 3089.69  125.99
   0   1  -3    0.20    0.30
   0  -1   3    0.30    0.30
  -1   1  -3  158.68    6.80
   1  -1   3  158.68    6.80
  -2   1  -3   37.60    2.10
   2  -1   3   37.30    2.10
  -3   1  -3  620.34   25.30
   3  -1   3  608.94   25.40
  -4   1  -3   47.10    3.40
   5  -1   3    0.80    0.70
   5  -1   3    1.70    1.10
   5  -1   3    1.60    0.70
   5  -1   3    1.90    0.70
   6  -1   3  557.14   22.70
   6  -1   3  525.15   22.70
   6  -1   3  568.84   22.70
   6  -1   3  557.94   22.50
   7  -1   3   12.70    1.40
   7  -1   3   14.60    1.30
   7  -1   3   15.90    2.10
   7  -1   3   13.10    1.10
   8  -1   3   13.50    1.30
   8  -1   3   14.80    1.30
   5   0  -3   69.79    3.60
   5   0  -3   71.79    3.30
   4   0  -3  413.36   17.10
   3   0  -3  343.27   15.20
  -3   0   3  399.06   18.20
   2   0  -3  186.08    7.90
  -2   0   3  190.88    8.40
   1   0  -3  833.32   34.50
  -1   0   3  862.61   34.50
   0   0   3  257.37   10.70
  -1   0  -3   22.00    1.40
   1   0   3   24.50    1.30
  -2   0  -3   27.90    1.60
   2   0   3   29.80    1.60
  -3   0  -3  574.54   24.20
   3   0   3  607.24   24.20
  -4   0  -3  553.84   22.70
   4   0   3  535.55   22.70
   5   0   3    8.00    1.50
   5   0   3    8.80    1.30
   5   0   3    9.20    1.20
   5   0   3   10.90    1.40
   6   0   3   52.69    2.80
   6   0   3   48.20    2.80
   6   0   3   50.59    2.60
   6   0   3   51.49    2.90
   7   0   3    4.20    1.10
   7   0   3    5.50    1.50
   7   0   3    3.30    1.10
   7   0   3    6.00    1.20
   8   0   3    0.70    0.60
   8   0   3    3.80    1.00
   8   0   3    0.50    1.20
   9   0   3    0.40    0.50
   9   0   3    0.80    0.50
   7  -1  -3    4.50    1.00
   6  -1  -3    5.60    1.00
   6  -1  -3    3.70    1.40
   5  -1  -3   28.30    2.00
   5  -1  -3   27.30    2.00
   5  -1  -3   33.40    2.20
   4  -1  -3  431.56   17.60
   4  -1  -3  418.76   17.50
   4  -1  -3  437.76   17.80
   3  -1  -3  249.58   10.80
  -3   1   3  264.47   11.60
   2  -1  -3   55.39    2.70
  -1   1   3    8.80    1.10
   0  -1  -3 1346.17   55.09
   0   1   3 1360.46   54.59
  -1  -1  -3 1798.52   75.59
   1   1   3 1915.41   75.19
  -2  -1  -3    9.10    0.70
   2   1   3    9.10    0.70
  -3  -1  -3 1993.90   83.89
   3   1   3 2169.38   83.59
  -4  -1  -3    1.20    0.80
   5   1   3   31.50    2.10
   5   1   3   29.50    2.00
   5   1   3   30.30    2.10
   5   1   3   30.70    2.10
   6   1   3   56.29    2.90
   6   1   3   60.49    3.10
   6   1   3   58.29    3.10
   6   1   3   54.49    3.10
   7   1   3   29.20    1.90
   7   1   3   30.90    2.00
   7   1   3   29.80    2.10
   8   1   3    0.10    0.60
   8   1   3    1.30    0.70
   8   1   3    0.40    0.80
   9   1   3    3.80    0.90
   7  -2  -3    3.50    1.10
   7  -2  -3    3.50    0.70
   6  -2  -3   75.09    3.40
   6  -2  -3   75.99    3.60
   5  -2  -3   88.09    4.00
   5  -2  -3   87.09    3.90
   4  -2  -3  208.58    8.60
   4  -2  -3  204.78    8.60
   4  -2  -3  202.78    8.80
   3  -2  -3  376.76   15.70
  -3   2   3  383.26   16.70
   2  -2  -3  813.42   32.60
  -2   2   3  772.22   33.40
  -2   2   3  828.82   33.20
  -1   2   3  696.63   28.70
   0   2   3  211.78    9.30
   1   2   3   19.50    1.20
   5   2   3  264.07   11.20
   5   2   3  251.57   11.10
   5   2   3  278.17   11.20
   6   2   3    0.10    1.00
   6   2   3    0.30    0.70
   6   2   3   -0.30    0.70
   7   2   3    1.40    0.80
   7   2   3    0.90    0.80
   7   2   3    0.40    0.70
   8   2   3   17.00    1.60
   8   2   3   22.70    1.60
   9   2   3    3.90    1.20
   9   2   3    3.50    0.90
   7  -3  -3   16.40    1.00
   7  -3  -3   18.60    1.20
   6  -3  -3   14.60    1.20
   6  -3  -3   13.50    1.00
   5  -3  -3   11.90    1.20
   5  -3  -3   12.00    1.00
   4  -3  -3   25.10    1.60
   4  -3  -3   24.20    1.40
   3  -3  -3    3.10    1.00
   3  -3  -3    4.50    0.80
   3  -3  -3    2.60    0.70
   2  -3  -3  353.96   14.70
  -2   3   3  355.36   15.40
   1  -3  -3   45.30    2.20
  -1   3   3   41.50    3.00
  -1   3   3   44.40    2.60
   0   3   3  673.93   27.40
   0   3   3  657.53   27.20
   1   3   3  914.81   37.90
   1   3   3  961.30   38.00
   5   3   3   20.10    1.70
   5   3   3   23.30    1.80
   5   3   3   26.30    1.90
   6   3   3    7.40    1.40
   6   3   3    8.50    1.30
   6   3   3    9.40    1.50
   7   3   3   -0.80    0.80
   7   3   3    0.30    0.70
   7   3   3    0.70    0.60
   8   3   3   14.10    1.40
   8   3   3   13.40    1.40
   8   3   3   12.50    1.30
   9   3   3   23.60    1.90
   9   3   3   21.90    1.40
   7  -4  -3   27.00    1.50
   7  -4  -3   27.00    1.40
   6  -4  -3    2.90    0.80
   6  -4  -3    3.00    0.60
   5  -4  -3    3.80    0.90
   5  -4  -3    4.20    0.70
   4  -4  -3   13.00    1.20
   4  -4  -3   14.10    1.10
   3  -4  -3    4.30    0.80
   3  -4  -3    4.20    0.90
   2  -4  -3  137.89    5.90
   2  -4  -3  134.79    5.80
  -1   4   3  253.07   11.20
   0   4   3   25.00    2.10
   0   4   3   30.50    2.40
   1   4   3   11.10    0.90
   1   4   3   12.60    1.60
   2   4   3  125.39    5.40
   3   4   3   20.20    1.20
   4   4   3  198.98    8.30
   5   4   3   68.99    3.50
   5   4   3   70.89    3.60
   5   4   3   76.79    3.70
   6   4   3  102.49    4.80
   6   4   3  100.89    4.90
   6   4   3  109.49    4.90
   7   4   3   34.00    2.20
   7   4   3   34.20    2.20
   7   4   3   32.70    2.20
   8   4   3    1.40    0.60
   8   4   3    1.20    0.60
   9   4   3    9.10    0.90
   9   4   3   10.60    1.00
   6  -5  -3   -0.20    0.40
   6  -5  -3    0.10    0.50
   5  -5  -3   16.60    1.10
   5  -5  -3   17.80    1.20
   4  -5  -3    8.60    1.00
   4  -5  -3    7.40    0.80
   3  -5  -3   -0.60    0.50
   3  -5  -3    0.30    0.50
  -3   5   3    2.40    1.00
   2  -5  -3  153.78    6.60
   2  -5  -3  151.48    6.70
  -2   5   3  164.98    6.90
   1  -5  -3    0.40    0.60
  -1   5   3   -0.20    1.60
  -1   5   3    1.20    0.50
   0   5   3    1.90    2.10
   0   5   3    1.40    0.60
   0   5   3    1.30    1.10
   1   5   3  687.73   28.10
   1   5   3  693.53   28.40
   1   5   3  674.83   27.80
   2   5   3  150.78    6.40
   3   5   3    3.90    0.70
   4   5   3   66.09    3.00
   4   5   3   68.19    3.40
   4   5   3   58.29    3.30
   5   5   3   25.80    1.90
   5   5   3   28.00    2.00
   5   5   3   27.90    1.80
   6   5   3    5.40    1.30
   6   5   3    5.90    1.20
   7   5   3  101.69    5.20
   7   5   3   96.19    4.70
   8   5   3  136.89    6.00
   8   5   3  137.69    6.10
   9   5   3   60.39    2.80
   9   5   3   49.20    2.50
   6  -6  -3    2.20    0.50
   6  -6  -3    0.80    0.40
   5  -6  -3   32.70    1.70
   5  -6  -3   33.50    1.80
   4  -6  -3   16.90    1.10
   4  -6  -3   15.20    1.20
   3  -6  -3   62.09    3.10
   3  -6  -3   64.49    3.00
  -3   6   3   66.09    3.30
   2  -6  -3  259.57   11.00
  -2   6   3  275.17   11.30
   1  -6  -3  190.98    8.20
   1  -6  -3  193.88    8.30
  -1   6   3  205.88    8.50
   0  -6  -3    0.80    0.60
   0   6   3    0.40    0.40
   0   6   3   -0.30    2.20
  -1  -6  -3   25.10    1.70
   1   6   3   27.10    1.60
  -2  -6  -3   20.30    1.50
   2   6   3   19.80    1.30
  -3  -6  -3  498.75   20.20
   3   6   3  499.95   20.20
   3   6   3  479.95   20.30
  -4  -6  -3   16.20    1.50
   4   6   3   15.10    1.50
   4   6   3   15.30    1.20
   4   6   3   12.80    1.60
   5   6   3   42.30    2.50
   5   6   3   40.80    2.50
   5   6   3   41.40    2.30
   6   6   3   18.40    1.90
   6   6   3   18.70    1.60
   7   6   3   42.60    2.40
   7   6   3   41.30    2.40
   8   6   3   22.10    1.50
   8   6   3   20.40    1.40
   9   6   3   14.10    1.00
   9   6   3   12.90    1.00
   5  -7  -3   -0.40    0.30
   5  -7  -3    0.90    0.60
   4  -7  -3    6.70    0.70
   4  -7  -3    6.80    0.80
   3  -7  -3   48.00    2.50
   3  -7  -3   48.70    2.30
  -3   7   3   49.99    3.30
   2  -7  -3   13.60    1.10
   2  -7  -3   13.40    1.20
  -2   7   3   13.90    1.30
   1  -7  -3   54.29    2.60
   1  -7  -3   54.19    2.70
  -1   7   3   57.19    2.90
   0  -7  -3    0.90    0.60
   0   7   3    0.30    0.40
  -1  -7  -3    4.50    1.00
   1   7   3    4.20    0.70
  -2  -7  -3   98.99    4.30
   2   7   3   87.69    4.50
   2   7   3   96.79    4.30
  -3  -7  -3    0.90    0.70
   3   7   3    3.80    1.00
   3   7   3    2.60    0.80
  -4  -7  -3  113.19    5.20
   4   7   3  117.89    5.20
   4   7   3  111.69    5.30
   4   7   3  116.09    5.40
  -5  -7  -3   31.90    2.20
   5   7   3   31.70    2.00
   5   7   3   30.90    2.10
   5   7   3   33.50    2.20
   6   7   3   85.79    4.00
   6   7   3   82.99    3.90
   6   7   3   77.39    3.90
   7   7   3    0.90    0.60
   7   7   3    0.70    0.60
   8   7   3   18.70    1.30
   8   7   3   19.50    1.30
   5  -8  -3    7.50    0.60
   5  -8  -3    8.10    0.70
   4  -8  -3    8.70    0.70
   4  -8  -3    9.10    0.80
   3  -8  -3   24.10    1.50
   3  -8  -3   24.60    1.30
   2  -8  -3   11.70    1.00
   2  -8  -3   11.90    1.00
  -2   8   3   10.90    1.30
   1  -8  -3  127.99    5.50
   1  -8  -3  129.69    5.60
  -1   8   3  130.69    5.80
   0  -8  -3   58.99    2.90
   0   8   3   60.79    3.00
  -1  -8  -3  302.97   12.50
   1   8   3  300.87   12.70
  -2  -8  -3  481.15   19.90
   2   8   3  491.55   20.10
  -3  -8  -3  566.54   23.70
   3   8   3  605.84   23.90
   3   8   3  575.64   23.80
  -4  -8  -3  434.86   18.30
   4   8   3  440.56   18.10
   5   8   3  213.88    8.80
   5   8   3  205.28    8.70
   5   8   3  191.08    8.70
   6   8   3  170.68    7.10
   6   8   3  141.99    7.00
   6   8   3  172.28    7.20
   7   8   3  156.78    6.70
   7   8   3  155.68    6.70
   8   8   3   18.50    1.30
   8   8   3   25.40    1.60
   4  -9  -3   11.40    0.90
   4  -9  -3   12.20    0.80
   3  -9  -3    1.80    0.70
   3  -9  -3    3.70    0.70
   2  -9  -3    6.40    0.80
   2  -9  -3    5.60    1.00
   1  -9  -3    0.10    0.50
  -1   9   3   -0.20    0.60
   0  -9  -3  134.79    5.60
   0   9   3  122.49    5.70
  -1  -9  -3  165.38    6.60
   1   9   3  143.29    6.80
  -2  -9  -3   14.50    1.30
   2   9   3   11.10    1.20
  -3  -9  -3  123.99    5.90
   3   9   3  119.29    5.50
   4   9   3   56.39    2.90
   5   9   3   13.00    2.20
   5   9   3   10.10    2.80
   5   9   3   10.80    1.20
   6   9   3   67.79    3.20
   6   9   3   68.49    3.20
   6   9   3   62.79    3.30
   7   9   3    0.40    0.50
   7   9   3    0.50    0.60
   3 -10  -3    3.90    0.60
   2 -10  -3  133.89    5.60
   1 -10  -3  139.39    5.90
  -1  10   3  140.29    6.20
   0 -10  -3   64.29    2.90
   0  10   3   63.69    3.20
  -1 -10  -3    2.90    0.90
   1  10   3    2.20    0.90
   2  10   3   34.00    2.00
   3  10   3    4.10    0.90
   4  10   3    3.30    0.90
   5  10   3    2.70    1.00
   6  10   3    0.50    1.00
   0  11   3   23.20    1.80
   1  11   3    8.10    1.10
   2  11   3   13.80    1.20
   3  11   3   14.30    1.20
   4  11   3    0.30    0.60
   5  11   3    9.30    1.20
  -2 -11   4    0.80    0.40
  -1 -11   4   10.50    0.90
   0 -11   4    1.20    0.40
   4  10  -4   92.99    4.50
  -4 -10   4  102.19    4.20
   3  10  -4   68.39    3.60
  -3 -10   4   76.39    3.30
   2  10  -4    1.80    1.10
  -2 -10   4    0.60    0.60
  -1 -10   4    0.60    0.40
   0 -10   4    0.50    0.40
   1 -10   4   16.70    1.20
   2 -10   4   10.20    1.00
  -6  -9   4    2.90    0.80
   5   9  -4   -0.50    0.50
   5   9  -4    0.50    0.70
  -5  -9   4   -0.20    0.40
   4   9  -4   50.49    2.50
  -4  -9   4   48.90    2.40
   3   9  -4  219.48    9.90
  -3  -9   4  236.78    9.60
   2   9  -4   70.89    3.60
   1   9  -4   14.00    1.80
  -1  -9   4   19.10    1.30
   1  -9   4   17.90    1.30
   2  -9   4   51.19    2.50
   3  -9   4   62.49    2.90
   6   8  -4   26.00    1.50
   6   8  -4   27.10    1.80
   5   8  -4   22.00    1.70
   5   8  -4   24.40    1.50
   4   8  -4   23.10    1.80
   4   8  -4   26.40    2.10
   3   8  -4    0.00    0.70
   3   8  -4    1.30    0.60
   2   8  -4   91.59    4.10
   2   8  -4   75.09    4.10
  -2  -8   4   87.09    4.00
   1   8  -4   42.10    2.50
  -1  -8   4   44.80    2.30
   0  -8   4    9.90    1.10
   1  -8   4    2.70    1.00
   2  -8   4    0.60    0.60
   3  -8   4    1.30    0.60
   4  -8   4    9.20    1.10
   5  -8   4   14.10    1.30
   7   7  -4    0.80    0.60
   6   7  -4    9.60    1.30
   6   7  -4   10.90    1.10
   5   7  -4    1.20    0.70
   5   7  -4    1.80    0.70
   4   7  -4   89.49    4.10
   4   7  -4   83.29    4.30
   3   7  -4  405.36   16.40
   3   7  -4  388.06   16.60
   2   7  -4  663.43   27.90
   2   7  -4  705.03   28.10
   1   7  -4   15.60    1.40
   1   7  -4   11.60    1.60
  -1  -7   4   14.30    1.30
   0   7  -4    2.20    1.00
   0  -7   4    0.40    0.50
   1  -7   4    3.00    1.10
   2  -7   4   34.50    2.00
   3  -7   4   36.10    2.00
   3  -7   4   38.30    2.30
   4  -7   4   15.00    1.40
   4  -7   4   12.60    1.10
   5  -7   4    2.00    1.20
   7   6  -4   54.59    3.20
   7   6  -4   65.79    2.80
   6   6  -4   31.70    2.10
   6   6  -4   36.50    2.00
   5   6  -4   62.59    3.10
   5   6  -4   54.99    3.20
   5   6  -4   60.09    3.00
   4   6  -4    6.20    1.20
   4   6  -4    6.30    1.30
   4   6  -4    7.30    1.70
   3   6  -4  226.68    9.80
   3   6  -4  235.08   10.00
   2   6  -4  448.66   17.90
   2   6  -4  409.86   17.70
   1   6  -4  299.97   12.60
   1   6  -4  304.17   12.60
   0   6  -4   29.90    2.00
   0  -6   4   32.90    1.90
   1  -6   4   71.59    3.40
   2  -6   4   22.50    1.60
   2  -6   4   23.70    2.30
   3  -6   4   10.70    1.20
   3  -6   4   10.00    1.40
   4  -6   4   93.19    4.30
   4  -6   4   86.29    4.20
   4  -6   4   96.29    4.10
   5  -6   4    5.80    1.10
   5  -6   4    5.20    0.80
   5  -6   4    3.20    1.10
   6  -6   4   32.20    1.80
   6  -6   4   31.70    1.70
   6  -6   4   33.70    1.60
   7   5  -4   43.60    2.20
   7   5  -4   40.70    2.70
   6   5  -4   21.50    1.90
   6   5  -4   24.40    1.90
   6   5  -4   28.70    1.70
   5   5  -4    0.50    0.90
   5   5  -4    1.10    0.80
   5   5  -4    0.70    0.60
   4   5  -4  170.08    7.30
   4   5  -4  166.08    7.40
   4   5  -4  161.98    7.20
   3   5  -4   60.69    3.20
   3   5  -4   59.99    3.10
   3   5  -4   62.49    3.20
   2   5  -4  115.99    5.40
   2   5  -4  125.29    5.40
   0   5  -4  100.39    4.40
   0   5  -4   93.49    4.50
   0  -5   4   99.89    4.40
   1  -5   4  135.29    5.90
   2  -5   4  412.86   16.70
   2  -5   4  407.06   16.50
   2  -5   4  394.56   16.80
   3  -5   4    2.50    0.70
   3  -5   4    3.50    1.30
   3  -5   4    5.10    1.50
   4  -5   4   50.19    2.50
   4  -5   4   49.20    2.70
   4  -5   4   48.10    2.60
   5  -5   4    0.90    0.80
   5  -5   4    1.00    0.70
   5  -5   4    0.00    0.60
   6  -5   4    1.90    0.70
   6  -5   4    1.30    0.60
   6  -5   4    2.10    0.60
   7  -5   4   22.60    1.40
   7  -5   4   19.90    1.30
   7   4  -4   52.89    3.20
   7   4  -4   60.29    2.80
   6   4  -4   19.90    1.60
   6   4  -4   16.90    1.70
   6   4  -4   20.80    2.10
   5   4  -4   10.50    1.30
   5   4  -4   11.10    1.30
   5   4  -4    8.90    1.90
   4   4  -4    2.00    1.00
   4   4  -4    3.90    1.10
   4   4  -4    3.50    0.90
   3   4  -4    1.00    1.00
   2   4  -4  604.24   25.90
   2   4  -4  585.04   24.80
   2   4  -4  638.74   24.90
   1   4  -4   72.09    4.50
   1   4  -4   71.39    3.30
   0   4  -4   17.30    1.20
   0   4  -4   12.10    2.40
  -1   4  -4   84.59    5.10
   2  -4   4   69.89    3.20
   2  -4   4   68.09    3.30
   3  -4   4   10.00    2.50
   3  -4   4   13.30    1.40
   3  -4   4   13.90    1.60
   3  -4   4   13.90    1.20
   4  -4   4   86.09    4.10
   4  -4   4   84.59    3.80
   4  -4   4   85.29    4.00
   5  -4   4  341.07   14.40
   5  -4   4  352.66   14.50
   5  -4   4  346.57   14.30
   6  -4   4   14.90    1.10
   6  -4   4   16.60    1.40
   6  -4   4   13.20    1.20
   7  -4   4   10.30    0.80
   7  -4   4    8.40    1.10
   7  -4   4    9.50    1.00
   7   3  -4   91.89    4.20
   6   3  -4    4.30    1.30
   6   3  -4    3.80    0.90
   5   3  -4   81.09    3.90
   5   3  -4   81.99    4.10
   5   3  -4   72.19    3.70
   4   3  -4    0.90    0.60
   4   3  -4    1.90    0.80
   4   3  -4    1.20    1.20
   3   3  -4  246.68   12.30
   3   3  -4  267.77   10.90
   2   3  -4 1277.57   51.49
   2   3  -4 1231.98   50.59
   1   3  -4  569.94   22.70
   1   3  -4  555.04   22.00
  -1  -3   4  494.75   22.50
   0   3  -4  135.19    6.20
   0   3  -4  130.79    5.50
   0  -3   4  119.59    6.10
  -1   3  -4  152.88    7.20
  -2   3  -4  973.30   40.20
   3  -3   4  327.57   13.40
   3  -3   4  328.77   13.60
   4  -3   4  193.58    9.20
   4  -3   4  226.18    8.90
   4  -3   4  216.98    9.10
   4  -3   4  217.78    9.10
   5  -3   4  320.97   13.40
   5  -3   4  302.97   13.90
   5  -3   4  326.07   13.30
   5  -3   4  337.67   13.50
   6  -3   4    0.10    0.60
   6  -3   4    0.70    0.70
   6  -3   4    0.00    0.50
   7  -3   4    2.00    0.70
   7  -3   4    3.00    0.80
   8  -3   4    1.30    0.50
   8  -3   4    1.50    0.60
   6   2  -4  223.18    9.20
   6   2  -4  206.88    9.40
   5   2  -4   48.90    2.80
   5   2  -4   54.49    2.90
   4   2  -4   38.90    2.20
   4   2  -4   35.60    2.30
   3   2  -4  897.01   36.40
   2   2  -4  574.04   23.10
   2   2  -4  542.35   22.30
  -2  -2   4  523.15   22.90
   1   2  -4   73.99    3.30
   1   2  -4   73.19    3.90
  -1  -2   4   69.59    3.80
   0   2  -4  633.84   25.90
   0  -2   4  621.84   25.90
  -1   2  -4  187.98    8.30
   1  -2   4  182.28    8.20
  -2   2  -4   83.99    4.30
   2  -2   4   78.29    4.20
   4  -2   4   48.10    3.20
   4  -2   4   49.40    2.70
   4  -2   4   51.59    2.70
   4  -2   4   50.99    2.40
   5  -2   4   31.70    2.10
   5  -2   4   34.60    2.20
   5  -2   4   32.70    1.80
   5  -2   4   31.40    2.40
   6  -2   4   28.40    1.60
   6  -2   4   26.10    2.30
   6  -2   4   28.40    1.90
   6  -2   4   28.30    1.90
   7  -2   4    1.30    0.80
   7  -2   4    0.30    0.60
   8  -2   4    2.00    0.80
   8  -2   4    3.10    0.90
   6   1  -4   43.50    2.70
   5   1  -4  465.55   19.40
   4   1  -4  768.52   29.40
   4   1  -4  667.33   29.20
   3   1  -4  850.71   34.60
   2   1  -4   24.00    1.50
   2   1  -4   24.50    2.30
  -2  -1   4   28.10    2.30
   1   1  -4    2.50    1.10
   1   1  -4    2.90    0.70
  -1  -1   4    3.60    1.00
   0   1  -4  788.62   32.30
  -1   1  -4   50.69    2.70
   1  -1   4   51.99    2.70
   2  -1   4 1299.87   52.59
  -3   1  -4  306.07   12.60
   3  -1   4  276.07   12.50
  -4   1  -4   12.30    2.70
   4  -1   4   11.20    1.50
   4  -1   4   12.30    1.60
   4  -1   4   13.10    1.80
   4  -1   4   11.00    1.20
   5  -1   4    5.90    1.30
   5  -1   4    3.20    0.80
   5  -1   4    3.00    1.10
   5  -1   4    5.70    1.30
   6  -1   4  110.19    5.10
   6  -1   4  105.59    4.70
   6  -1   4  110.29    5.10
   6  -1   4  105.29    5.00
   7  -1   4   11.60    1.20
   7  -1   4   12.60    1.10
   7  -1   4   13.90    1.70
   7  -1   4   15.10    1.30
   8  -1   4    3.80    0.80
   8  -1   4    3.20    1.00
   6   0  -4    7.80    1.80
   5   0  -4   13.60    1.60
   5   0  -4   14.50    1.40
   4   0  -4   44.20    2.40
   4   0  -4   46.00    2.60
   3   0  -4   43.10    2.30
   2   0  -4  468.55   18.90
  -2   0   4  455.25   19.60
   1   0  -4  222.68   10.40
   1   0  -4  232.28    9.50
  -1   0   4  232.68   10.00
   0   0  -4   35.70    2.10
   0   0   4   35.10    2.00
  -1   0  -4  826.42   34.10
   1   0   4  849.52   34.10
  -2   0  -4    0.40    0.50
   2   0   4    1.00    0.60
  -3   0  -4  247.78   10.50
   3   0   4  239.28   10.40
  -4   0  -4  176.08    8.20
   5   0   4   98.29    4.50
   5   0   4  106.29    4.70
   5   0   4  101.09    4.80
   5   0   4   98.19    4.70
   6   0   4   17.50    1.40
   6   0   4   21.50    1.70
   6   0   4   19.20    1.80
   6   0   4   19.20    1.60
   7   0   4   13.10    1.20
   7   0   4   11.70    1.40
   7   0   4    8.80    1.20
   8   0   4   80.29    3.90
   8   0   4   80.09    3.90
   8   0   4   89.49    4.20
   9   0   4   18.40    1.10
   9   0   4   17.80    1.20
   6  -1  -4   11.30    1.10
   5  -1  -4    0.00    1.70
   5  -1  -4    1.10    0.60
   4  -1  -4    0.80    0.70
   4  -1  -4    1.20    1.40
   4  -1  -4    0.20    0.70
   3  -1  -4  371.86   16.20
  -3   1   4  401.16   17.60
   2  -1  -4  617.14   25.10
   1  -1  -4  279.97   11.40
  -1   1   4  268.07   11.90
   0  -1  -4  951.90   40.00
   0   1   4 1013.60   40.00
  -1  -1  -4    3.50    0.70
   1   1   4    2.80    0.70
  -2  -1  -4  574.44   23.50
   2   1   4  573.44   23.40
  -3  -1  -4 1850.31   74.49
  -4  -1  -4   92.89    4.60
   5   1   4  315.07   12.90
   5   1   4  317.97   13.10
   5   1   4  316.17   13.10
   5   1   4  302.37   13.10
   6   1   4   31.50    1.90
   6   1   4   34.00    2.20
   6   1   4   33.00    2.10
   6   1   4   30.00    2.10
   7   1   4   33.90    2.10
   7   1   4   32.90    2.10
   7   1   4   34.80    2.20
   8   1   4    2.90    1.00
   8   1   4    2.20    0.80
   8   1   4    1.40    0.70
   9   1   4    2.10    0.80
   9   1   4    2.50    0.80
   7  -2  -4    1.30    0.60
   6  -2  -4    0.50    0.90
   5  -2  -4   12.20    1.10
   5  -2  -4   13.60    1.60
   5  -2  -4   14.40    1.40
   4  -2  -4    3.30    1.20
   4  -2  -4    0.20    0.70
   4  -2  -4    0.40    0.60
   3  -2  -4    2.20    0.90
   3  -2  -4    1.40    0.60
   3  -2  -4   -0.80    0.90
   2  -2  -4  306.17   12.60
  -2   2   4  296.87   13.30
   1  -2  -4    2.70    0.90
   0  -2  -4 1623.14   64.69
   0   2   4 1583.54   64.89
  -1  -2  -4   13.60    1.20
  -2  -2  -4  397.56   16.30
   2   2   4  396.06   16.20
   5   2   4   64.19    3.30
   5   2   4   69.09    3.40
   5   2   4   64.09    3.30
   6   2   4   10.60    1.40
   6   2   4    9.50    1.50
   6   2   4   13.70    1.40
   7   2   4  141.09    6.30
   7   2   4  143.09    6.30
   7   2   4  135.59    6.20
   8   2   4    0.80    0.70
   8   2   4    0.40    0.60
   8   2   4   -0.50    0.50
   9   2   4    8.60    0.90
   9   2   4    7.50    1.10
   7  -3  -4    0.30    0.50
   6  -3  -4   39.50    2.10
   6  -3  -4   39.30    1.90
   5  -3  -4    0.70    0.50
   5  -3  -4    1.70    0.70
   4  -3  -4   15.80    1.20
   4  -3  -4   21.70    1.50
   3  -3  -4  274.57   11.70
   3  -3  -4  277.47   11.70
   3  -3  -4  297.27   12.00
   2  -3  -4   14.80    1.30
  -2   3   4   20.20    2.70
   1  -3  -4  560.54   22.50
  -1   3   4  543.35   23.10
   0  -3  -4  133.79    5.70
   0   3   4  127.69    6.20
   1   3   4  244.58   10.40
   2   3   4 1403.06   56.39
   3   3   4    6.10    0.90
   5   3   4    2.00    0.70
   5   3   4    2.50    1.00
   5   3   4    1.10    0.70
   6   3   4  212.78    9.30
   6   3   4  209.28    9.30
   6   3   4  228.88    9.40
   7   3   4  177.38    7.80
   7   3   4  177.78    7.90
   7   3   4  177.48    7.80
   8   3   4  164.38    7.20
   8   3   4  160.98    7.20
   8   3   4  169.98    7.20
   9   3   4   16.90    1.40
   9   3   4   15.70    1.20
   7  -4  -4    2.10    0.60
   6  -4  -4   18.10    1.10
   6  -4  -4   18.00    1.20
   5  -4  -4    5.10    0.70
   5  -4  -4    4.70    0.90
   4  -4  -4   76.49    3.50
   4  -4  -4   77.29    3.60
   3  -4  -4   79.09    3.60
   3  -4  -4   79.19    3.60
   2  -4  -4  153.48    6.50
   2  -4  -4  156.28    6.60
  -1   4   4   22.60    2.50
   0   4   4   83.19    4.20
   0   4   4   77.39    4.60
   1   4   4  361.56   15.30
   1   4   4  372.86   15.10
   1   4   4  369.36   15.50
   2   4   4  536.95   21.80
   3   4   4  315.27   13.00
   4   4   4    7.60    1.50
   4   4   4    6.20    1.90
   4   4   4   12.50    1.70
   4   4   4    8.70    1.00
   5   4   4    2.90    1.10
   5   4   4    4.10    1.40
   5   4   4    3.00    0.90
   6   4   4   29.40    2.00
   6   4   4   27.20    2.00
   6   4   4   25.40    1.90
   7   4   4   -0.10    0.60
   7   4   4    0.40    0.70
   7   4   4    1.10    0.90
   8   4   4   23.20    1.60
   8   4   4   22.30    1.60
   9   4   4   27.50    1.50
   9   4   4   28.20    1.60
   6  -5  -4    2.80    0.50
   6  -5  -4    3.30    0.70
   5  -5  -4    9.10    0.90
   5  -5  -4    9.30    0.90
   4  -5  -4   38.60    2.00
   4  -5  -4   37.20    2.10
  -4   5   4   41.20    2.50
   3  -5  -4    9.10    0.90
   3  -5  -4    7.90    1.00
   2  -5  -4  105.19    4.70
   2  -5  -4  104.79    4.60
   1  -5  -4   20.30    1.40
   1  -5  -4   18.30    1.30
   0  -5  -4  278.37   12.20
   0   5   4  296.37   13.00
   0   5   4  313.97   12.40
   1   5   4 1140.69   46.50
   1   5   4 1160.78   46.80
   2   5   4  901.91   36.50
   3   5   4  220.78    9.40
   4   5   4    5.10    1.60
   4   5   4    4.80    1.50
   5   5   4  168.88    7.30
   5   5   4  162.48    7.20
   6   5   4   43.90    2.50
   6   5   4   43.20    2.50
   7   5   4   24.30    1.90
   7   5   4   23.70    1.70
   8   5   4  240.38   10.30
   8   5   4  249.68   10.40
   9   5   4   16.20    1.10
   9   5   4   17.50    1.40
   6  -6  -4    1.60    0.40
   6  -6  -4    1.00    0.50
   5  -6  -4   47.80    2.20
   5  -6  -4   47.20    2.30
   4  -6  -4   68.39    3.30
   4  -6  -4   70.39    3.10
   3  -6  -4  224.58    9.50
   3  -6  -4  231.38    9.50
  -3   6   4  225.08    9.80
   2  -6  -4   21.60    1.40
   2  -6  -4   17.60    1.30
  -2   6   4   23.20    1.60
   1  -6  -4  442.36   18.50
   1  -6  -4  435.46   18.40
  -1   6   4  476.65   18.70
   0  -6  -4   47.10    2.50
   0  -6  -4   53.19    2.50
   0   6   4   50.99    2.60
  -1  -6  -4   90.09    4.20
   1   6   4   93.19    4.20
  -2  -6  -4  365.16   14.90
   2   6   4  354.16   14.90
  -3  -6  -4  442.16   17.20
   3   6   4  423.86   17.20
   3   6   4  387.06   17.30
  -4  -6  -4  849.72   34.00
   4   6   4  814.82   34.00
   4   6   4  867.31   33.90
   4   6   4  812.22   34.00
   5   6   4  160.78    7.00
   5   6   4  162.68    6.90
   5   6   4  149.39    6.90
   6   6   4  539.75   21.80
   6   6   4  519.45   21.80
   7   6   4   21.80    1.70
   7   6   4   23.00    1.70
   8   6   4    4.50    1.00
   8   6   4    2.40    0.90
   9   6   4    3.10    0.70
   9   6   4    3.50    0.70
   5  -7  -4    5.40    0.60
   5  -7  -4    6.00    0.70
   4  -7  -4    3.40    0.60
   4  -7  -4    3.70    0.70
   3  -7  -4   54.09    2.50
   3  -7  -4   54.79    2.70
  -3   7   4   55.19    3.00
   2  -7  -4  178.38    7.70
   2  -7  -4  177.88    7.60
  -2   7   4  186.78    7.90
   1  -7  -4    1.00    0.50
   1  -7  -4    0.80    0.60
  -1   7   4    2.10    0.80
   0  -7  -4  149.39    6.70
   0   7   4  170.58    7.10
  -1  -7  -4   52.99    2.60
   1   7   4   52.29    2.80
  -2  -7  -4  414.06   17.10
   2   7   4  415.26   17.20
  -3  -7  -4  665.93   27.00
   3   7   4  624.84   27.10
   3   7   4  700.93   27.10
  -4  -7  -4   58.09    2.90
   4   7   4   58.09    2.90
   4   7   4   54.99    3.10
  -5  -7  -4  404.06   16.30
   5   7   4  389.56   16.40
   5   7   4  378.56   16.30
   5   7   4  405.46   17.10
  -6  -7  -4  289.57   12.10
   6   7   4  290.27   12.20
   6   7   4  289.57   12.20
   7   7   4  173.68    7.60
   7   7   4  179.18    7.60
   8   7   4  161.68    6.70
   8   7   4  153.18    6.70
   4  -8  -4    1.60    0.50
   4  -8  -4    2.80    0.60
   3  -8  -4   82.09    3.70
   3  -8  -4   84.59    3.60
   2  -8  -4  333.17   13.40
   2  -8  -4  330.57   13.50
  -2   8   4  319.57   13.70
   1  -8  -4  439.16   17.70
   1  -8  -4  443.16   17.60
  -1   8   4  414.46   17.90
   0  -8  -4   12.90    1.10
   0   8   4   14.20    1.20
  -1  -8  -4  202.98    8.90
   1   8   4  212.48    9.00
  -2  -8  -4   18.30    1.40
   2   8   4   18.70    1.40
  -3  -8  -4   43.00    2.40
   3   8   4   47.10    2.50
  -4  -8  -4   30.20    1.90
   4   8   4   28.00    1.80
   4   8   4   28.90    2.20
  -5  -8  -4   37.10    2.20
   5   8   4   40.50    2.50
   5   8   4   39.40    2.30
   5   8   4   39.40    2.40
   6   8   4    1.30    0.90
   6   8   4    2.00    0.80
   6   8   4    1.90    1.10
   7   8   4   66.89    3.20
   7   8   4   67.09    3.10
   8   8   4   12.10    1.00
   8   8   4   14.20    1.00
   3  -9  -4   22.30    1.20
   3  -9  -4   22.00    1.30
   2  -9  -4    0.10    0.60
   2  -9  -4    0.10    0.50
  -2   9   4   -0.20    0.90
   1  -9  -4   57.79    2.70
  -1   9   4   52.19    2.80
   0  -9  -4    7.10    0.90
   0   9   4    5.80    1.00
  -1  -9  -4  147.49    6.10
   1   9   4  135.99    6.30
  -2  -9  -4   27.00    1.60
   2   9   4   24.20    1.70
  -3  -9  -4   -0.10    0.60
   3   9   4    0.30    0.50
  -4  -9  -4    0.00    0.70
   4   9   4    0.70    0.50
   5   9   4   87.19    4.00
   5   9   4   81.29    4.00
   6   9   4   19.30    1.80
   6   9   4   19.40    1.70
   6   9   4   20.50    1.60
   7   9   4  111.19    4.80
   7   9   4  112.49    4.80
   2 -10  -4   13.20    0.90
   1 -10  -4   18.80    1.20
  -1  10   4   20.60    1.60
   0 -10  -4    0.50    0.50
   0  10   4    0.80    0.60
  -1 -10  -4   84.59    3.70
   1  10   4   83.59    4.00
  -2 -10  -4   72.59    3.20
   2  10   4   68.49    3.40
  -3 -10  -4    1.80    0.80
   4  10   4   22.60    1.60
   5  10   4   26.00    1.70
   1 -11  -4    6.90    0.90
   0  11   4   -0.80    1.30
  -1 -11  -4  136.49    6.10
   1  11   4  152.08    6.30
   2  11   4   76.19    3.60
   3  11   4   10.40    1.10
   4  11   4   13.50    1.20
  -4 -10   5    4.60    0.70
  -3 -10   5    1.60    0.60
  -2 -10   5   25.40    1.40
  -1 -10   5    0.40    0.40
   0 -10   5    1.00    0.40
   1 -10   5    5.40    0.80
   2 -10   5    2.50    0.80
  -5  -9   5   15.00    1.10
   4   9  -5  124.19    5.60
  -4  -9   5  122.39    5.40
   3   9  -5  436.16   18.40
  -3  -9   5  453.95   18.20
   2   9  -5   72.29    4.10
  -2  -9   5   79.49    3.50
  -1  -9   5   15.80    2.20
  -1  -9   5   18.10    1.20
   0  -9   5   45.40    2.50
   1  -9   5    0.50    0.50
   2  -9   5    3.10    0.90
   3  -9   5    1.10    0.50
   6   8  -5   13.40    1.00
   5   8  -5   37.30    2.30
   5   8  -5   37.40    2.00
  -5  -8   5   39.30    2.00
   4   8  -5    2.50    0.90
   3   8  -5    1.30    1.00
  -3  -8   5    3.50    1.00
   2   8  -5    1.00    0.90
  -2  -8   5    0.30    0.50
   1   8  -5    9.50    1.70
  -1  -8   5   12.30    1.10
   0  -8   5    7.90    1.00
   0  -8   5    9.40    1.70
   1  -8   5   19.80    1.60
   2  -8   5    0.20    0.60
   3  -8   5   37.60    2.10
   4  -8   5    2.60    0.90
   6   7  -5   10.90    1.40
   6   7  -5   11.30    1.00
   5   7  -5   -0.60    0.70
   5   7  -5    1.00    0.50
   4   7  -5   23.80    1.60
   4   7  -5   21.10    1.80
   3   7  -5    6.80    1.10
   3   7  -5    5.30    1.20
   2   7  -5   40.60    2.30
   2   7  -5   41.00    2.50
   1   7  -5   58.09    3.20
  -1  -7   5   57.69    2.90
   0  -7   5   19.30    1.50
   1  -7   5  267.07   11.90
   1  -7   5  295.47   12.00
   2  -7   5   57.59    2.90
   3  -7   5   76.59    3.60
   4  -7   5   53.49    2.70
   5  -7   5   33.30    1.80
   7   6  -5    7.10    0.90
   6   6  -5   11.00    1.10
   6   6  -5   10.80    1.30
   5   6  -5    0.30    0.70
   5   6  -5    1.30    0.60
   4   6  -5   12.60    1.40
   4   6  -5    8.40    1.30
   3   6  -5  288.67   12.00
   3   6  -5  267.77   11.80
   2   6  -5   83.49    3.90
   2   6  -5   82.99    4.10
   1   6  -5   40.00    2.30
   1   6  -5   38.90    2.30
  -1  -6   5   38.50    2.20
   0   6  -5  135.79    6.10
   0  -6   5  135.59    5.90
   1  -6   5  131.39    5.70
   2  -6   5  117.39    5.30
   2  -6   5  112.69    5.40
   3  -6   5   34.60    1.90
   3  -6   5   33.50    2.10
   4  -6   5  118.19    5.20
   4  -6   5  124.39    5.50
   5  -6   5   22.90    1.70
   5  -6   5   21.30    1.50
   6  -6   5    1.70    0.50
   6  -6   5    2.10    0.90
   7   5  -5   78.59    3.90
   6   5  -5    4.80    1.20
   6   5  -5    5.00    1.10
   5   5  -5    1.30    1.10
   5   5  -5   -0.10    0.70
   4   5  -5  519.65   21.40
   3   5  -5    6.50    1.10
   3   5  -5    4.30    1.10
   2   5  -5    8.30    1.10
   2   5  -5    7.70    1.30
   1   5  -5    1.30    0.60
   1   5  -5    1.00    0.70
   0   5  -5   11.10    1.30
   0  -5   5    9.20    1.30
   1  -5   5   94.19    4.30
   2  -5   5  143.59    6.20
   2  -5   5  145.49    6.50
   2  -5   5  141.99    6.40
   3  -5   5  263.57   10.70
   3  -5   5  258.57   10.90
   3  -5   5  252.77   11.00
   4  -5   5   68.39    3.40
   4  -5   5   70.49    3.20
   4  -5   5   67.99    3.50
   5  -5   5   -0.30    1.00
   5  -5   5   -0.20    0.50
   5  -5   5    1.30    0.70
   6  -5   5    0.10    0.50
   6  -5   5    0.30    0.70
   7   4  -5   18.00    1.40
   7   4  -5   19.60    2.10
   6   4  -5   56.89    2.80
   6   4  -5   49.60    2.90
   5   4  -5  153.08    7.20
   5   4  -5  169.78    7.10
   4   4  -5    1.60    0.70
   4   4  -5    1.70    1.10
   4   4  -5    1.50    0.60
   3   4  -5  370.56   15.00
   3   4  -5  334.37   14.60
   2   4  -5   16.40    1.40
   2   4  -5   15.20    1.30
   1   4  -5  456.35   18.10
   1   4  -5  421.26   18.00
   0   4  -5  111.09    5.00
   0   4  -5  118.09    5.10
   0  -4   5  110.69    5.00
   1  -4   5  415.76   17.00
   2  -4   5  124.79    5.50
   2  -4   5  120.89    5.40
   2  -4   5  125.19    5.70
   3  -4   5    1.40    0.70
   3  -4   5    0.60    1.20
   3  -4   5    0.40    0.70
   3  -4   5   -1.10    1.30
   4  -4   5    9.10    1.50
   4  -4   5   12.20    1.40
   4  -4   5   12.60    2.40
   4  -4   5   11.90    1.10
   5  -4   5   61.79    2.90
   5  -4   5   61.59    3.10
   5  -4   5   62.39    3.20
   6  -4   5    2.60    0.70
   6  -4   5    1.60    0.50
   7  -4   5    6.40    0.80
   7  -4   5    4.80    0.90
   6   3  -5   99.99    5.10
   6   3  -5  104.79    5.00
   5   3  -5  215.58    9.10
   5   3  -5  209.68    9.30
   4   3  -5  931.71   37.90
   4   3  -5  926.01   37.70
   3   3  -5  209.88    8.80
   3   3  -5  189.18    8.50
   2   3  -5   67.09    3.40
   2   3  -5   71.89    3.40
   1   3  -5   61.49    4.20
   1   3  -5   54.89    2.80
   0   3  -5  352.86   15.70
   0   3  -5  363.56   14.80
  -1   3  -5    0.70    1.50
   2  -3   5   98.29    4.40
   2  -3   5   95.69    4.50
   3  -3   5   45.30    2.70
   3  -3   5   47.10    2.50
   3  -3   5   46.10    2.30
   3  -3   5   41.60    2.70
   4  -3   5  118.39    5.70
   4  -3   5  110.99    5.20
   4  -3   5  108.89    5.40
   4  -3   5  119.89    5.10
   5  -3   5   55.59    3.10
   5  -3   5   55.19    2.70
   5  -3   5   55.29    2.90
   5  -3   5   53.39    2.90
   6  -3   5    8.80    1.00
   6  -3   5    5.50    1.20
   6  -3   5    9.20    1.10
   7  -3   5    0.20    0.60
   7  -3   5    0.80    0.80
   8  -3   5   12.30    1.00
   8  -3   5   11.90    0.90
   6   2  -5    7.40    2.20
   6   2  -5    7.30    1.40
   5   2  -5   21.30    1.80
   4   2  -5  153.68    7.00
   4   2  -5  168.68    7.20
   3   2  -5   15.00    1.30
   3   2  -5   17.20    1.50
   2   2  -5  937.51   37.70
   2   2  -5  914.91   38.70
   1   2  -5  166.68    7.10
   1   2  -5  163.08    7.90
   0   2  -5   52.59    3.40
   0   2  -5   55.29    2.70
  -1   2  -5    3.70    1.70
  -2   2  -5  251.77   11.40
   3  -2   5   -0.30    0.60
   3  -2   5   -0.30    1.00
   3  -2   5    0.70    0.70
   4  -2   5    5.90    0.90
   4  -2   5    5.40    1.20
   4  -2   5    8.60    1.40
   4  -2   5    5.70    1.30
   5  -2   5  101.89    4.90
   5  -2   5  106.19    4.80
   5  -2   5  101.19    4.60
   5  -2   5  107.29    4.90
   6  -2   5   29.90    1.70
   6  -2   5   30.20    2.00
   6  -2   5   30.30    2.20
   6  -2   5   27.90    2.00
   7  -2   5   54.19    2.60
   7  -2   5   53.99    2.80
   7  -2   5   55.79    2.90
   8  -2   5   19.40    1.30
   8  -2   5   21.40    1.50
   6   1  -5   10.50    1.70
   5   1  -5   20.50    1.80
   4   1  -5    5.80    1.70
   3   1  -5  280.27   11.00
   3   1  -5  237.58   10.90
   2   1  -5   83.29    5.10
   2   1  -5   86.79    4.00
   1   1  -5  134.59    5.80
   1   1  -5  133.39    6.60
   0   1  -5   -0.20    0.70
   0   1  -5    2.10    0.80
   0  -1   5    0.30    0.80
  -1   1  -5    3.30    1.20
   1  -1   5    3.80    1.30
  -2   1  -5  816.12   32.70
   2  -1   5  770.32   32.60
  -3   1  -5   62.09    3.90
   4  -1   5  234.38    9.60
   4  -1   5  229.88    9.80
   4  -1   5  226.08    9.90
   4  -1   5  236.08    9.80
   5  -1   5    7.30    1.30
   5  -1   5    5.20    1.50
   5  -1   5    6.20    1.40
   5  -1   5    4.30    1.20
   6  -1   5    9.50    1.40
   6  -1   5   10.90    1.20
   6  -1   5    8.20    1.30
   6  -1   5   10.50    1.40
   7  -1   5   60.79    3.10
   7  -1   5   52.59    3.20
   7  -1   5   63.59    3.10
   8  -1   5    4.70    0.80
   8  -1   5    3.70    0.90
   6   0  -5    2.20    1.00
   5   0  -5   27.20    1.80
   5   0  -5   35.00    2.90
   4   0  -5    5.30    1.20
   4   0  -5    0.40    0.80
   3   0  -5   42.80    2.40
   3   0  -5   45.90    2.50
   2   0  -5  216.58    9.20
   1   0  -5  498.45   20.50
   1   0  -5  496.25   19.70
  -1   0   5  448.96   20.30
   0   0  -5    0.60    0.50
   0   0  -5    2.00    1.10
   0   0   5    1.40    0.90
  -1   0  -5   11.10    1.40
   1   0   5   11.10    1.40
  -2   0  -5  577.84   24.40
   2   0   5  597.44   24.20
  -3   0  -5    1.00    1.10
   3   0   5   -0.10    1.20
  -4   0  -5  173.98    8.70
   4   0   5  180.68    7.50
   4   0   5  181.58    7.70
   4   0   5  170.38    7.70
   4   0   5  176.98    7.70
   5   0   5  194.38    8.10
   5   0   5  190.28    8.30
   5   0   5  189.08    8.30
   5   0   5  194.38    8.30
   6   0   5  600.54   24.00
   6   0   5  604.34   24.30
   6   0   5  584.44   24.20
   6   0   5  569.34   24.20
   7   0   5  106.49    5.00
   7   0   5  108.89    5.00
   7   0   5  105.89    4.90
   8   0   5    1.40    0.70
   8   0   5    1.90    0.60
   8   0   5    1.20    0.70
   9   0   5   19.40    1.20
   9   0   5   19.30    1.20
   6  -1  -5   13.10    1.10
   5  -1  -5   50.89    2.40
   5  -1  -5   50.19    2.90
   4  -1  -5  212.48    9.20
   4  -1  -5  231.78    9.70
   3  -1  -5   -0.10    0.70
   3  -1  -5    0.70    0.50
   2  -1  -5   48.20    2.50
   1  -1  -5    1.90    0.70
   0  -1  -5   79.99    4.30
   0  -1  -5   84.79    3.70
   0   1   5   81.19    4.20
  -1  -1  -5 1882.51   78.39
   1   1   5 1999.00   78.39
  -2  -1  -5  178.38    8.00
   2   1   5  181.68    7.90
  -3  -1  -5  158.68    7.30
   3   1   5  160.68    7.10
   4   1   5  459.65   20.50
   4   1   5  555.44   20.80
   4   1   5  487.35   20.60
   5   1   5   17.90    1.70
   5   1   5   19.00    1.70
   5   1   5   21.40    1.70
   6   1   5   22.70    1.80
   6   1   5   20.50    1.70
   6   1   5   20.70    1.80
   7   1   5   17.90    1.50
   7   1   5   19.60    1.60
   7   1   5   15.90    1.50
   8   1   5   18.00    1.50
   8   1   5   18.20    1.40
   8   1   5   20.30    1.40
   9   1   5    1.40    0.50
   6  -2  -5    3.20    0.80
   5  -2  -5   48.70    2.30
   5  -2  -5   49.90    2.60
   5  -2  -5   46.20    2.80
   4  -2  -5   69.49    3.80
   4  -2  -5   69.59    3.20
   4  -2  -5   70.49    3.60
   3  -2  -5   21.90    1.60
   3  -2  -5   20.50    1.40
   3  -2  -5   19.20    1.70
   2  -2  -5   20.40    1.40
   2  -2  -5   15.90    1.40
   1  -2  -5    2.90    0.70
   0  -2  -5  917.51   36.80
   0   2   5  901.11   37.40
  -1  -2  -5  120.99    5.10
  -1  -2  -5  116.39    5.60
   1   2   5  115.29    5.50
  -2  -2  -5    8.30    1.30
   2   2   5    5.40    1.20
  -3  -2  -5   30.80    2.10
   3   2   5   27.90    2.00
   4   2   5    3.60    1.40
   4   2   5    0.00    0.90
   5   2   5   95.59    4.70
   5   2   5  100.99    4.70
   5   2   5  105.69    4.80
   6   2   5    2.30    0.90
   6   2   5    2.30    0.80
   6   2   5    3.50    1.20
   7   2   5  179.18    7.90
   7   2   5  182.48    8.10
   7   2   5  180.98    7.90
   8   2   5   -0.10    0.60
   8   2   5   -0.10    0.70
   8   2   5    0.40    0.60
   9   2   5    2.60    0.90
   9   2   5    4.00    0.80
   6  -3  -5   -0.30    0.50
   6  -3  -5   -0.10    0.90
   5  -3  -5   22.60    1.30
   5  -3  -5   21.20    1.50
   4  -3  -5   58.79    2.80
   4  -3  -5   59.39    2.90
   4  -3  -5   60.49    3.20
   3  -3  -5   97.59    4.40
   3  -3  -5   95.69    4.30
   3  -3  -5  100.09    4.70
   2  -3  -5    4.90    0.90
   2  -3  -5    6.50    1.10
   2  -3  -5    5.50    0.90
   1  -3  -5   14.40    1.20
  -1   3   5   14.90    2.30
   0  -3  -5 1266.07   49.40
   0   3   5 1178.78   50.09
   1   3   5 1979.90   79.99
   2   3   5 2193.78   86.19
   2   3   5 2087.49   85.89
   3   3   5  777.32   31.40
   4   3   5  458.25   19.20
   4   3   5  472.35   19.20
   5   3   5  493.35   20.30
   5   3   5  492.35   20.30
   6   3   5   70.49    3.60
   6   3   5   71.29    3.60
   6   3   5   68.19    3.50
   7   3   5  140.99    6.20
   7   3   5  136.49    6.20
   7   3   5  137.49    6.20
   8   3   5   47.50    2.50
   8   3   5   45.70    2.50
   8   3   5   49.70    2.50
   9   3   5   -0.10    0.40
   9   3   5   -0.10    0.80
   6  -4  -5    9.40    1.00
   6  -4  -5    8.60    0.70
   5  -4  -5   30.10    1.50
   5  -4  -5   23.00    1.60
   4  -4  -5  109.49    4.80
   4  -4  -5  108.99    4.80
   3  -4  -5    5.10    1.00
   3  -4  -5    5.00    0.80
   2  -4  -5  358.26   14.70
   2  -4  -5  358.36   14.70
   1  -4  -5  745.53   30.60
   1  -4  -5  768.92   30.70
   0   4   5  784.72   32.60
   1   4   5   94.29    5.20
   1   4   5  100.49    4.90
   2   4   5  387.36   16.30
   2   4   5  400.46   16.20
   3   4   5  169.98    7.20
   4   4   5   28.70    2.60
   4   4   5   31.30    2.10
   5   4   5    0.40    0.70
   5   4   5    1.40    0.90
   5   4   5    0.60    0.90
   6   4   5    0.30    0.70
   6   4   5   -1.50    0.90
   6   4   5    0.30    0.80
   7   4   5   12.20    1.60
   7   4   5    7.20    1.70
   8   4   5   17.20    1.40
   8   4   5   16.50    1.40
   9   4   5    4.20    1.00
   9   4   5    5.00    1.10
   6  -5  -5   15.70    0.90
   6  -5  -5   15.60    1.10
   5  -5  -5   18.90    1.20
   5  -5  -5   19.20    1.20
   4  -5  -5  123.19    5.20
   4  -5  -5  125.59    5.30
  -4   5   5  114.39    5.60
   3  -5  -5  803.82   33.00
   3  -5  -5  827.82   33.10
   1  -5  -5  122.69    5.30
   1  -5  -5  120.29    5.20
   0  -5  -5  355.66   14.20
   0  -5  -5  330.17   14.00
  -1  -5  -5    2.70    0.70
   1   5   5    2.20    0.60
  -2  -5  -5   56.89    2.80
   2   5   5   52.79    2.70
   3   5   5    2.40    0.70
   4   5   5   45.50    2.20
   4   5   5   39.20    2.50
   4   5   5   43.50    2.80
   5   5   5  322.87   14.70
   5   5   5  365.36   14.50
   6   5   5  312.17   13.20
   6   5   5  311.87   13.10
   7   5   5  249.48   10.40
   7   5   5  235.48   10.30
   8   5   5  113.69    5.20
   8   5   5  120.99    5.50
   9   5   5   25.50    1.40
   9   5   5   25.00    1.40
   5  -6  -5    3.30    0.60
   5  -6  -5    2.40    0.50
   4  -6  -5    0.30    0.50
   4  -6  -5    0.40    0.40
   3  -6  -5   11.30    1.00
   3  -6  -5   11.90    1.00
  -3   6   5   10.90    1.30
   2  -6  -5  384.86   16.70
   2  -6  -5  396.76   16.70
  -2   6   5  442.96   17.10
   1  -6  -5   57.09    2.90
   1  -6  -5   57.39    2.80
  -1   6   5   63.79    3.10
   0  -6  -5    7.60    0.90
   0  -6  -5    5.60    1.00
   0   6   5    5.60    0.90
  -1  -6  -5   44.30    2.50
  -1  -6  -5   50.09    2.50
   1   6   5   50.19    2.50
  -2  -6  -5   21.40    1.50
   2   6   5   19.40    1.40
  -3  -6  -5   19.90    1.50
   3   6   5   17.80    1.30
  -4  -6  -5   17.20    1.40
   4   6   5   16.20    1.20
   4   6   5   10.90    1.80
   4   6   5   13.20    1.90
   5   6   5    0.60    0.80
   5   6   5    1.10    0.90
   5   6   5    0.30    0.80
   6   6   5  372.46   15.40
   6   6   5  361.76   15.30
   7   6   5    3.50    1.10
   7   6   5    3.20    1.10
  -8  -6  -5    9.00    1.10
   8   6   5   12.50    1.10
   8   6   5   12.00    1.10
   5  -7  -5    0.20    0.40
   5  -7  -5    0.00    0.30
   4  -7  -5   11.80    0.90
   4  -7  -5   13.40    0.90
   3  -7  -5   32.90    1.60
   3  -7  -5   32.00    1.70
  -3   7   5   29.40    2.00
   2  -7  -5    4.70    0.80
   2  -7  -5    5.00    0.80
  -2   7   5    5.80    1.10
   1  -7  -5   53.69    2.80
   1  -7  -5   53.99    2.70
  -1   7   5   62.19    3.00
   0  -7  -5  397.26   16.70
   0  -7  -5  392.16   16.60
   0   7   5  429.16   17.00
  -1  -7  -5  132.69    6.00
   1   7   5  143.09    6.20
  -2  -7  -5   13.30    1.70
   2   7   5   13.10    1.10
  -3  -7  -5   19.30    1.40
   3   7   5   18.10    1.30
  -4  -7  -5   78.49    3.70
   4   7   5   79.49    3.70
   4   7   5   72.39    4.00
  -5  -7  -5  214.58    9.00
   5   7   5  201.38    9.00
   5   7   5  217.68    9.20
   5   7   5  209.38    9.10
  -6  -7  -5  110.59    5.10
   6   7   5  114.89    5.20
   6   7   5  115.59    5.20
  -7  -7  -5  154.68    6.80
   7   7   5  158.98    6.90
   7   7   5  162.78    6.90
   8   7   5    0.10    0.50
   8   7   5    0.20    0.50
   4  -8  -5    1.40    0.40
   4  -8  -5    2.50    0.50
   3  -8  -5    0.70    0.40
   3  -8  -5   -0.20    0.40
   2  -8  -5   42.60    2.10
   2  -8  -5   40.80    2.10
  -2   8   5   38.70    2.30
   1  -8  -5   39.90    2.00
   1  -8  -5   43.00    2.10
  -1   8   5   39.20    2.30
   0  -8  -5    1.10    0.50
   0  -8  -5    2.50    0.80
   0   8   5    0.80    0.50
  -1  -8  -5  110.79    4.90
  -2  -8  -5   29.20    1.70
   2   8   5   29.60    1.80
  -3  -8  -5    1.60    0.60
   3   8   5    0.30    0.50
  -4  -8  -5   97.09    4.30
   4   8   5   87.29    4.30
  -5  -8  -5  151.68    6.20
   5   8   5  133.59    6.30
   5   8   5  145.89    6.40
   5   8   5  137.89    6.30
  -6  -8  -5  236.88   10.10
   6   8   5  242.48   10.10
   6   8   5  244.38   10.20
   7   8   5   71.89    3.40
   7   8   5   69.59    3.30
   8   8   5   31.30    1.60
   8   8   5   30.00    1.70
   3  -9  -5    0.30    0.50
   3  -9  -5    0.70    0.40
   2  -9  -5    5.10    0.70
  -2   9   5    5.20    1.30
   1  -9  -5    6.10    0.80
   1  -9  -5    7.50    1.00
  -1   9   5    6.90    1.00
   0  -9  -5  344.97   13.80
   0   9   5  323.17   14.00
  -1  -9  -5  512.65   20.10
   1   9   5  470.95   20.30
  -2  -9  -5  209.98    8.60
   2   9   5  195.48    9.00
  -3  -9  -5  143.19    6.10
   3   9   5  137.89    6.40
  -4  -9  -5   55.59    2.70
   4   9   5   53.39    2.80
  -5  -9  -5    1.60    0.70
   5   9   5    1.70    0.80
   6   9   5  107.39    4.80
   2 -10  -5   30.30    1.50
   1 -10  -5   74.79    3.30
  -1  10   5   76.69    3.60
   0 -10  -5   90.19    4.00
  -1 -10  -5    2.60    0.70
   1  10   5    0.50    0.50
  -2 -10  -5    3.10    0.80
   2  10   5    0.80    0.50
  -3 -10  -5   61.29    2.80
   3  10   5   60.49    3.00
  -4 -10  -5   15.20    1.20
   4  10   5   13.20    1.20
   5  10   5   15.70    1.40
   0 -11  -5    2.90    0.70
  -1 -11  -5   44.20    2.10
   1  11   5   47.40    2.40
  -2 -11  -5    8.00    1.00
   2  11   5   11.50    1.10
   3  11   5    6.80    1.00
   4  11   5    0.60    0.60
  -2 -10   6    7.80    0.80
  -1 -10   6    8.00    0.90
   0 -10   6   48.80    2.30
  -4  -9   6    9.40    0.90
   3   9  -6    0.10    1.10
  -3  -9   6    1.00    0.40
  -2  -9   6    0.00    0.40
  -1  -9   6   11.20    1.60
  -1  -9   6    9.10    1.10
   0  -9   6    2.40    0.80
   1  -9   6    3.70    1.00
   2  -9   6    2.00    0.80
   3  -9   6   19.80    1.20
   5   8  -6   36.10    2.20
  -5  -8   6   35.70    1.90
   4   8  -6    2.10    0.90
  -4  -8   6    0.40    0.50
   3   8  -6    3.30    1.00
  -3  -8   6    4.40    0.90
   2   8  -6    8.80    1.50
  -2  -8   6    8.20    1.00
  -1  -8   6    6.30    1.50
   0  -8   6   78.59    3.90
   0  -8   6   85.69    4.00
   1  -8   6  100.79    4.50
   2  -8   6   68.49    3.20
   3  -8   6    0.20    0.50
   5   7  -6   61.89    3.20
   5   7  -6   63.19    2.90
  -5  -7   6   61.99    3.00
   4   7  -6   55.59    3.10
   4   7  -6   58.29    2.80
  -4  -7   6   57.29    2.80
   3   7  -6   14.40    1.40
   3   7  -6   12.60    1.50
  -3  -7   6   16.00    1.30
   2   7  -6   15.70    1.70
  -2  -7   6   18.00    1.40
   1   7  -6   49.20    2.90
  -1  -7   6   50.39    2.60
   0  -7   6   47.70    2.50
   1  -7   6    0.20    0.60
   1  -7   6    1.00    1.00
   2  -7   6   25.60    1.70
   3  -7   6   40.80    2.20
   4  -7   6    4.10    1.00
  -5   7  -6    5.00    1.20
   5  -7   6    7.00    0.90
   6   6  -6   97.59    4.70
   6   6  -6  106.49    4.50
   5   6  -6  188.28    8.70
   5   6  -6  209.08    8.50
   4   6  -6    1.00    0.60
   4   6  -6    0.80    0.80
   3   6  -6   17.00    1.70
   3   6  -6   18.70    1.50
   2   6  -6    7.40    1.20
   2   6  -6    7.60    1.60
   1   6  -6   13.30    1.50
  -1  -6   6   11.70    1.30
   0   6  -6   19.00    3.40
   0  -6   6   15.80    1.40
   1  -6   6   71.19    3.50
   1  -6   6   75.49    3.80
   2  -6   6    8.30    1.30
   2  -6   6    4.10    1.70
   3  -6   6    1.60    1.50
   3  -6   6    1.60    0.70
   4  -6   6   31.20    2.10
   5  -6   6    3.70    0.90
   6  -6   6    7.20    0.80
   6   5  -6   -0.40    0.60
   6   5  -6    0.40    0.80
   5   5  -6   70.49    3.80
   5   5  -6   79.59    4.00
   4   5  -6   56.39    2.80
   4   5  -6   51.49    3.00
   3   5  -6   33.10    2.10
   2   5  -6    2.00    0.70
   2   5  -6    1.80    0.70
   1   5  -6   99.29    4.60
   1   5  -6   97.09    4.50
  -1  -5   6   93.49    4.40
   0   5  -6   51.89    2.90
   0  -5   6   51.19    2.70
   1  -5   6    1.20    0.60
   2  -5   6   39.90    2.30
   2  -5   6   38.40    2.50
   3  -5   6  132.19    6.00
   3  -5   6  135.89    6.10
   4  -5   6   10.40    1.30
   4  -5   6   10.60    2.10
   5  -5   6    2.20    1.00
   5  -5   6    1.70    0.70
   6  -5   6    8.20    1.10
   6  -5   6    7.80    1.60
   6   4  -6    0.00    0.80
   6   4  -6    1.40    0.60
   5   4  -6   77.89    4.10
   5   4  -6   88.59    3.90
   4   4  -6   13.20    1.40
   4   4  -6   15.10    1.50
   3   4  -6  565.04   23.10
   3   4  -6  551.84   22.90
   2   4  -6  363.96   14.70
   2   4  -6  333.37   14.40
   1   4  -6   54.89    2.70
   1   4  -6   55.69    2.90
  -1  -4   6   48.20    2.80
   0   4  -6   58.49    3.00
   0  -4   6   52.89    2.90
   1  -4   6  315.47   13.00
   2  -4   6   86.79    4.00
   2  -4   6   87.59    4.20
   3  -4   6  134.29    6.00
   3  -4   6  136.89    6.20
   4  -4   6   85.89    4.20
   4  -4   6   88.29    4.40
   4  -4   6   91.69    4.00
   4  -4   6   86.89    4.20
   5  -4   6   47.50    2.60
   5  -4   6   49.90    2.90
   5  -4   6   46.10    2.30
   5  -4   6   44.40    2.50
   6  -4   6    0.80    0.70
   6  -4   6    0.20    0.50
   7  -4   6    6.50    0.90
   7  -4   6    6.90    1.00
   6   3  -6    4.10    1.30
   5   3  -6   29.20    2.10
   5   3  -6   31.60    2.00
   4   3  -6    1.90    0.80
   4   3  -6    0.90    1.00
   3   3  -6   -0.40    0.90
   3   3  -6    1.30    0.70
   2   3  -6   44.20    2.50
   2   3  -6   42.40    2.40
   1   3  -6   96.69    4.70
   1   3  -6  112.99    4.90
   0   3  -6  230.78    9.80
   1  -3   6    2.30    0.80
   2  -3   6    8.20    1.40
   2  -3   6    8.30    1.40
   3  -3   6   37.70    2.20
   3  -3   6   35.50    2.00
   3  -3   6   36.70    2.40
   4  -3   6   13.70    1.50
   4  -3   6   14.80    1.20
   4  -3   6   12.60    1.80
   4  -3   6   14.80    1.60
   5  -3   6   82.69    3.90
   5  -3   6   77.49    3.80
   5  -3   6   75.09    3.60
   5  -3   6   79.79    3.90
   6  -3   6    8.60    1.70
   6  -3   6    8.70    1.20
   6  -3   6   10.20    1.20
   7  -3   6    3.90    0.80
   7  -3   6    4.50    0.90
   6   2  -6   71.29    3.70
   5   2  -6   71.09    3.50
   5   2  -6   69.99    3.70
   4   2  -6   27.90    2.10
   4   2  -6   31.90    2.10
   3   2  -6  122.39    5.60
   3   2  -6  117.79    5.40
   2   2  -6    7.50    1.00
   2   2  -6    7.30    1.40
   1   2  -6    3.20    0.90
   1   2  -6    1.60    0.80
   0   2  -6  388.76   15.00
   0   2  -6  334.37   16.00
  -1   2  -6   54.29    4.10
   3  -2   6    6.50    1.40
   3  -2   6   11.70    1.90
   3  -2   6    7.60    1.60
   4  -2   6    1.20    0.70
   4  -2   6    1.20    0.60
   4  -2   6    1.30    0.90
   4  -2   6    3.20    1.00
   5  -2   6  356.66   15.20
   5  -2   6  377.26   15.20
   5  -2   6  368.76   15.20
   5  -2   6  355.36   15.00
   6  -2   6   77.89    3.90
   6  -2   6   76.79    3.70
   6  -2   6   77.19    3.80
   7  -2   6    5.90    1.00
   7  -2   6    7.40    1.00
   7  -2   6    9.60    1.50
   8  -2   6    2.50    0.70
   8  -2   6    0.60    0.40
   6   1  -6   13.70    1.60
   5   1  -6  133.09    6.20
   4   1  -6    0.20    1.20
   4   1  -6    1.70    0.80
   3   1  -6   12.60    1.30
   3   1  -6   10.00    1.80
   2   1  -6   -0.10    0.80
   2   1  -6    0.30    0.50
   1   1  -6  168.58    8.70
   1   1  -6  181.18    7.60
   0   1  -6   83.09    5.00
   0   1  -6   87.79    4.00
  -1   1  -6    6.40    1.40
  -2   1  -6   94.79    5.40
  -3   1  -6  104.99    6.90
   3  -1   6  110.19    4.90
   3  -1   6  104.09    4.90
   4  -1   6    2.20    0.90
   4  -1   6    5.90    1.40
   4  -1   6    3.20    1.00
   4  -1   6    4.00    0.90
   5  -1   6   24.00    1.50
   5  -1   6   24.30    1.80
   5  -1   6   22.90    1.80
   5  -1   6   22.60    1.80
   6  -1   6   12.10    1.50
   6  -1   6    9.40    1.30
   6  -1   6   10.90    1.30
   7  -1   6    0.70    0.70
   7  -1   6    0.10    0.70
   7  -1   6    0.70    0.70
   8  -1   6   14.70    1.10
   8  -1   6   13.50    1.10
   6   0  -6    1.00    1.00
   5   0  -6   67.39    3.60
   4   0  -6    1.40    0.80
   4   0  -6    1.50    0.60
   3   0  -6   32.40    1.90
   3   0  -6   30.70    2.00
   2   0  -6   12.90    1.50
   2   0  -6   13.90    1.30
   1   0  -6  141.79    7.70
   1   0  -6  154.68    6.50
   0   0  -6  143.69    7.40
   0   0  -6  158.88    6.60
  -1   0  -6   68.49    4.10
  -1   0  -6   70.19    3.30
  -2   0  -6  229.48   10.40
  -3   0  -6   11.00    2.80
   3   0   6    8.70    1.60
   4   0   6  273.07   11.50
   4   0   6  274.47   11.50
   4   0   6  270.87   11.50
   5   0   6   51.69    4.20
   5   0   6   67.19    3.40
   5   0   6   67.89    3.30
   6   0   6   67.99    3.40
   6   0   6   64.79    3.40
   6   0   6   65.89    3.40
   7   0   6   18.50    1.50
   7   0   6   21.30    1.60
   7   0   6   19.80    1.60
   8   0   6    3.10    0.80
   8   0   6    4.20    1.10
   8   0   6    4.10    0.90
   5  -1  -6   84.79    4.40
   5  -1  -6   96.49    4.00
   4  -1  -6   -0.50    0.60
   3  -1  -6   20.00    1.40
   3  -1  -6   18.70    1.70
   2  -1  -6   72.39    3.40
   2  -1  -6   73.79    3.60
   1  -1  -6   91.09    4.20
   0  -1  -6  730.83   30.90
   0  -1  -6  745.93   30.00
  -1  -1  -6  820.92   31.80
  -1  -1  -6  788.92   32.60
   1   1   6  747.03   32.40
  -2  -1  -6 1269.17   51.69
   2   1   6 1263.57   51.59
  -3  -1  -6  284.37   12.60
   4   1   6  164.28    7.10
   4   1   6  166.78    7.10
   4   1   6  153.58    7.10
   5   1   6  169.98    7.50
   5   1   6  173.98    7.60
   5   1   6  171.38    7.60
   6   1   6   42.40    2.60
   6   1   6   42.20    2.50
   6   1   6   42.30    2.50
   7   1   6   40.60    2.30
   7   1   6   41.20    2.40
   7   1   6   39.70    2.30
  -8  -1  -6    0.80    0.70
   8   1   6    0.30    0.60
   8   1   6    2.50    1.00
   8   1   6   -0.10    0.60
   9   1   6    4.70    0.70
   6  -2  -6    0.00    0.50
   5  -2  -6    0.30    0.50
   5  -2  -6    0.00    0.80
   4  -2  -6  109.09    4.70
   4  -2  -6  108.29    5.20
   3  -2  -6    0.30    0.60
   3  -2  -6    0.40    0.50
   2  -2  -6   30.20    1.70
   2  -2  -6   23.00    2.00
   2  -2  -6   31.10    2.00
   1  -2  -6  535.85   21.70
   1  -2  -6  519.05   21.50
   0  -2  -6   64.39    3.10
  -1  -2  -6 1005.40   40.60
  -1  -2  -6 1007.10   39.80
   1   2   6  937.01   40.30
  -2  -2  -6   53.29    3.40
   2   2   6   49.80    3.30
  -3  -2  -6   72.39    4.30
   4   2   6  765.52   29.80
   4   2   6  705.73   29.80
   4   2   6  718.83   29.70
   5   2   6  526.55   21.60
   5   2   6  523.65   21.60
   5   2   6  521.95   21.60
   6   2   6  160.18    7.10
   6   2   6  159.18    7.10
   6   2   6  162.38    7.20
   7   2   6  178.18    7.90
   7   2   6  181.28    8.00
   7   2   6  186.08    7.90
   8   2   6   10.80    1.10
   8   2   6    9.70    1.10
   8   2   6   10.80    1.20
   9   2   6   10.40    1.00
   9   2   6   10.00    0.90
   6  -3  -6    4.20    0.60
   5  -3  -6   12.90    1.40
   5  -3  -6   12.20    1.20
   4  -3  -6  328.17   13.60
   4  -3  -6  330.97   13.60
   3  -3  -6  591.94   23.30
   3  -3  -6  543.15   22.80
   3  -3  -6  549.15   22.80
   2  -3  -6   68.89    3.30
   2  -3  -6   72.79    3.60
   2  -3  -6   68.69    3.20
   1  -3  -6  663.43   29.20
   1  -3  -6  772.02   29.50
   1  -3  -6  730.43   29.20
   0  -3  -6   83.19    4.00
   1   3   6  420.36   18.40
  -4  -3  -6   89.29    4.30
   4   3   6   93.29    4.40
   4   3   6   99.99    4.50
   4   3   6   91.99    4.70
  -5  -3  -6    9.10    1.60
   5   3   6    9.70    1.50
   5   3   6   12.60    1.60
   5   3   6    9.30    1.30
  -6  -3  -6    8.10    1.60
   6   3   6    5.80    1.40
   6   3   6    6.60    1.20
   6   3   6    7.10    1.40
   7   3   6    2.70    1.00
   7   3   6    1.10    0.80
   7   3   6    0.60    0.70
   8   3   6    8.80    1.10
   8   3   6    8.30    1.70
   9   3   6    0.70    0.50
   9   3   6   -0.40    0.40
   6  -4  -6    0.40    0.50
   5  -4  -6    1.10    0.70
   5  -4  -6    0.60    0.40
  -5   4   6    0.40    1.90
   4  -4  -6   36.00    2.00
   4  -4  -6   36.10    1.90
   3  -4  -6  163.18    6.90
   3  -4  -6  159.58    6.90
   2  -4  -6   58.19    2.80
   2  -4  -6   56.59    2.90
   1  -4  -6  312.97   12.60
   1  -4  -6  292.57   12.50
   0  -4  -6 1047.80   41.90
   0  -4  -6 1031.10   42.00
  -1  -4  -6  458.45   19.10
  -1  -4  -6  479.65   19.20
   1   4   6  464.75   20.00
  -2  -4  -6  213.18    8.80
   2   4   6  198.98    8.90
  -3  -4  -6  318.67   13.50
   3   4   6  316.67   13.80
   3   4   6  346.17   14.60
  -4  -4  -6  489.35   19.70
   4   4   6  440.96   19.90
   4   4   6  515.25   19.90
   5   4   6  177.78    7.60
   5   4   6  165.38    7.60
   6   4   6    3.60    1.10
   6   4   6    4.40    1.40
   7   4   6   20.80    1.60
   7   4   6   16.70    1.60
   8   4   6    1.30    0.60
   8   4   6    1.30    0.60
   9   4   6   12.50    1.00
   9   4   6   13.10    1.00
   6  -5  -6    7.90    0.60
   5  -5  -6    0.30    0.40
   5  -5  -6    1.50    0.60
   4  -5  -6    2.90    1.10
   4  -5  -6    4.40    0.90
   3  -5  -6   30.60    1.70
   3  -5  -6   28.60    1.60
   2  -5  -6  415.16   17.20
   2  -5  -6  425.66   17.30
   1  -5  -6   11.40    1.10
   1  -5  -6   11.40    1.00
   0  -5  -6  110.39    4.70
   0  -5  -6  100.99    4.60
  -1  -5  -6    2.80    0.80
  -1  -5  -6    0.30    0.50
  -2  -5  -6  241.98   10.80
  -2  -5  -6  274.07   11.00
   2   5   6  265.37   11.00
  -3  -5  -6    1.50    1.10
  -3  -5  -6    1.00    0.60
   3   5   6    0.30    0.40
   4   5   6  200.08    8.30
   4   5   6  191.38    8.50
   5   5   6    5.10    1.20
   5   5   6    4.70    1.70
   6   5   6  507.15   21.10
   6   5   6  516.55   21.10
   7   5   6   31.50    2.00
   7   5   6   32.70    2.00
   8   5   6   32.10    1.80
   8   5   6   30.50    1.90
   9   5   6    0.30    0.50
   9   5   6    2.30    0.60
   5  -6  -6   -0.10    0.30
   5  -6  -6   -0.70    0.50
   4  -6  -6    1.90    0.70
   4  -6  -6    0.40    0.40
  -4   6   6    0.70    1.00
   3  -6  -6   66.69    3.10
   3  -6  -6   68.59    3.00
  -3   6   6   64.59    3.40
   2  -6  -6    0.50    0.60
   2  -6  -6    2.50    0.70
  -2   6   6    0.40    0.50
   1  -6  -6  285.77   11.80
   1  -6  -6  278.67   11.70
   0  -6  -6   12.00    1.10
   0  -6  -6   11.40    1.10
   0   6   6   14.10    1.40
  -1  -6  -6    0.60    0.70
  -1  -6  -6    0.80    0.50
   1   6   6    0.50    0.40
  -2  -6  -6   44.20    2.50
  -2  -6  -6   47.10    2.40
   2   6   6   46.10    2.40
  -3  -6  -6   76.79    3.60
   3   6   6   72.89    3.50
  -4  -6  -6   34.60    2.00
   4   6   6   31.50    1.80
   4   6   6   24.40    3.00
   5   6   6  889.41   36.70
   5   6   6  916.51   36.70
   6   6   6   80.49    4.00
   6   6   6   79.09    3.90
  -7  -6  -6   18.70    1.50
   7   6   6   20.60    1.60
   7   6   6   22.00    1.70
  -8  -6  -6   17.00    1.20
   8   6   6   18.40    1.30
   8   6   6   18.50    1.30
   4  -7  -6    6.80    0.70
   4  -7  -6    7.80    0.70
   3  -7  -6   15.80    1.10
   3  -7  -6   15.40    1.00
  -3   7   6   13.80    1.40
   2  -7  -6  261.17   10.50
   2  -7  -6  257.07   10.60
  -2   7   6  242.68   10.80
   1  -7  -6   22.00    1.30
   1  -7  -6   21.20    1.40
  -1   7   6   21.30    1.60
   0  -7  -6  283.17   12.00
   0  -7  -6  276.67   11.90
   0   7   6  307.27   12.30
  -1  -7  -6  250.17   10.50
  -1  -7  -6  234.98   10.40
   1   7   6  264.67   10.70
  -2  -7  -6   57.99    2.90
   2   7   6   59.69    3.00
  -3  -7  -6   58.99    2.90
   3   7   6   58.39    2.90
  -4  -7  -6   79.79    3.90
   4   7   6   82.29    4.00
  -5  -7  -6    7.00    1.00
   5   7   6    6.70    1.90
   5   7   6    5.40    1.60
   5   7   6    4.60    1.30
  -6  -7  -6  518.25   22.10
   6   7   6  532.15   22.10
   6   7   6  572.04   22.80
  -7  -7  -6    0.00    0.60
   7   7   6    0.80    0.60
  -8  -7  -6   12.70    1.30
   8   7   6   14.20    1.20
   8   7   6   15.60    1.10
   4  -8  -6   24.50    1.20
   4  -8  -6   24.10    1.20
   3  -8  -6    0.50    0.40
   3  -8  -6    0.80    0.40
   2  -8  -6   33.40    1.80
   2  -8  -6   33.70    1.70
  -2   8   6   35.60    2.10
   1  -8  -6   27.30    1.50
   1  -8  -6   25.90    1.50
  -1   8   6   26.90    1.80
   0  -8  -6   31.50    1.70
   0  -8  -6   31.70    1.80
   0   8   6   29.90    1.90
  -1  -8  -6    0.90    0.50
   1   8   6    0.70    0.50
  -2  -8  -6   54.29    2.70
   2   8   6   52.79    2.80
  -3  -8  -6  105.29    4.70
   3   8   6   99.59    4.70
  -4  -8  -6   56.09    2.70
   4   8   6   51.49    2.80
  -5  -8  -6    4.00    0.90
   5   8   6    2.80    1.20
  -6  -8  -6   89.19    4.10
   6   8   6   88.79    4.30
   6   8   6   93.39    4.20
  -7  -8  -6   26.10    1.60
   7   8   6   27.50    1.80
   7   8   6   28.20    1.70
   8   8   6   -0.80    0.60
   3  -9  -6    0.80    0.40
   3  -9  -6    0.60    0.50
   2  -9  -6    7.10    0.70
   2  -9  -6    4.80    0.70
  -2   9   6    7.50    1.40
   1  -9  -6    2.80    0.80
   1  -9  -6    2.40    0.60
  -1   9   6    1.40    0.60
   0  -9  -6   41.30    2.10
   0   9   6   38.90    2.20
  -1  -9  -6  270.57   10.80
   1   9   6  246.88   11.10
  -2  -9  -6    2.00    0.70
   2   9   6    1.40    0.60
  -3  -9  -6    0.50    0.50
   3   9   6    0.70    0.50
  -4  -9  -6   31.90    1.80
   4   9   6   30.90    1.90
  -5  -9  -6  115.99    5.00
   5   9   6  112.59    5.50
  -6  -9  -6  185.28    7.70
   1 -10  -6   11.60    0.80
   0 -10  -6    1.60    0.60
   0  10   6    0.90    0.60
  -1 -10  -6  150.88    6.40
   1  10   6  152.78    6.60
  -2 -10  -6  156.38    6.60
   2  10   6  153.98    6.80
  -3 -10  -6  121.99    5.10
   3  10   6  117.19    5.30
  -4 -10  -6   39.60    2.00
   4  10   6   39.90    2.20
  -5 -10  -6    0.10    1.10
   5  10   6    0.70    0.90
   0 -11  -6   16.80    1.00
  -1 -11  -6   14.50    0.90
   1  11   6   12.70    1.20
  -2 -11  -6   82.19    3.60
   2  11   6   83.89    3.80
  -3 -11  -6   11.50    1.00
   3  11   6   13.20    1.20
  -3  -9   7    2.70    1.00
  -3  -9   7    1.50    0.50
  -2  -9   7    5.00    1.00
  -2  -9   7    3.80    1.00
  -1  -9   7    3.80    0.80
  -1  -9   7    2.10    0.80
   0  -9   7    0.80    0.40
   1  -9   7    5.90    0.80
   2  -9   7    8.00    0.80
  -4  -8   7    2.30    0.90
   3   8  -7    6.90    1.60
  -3  -8   7    7.50    0.90
   2   8  -7    8.10    2.00
  -2  -8   7    6.80    0.90
  -1  -8   7    4.20    1.30
  -1  -8   7    1.60    0.50
   0  -8   7    4.10    0.90
   0  -8   7    5.80    1.30
   1  -8   7   10.60    1.80
   1  -8   7    7.30    1.00
   2  -8   7   14.20    1.10
   3  -8   7    0.40    0.50
   5   7  -7   15.80    1.50
   4   7  -7   54.39    2.90
  -4  -7   7   51.69    2.60
   3   7  -7   53.79    3.00
  -3  -7   7   54.39    2.70
   2   7  -7    0.10    1.00
  -2  -7   7    0.70    0.50
   1   7  -7    4.60    2.00
   0  -7   7    6.40    1.40
   0  -7   7    5.10    1.10
   1  -7   7   58.89    3.20
   1  -7   7   65.09    3.00
   2  -7   7    0.70    0.60
   2  -7   7    3.10    1.10
   3  -7   7   22.10    1.60
   4  -7   7    0.80    0.50
   5   6  -7   12.20    1.40
   4   6  -7   31.30    1.80
   4   6  -7   28.00    2.10
   3   6  -7   33.10    2.30
   3   6  -7   36.80    2.20
  -3  -6   7   31.60    2.20
   2   6  -7   -0.20    0.90
  -2  -6   7    0.70    0.70
   1   6  -7    0.80    1.00
  -1  -6   7    0.50    0.60
   0  -6   7   92.89    4.20
   1  -6   7   25.40    1.70
   1  -6   7   27.30    1.90
   2  -6   7  197.08    8.70
   2  -6   7  205.28    8.70
   3  -6   7    6.60    1.80
   3  -6   7    7.50    1.10
   4  -6   7    6.80    1.10
   5  -6   7    8.60    1.00
   6   5  -7   16.60    1.50
   5   5  -7    0.20    0.70
   5   5  -7    1.10    0.60
   4   5  -7    4.00    1.20
   4   5  -7    3.10    1.00
   3   5  -7    2.60    1.00
   3   5  -7    1.60    0.80
   2   5  -7   94.69    4.30
   2   5  -7   85.79    4.50
  -2  -5   7   89.89    4.20
   1   5  -7   80.99    3.90
  -1  -5   7   70.69    3.60
   0   5  -7   81.79    4.80
   0  -5   7   80.99    3.80
   1  -5   7  107.19    5.10
   1  -5   7  108.99    4.90
   2  -5   7    4.40    1.20
   2  -5   7    3.50    1.40
   3  -5   7   22.30    2.00
   3  -5   7   22.10    1.70
   4  -5   7  169.18    7.90
   4  -5   7  195.08    7.90
   5  -5   7   11.80    1.40
   6  -5   7    1.00    0.50
   6   4  -7   62.79    3.20
   5   4  -7   30.30    2.10
   5   4  -7   30.80    1.90
   4   4  -7    3.40    1.10
   4   4  -7    3.70    1.10
   3   4  -7   80.09    3.80
   3   4  -7   77.09    4.00
   2   4  -7   14.10    1.50
   2   4  -7   13.20    1.40
   1   4  -7  395.66   15.50
  -1  -4   7  343.87   15.20
   0   4  -7   71.19    3.50
   0  -4   7   63.59    3.30
  -1   4  -7   19.30    2.00
   1  -4   7   16.90    1.70
   2  -4   7   46.00    2.60
   2  -4   7   49.50    2.80
   3  -4   7  108.69    4.90
   3  -4   7  106.29    5.10
   4  -4   7  126.89    5.70
   4  -4   7  121.59    5.60
   5  -4   7    9.20    1.50
   5  -4   7    9.40    1.20
   5  -4   7    9.40    1.60
   6  -4   7    3.30    0.90
   6  -4   7    3.10    1.10
   7  -4   7    8.70    0.90
   6   3  -7   35.50    2.20
   5   3  -7    0.50    0.80
   5   3  -7   -0.10    0.80
   4   3  -7   50.29    2.60
   4   3  -7   45.20    2.80
   3   3  -7   57.59    3.00
   3   3  -7   60.69    3.20
   2   3  -7   54.19    2.90
   2   3  -7   57.99    3.10
   1   3  -7   17.70    1.50
   1   3  -7   19.60    1.60
   0   3  -7    1.00    0.80
   0  -3   7   -0.70    1.00
  -1   3  -7  169.38    7.30
   1  -3   7  169.68    7.40
   2  -3   7   28.10    2.00
   2  -3   7   29.70    2.00
   3  -3   7   30.50    2.10
   3  -3   7   29.60    2.10
   4  -3   7   90.09    4.40
   4  -3   7   92.49    4.40
   4  -3   7   94.19    4.50
   5  -3   7   10.30    1.40
   5  -3   7   10.40    1.40
   5  -3   7   11.70    1.60
   6  -3   7    0.10    0.70
   6  -3   7   -0.30    0.60
   6  -3   7    0.30    0.70
   7  -3   7    1.70    0.60
   7  -3   7    1.10    0.50
   6   2  -7   39.40    2.40
   5   2  -7   -0.60    0.70
   5   2  -7    1.30    1.40
   4   2  -7   46.00    2.80
   4   2  -7   45.60    2.60
   3   2  -7    0.80    0.80
   3   2  -7   -0.20    0.60
   2   2  -7   61.89    3.20
   2   2  -7   56.19    3.00
   1   2  -7  105.39    4.90
   0   2  -7   39.10    2.40
   0   2  -7   43.60    2.40
  -1   2  -7  225.78    9.50
   2  -2   7    0.90    1.00
   2  -2   7   -0.80    0.70
   3  -2   7   49.40    2.90
   4  -2   7    8.40    1.60
   4  -2   7   10.40    1.50
   4  -2   7   10.00    1.50
   5  -2   7   36.70    2.30
   5  -2   7   36.80    2.30
   5  -2   7   37.20    2.30
   6  -2   7   63.69    3.30
   6  -2   7   62.29    3.20
   6  -2   7   66.09    3.20
   7  -2   7    1.00    0.60
   7  -2   7    0.90    0.60
  -8   2  -7   13.90    1.00
   8  -2   7   14.40    1.00
   8  -2   7   14.20    1.00
   6   1  -7   26.20    1.90
   5   1  -7   26.60    1.90
   4   1  -7    1.10    0.80
   3   1  -7   78.79    4.00
   2   1  -7   51.99    3.10
   2   1  -7   61.99    3.20
   2   1  -7   60.99    3.10
   1   1  -7  129.69    5.90
   1   1  -7  130.19    5.70
   0   1  -7    9.00    1.90
   0   1  -7    9.60    1.40
  -1   1  -7  573.94   23.20
  -1   1  -7  560.84   23.10
   2  -1   7  320.97   13.40
   3  -1   7   22.90    1.80
   3  -1   7   20.00    2.00
   3  -1   7   19.50    2.00
   4  -1   7    6.20    1.40
   4  -1   7    9.80    1.70
   4  -1   7   10.00    1.90
   5  -1   7   98.89    4.60
   5  -1   7   98.39    4.60
   5  -1   7   96.89    4.60
   6  -1   7   89.39    4.20
   6  -1   7   86.19    4.20
   6  -1   7   88.69    4.20
   7  -1   7    8.40    1.10
   7  -1   7   10.10    1.30
   7  -1   7   11.00    1.20
  -8   1  -7   24.60    1.60
   8  -1   7   22.00    1.30
   8  -1   7   21.30    1.40
   8  -1   7   23.30    1.80
   6   0  -7   19.30    1.80
   5   0  -7  177.48    7.90
   4   0  -7   59.69    3.40
   4   0  -7   69.79    3.10
   3   0  -7   84.29    4.20
   3   0  -7   96.79    4.50
   2   0  -7    2.30    1.00
   2   0  -7    2.80    0.80
   1   0  -7   10.90    1.30
   1   0  -7   10.80    1.20
   0   0  -7   36.30    2.30
   0   0  -7   36.50    2.10
  -1   0  -7   10.80    3.60
  -1   0  -7    6.10    1.20
  -1   0  -7    6.60    1.10
  -2   0  -7  278.47   13.60
  -2   0  -7  302.67   12.20
   2   0   7  299.67   12.30
   3   0   7   40.30    2.50
   3   0   7   43.10    3.10
   3   0   7   42.20    2.50
   4   0   7  460.55   19.00
   4   0   7  455.25   19.00
   4   0   7  462.65   19.00
   5   0   7   74.49    3.70
   5   0   7   74.49    3.70
   5   0   7   76.19    3.70
   6   0   7   93.69    4.50
   6   0   7   91.49    4.40
   6   0   7   89.79    4.40
   7   0   7    9.70    1.20
   7   0   7   14.00    1.40
   7   0   7   10.40    1.20
  -8   0  -7   13.80    1.10
   8   0   7   15.50    1.10
   8   0   7   15.00    1.20
   8   0   7   16.70    1.30
   5  -1  -7   24.80    1.40
   5  -1  -7   21.50    1.80
   4  -1  -7  125.19    5.10
   4  -1  -7  112.59    5.60
   3  -1  -7   24.90    1.90
   3  -1  -7   24.30    1.60
   2  -1  -7    6.20    1.20
   1  -1  -7  370.66   15.50
   1  -1  -7  385.36   15.80
   0  -1  -7   78.79    3.80
   0  -1  -7   80.39    3.70
  -1  -1  -7   51.59    2.60
  -1  -1  -7   55.59    2.70
  -1  -1  -7   49.90    4.30
  -2  -1  -7    0.90    1.90
  -2  -1  -7    3.40    0.90
   2   1   7    1.50    0.90
   3   1   7  109.39    4.90
   3   1   7  102.09    4.90
   4   1   7   13.60    1.60
   4   1   7   15.30    2.00
   4   1   7   14.40    1.50
   5   1   7    6.80    1.50
   5   1   7    4.80    1.20
   5   1   7    5.30    1.30
   6   1   7   91.99    4.40
   6   1   7   91.29    4.40
   6   1   7   91.49    4.40
   7   1   7   10.60    1.20
   7   1   7   10.30    1.20
   7   1   7   11.40    1.30
  -8  -1  -7   29.70    1.80
   8   1   7   34.10    2.00
   8   1   7   36.40    2.00
   8   1   7   35.80    1.90
   5  -2  -7   -0.90    0.50
   4  -2  -7  105.19    4.40
   4  -2  -7   94.89    4.80
   3  -2  -7  195.78    8.30
   3  -2  -7  198.88    8.80
   2  -2  -7    4.00    1.00
   2  -2  -7    2.60    0.90
   1  -2  -7  267.27   11.50
   1  -2  -7  270.97   11.20
   0  -2  -7  235.68   10.00
   0  -2  -7  242.28   10.20
  -1  -2  -7   49.80    2.50
  -1  -2  -7   48.10    4.40
  -1  -2  -7   50.99    2.60
  -2  -2  -7  371.86   15.00
  -2  -2  -7  356.46   16.30
  -3  -2  -7 1414.86   55.89
   3   2   7 1360.36   55.99
  -4  -2  -7    5.70    1.20
   4   2   7    6.10    1.30
   4   2   7   10.90    2.20
   4   2   7    7.10    1.40
   5   2   7    2.10    0.80
   5   2   7    1.90    0.80
   5   2   7    1.80    0.90
   6   2   7    5.80    1.30
   6   2   7    5.40    1.10
   6   2   7    3.20    1.20
  -7  -2  -7    5.20    1.30
   7   2   7    8.10    1.30
   7   2   7    8.50    1.20
   7   2   7    9.50    1.20
   8   2   7    0.40    0.50
   8   2   7    0.30    0.50
   6  -3  -7    1.50    0.50
   5  -3  -7    5.20    0.70
   4  -3  -7  243.58   10.10
   3  -3  -7   53.29    2.60
   3  -3  -7   57.39    3.70
   3  -3  -7   53.49    2.70
   2  -3  -7   77.69    3.60
   2  -3  -7   79.99    3.70
   2  -3  -7   83.49    4.00
   1  -3  -7   12.80    1.30
   1  -3  -7   13.40    1.20
   1  -3  -7   13.80    1.30
   0  -3  -7    8.00    1.00
   0  -3  -7    9.80    1.10
   0  -3  -7   10.30    1.30
  -1  -3  -7  665.03   27.10
  -1  -3  -7  668.63   27.10
  -2  -3  -7  109.59    4.90
  -3  -3  -7    2.50    0.80
   3   3   7    5.00    1.50
  -4  -3  -7   75.29    3.60
   4   3   7   75.09    3.70
  -5  -3  -7  436.96   17.90
   5   3   7  444.56   18.10
   5   3   7  424.26   18.10
  -6  -3  -7  198.88    8.80
   6   3   7  209.18    9.00
   6   3   7  205.98    9.10
   6   3   7  217.58    9.20
   7   3   7  145.39    6.50
   7   3   7  146.19    6.50
   8   3   7    3.80    1.10
   8   3   7    3.40    0.90
   5  -4  -7    1.90    0.50
  -5   4   7    0.80    1.10
   4  -4  -7   73.99    3.30
   4  -4  -7   72.59    3.40
   3  -4  -7  150.78    6.50
   3  -4  -7  154.68    6.50
   2  -4  -7   92.89    4.20
   2  -4  -7   94.89    4.20
   1  -4  -7  182.18    7.70
   1  -4  -7  183.28    7.80
   0  -4  -7    3.00    1.00
  -1  -4  -7   63.59    3.00
  -1  -4  -7   61.39    3.00
  -2  -4  -7   48.90    2.60
  -2  -4  -7   51.49    2.60
   2   4   7   48.90    2.60
  -3  -4  -7   26.40    1.80
   3   4   7   24.80    1.60
   3   4   7   24.80    2.20
  -4  -4  -7  397.46   16.50
   4   4   7  407.76   16.80
  -5  -4  -7  624.44   25.80
   5   4   7  621.24   26.00
   5   4   7  657.93   26.10
   6   4   7   10.30    1.30
   6   4   7    8.30    1.50
   7   4   7   65.59    3.20
   7   4   7   56.19    3.70
   8   4   7   12.20    1.10
   8   4   7   11.80    1.10
   5  -5  -7    6.60    0.60
   4  -5  -7    1.60    0.60
   4  -5  -7    1.90    0.60
  -4   5   7    2.20    0.80
   3  -5  -7  303.77   12.60
   3  -5  -7  309.27   12.70
   2  -5  -7   12.40    1.10
   2  -5  -7   11.20    1.00
   1  -5  -7    4.70    0.80
   1  -5  -7    4.70    0.90
   0  -5  -7  140.89    5.80
   0  -5  -7  126.69    6.20
  -1  -5  -7   31.10    1.80
  -1  -5  -7   30.70    1.80
   1   5   7   30.60    1.90
  -2  -5  -7  117.89    5.20
  -2  -5  -7  119.89    5.30
   2   5   7  116.89    5.30
  -3  -5  -7   13.40    1.50
  -3  -5  -7   15.00    1.30
   3   5   7   14.10    1.20
  -4  -5  -7  107.19    4.90
   5   5   7  683.53   28.70
   5   5   7  720.53   28.70
   6   5   7  102.99    4.90
   6   5   7  103.19    4.80
   7   5   7    7.50    1.10
   8   5   7    3.70    0.90
   5  -6  -7   19.30    1.00
   4  -6  -7   40.20    1.90
   4  -6  -7   39.70    1.80
  -4   6   7   36.50    2.40
   3  -6  -7    6.00    0.80
   3  -6  -7    6.60    0.70
  -3   6   7    6.00    1.10
   2  -6  -7   12.50    1.00
   2  -6  -7   11.10    0.90
  -2   6   7    9.40    1.20
   1  -6  -7   15.30    1.20
   1  -6  -7   14.80    1.10
  -1   6   7   14.40    1.40
   0  -6  -7    0.60    0.60
   0  -6  -7    1.70    0.60
   0   6   7    0.40    0.50
  -1  -6  -7   96.29    4.30
  -1  -6  -7   98.09    4.40
   1   6   7   98.49    4.60
  -2  -6  -7    1.90    0.60
  -2  -6  -7    2.30    1.00
   2   6   7    2.40    0.80
  -3  -6  -7    1.30    0.70
   3   6   7    0.50    0.50
  -4  -6  -7  332.87   13.80
   4   6   7  322.47   13.60
  -5  -6  -7    8.90    1.10
   5   6   7    9.70    1.70
  -6  -6  -7    0.30    0.50
   6   6   7    0.70    0.70
  -7  -6  -7    1.60    0.50
   7   6   7    1.20    0.60
   7   6   7    1.40    0.70
  -8  -6  -7    0.30    0.40
   8   6   7   -0.10    0.40
   8   6   7    0.00    0.60
   4  -7  -7   14.50    0.90
   4  -7  -7   14.10    0.80
   3  -7  -7   55.59    2.50
   3  -7  -7   55.49    2.60
  -3   7   7   55.39    2.90
   2  -7  -7   81.59    3.80
   2  -7  -7   84.39    3.70
  -2   7   7   82.09    4.00
   1  -7  -7   72.69    3.20
   1  -7  -7   72.99    3.30
  -1   7   7   67.59    3.60
   0  -7  -7  989.90   40.00
   0  -7  -7 1010.30   39.80
   0   7   7  959.60   40.30
  -1  -7  -7  507.85   20.40
  -1  -7  -7  499.75   20.60
   1   7   7  499.15   20.80
  -2  -7  -7  139.49    6.00
  -2  -7  -7  146.19    6.20
   2   7   7  135.19    6.70
  -3  -7  -7   41.20    2.20
   3   7   7   39.80    2.30
  -4  -7  -7   10.30    1.10
   4   7   7    9.90    1.20
  -5  -7  -7  236.98    9.70
   5   7   7  214.18    9.60
  -6  -7  -7   21.30    1.50
   6   7   7   21.90    1.80
  -7  -7  -7   89.99    4.10
   7   7   7   94.29    4.10
   7   7   7   88.29    4.20
  -8  -7  -7    9.00    0.90
   8   7   7   10.30    1.00
   3  -8  -7    5.30    0.60
   3  -8  -7    6.40    0.60
   2  -8  -7   38.50    1.80
   2  -8  -7   39.40    1.90
  -2   8   7   37.40    2.20
   1  -8  -7   25.00    1.40
   1  -8  -7   24.60    1.40
  -1   8   7   24.90    1.80
   0  -8  -7    3.80    0.80
   0  -8  -7    3.30    0.70
   0   8   7    3.10    0.90
  -1  -8  -7    4.70    0.90
  -1  -8  -7    3.30    1.00
   1   8   7    2.90    0.80
  -2  -8  -7   24.00    1.50
   2   8   7   22.80    1.60
  -3  -8  -7    5.90    0.90
   3   8   7    4.50    0.90
  -4  -8  -7  110.79    4.80
   4   8   7  100.79    4.80
  -5  -8  -7   95.69    4.30
  -6  -8  -7    0.20    0.50
  -7  -8  -7    2.10    0.70
   7   8   7    4.80    1.40
   2  -9  -7    7.60    0.70
   2  -9  -7    8.20    0.70
   1  -9  -7    0.70    0.40
   1  -9  -7    1.40    0.60
  -1   9   7    1.20    0.60
   0  -9  -7    0.30    0.60
   0   9   7    0.50    0.50
  -1  -9  -7  107.39    4.70
   1   9   7  109.19    4.90
  -2  -9  -7   15.50    1.10
   2   9   7   15.20    1.30
  -3  -9  -7   25.20    1.50
   3   9   7   25.50    1.60
  -4  -9  -7  256.77   10.70
   4   9   7  256.67   10.80
  -5  -9  -7  188.28    7.40
   5   9   7  160.58    7.90
  -6  -9  -7   44.80    2.10
   1 -10  -7    4.80    0.60
   0 -10  -7    7.60    0.70
   0  10   7    6.60    1.00
  -1 -10  -7    7.90    0.80
   1  10   7    7.90    1.00
  -2 -10  -7   76.29    3.40
   2  10   7   78.19    3.60
  -3 -10  -7   13.20    0.90
   3  10   7   13.50    1.20
  -4 -10  -7   31.60    1.60
   4  10   7   32.60    1.90
  -5 -10  -7    3.10    0.70
  -1 -11  -7   -0.50    0.40
  -2 -11  -7    0.90    0.50
  -3 -11  -7   44.60    2.00
  -1  -9   8    6.00    0.90
   0  -9   8   19.30    1.20
  -2  -8   8   39.40    2.00
  -2  -8   8   40.30    2.10
  -1  -8   8    5.90    1.00
  -1  -8   8    5.00    1.00
   0  -8   8   13.90    1.40
   0  -8   8   15.50    1.20
   1  -8   8   10.70    1.10
   2  -8   8    3.80    0.80
   3  -8   8    1.50    0.50
   4   7  -8   68.29    4.10
   3   7  -8    4.90    1.60
   2   7  -8   27.50    2.40
  -2  -7   8   30.40    1.80
  -1  -7   8    3.70    1.00
   0  -7   8   15.50    1.40
   0  -7   8   15.20    1.30
   1  -7   8   -0.10    0.60
   1  -7   8    1.00    0.70
   2  -7   8   -0.60    0.90
   2  -7   8    2.60    0.90
   3  -7   8   82.39    3.70
   4  -7   8   20.70    1.30
   4   6  -8   15.80    1.60
   3   6  -8    7.30    1.40
   2   6  -8   24.00    2.00
  -2  -6   8   21.40    1.70
   1   6  -8   43.00    3.00
  -1  -6   8   49.90    2.50
   0  -6   8   -0.10    0.80
   0  -6   8   -0.30    0.60
   1  -6   8    4.00    1.10
   1  -6   8    0.40    0.80
   2  -6   8  116.49    5.40
   2  -6   8  100.99    4.90
   3  -6   8   30.50    1.90
   3  -6   8   33.10    2.30
  -4   6  -8    2.50    0.80
   4  -6   8    3.00    1.20
  -5   6  -8    5.40    1.10
   5   5  -8    3.10    1.20
   4   5  -8   47.80    2.80
   3   5  -8   17.90    1.70
   2   5  -8   10.20    1.50
   1   5  -8    4.70    1.50
  -1  -5   8    7.30    1.40
   0  -5   8   51.49    2.70
   1  -5   8   49.99    2.60
   1  -5   8   45.40    2.70
  -2   5  -8   31.30    2.30
   2  -5   8   40.20    2.30
   2  -5   8   36.40    2.20
  -3   5  -8   12.80    1.90
   3  -5   8   12.70    1.40
   3  -5   8   15.90    1.60
  -4   5  -8   23.60    1.60
   4  -5   8   24.50    1.70
   4  -5   8   25.60    1.90
   5  -5   8    3.40    0.90
  -6   5  -8   10.40    0.90
   6  -5   8   10.50    0.90
   5   4  -8    4.70    1.20
   4   4  -8    0.50    0.70
   3   4  -8   14.40    1.50
   2   4  -8   50.69    2.90
   1   4  -8   13.70    1.70
   0   4  -8  200.58    8.90
   0  -4   8  205.18    8.70
  -1   4  -8    9.30    1.70
   1  -4   8    7.90    1.50
   1  -4   8    7.50    1.50
  -2   4  -8   13.60    1.60
   2  -4   8   13.60    1.60
   2  -4   8   14.80    1.60
   3  -4   8    0.00    0.70
   3  -4   8    0.20    0.80
   4  -4   8   63.29    3.20
   4  -4   8   61.29    3.30
   5  -4   8   87.39    4.10
   5  -4   8   90.69    4.20
   6  -4   8   12.00    1.10
   5   3  -8    3.40    1.20
   4   3  -8   10.10    1.40
   3   3  -8   66.39    3.60
   2   3  -8    1.20    0.70
   1   3  -8   26.30    2.00
   0   3  -8   12.20    1.80
  -1   3  -8  298.57   13.00
   1  -3   8  306.47   12.80
   1  -3   8  313.67   12.90
  -2   3  -8   18.40    1.70
   2  -3   8   18.70    1.90
   2  -3   8   19.10    1.70
   3  -3   8    2.70    0.90
   3  -3   8    2.00    0.80
   4  -3   8   76.09    3.80
   4  -3   8   77.19    3.80
   5  -3   8   37.00    2.10
   5  -3   8   31.40    2.20
   6  -3   8    4.60    1.20
   6  -3   8    4.10    1.00
   6  -3   8    4.50    1.20
  -7   3  -8   26.30    1.40
   7  -3   8   24.80    1.50
   6   2  -8   99.09    5.10
   5   2  -8   56.09    3.00
   4   2  -8   49.60    2.90
   3   2  -8   58.39    3.30
   2   2  -8    7.10    1.30
   1   2  -8    8.20    1.30
   1   2  -8    9.30    1.60
   0   2  -8   35.60    2.30
   0   2  -8   37.90    2.40
  -1   2  -8  151.78    6.60
   1  -2   8  149.88    6.70
  -2   2  -8  106.69    4.80
   2  -2   8  104.09    5.30
   2  -2   8  104.29    5.10
   3  -2   8   73.09    3.80
   3  -2   8   75.09    3.70
   4  -2   8   17.60    1.70
   4  -2   8   18.90    1.90
   4  -2   8   19.20    1.90
   5  -2   8    4.50    1.30
   5  -2   8    2.10    0.70
   5  -2   8    2.20    0.80
   6  -2   8   13.40    1.30
   6  -2   8   14.20    1.40
   6  -2   8   14.10    1.30
  -7   2  -8   11.50    0.90
   7  -2   8   13.40    1.80
   7  -2   8   10.90    1.10
   7  -2   8   10.50    1.10
   5   1  -8   29.00    2.00
   4   1  -8    7.90    1.30
   3   1  -8    8.30    1.30
   2   1  -8  344.47   14.90
   2   1  -8  380.56   15.40
   1   1  -8  447.76   19.00
   1   1  -8  479.75   19.40
   0   1  -8  374.86   15.60
   0   1  -8  368.16   15.30
  -1   1  -8  816.32   32.40
  -1   1  -8  781.32   32.50
   1  -1   8  796.92   32.50
  -2   1  -8  243.68   10.00
   2  -1   8  233.78   10.20
   3  -1   8   68.49    3.40
   3  -1   8   62.39    3.70
   4  -1   8  127.39    5.80
   4  -1   8  128.49    5.90
   4  -1   8  130.09    5.90
   5  -1   8    1.50    0.90
   5  -1   8    4.30    1.20
   5  -1   8    2.20    0.80
   6  -1   8    2.00    0.70
   6  -1   8    1.20    0.70
   6  -1   8    3.00    1.00
  -7   1  -8    7.40    0.90
   7  -1   8    8.50    1.10
   7  -1   8    7.30    1.00
  -8   1  -8    1.30    0.50
   8  -1   8    2.80    0.70
   5   0  -8    1.20    0.80
   4   0  -8  142.09    6.10
   4   0  -8  140.79    6.50
   3   0  -8  254.77   10.00
   3   0  -8  226.88   10.70
   2   0  -8   20.00    1.50
   2   0  -8   17.00    1.80
   1   0  -8   48.80    2.50
   1   0  -8   47.00    2.70
   0   0  -8  499.25   20.40
   0   0  -8  501.05   20.70
  -1   0  -8  175.78    7.50
  -1   0  -8  179.98    7.70
   1   0   8  170.88    7.70
  -2   0  -8  107.09    4.70
   2   0   8  103.79    4.90
  -3   0  -8   38.80    2.10
   3   0   8   37.40    2.40
   4   0   8  143.39    6.40
   4   0   8  148.79    6.60
   4   0   8  142.39    6.50
   5   0   8   29.40    2.00
   5   0   8   30.90    2.10
   5   0   8   27.90    2.00
   6   0   8   -0.50    0.70
   6   0   8    0.30    0.60
   6   0   8    0.60    0.70
  -7   0  -8    5.70    0.90
   7   0   8    4.50    1.00
   7   0   8    5.90    1.00
   7   0   8    4.90    1.00
  -8   0  -8   -0.10    0.50
   8   0   8    0.90    0.50
   8   0   8   -0.70    0.50
   5  -1  -8  208.08    9.40
   4  -1  -8  126.89    6.40
   4  -1  -8  150.88    5.90
   3  -1  -8    4.10    0.90
   3  -1  -8    3.00    1.10
   2  -1  -8   22.50    1.80
   2  -1  -8   20.70    1.50
   1  -1  -8  455.35   19.00
   1  -1  -8  454.75   18.60
   0  -1  -8   32.50    2.00
   0  -1  -8   31.40    1.80
   0   1   8   29.10    2.70
  -1  -1  -8    6.80    1.20
  -1  -1  -8    3.70    1.00
   1   1   8    6.10    1.30
  -2  -1  -8    3.70    1.00
   2   1   8    6.10    1.60
  -3  -1  -8   69.09    3.20
   3   1   8   61.79    3.40
  -4  -1  -8   42.10    2.30
   4   1   8   44.60    2.50
   4   1   8   38.70    3.00
   4   1   8   42.40    2.60
  -5  -1  -8  218.08    9.30
   5   1   8  222.68    9.50
   5   1   8  218.08    9.50
   5   1   8  222.48    9.50
  -6  -1  -8  343.47   14.80
   6   1   8  372.36   15.10
   6   1   8  354.26   15.00
   6   1   8  362.56   15.00
  -7  -1  -8   19.20    1.40
   7   1   8   17.70    1.40
   7   1   8   17.90    1.50
   7   1   8   18.50    1.50
  -8  -1  -8   12.90    1.10
   8   1   8   14.10    1.20
   8   1   8   14.50    1.20
   5  -2  -8   -0.10    0.50
   4  -2  -8   94.19    5.00
   4  -2  -8  122.69    5.10
   3  -2  -8    1.00    0.80
   3  -2  -8    1.20    0.60
   2  -2  -8  247.68   10.50
   2  -2  -8  258.17   11.00
   1  -2  -8  108.09    5.00
   1  -2  -8  102.79    4.70
   0  -2  -8    1.00    0.60
   0  -2  -8    1.40    0.60
  -1  -2  -8  183.08    7.90
  -1  -2  -8  194.98    7.80
  -1  -2  -8  196.28    8.00
   1   2   8  160.38    8.20
  -2  -2  -8   26.60    1.90
  -2  -2  -8   26.80    1.60
   2   2   8   22.10    2.20
   3   2   8   59.39    3.20
  -4  -2  -8  994.20   39.90
   4   2   8  974.70   40.00
  -5  -2  -8  435.56   18.00
   5   2   8  446.06   18.20
   5   2   8  427.56   18.10
  -6  -2  -8   33.30    2.00
   6   2   8   32.60    2.20
   6   2   8   31.00    2.10
  -7  -2  -8    1.80    0.70
   7   2   8    3.90    1.00
   7   2   8    2.50    0.70
   8   2   8   28.20    1.60
   8   2   8   23.50    1.50
   5  -3  -8   72.59    3.10
   4  -3  -8   78.69    3.50
   3  -3  -8    3.70    0.80
   2  -3  -8   10.30    1.30
   2  -3  -8   10.00    1.00
   1  -3  -8  395.96   16.10
   1  -3  -8  381.36   15.70
   1  -3  -8  366.06   15.70
   0  -3  -8   59.99    3.10
   0  -3  -8   67.29    3.30
   0  -3  -8   64.69    3.10
  -1  -3  -8   56.79    2.90
  -1  -3  -8   60.79    2.90
  -2  -3  -8  100.29    4.30
  -2  -3  -8  101.69    4.40
   2   3   8   82.29    4.80
  -3  -3  -8  339.67   13.50
   3   3   8  313.17   13.70
  -4  -3  -8  285.47   11.80
   4   3   8  277.37   11.90
  -5  -3  -8  201.98    8.40
   5   3   8  188.78    8.60
   5   3   8  198.18    8.60
  -6  -3  -8   65.09    3.10
   6   3   8   59.99    3.30
   6   3   8   61.99    3.20
  -7  -3  -8    9.00    1.30
   7   3   8    8.20    1.30
   7   3   8   10.50    1.10
   8   3   8   14.80    1.30
   8   3   8   16.50    1.20
   5  -4  -8    2.70    0.70
   4  -4  -8   39.10    1.90
   3  -4  -8   86.79    3.90
   3  -4  -8   91.39    4.30
   2  -4  -8    1.50    0.70
   2  -4  -8    1.30    0.60
   1  -4  -8  226.38    9.60
   1  -4  -8  229.58    9.60
   0  -4  -8   14.50    1.30
   0  -4  -8   13.80    1.20
  -1  -4  -8   50.29    2.60
  -1  -4  -8   51.39    2.60
  -2  -4  -8    6.00    1.10
  -2  -4  -8    6.90    1.00
   2   4   8    8.30    1.00
  -3  -4  -8  771.72   29.10
  -3  -4  -8  716.03   29.10
   3   4   8  671.73   29.20
   3   4   8  698.63   29.10
  -4  -4  -8  508.95   20.50
   4   4   8  488.55   20.60
  -5  -4  -8  134.89    5.90
   5   4   8  132.49    6.10
  -6  -4  -8   98.29    4.60
   6   4   8  102.09    4.90
   6   4   8  106.89    4.80
   7   4   8    1.10    0.80
   7   4   8    0.40    0.60
   8   4   8   16.70    1.30
   8   4   8   22.20    1.50
   5  -5  -8   -0.50    0.30
   4  -5  -8    4.90    0.60
   4  -5  -8    3.40    1.30
  -4   5   8    4.50    1.20
   3  -5  -8   78.49    3.60
   3  -5  -8   82.09    3.50
  -3   5   8   75.39    4.00
   2  -5  -8   51.89    2.60
   2  -5  -8   53.29    2.50
   1  -5  -8  682.53   27.90
   1  -5  -8  690.43   27.90
   0  -5  -8 1244.58   50.99
   0  -5  -8 1286.57   51.09
  -1  -5  -8  659.43   28.40
  -1  -5  -8  691.33   28.40
   1   5   8  743.13   28.70
  -2  -5  -8  230.48    9.70
  -2  -5  -8  224.38    9.80
   2   5   8  235.28    9.90
  -3  -5  -8  182.08    8.00
  -3  -5  -8  183.98    7.90
   3   5   8  185.48    7.90
  -4  -5  -8  209.28    8.70
  -4  -5  -8  204.58    8.80
   4   5   8  199.48    8.90
  -5  -5  -8   23.40    2.30
   5   5   8   23.20    1.90
   6   5   8   43.90    2.50
   7   5   8   47.00    2.40
   7   5   8   44.90    2.70
  -8  -5  -8    9.40    0.80
   8   5   8   10.60    1.30
   8   5   8   12.30    1.00
   4  -6  -8    1.50    0.70
   3  -6  -8   66.89    3.00
   3  -6  -8   66.99    2.90
  -3   6   8   61.79    3.30
   2  -6  -8   52.29    2.40
   2  -6  -8   50.09    2.50
  -2   6   8   48.60    2.80
   1  -6  -8  133.49    5.80
   1  -6  -8  140.89    5.90
  -1   6   8  129.49    6.20
   0  -6  -8  238.98   10.00
   0  -6  -8  241.98   10.10
   0   6   8  239.78   10.40
  -1  -6  -8   21.80    1.50
  -1  -6  -8   23.30    1.50
  -2  -6  -8   65.09    3.20
  -2  -6  -8   65.79    3.30
   2   6   8   68.69    3.40
  -3  -6  -8  419.66   17.80
  -3  -6  -8  429.56   17.70
   3   6   8  442.46   18.70
   4   6   8  293.17   12.70
  -5  -6  -8  236.88    9.80
   5   6   8  218.88    9.70
  -6  -6  -8    1.20    0.90
   6   6   8    0.30    0.70
  -7  -6  -8   19.70    1.30
   7   6   8   20.60    1.40
  -8  -6  -8    0.10    0.40
   8   6   8    0.00    0.50
   3  -7  -8    6.10    0.70
   3  -7  -8    6.00    0.60
  -3   7   8    7.20    1.30
   2  -7  -8    6.30    0.70
   2  -7  -8    4.50    0.70
  -2   7   8    5.00    1.00
   1  -7  -8   17.80    1.50
  -1   7   8   17.50    1.50
   0  -7  -8   74.29    3.30
   0  -7  -8   75.19    3.40
   0   7   8   72.09    3.70
  -1  -7  -8  112.39    4.80
  -1  -7  -8  110.19    4.90
   1   7   8  106.29    5.10
  -2  -7  -8  205.18    8.70
  -2  -7  -8  213.88    8.90
   2   7   8  204.68    9.00
  -3  -7  -8    3.60    0.90
   3   7   8    4.00    0.90
  -4  -7  -8   22.80    1.50
   4   7   8   17.30    1.60
  -5  -7  -8    7.90    1.00
  -6  -7  -8   17.40    1.30
   6   7   8   16.20    1.80
  -7  -7  -8    0.40    0.40
   7   7   8    0.30    0.70
   2  -8  -8    6.00    0.70
   2  -8  -8    6.30    0.60
  -2   8   8    8.30    1.10
   1  -8  -8   11.30    0.80
   1  -8  -8   11.20    0.90
  -1   8   8   11.60    1.10
   0  -8  -8    6.50    0.80
   0  -8  -8    7.50    0.80
   0   8   8    7.80    1.00
  -1  -8  -8  125.29    5.40
  -1  -8  -8  123.59    5.30
  -2  -8  -8   79.49    3.60
   2   8   8   72.19    3.70
  -3  -8  -8   32.10    1.80
   3   8   8   30.70    1.90
  -4  -8  -8   16.40    1.40
   4   8   8   14.90    1.40
  -5  -8  -8   97.79    4.40
  -6  -8  -8   45.60    2.20
  -7  -8  -8   27.90    1.40
   1  -9  -8   22.60    1.30
   1  -9  -8   24.10    1.30
  -1   9   8   24.00    1.60
   0  -9  -8    9.60    0.80
   0   9   8   10.50    1.10
  -1  -9  -8    4.20    0.60
   1   9   8    4.80    0.90
  -2  -9  -8   83.09    3.80
   2   9   8   87.29    4.00
  -3  -9  -8   66.69    3.10
   3   9   8   66.09    3.20
  -4  -9  -8   26.80    1.50
   4   9   8   27.70    1.80
  -5  -9  -8   16.10    1.10
  -6  -9  -8    0.30    0.40
   0 -10  -8    1.00    0.30
  -1 -10  -8    5.20    0.60
   1  10   8    3.40    1.00
  -2 -10  -8    6.90    0.70
   2  10   8    7.70    1.00
  -3 -10  -8   10.60    0.80
   3  10   8   11.60    1.20
  -4 -10  -8    1.50    0.60
  -5 -10  -8    7.00    0.70
  -2  -8   9    4.10    0.80
  -1  -8   9   13.50    1.10
   0  -8   9   44.60    2.30
   0  -8   9   45.80    2.30
   1  -8   9    2.90    1.00
  -3  -7   9    1.60    0.80
  -2  -7   9    1.10    0.60
  -1  -7   9    5.70    1.70
  -1  -7   9    4.10    1.50
   0  -7   9    1.00    0.60
   0  -7   9    2.30    0.90
   1  -7   9   24.40    1.60
   1  -7   9   23.80    1.60
   2  -7   9    2.80    0.90
   2  -7   9    1.00    0.90
   3  -7   9    1.10    0.50
   3   6  -9   11.60    1.70
   2   6  -9    0.50    1.30
  -1  -6   9   62.59    3.50
  -1  -6   9   67.49    3.30
   0  -6   9   23.50    1.70
   0  -6   9   23.80    1.70
   1  -6   9   15.50    1.40
   1  -6   9   16.90    1.40
   2  -6   9   -0.10    0.60
   2  -6   9    0.50    0.70
   3  -6   9   33.40    2.10
   3  -6   9   33.20    1.90
   4  -6   9   31.90    1.70
  -5  -5   9    0.10    1.40
   4   5  -9   -0.10    0.80
   3   5  -9   -0.10    1.30
   2   5  -9    0.40    1.00
   1   5  -9   15.60    2.20
   0  -5   9   83.39    4.70
   0  -5   9   90.29    4.20
   1  -5   9    0.40    0.80
   1  -5   9    1.90    0.80
   2  -5   9    4.80    1.30
  -3   5  -9   49.70    2.70
   3  -5   9   56.19    2.90
   3  -5   9   56.19    2.80
  -4   5  -9    2.10    0.70
   4  -5   9    1.00    0.80
   4  -5   9    1.20    0.60
  -5   5  -9    1.40    0.60
   5  -5   9    1.20    0.50
   4   4  -9    3.10    1.10
   3   4  -9    3.90    1.30
   2   4  -9    5.40    1.40
   1   4  -9   47.00    2.90
   1  -4   9   23.80    1.80
   1  -4   9   19.80    2.00
  -2   4  -9    7.40    1.40
   2  -4   9    8.60    1.80
   2  -4   9    9.20    1.60
  -3   4  -9   69.99    3.40
   3  -4   9   73.09    3.50
   3  -4   9   74.49    3.60
  -4   4  -9    2.20    0.80
   4  -4   9    0.80    0.70
   4  -4   9    2.00    0.90
  -5   4  -9    9.90    1.00
   5  -4   9   11.00    1.40
  -6   4  -9   16.00    1.00
   5   3  -9    6.40    1.20
   4   3  -9   11.00    1.40
   3   3  -9   25.60    2.00
   2   3  -9   77.99    4.10
   1   3  -9   24.90    2.10
   0   3  -9  267.77   11.50
  -1   3  -9  262.67   11.00
  -2   3  -9   25.50    1.80
   2  -3   9   24.20    1.80
   2  -3   9   23.30    2.20
  -3   3  -9   40.90    2.30
   3  -3   9   36.90    2.40
   3  -3   9   39.00    2.50
  -4   3  -9   49.40    2.60
   4  -3   9   52.99    2.90
   4  -3   9   51.19    2.80
  -5   3  -9   17.60    1.30
   5  -3   9   14.80    1.50
   5  -3   9   20.30    1.60
  -6   3  -9    9.60    0.90
   6  -3   9    9.30    1.20
   6  -3   9    9.50    1.10
   5   2  -9    1.00    0.80
   4   2  -9   50.09    3.00
   3   2  -9    4.00    1.20
   2   2  -9    3.40    1.30
   1   2  -9  355.26   14.70
   1   2  -9  334.27   14.20
   0   2  -9  231.38   10.10
   0   2  -9  250.47   10.50
  -1   2  -9   15.20    1.50
   1  -2   9   16.70    1.60
  -2   2  -9  155.98    6.70
   2  -2   9  152.98    6.90
  -3   2  -9  430.66   17.80
   3  -2   9  440.36   18.00
   3  -2   9  427.36   17.90
  -4   2  -9  431.26   17.70
   4  -2   9  435.66   17.90
   4  -2   9  424.06   17.80
  -5   2  -9  157.88    6.50
   5  -2   9  138.09    6.70
  -6   2  -9   14.10    1.20
   6  -2   9   14.80    1.30
   6  -2   9   18.00    1.40
  -7   2  -9   19.30    1.20
   7  -2   9   17.80    1.30
   7  -2   9   21.30    1.40
   5   1  -9   96.59    4.50
   4   1  -9   33.70    2.20
   3   1  -9   11.00    1.40
   2   1  -9  204.98    9.30
   2   1  -9  216.18    8.80
   1   1  -9   70.89    3.40
   1   1  -9   68.59    3.70
   0   1  -9  225.18    9.40
   0   1  -9  210.18    9.10
   0  -1   9  207.98    9.30
  -1   1  -9  319.17   13.10
   1  -1   9  311.97   13.30
  -2   1  -9  223.28    9.60
   2  -1   9  228.78    9.80
  -3   1  -9  262.07   10.90
   3  -1   9  254.57   11.00
  -4   1  -9   30.70    1.90
   4  -1   9   30.80    2.40
   4  -1   9   29.20    2.20
  -5   1  -9  173.08    7.40
   5  -1   9  171.88    7.50
   5  -1   9  171.08    7.50
  -6   1  -9    4.00    0.90
   6  -1   9    6.80    1.30
   6  -1   9    5.30    1.00
  -7   1  -9    3.20    0.80
   7  -1   9    3.30    0.90
   7  -1   9    3.30    0.90
   5   0  -9   18.80    1.50
   4   0  -9    0.60    0.80
   3   0  -9  115.09    5.80
   3   0  -9  131.99    5.30
   2   0  -9  572.44   22.90
   2   0  -9  553.64   23.40
   1   0  -9   83.79    4.20
   1   0  -9   86.79    3.90
  -1   0   9   75.49    4.40
   0   0  -9    3.80    1.20
   0   0  -9    4.10    1.00
  -1   0  -9   37.40    2.30
  -1   0  -9   28.50    1.90
   1   0   9   29.80    3.40
  -2   0  -9    6.50    1.10
   2   0   9    7.30    1.40
  -3   0  -9  287.47   12.00
   3   0   9  284.77   12.10
  -4   0  -9  929.41   36.50
   4   0   9  908.41   36.60
   4   0   9  849.02   36.40
  -5   0  -9   57.29    2.80
   5   0   9   51.89    3.10
   5   0   9   54.79    2.90
  -6   0  -9    0.60    0.70
   6   0   9    0.60    0.50
   6   0   9    0.10    0.70
  -7   0  -9   73.39    3.30
   7   0   9   71.39    3.40
   7   0   9   76.39    3.40
   4  -1  -9    4.00    1.10
   4  -1  -9    5.30    0.90
   3  -1  -9    0.80    0.70
   3  -1  -9    1.30    0.60
   2  -1  -9   83.39    3.70
   2  -1  -9   79.09    4.20
   1  -1  -9  246.18   10.50
   1  -1  -9  253.87   10.90
   0  -1  -9   48.10    2.50
   0  -1  -9   52.69    2.80
   0   1   9   40.00    3.10
  -1  -1  -9    1.90    0.80
  -1  -1  -9    4.20    0.80
   1   1   9    2.40    1.10
  -2  -1  -9  688.53   25.10
   2   1   9  539.85   25.90
  -3  -1  -9   86.39    3.90
   3   1   9   78.19    4.00
  -4  -1  -9   15.00    1.30
   4   1   9   16.10    1.70
  -5  -1  -9   36.30    2.20
   5   1   9   34.20    2.30
   5   1   9   33.50    2.50
  -6  -1  -9   15.00    1.20
   6   1   9   15.30    1.40
   6   1   9   15.10    1.60
  -7  -1  -9    0.80    0.50
   7   1   9    1.10    0.70
   7   1   9    0.20    0.50
  -8  -1  -9   13.30    1.10
   8   1   9   12.70    1.20
   8   1   9   15.60    1.10
   4  -2  -9  243.78   10.00
   3  -2  -9   59.09    3.40
   3  -2  -9   70.39    3.00
   2  -2  -9  859.51   33.80
   2  -2  -9  808.52   34.20
   1  -2  -9  699.33   29.00
   1  -2  -9  731.43   29.50
   0  -2  -9  161.58    7.00
   0  -2  -9  150.78    6.70
  -1  -2  -9  181.88    8.10
  -1  -2  -9  198.88    8.00
   1   2   9  177.28    8.30
  -2  -2  -9   18.50    1.70
  -2  -2  -9   15.70    1.40
  -3  -2  -9  415.36   17.00
   3   2   9  409.16   17.20
  -4  -2  -9  123.99    5.50
   4   2   9  122.59    5.60
  -5  -2  -9  262.77   11.30
   5   2   9  276.57   11.80
  -6  -2  -9   11.40    1.20
   6   2   9    9.70    1.80
   6   2   9   12.80    1.20
  -7  -2  -9    4.10    0.90
   7   2   9    2.60    0.90
   7   2   9    4.40    0.90
   8   2   9   57.69    2.90
   8   2   9   64.59    2.90
   5  -3  -9   29.60    1.50
   4  -3  -9   17.10    1.00
   2  -3  -9    1.40    0.60
   1  -3  -9  180.88    7.70
   0  -3  -9  333.47   14.20
   0  -3  -9  355.26   14.30
  -1  -3  -9   24.60    1.60
  -1  -3  -9   21.70    1.70
  -2  -3  -9  223.18    9.20
  -2  -3  -9  223.08    9.20
   2   3   9  222.38    9.30
   2   3   9  196.78    9.50
  -3  -3  -9  209.98    8.60
  -3  -3  -9  204.98    8.70
   3   3   9  192.38    8.80
  -4  -3  -9    1.50    0.70
   4   3   9    1.20    0.80
  -5  -3  -9    2.60    0.70
   5   3   9    3.50    1.10
   6   3   9   26.50    1.80
   6   3   9   19.90    2.20
  -7  -3  -9   31.80    1.80
   7   3   9   33.60    1.90
   7   3   9   28.80    2.10
   8   3   9    6.00    1.00
   8   3   9    9.20    1.40
   4  -4  -9   13.20    0.80
  -4   4   9   12.20    1.40
   3  -4  -9   -0.10    0.40
   2  -4  -9   34.00    1.90
   2  -4  -9   29.10    1.70
   1  -4  -9  394.46   16.70
   1  -4  -9  421.76   16.70
   0  -4  -9  232.38    9.70
   0  -4  -9  228.18    9.70
  -1  -4  -9   23.90    1.60
  -1  -4  -9   24.10    1.60
  -2  -4  -9  344.77   14.90
  -2  -4  -9  351.46   14.80
   2   4   9  378.36   15.00
  -3  -4  -9  410.66   16.90
  -3  -4  -9  420.46   16.80
   3   4   9  391.56   17.00
  -4  -4  -9  653.23   27.60
  -4  -4  -9  697.33   27.60
   4   4   9  677.93   27.70
  -5  -4  -9    1.40    0.80
   5   4   9    1.20    0.70
  -6  -4  -9   23.90    1.60
   7   4   9   30.90    1.80
  -8  -4  -9    0.10    0.30
   8   4   9    0.60    0.60
   4  -5  -9    2.60    0.50
   3  -5  -9   10.80    0.80
   3  -5  -9   15.40    1.70
  -3   5   9   10.70    1.20
   2  -5  -9   45.80    2.30
   1  -5  -9    6.20    0.90
   1  -5  -9    7.50    0.80
   0  -5  -9  240.28    9.90
   0  -5  -9  231.38    9.90
  -1  -5  -9   50.39    2.60
  -1  -5  -9   51.39    2.60
   1   5   9   52.49    2.90
  -2  -5  -9   57.49    2.80
  -2  -5  -9   53.39    2.80
  -3  -5  -9   55.99    2.80
  -3  -5  -9   53.79    2.80
   3   5   9   54.09    2.90
  -5  -5  -9   80.59    3.90
  -5  -5  -9   83.49    3.80
   5   5   9   80.59    4.00
  -6  -5  -9   50.69    2.70
   6   5   9   53.39    2.70
  -7  -5  -9    8.00    0.90
   7   5   9    9.20    1.10
  -8  -5  -9   21.10    1.30
   8   5   9   26.30    1.40
   3  -6  -9   42.90    2.00
   3  -6  -9   47.10    2.10
  -3   6   9   42.50    2.40
   2  -6  -9    4.20    0.60
   2  -6  -9    4.20    0.70
  -2   6   9    4.80    1.10
   1  -6  -9   11.10    1.00
   1  -6  -9   13.60    0.90
  -1   6   9   12.10    1.50
   0  -6  -9   18.40    1.20
   0  -6  -9   18.10    1.20
   0   6   9   17.30    1.50
  -1  -6  -9  235.38    9.50
  -1  -6  -9  231.28    9.60
   1   6   9  217.58    9.80
  -2  -6  -9   16.50    1.30
  -2  -6  -9   15.10    1.20
   2   6   9   14.90    1.40
  -3  -6  -9   41.80    2.20
  -3  -6  -9   43.00    2.20
   3   6   9   38.40    2.30
  -4  -6  -9   84.79    3.90
  -5  -6  -9    3.70    0.80
   5   6   9    3.00    1.10
  -6  -6  -9    5.90    0.90
   6   6   9    9.20    1.40
  -7  -6  -9   11.90    1.00
   7   6   9   12.90    1.30
   3  -7  -9    6.50    0.50
   2  -7  -9   23.50    1.20
   2  -7  -9   23.60    1.30
  -2   7   9   22.80    1.60
   1  -7  -9   19.70    1.20
   1  -7  -9   20.90    1.20
  -1   7   9   20.80    1.60
   0  -7  -9   11.10    0.90
   0  -7  -9   10.20    0.90
   0   7   9   11.20    1.20
  -1  -7  -9    8.20    0.90
  -1  -7  -9    8.90    0.90
   1   7   9    8.90    1.10
  -2  -7  -9  118.79    5.10
  -2  -7  -9  121.09    5.30
   2   7   9  118.39    5.40
  -3  -7  -9   22.50    1.40
  -3  -7  -9   21.50    1.80
   3   7   9   21.60    1.60
  -4  -7  -9  138.99    6.10
  -5  -7  -9    2.00    0.70
  -6  -7  -9    0.50    0.40
  -7  -7  -9    1.90    0.60
   2  -8  -9   69.89    3.00
   2  -8  -9   66.89    2.90
   1  -8  -9    0.50    0.40
   1  -8  -9    0.00    0.40
  -1   8   9   -0.50    0.50
   0  -8  -9    5.70    0.70
   0  -8  -9    6.10    0.70
   0   8   9    5.60    1.00
  -1  -8  -9   21.10    1.30
  -1  -8  -9   22.80    1.30
   1   8   9   22.20    1.50
  -2  -8  -9    1.00    0.40
   2   8   9    0.80    0.60
  -3  -8  -9   40.10    2.10
   3   8   9   39.30    2.20
  -4  -8  -9   53.29    2.70
  -5  -8  -9   25.00    1.40
  -6  -8  -9   56.59    2.60
   1  -9  -9   -0.50    0.30
   0  -9  -9   85.49    3.70
   0   9   9   86.19    3.90
  -1  -9  -9   11.90    0.90
   1   9   9   13.10    1.20
  -2  -9  -9    7.50    0.80
   2   9   9    9.90    1.10
  -3  -9  -9    3.70    0.60
   3   9   9    3.50    0.80
  -4  -9  -9    0.40    0.40
  -5  -9  -9   40.20    1.90
  -6  -9  -9   14.20    0.90
  -1 -10  -9    1.40    0.40
  -2 -10  -9    4.70    0.50
  -3 -10  -9    0.50    0.30
  -4 -10  -9    0.20    0.30
  -1  -7  10    9.60    0.90
   0  -7  10   11.50    1.10
   1  -7  10    2.80    1.00
  -3  -6  10   41.70    2.00
  -2  -6  10   50.89    2.50
  -1  -6  10   94.69    4.30
   0  -6  10   34.80    2.20
   1  -6  10    1.70    1.30
   1  -6  10    1.10    0.60
   2  -6  10   33.20    1.80
   2  -6  10   29.40    1.90
   3  -6  10   28.30    1.70
   3  -6  10   30.50    1.80
  -4  -5  10    2.30    0.60
   3   5 -10   -1.70    1.40
  -3  -5  10    0.90    0.60
  -2  -5  10   41.90    2.30
  -1  -5  10    0.20    0.60
   0  -5  10   25.50    1.70
   1  -5  10    0.40    0.70
   2  -5  10   55.69    3.00
   2  -5  10   62.89    3.00
   3  -5  10    4.20    1.20
   3  -5  10    5.00    1.20
  -4   5 -10    0.40    0.90
   4  -5  10    1.30    0.70
   4   4 -10   -1.30    1.20
  -4  -4  10    0.60    0.70
   3   4 -10   78.99    3.90
   2   4 -10    5.00    1.90
  -1  -4  10    7.30    1.30
   0  -4  10   30.10    1.90
   1  -4  10   -0.30    0.60
  -2   4 -10   29.20    2.00
   2  -4  10   30.40    2.40
  -3   4 -10  155.68    6.90
   3  -4  10  162.58    6.90
   3  -4  10  163.78    7.00
  -4   4 -10  127.89    5.50
   4  -4  10  120.49    5.50
   4  -4  10  131.39    5.60
  -5   4 -10   14.90    1.10
   5  -4  10   14.10    1.20
   5  -4  10   13.00    1.10
   4   3 -10   51.79    2.80
   3   3 -10   14.30    1.70
   2   3 -10   -0.40    0.90
   1   3 -10    0.30    1.00
  -1  -3  10    2.90    0.90
   0  -3  10  155.78    6.90
  -1   3 -10   73.09    3.60
   1  -3  10   77.19    3.80
  -2   3 -10  220.58    9.30
   2  -3  10  219.68    9.50
  -3   3 -10  354.26   15.30
   3  -3  10  347.37   15.20
   3  -3  10  400.86   15.40
  -4   3 -10    0.70    0.60
   4  -3  10    0.00    0.70
   4  -3  10   -1.10    0.80
  -5   3 -10    2.50    0.80
   5  -3  10    3.60    1.00
   5  -3  10    2.90    1.20
  -6   3 -10   21.20    1.20
   6  -3  10   20.00    1.40
   6  -3  10   23.20    1.50
   4   2 -10   -0.40    0.70
   3   2 -10  220.88    9.70
  -3  -2  10  223.18    9.40
   2   2 -10  131.89    6.10
   1   2 -10   21.60    1.90
  -1  -2  10   21.60    1.90
   0   2 -10    0.40    0.90
   0   2 -10   -1.50    1.20
   0  -2  10    1.70    0.80
  -1   2 -10   63.29    3.30
   1  -2  10   74.39    3.90
  -2   2 -10   29.30    1.80
   2  -2  10   28.50    2.00
  -3   2 -10  151.08    6.70
   3  -2  10  154.68    6.80
  -4   2 -10   82.99    4.20
   4  -2  10   81.59    4.20
   4  -2  10   90.39    4.20
  -5   2 -10    9.60    1.00
   5  -2  10   10.40    1.40
   5  -2  10    8.80    1.40
  -6   2 -10   30.30    1.60
   6  -2  10   25.80    1.90
   6  -2  10   28.50    1.60
   4   1 -10   17.50    1.50
   3   1 -10   36.20    2.30
   2   1 -10    0.40    1.20
   2   1 -10    0.70    0.80
  -2  -1  10   -0.60    0.90
   1   1 -10    3.30    1.30
   1   1 -10    5.60    1.10
  -1  -1  10    3.30    1.00
   0   1 -10   43.50    2.80
   0   1 -10   47.90    2.50
   0  -1  10   47.40    2.80
  -1   1 -10  131.09    5.90
   1  -1  10  137.29    6.10
  -2   1 -10  127.59    5.70
   2  -1  10  130.89    5.90
  -3   1 -10  197.38    8.50
   3  -1  10  199.78    8.70
  -4   1 -10   13.20    1.20
   4  -1  10   13.50    1.60
  -5   1 -10    6.20    0.90
   5  -1  10    5.70    1.10
  -6   1 -10    9.90    1.00
   6  -1  10   10.60    1.10
   6  -1  10   14.30    1.60
  -7   1 -10   32.50    1.60
   7  -1  10   31.50    1.60
   7  -1  10   29.00    1.80
   4   0 -10    7.20    1.10
   3   0 -10  224.48   10.00
   3   0 -10  235.78    9.50
   2   0 -10  576.94   25.70
   2   0 -10  666.43   25.20
   1   0 -10  323.57   14.00
   1   0 -10  342.47   13.60
  -1   0  10  321.47   13.90
   0   0 -10  219.18    9.00
   0   0 -10  197.68    9.40
   0   0  10  222.58    9.30
  -1   0 -10  227.38    9.70
   1   0  10  231.18    9.90
  -2   0 -10   21.80    1.60
   2   0  10   23.70    1.90
   3   0  10    3.60    1.40
  -4   0 -10  104.69    4.90
   4   0  10  111.19    5.10
  -5   0 -10   37.10    2.10
   5   0  10   41.10    2.30
   5   0  10   31.50    2.70
  -6   0 -10   23.70    1.50
   6   0  10   20.30    1.80
   6   0  10   24.00    1.60
  -7   0 -10   12.90    1.00
   7   0  10   11.50    1.00
   7   0  10   10.80    1.40
   3  -1 -10   47.50    2.20
   3  -1 -10   41.80    2.60
   2  -1 -10   91.49    3.80
   2  -1 -10   76.59    4.30
   1  -1 -10    4.60    1.20
   1  -1 -10    3.50    0.90
   0  -1 -10  140.09    6.90
   0  -1 -10  153.38    6.30
   0   1  10  139.89    6.70
  -1  -1 -10   25.00    1.60
   1   1  10   22.40    2.30
  -2  -1 -10  377.16   15.70
   2   1  10  381.96   15.90
  -3  -1 -10  156.28    7.10
  -3  -1 -10  164.88    7.20
   3   1  10  164.68    7.30
  -4  -1 -10   27.20    1.80
   4   1  10   28.00    2.00
  -5  -1 -10    1.50    0.70
   5   1  10    1.60    0.70
  -6  -1 -10    2.90    0.90
   6   1  10    2.80    1.00
   6   1  10    2.00    1.10
  -7  -1 -10   15.30    1.10
   7   1  10   17.30    1.20
   7   1  10   14.30    1.60
   4  -2 -10   34.30    1.60
   3  -2 -10   50.39    2.30
   2  -2 -10   14.20    1.00
   2  -2 -10   10.30    1.40
   1  -2 -10  172.68    8.00
   1  -2 -10  183.38    7.60
   0  -2 -10   19.10    1.40
  -1  -2 -10   43.40    2.30
  -2  -2 -10   33.30    1.90
  -2  -2 -10   34.30    2.10
   2   2  10   28.40    2.60
  -3  -2 -10  473.75   19.40
  -3  -2 -10  473.95   19.50
   3   2  10  464.45   19.50
  -4  -2 -10    0.20    0.80
  -4  -2 -10   -0.20    0.50
   4   2  10    0.40    0.70
  -5  -2 -10    0.80    0.60
   5   2  10   -0.40    0.70
  -6  -2 -10   12.10    1.10
   6   2  10   10.30    1.20
  -7  -2 -10   16.30    1.20
   7   2  10   17.50    1.20
   4  -3 -10   22.30    1.20
   3  -3 -10    8.50    0.70
   1  -3 -10  139.09    6.00
   0  -3 -10   27.50    1.70
  -1  -3 -10   15.70    1.50
  -1  -3 -10   14.10    1.20
  -2  -3 -10  276.07   10.50
  -2  -3 -10  260.67   10.50
   2   3  10  211.08   10.70
  -3  -3 -10   39.90    2.30
  -3  -3 -10   42.40    2.30
   3   3  10   38.40    2.60
  -4  -3 -10   42.80    2.40
  -4  -3 -10   45.00    2.40
   4   3  10   45.10    2.70
  -5  -3 -10   60.79    2.90
  -5  -3 -10   55.19    3.00
   5   3  10   57.69    3.00
  -6  -3 -10   50.09    2.50
   6   3  10   51.09    2.70
  -7  -3 -10    8.30    0.90
  -7  -3 -10    7.00    1.10
   7   3  10    8.90    1.00
   4  -4 -10   87.49    3.60
   3  -4 -10   13.40    0.90
   2  -4 -10   29.20    1.50
   1  -4 -10    2.00    0.70
   0  -4 -10   99.29    4.50
   0  -4 -10  102.09    4.50
  -1  -4 -10  216.58    9.10
  -1  -4 -10  214.58    9.10
   1   4  10  215.48    9.40
  -2  -4 -10   11.00    1.10
  -2  -4 -10    9.20    1.20
   2   4  10   12.50    1.30
  -3  -4 -10  380.26   15.50
  -3  -4 -10  371.46   15.60
  -4  -4 -10   76.19    3.50
  -4  -4 -10   75.59    3.60
   4   4  10   73.89    3.70
  -5  -4 -10    3.20    0.90
  -5  -4 -10    0.50    1.20
  -6  -4 -10    7.90    1.00
  -6  -4 -10    7.50    0.90
   6   4  10    8.60    1.10
  -7  -4 -10    0.20    0.40
   7   4  10   -0.30    0.50
   3  -5 -10    1.70    0.50
  -3   5  10    1.80    0.70
   2  -5 -10    4.00    0.60
  -2   5  10    3.60    1.20
   1  -5 -10    9.50    0.80
   1  -5 -10    9.60    1.00
  -1   5  10    7.80    1.30
   0  -5 -10   16.40    1.20
   0  -5 -10   14.90    1.10
   0   5  10   14.50    1.40
  -1  -5 -10   38.40    2.10
  -1  -5 -10   38.00    2.00
   1   5  10   35.00    2.30
  -2  -5 -10    2.00    0.60
  -2  -5 -10    1.40    0.60
   2   5  10    0.90    0.70
  -3  -5 -10  455.15   19.00
  -3  -5 -10  468.75   18.90
  -4  -5 -10   65.49    3.10
  -4  -5 -10   65.59    3.20
  -5  -5 -10    6.80    0.90
  -5  -5 -10    9.20    1.10
   5   5  10    5.40    1.50
  -6  -5 -10   52.99    2.70
   6   5  10   54.39    2.80
  -7  -5 -10   24.30    1.50
   7   5  10   27.00    1.90
   3  -6 -10   88.29    3.70
   2  -6 -10    3.40    1.00
   2  -6 -10    3.10    0.50
  -2   6  10    1.70    0.70
   1  -6 -10    0.80    0.40
   1  -6 -10    1.00    0.50
  -1   6  10    0.70    0.50
   0  -6 -10    6.80    0.80
   0  -6 -10    5.80    0.80
   0   6  10    7.00    1.00
  -1  -6 -10   17.80    1.20
  -1  -6 -10   15.40    1.50
   1   6  10   17.50    1.50
  -2  -6 -10   13.90    1.10
  -2  -6 -10   13.00    1.10
   2   6  10   11.30    1.30
  -3  -6 -10    0.20    0.50
   3   6  10    0.40    0.80
  -4  -6 -10    0.00    0.70
  -4  -6 -10    0.90    0.50
  -5  -6 -10    0.90    0.50
  -6  -6 -10   31.30    1.80
  -7  -6 -10    6.80    0.70
   7   6  10    6.20    1.40
   2  -7 -10   30.60    1.40
   1  -7 -10   63.19    2.80
   1  -7 -10   64.99    2.90
  -1   7  10   65.89    3.20
   0  -7 -10    0.50    0.40
   0  -7 -10    0.30    0.40
   0   7  10    1.40    0.70
  -1  -7 -10    6.70    0.70
  -1  -7 -10    7.10    0.80
   1   7  10    6.10    1.00
  -2  -7 -10    1.00    0.60
  -2  -7 -10    1.20    0.50
   2   7  10    0.30    0.60
  -3  -7 -10   10.70    1.00
  -3  -7 -10   14.20    1.20
   3   7  10   12.60    1.50
  -4  -7 -10  128.19    5.60
  -5  -7 -10   12.30    1.00
  -6  -7 -10    0.90    0.40
   1  -8 -10    2.30    0.50
   1  -8 -10    2.70    0.60
   0  -8 -10   19.30    1.10
   0  -8 -10   18.20    1.20
   0   8  10   19.60    1.40
  -1  -8 -10  120.69    5.30
  -1  -8 -10  117.79    5.10
   1   8  10  130.49    5.50
  -2  -8 -10   23.80    1.50
   2   8  10   23.80    1.60
  -3  -8 -10   73.99    3.40
   3   8  10   75.79    3.60
  -4  -8 -10   16.40    1.10
  -5  -8 -10   48.30    2.30
  -6  -8 -10    0.50    0.30
  -1  -9 -10    2.20    0.50
  -2  -9 -10    3.20    0.50
  -3  -9 -10    6.60    0.60
  -4  -9 -10   30.00    1.50
  -5  -9 -10    0.60    0.30
  -1  -6  11   33.60    1.70
   0  -6  11   17.90    1.20
   1  -6  11   11.10    1.00
   2  -6  11    1.70    0.60
  -2  -5  11   18.30    1.20
  -1  -5  11    3.50    0.80
   0  -5  11    0.10    0.50
   1  -5  11    3.00    0.90
   2  -5  11  131.79    6.00
   3  -5  11    7.00    1.00
  -3  -4  11   35.40    1.90
  -2  -4  11    2.00    0.60
  -1  -4  11    1.40    0.70
   0  -4  11    4.20    1.00
   2  -4  11   -0.40    0.60
  -3   4 -11   17.80    1.50
   3  -4  11   24.10    1.90
  -4   4 -11    7.00    1.00
   4  -4  11    8.90    1.30
   3   3 -11   54.39    3.10
  -3  -3  11   54.79    2.70
   2   3 -11   10.50    1.70
  -2  -3  11   11.00    1.30
  -1  -3  11   37.70    2.20
   0  -3  11    3.70    1.10
  -1   3 -11    0.00    0.80
   1  -3  11    0.00    0.50
  -2   3 -11   31.20    1.90
   2  -3  11   33.60    2.10
  -3   3 -11   11.30    1.20
   3  -3  11    9.40    1.40
  -4   3 -11   13.00    1.10
   4  -3  11   14.90    1.30
  -5   3 -11    3.50    0.70
   5  -3  11    2.80    0.80
   3   2 -11   67.59    3.40
   2   2 -11   86.79    4.20
  -2  -2  11   81.19    3.90
   1   2 -11   -0.40    1.10
  -1  -2  11    0.10    0.70
   0   2 -11    0.00    0.90
  -1   2 -11   43.10    2.30
   1  -2  11   45.30    2.50
  -2   2 -11   26.10    1.70
   2  -2  11   29.80    2.40
  -3   2 -11  103.09    4.70
   3  -2  11  104.59    4.80
  -4   2 -11    0.30    0.50
   4  -2  11    0.20    0.70
  -5   2 -11   19.70    1.30
   5  -2  11   20.60    1.40
   6  -2  11    1.20    0.50
   3   1 -11   12.60    1.40
   2   1 -11    8.80    1.40
   1   1 -11    8.30    1.10
   1   1 -11    7.90    1.50
  -1  -1  11   10.70    1.50
   0   1 -11   54.29    2.80
   0  -1  11   55.49    3.00
  -1   1 -11  188.68    8.10
   1  -1  11  194.08    8.40
  -2   1 -11  214.38    9.20
   2  -1  11  218.78    9.40
  -3   1 -11   97.79    4.60
   3  -1  11  106.09    4.80
  -4   1 -11    3.40    0.80
   4  -1  11    4.00    1.10
  -5   1 -11   12.00    1.00
   5  -1  11   10.30    1.10
  -6   1 -11    0.20    0.40
   6  -1  11   -0.10    0.70
   3   0 -11    1.50    0.70
   2   0 -11  108.39    5.10
   2   0 -11  109.59    4.70
   1   0 -11    4.50    0.90
   1   0 -11    3.30    1.30
   0   0 -11   21.50    1.50
   0   0 -11   19.90    1.90
   0   0  11   20.80    2.00
  -1   0 -11   95.59    4.40
   1   0  11   98.39    4.70
  -2   0 -11   10.20    1.10
   2   0  11   10.20    1.60
  -3   0 -11   24.10    1.60
   3   0  11   27.00    2.00
  -4   0 -11   12.70    1.20
   4   0  11   13.90    1.40
  -5   0 -11   13.60    1.10
   5   0  11   15.30    1.40
  -6   0 -11   28.30    1.50
   6   0  11   28.00    1.60
   3  -1 -11   30.30    1.60
   2  -1 -11  105.59    4.40
   2  -1 -11   98.69    4.90
   1  -1 -11  181.78    8.40
   1  -1 -11  199.08    8.10
   0  -1 -11  186.38    7.90
  -1  -1 -11   85.49    4.00
   1   1  11   82.69    4.30
  -2  -1 -11  132.59    5.90
   2   1  11  137.69    6.20
  -3  -1 -11    9.00    1.00
   3   1  11    5.50    1.60
  -4  -1 -11   13.10    1.20
   4   1  11   12.60    1.50
  -5  -1 -11   18.80    1.30
  -5  -1 -11   17.30    1.50
   5   1  11   20.20    1.60
  -6  -1 -11   -0.40    0.70
  -6  -1 -11   -0.20    0.50
   6   1  11   -0.40    0.50
  -7  -1 -11    0.80    0.50
   7   1  11    0.60    0.40
   3  -2 -11    1.10    0.50
   2  -2 -11    7.20    0.80
   1  -2 -11    4.10    0.70
   0  -2 -11  127.49    5.60
  -1  -2 -11   66.79    3.20
  -2  -2 -11  735.73   29.80
   2   2  11  731.93   30.00
  -3  -2 -11   10.20    1.50
  -3  -2 -11    9.00    1.10
   3   2  11   10.60    1.50
  -4  -2 -11    2.90    0.80
   4   2  11    2.40    1.10
  -5  -2 -11    5.10    1.00
  -5  -2 -11    6.10    0.90
   5   2  11    6.40    1.00
  -6  -2 -11    1.10    0.50
  -6  -2 -11    1.30    0.60
   6   2  11    2.70    0.80
  -7  -2 -11    8.70    0.90
  -7  -2 -11    9.70    0.90
   7   2  11    8.80    0.90
   3  -3 -11   -0.10    0.50
   2  -3 -11    9.00    0.80
   1  -3 -11   30.80    1.60
   0  -3 -11    1.40    0.60
  -1  -3 -11   24.80    1.60
   1   3  11   24.60    2.00
  -2  -3 -11  175.68    7.60
  -2  -3 -11  182.08    7.70
  -3  -3 -11  207.08    8.70
  -3  -3 -11  195.78    8.50
   3   3  11  194.88    8.70
  -4  -3 -11    1.20    0.70
  -4  -3 -11    0.70    0.60
   4   3  11    0.70    0.80
  -5  -3 -11  101.69    4.50
  -5  -3 -11   94.99    4.50
   5   3  11  102.49    4.60
  -6  -3 -11   58.19    2.80
  -6  -3 -11   59.69    2.80
   6   3  11   62.59    2.90
  -7  -3 -11   28.60    1.60
   7   3  11   32.60    1.60
   3  -4 -11    9.60    0.70
   2  -4 -11   18.40    1.00
  -2   4  11   15.60    1.50
   1  -4 -11    5.60    0.70
   0  -4 -11   21.00    1.50
   0   4  11   23.30    1.80
  -1  -4 -11    8.20    0.90
  -1  -4 -11    8.70    1.10
   1   4  11    7.90    1.30
  -2  -4 -11   13.30    1.10
  -3  -4 -11   18.40    1.30
  -3  -4 -11   14.10    1.60
  -4  -4 -11   49.30    2.40
  -4  -4 -11   46.70    2.50
   4   4  11   48.30    2.90
  -5  -4 -11    5.10    0.90
  -5  -4 -11    4.70    0.90
   5   4  11    5.00    1.30
  -6  -4 -11   33.10    1.80
  -6  -4 -11   33.80    1.80
   6   4  11   37.40    2.00
  -7  -4 -11    2.50    0.60
   2  -5 -11   12.00    0.90
  -2   5  11    9.70    1.10
   1  -5 -11    0.00    0.30
  -1   5  11    0.00    0.60
   0  -5 -11   17.50    1.20
   0  -5 -11   19.70    1.30
   0   5  11   22.00    1.60
  -1  -5 -11    1.40    0.50
  -1  -5 -11    0.30    0.60
   1   5  11    0.10    0.70
  -2  -5 -11   87.49    3.90
  -2  -5 -11   88.39    3.90
   2   5  11   86.19    4.20
  -3  -5 -11    4.40    0.80
  -3  -5 -11    5.90    0.90
  -4  -5 -11    1.40    0.60
  -4  -5 -11    2.40    0.70
  -5  -5 -11    9.20    1.10
  -5  -5 -11    9.70    0.90
  -6  -5 -11   50.79    2.60
   6   5  11   58.39    2.80
  -7  -5 -11    0.70    0.40
   2  -6 -11    1.00    0.30
   1  -6 -11    3.90    0.50
  -1   6  11    3.00    1.00
   0  -6 -11  108.09    4.60
   0  -6 -11  113.79    4.70
   0   6  11  104.99    5.00
  -1  -6 -11   16.20    1.10
  -1  -6 -11   17.00    1.10
   1   6  11   17.80    1.50
  -2  -6 -11   15.00    1.00
  -2  -6 -11   15.10    1.10
   2   6  11   14.30    1.50
  -3  -6 -11   77.79    3.50
  -3  -6 -11   77.19    3.50
  -4  -6 -11    1.90    0.70
  -4  -6 -11    2.50    0.70
  -5  -6 -11    0.80    0.40
  -6  -6 -11    0.50    0.40
   1  -7 -11    1.70    0.40
   0  -7 -11    0.10    0.30
   0  -7 -11    0.70    0.50
   0   7  11    0.00    0.60
  -1  -7 -11   22.80    1.30
  -1  -7 -11   22.20    1.20
   1   7  11   22.60    1.60
  -2  -7 -11   60.29    2.80
  -2  -7 -11   59.19    2.70
   2   7  11   63.39    3.10
  -3  -7 -11   37.40    1.90
  -3  -7 -11   38.10    1.90
  -4  -7 -11   45.60    2.20
  -5  -7 -11   69.49    3.10
  -6  -7 -11    4.10    0.50
  -1  -8 -11    5.40    0.80
  -1  -8 -11    7.30    0.60
  -2  -8 -11   20.90    1.10
  -3  -8 -11    3.80    0.60
  -4  -8 -11    2.30    0.50
  -5  -8 -11   15.80    0.90
  -1  -4  12   27.30    1.60
   0  -4  12   43.70    2.20
   1  -4  12   54.79    2.60
   2  -4  12  129.69    5.60
   3  -4  12   28.50    1.60
  -2  -3  12   14.00    2.70
  -1  -3  12    5.80    1.00
   0  -3  12    2.60    1.00
   1  -3  12    1.70    0.60
  -2   3 -12    0.10    0.80
   2  -3  12    1.40    0.60
  -3   3 -12    7.80    1.00
   3  -3  12    9.90    1.10
  -4   3 -12    3.10    0.80
   4  -3  12    1.90    0.80
  -1  -2  12   29.20    1.80
   0  -2  12   19.30    1.50
  -1   2 -12    3.20    1.10
   1  -2  12    1.40    0.70
  -2   2 -12   27.40    1.70
   2  -2  12   29.90    1.80
  -3   2 -12    9.30    1.00
   3  -2  12    9.20    1.20
  -4   2 -12   52.99    2.50
   4  -2  12   55.59    2.60
  -5   2 -12    4.30    0.70
   5  -2  12    2.30    0.70
   0   1 -12   14.90    1.30
   0  -1  12   17.40    1.60
  -1   1 -12   96.29    4.30
   1  -1  12   97.89    4.50
  -2   1 -12    4.70    0.90
   2  -1  12    7.00    1.20
  -3   1 -12    7.00    0.90
   3  -1  12    7.20    1.30
  -4   1 -12    6.30    0.80
   4  -1  12    5.10    1.00
  -5   1 -12    0.80    0.40
   5  -1  12   -0.20    0.40
   1   0 -12   25.50    1.40
   0   0 -12   48.30    2.30
   0   0  12   44.40    2.80
  -1   0 -12  591.54   24.20
   1   0  12  596.04   24.30
  -2   0 -12  123.89    5.50
   2   0  12  129.79    5.80
  -3   0 -12    5.20    0.90
   3   0  12    5.60    1.30
  -4   0 -12    2.20    0.70
   4   0  12    2.20    0.70
  -5   0 -12    9.20    0.80
   5   0  12    8.60    0.90
  -6   0 -12    0.80    0.40
   6   0  12    0.70    0.40
   2  -1 -12    1.30    0.50
   1  -1 -12    0.80    0.50
   0  -1 -12   32.70    1.80
  -1  -1 -12    7.10    0.90
   1   1  12    8.00    2.80
  -2  -1 -12   85.69    3.90
   2   1  12   86.79    4.30
  -3  -1 -12   19.10    1.30
   3   1  12   21.00    1.70
  -4  -1 -12    6.50    0.90
   4   1  12    8.00    1.20
  -5  -1 -12    7.20    0.80
   5   1  12    8.10    1.10
  -6  -1 -12    2.80    0.60
   6   1  12    3.60    0.80
   2  -2 -12    2.50    0.70
   1  -2 -12    1.30    0.40
   0  -2 -12   12.00    0.90
  -1  -2 -12    1.20    0.50
  -2  -2 -12    0.30    0.50
  -3  -2 -12    9.60    0.90
   3   2  12    7.20    1.60
  -4  -2 -12    1.30    0.50
   4   2  12    3.20    1.20
  -5  -2 -12   40.30    2.00
   5   2  12   43.10    2.20
  -6  -2 -12    0.00    0.40
   6   2  12   -0.30    0.50
   2  -3 -12   -0.10    0.40
   1  -3 -12   53.09    2.40
  -1   3  12   50.59    2.90
   0  -3 -12    0.20    0.40
   0   3  12    0.80    0.90
  -1  -3 -12   14.20    1.00
  -2  -3 -12   -0.40    0.50
  -3  -3 -12    0.90    0.50
  -4  -3 -12    8.20    1.10
  -4  -3 -12    7.60    0.90
   4   3  12    7.30    1.40
  -5  -3 -12    6.40    0.80
  -5  -3 -12    6.70    0.90
   5   3  12    7.00    1.20
  -6  -3 -12    2.40    0.80
  -6  -3 -12    3.10    0.80
   6   3  12    2.50    0.90
   2  -4 -12    0.50    0.30
   1  -4 -12   45.30    2.00
  -1   4  12   40.00    2.40
   0  -4 -12   12.70    0.90
   0   4  12   12.60    1.40
  -1  -4 -12    4.30    0.70
   1   4  12    2.70    1.10
  -2  -4 -12    0.80    0.50
  -3  -4 -12    0.50    0.50
  -3  -4 -12    0.70    0.60
  -4  -4 -12   18.40    1.20
  -4  -4 -12   18.60    1.30
  -5  -4 -12    0.90    0.50
  -5  -4 -12    0.70    0.50
   5   4  12   -0.40    1.50
  -6  -4 -12   36.30    1.80
  -6  -4 -12   35.30    1.90
   6   4  12   37.80    2.20
   1  -5 -12   32.10    1.50
   0  -5 -12    3.20    0.50
   0   5  12    1.40    0.80
  -1  -5 -12   13.50    0.90
   1   5  12   13.10    1.60
  -2  -5 -12   32.50    1.70
  -2  -5 -12   33.40    1.70
  -3  -5 -12   50.19    2.40
  -3  -5 -12   48.60    2.40
  -4  -5 -12   62.99    2.90
  -4  -5 -12   64.79    2.90
  -5  -5 -12   17.90    1.20
  -5  -5 -12   19.00    1.20
  -6  -5 -12    1.80    0.60
   0  -6 -12   18.70    1.00
  -1  -6 -12   24.50    1.40
  -1  -6 -12   25.20    1.40
  -2  -6 -12   19.40    1.20
  -2  -6 -12   20.70    1.10
  -3  -6 -12   66.29    3.00
  -3  -6 -12   66.29    2.90
  -4  -6 -12   42.50    2.00
  -4  -6 -12   42.40    2.00
  -5  -6 -12   75.29    3.30
  -1  -7 -12   28.50    1.40
  -2  -7 -12  165.88    6.60
  -2  -7 -12  155.48    6.60
  -3  -7 -12  119.29    5.00
  -4  -7 -12    6.50    0.60
   1  -3  13   25.50    1.50
   2  -3  13    0.90    0.50
   0  -2  13  112.99    4.90
   1  -2  13  216.68    9.00
  -2   2 -13   38.60    2.10
   2  -2  13   49.30    2.50
  -3   2 -13   20.40    1.30
   3  -2  13   22.50    1.30
  -1   1 -13    9.30    1.00
   1  -1  13    8.20    2.00
  -2   1 -13   43.80    2.30
   2  -1  13   51.29    2.50
  -3   1 -13    6.60    1.10
   3  -1  13    7.10    0.90
  -4   1 -13    7.20    0.70
   4  -1  13    7.60    0.90
   0   0 -13    5.30    0.80
  -1   0 -13    3.20    0.70
   1   0  13    6.20    2.30
  -2   0 -13    0.20    0.50
   2   0  13    0.20    0.70
  -3   0 -13   22.60    1.40
   3   0  13   26.10    1.60
  -4   0 -13    4.80    0.70
   4   0  13    4.60    1.00
   1  -1 -13   16.70    1.00
   0  -1 -13    2.20    0.50
  -1  -1 -13   15.40    1.10
  -2  -1 -13    4.40    1.10
  -3  -1 -13    5.20    0.70
   3   1  13    5.50    1.30
  -4  -1 -13    8.40    0.80
   4   1  13    6.30    1.10
  -5  -1 -13   41.00    1.90
   5   1  13   42.40    2.10
   1  -2 -13    4.00    0.60
   0  -2 -13    0.20    0.40
  -1  -2 -13   47.20    2.30
  -2  -2 -13    0.20    0.40
  -3  -2 -13    3.90    0.80
  -4  -2 -13    9.20    0.80
   4   2  13    7.70    1.30
  -5  -2 -13   20.90    1.20
   5   2  13   21.70    1.50
   1  -3 -13   38.70    1.70
   0  -3 -13    3.20    0.50
  -1  -3 -13    2.70    0.50
  -2  -3 -13    7.20    0.70
  -3  -3 -13    6.00    0.70
  -4  -3 -13    5.10    0.80
  -5  -3 -13   25.10    1.30
   0  -4 -13    2.20    0.60
  -1  -4 -13   48.40    2.20
  -2  -4 -13    7.00    0.70
  -3  -4 -13    0.60    0.40
  -4  -4 -13    8.80    1.00
  -5  -4 -13   53.99    2.40
  -1  -5 -13    9.50    0.70
  -2  -5 -13  105.29    4.40
  -3  -5 -13   -0.20    0.40
  -4  -5 -13  118.29    4.90
  -2  -6 -13   33.90    1.60
  -3  -6 -13  186.08    7.60
  -1  -1 -14    5.90    0.70
  -2  -1 -14    8.60    0.70
  -1  -2 -14   97.49    4.10
  -2  -2 -14   42.20    1.90
  -3  -2 -14   43.30    2.00
   0   0   0    0.00    0.00
_computing_structure_solution     'SHELXT 2014/5 (Sheldrick, 2014)'
;
_shelx_hkl_checksum              20891
_shelx_res_file
;
TITL JTM996_0m_a.res in P-1
    JTM996_0m_a.res
    created by SHELXL-2017/1 at 09:59:44 on 16-Oct-2018
REM Old TITL JTM996_0m in P-1
REM SHELXT solution in P-1
REM R1 0.177,  Rweak 0.010,  Alpha 0.035,  Orientation as input
REM Formula found by SHELXT:  C17 N5 S
CELL  1.54178   7.6672   9.9098  11.4101   82.548   78.176   76.607
ZERR    2.000   0.0003   0.0004   0.0004    0.001    0.002    0.002
LATT  1
SFAC C H N S
UNIT 38 34 6 2
TEMP -123
SIZE 0.159 0.166 0.43
L.S. 5
BOND $H
LIST 4
FMAP 2
PLAN 5
CONF
HTAB C15 N1
ACTA 136
EADP C8 C8A
EADP C9 C9A
EADP C10 C10A
EADP S1 C11A
EADP S1A C11
MPLA C14 > C19
MPLA C1 C5 N2 N3 C6
MPLA C1 > C5 N1
MPLA C8 > C11
SADI 0.003 C3 C8 C3 C8A
WGHT    0.063100    0.227900
FVAR       1.11292   0.60643
N1    3    0.764619    0.220898    0.554357    11.00000    0.03830    0.03909 =
         0.02844   -0.01183   -0.00497   -0.01032
N2    3    0.611958    0.346821    0.728548    11.00000    0.03378    0.03753 =
         0.02804   -0.01234   -0.00551   -0.01036
N3    3    0.441241    0.427169    0.766953    11.00000    0.03561    0.03675 =
         0.02965   -0.01067   -0.00463   -0.01135
C1    1    0.445168    0.345793    0.589850    11.00000    0.03592    0.03335 =
         0.02581   -0.00673   -0.00442   -0.01360
C2    1    0.412733    0.305552    0.483981    11.00000    0.04008    0.03419 =
         0.02680   -0.00609   -0.00604   -0.01567
C3    1    0.560313    0.221094    0.416339    11.00000    0.04281    0.03482 =
         0.02596   -0.00741   -0.00586   -0.01494
C4    1    0.732888    0.184733    0.452719    11.00000    0.04252    0.03688 =
         0.02647   -0.00976   -0.00402   -0.01116
C5    1    0.618263    0.297362    0.620178    11.00000    0.03741    0.03379 =
         0.02556   -0.00807   -0.00434   -0.01429
C6    1    0.341294    0.427942    0.685451    11.00000    0.03687    0.03521 =
         0.02758   -0.00801   -0.00452   -0.01401
C7    1    0.229562    0.350614    0.447508    11.00000    0.04096    0.05235 =
         0.03285   -0.01219   -0.01029   -0.01285
H7A   2    0.234387    0.329035    0.368290    11.00000    0.06311
H7B   2    0.138176    0.311608    0.504700    11.00000    0.06294
H7C   2    0.185427    0.449606    0.444822    11.00000    0.06594
PART 1
AFIX   6
C8    1    0.552314    0.163631    0.301427    21.00000    0.02160    0.03663 =
         0.02573   -0.01212    0.00187   -0.00831
C9    1    0.574325    0.233240    0.189728    21.00000    0.06078    0.04388 =
         0.02824   -0.01120   -0.01005   -0.01702
AFIX  43
H9    2    0.610994    0.319952    0.171281    21.00000   -1.20000
AFIX   5
S1    4    0.525727    0.140455    0.087367    21.00000    0.06920    0.05492 =
         0.02658   -0.01229   -0.01306   -0.02351
C10   1    0.493591    0.038196    0.302426    21.00000    0.06432    0.05056 =
         0.03298   -0.00783    0.00027   -0.03554
AFIX  43
H10   2    0.471090   -0.021735    0.373322    21.00000   -1.20000
AFIX   5
C11   1    0.472444    0.011240    0.194557    21.00000    0.08540    0.06534 =
         0.03996   -0.01812   -0.01214   -0.04069
AFIX  43
H11   2    0.433455   -0.068226    0.179727    21.00000   -1.20000
AFIX   6
PART 2
C8A   1    0.513480    0.170380    0.310435   -21.00000    0.02160    0.03663 =
         0.02573   -0.01212    0.00187   -0.00831
C9A   1    0.450026    0.052027    0.312292   -21.00000    0.06078    0.04388 =
         0.02824   -0.01120   -0.01005   -0.01702
AFIX  43
H9A   2    0.410352   -0.003177    0.382854   -21.00000   -1.20000
AFIX   5
S1A   4    0.452652    0.017798    0.167741   -21.00000    0.08540    0.06534 =
         0.03996   -0.01812   -0.01214   -0.04069
C10A  1    0.565891    0.229514    0.192394   -21.00000    0.06432    0.05056 =
         0.03298   -0.00783    0.00027   -0.03554
AFIX  43
H10A  2    0.613757    0.311623    0.175878   -21.00000   -1.20000
AFIX   5
C11A  1    0.542123    0.159563    0.105816   -21.00000    0.06920    0.05492 =
         0.02658   -0.01229   -0.01306   -0.02351
AFIX  43
H11A  2    0.570836    0.185035    0.022056   -21.00000   -1.20000
AFIX   0
PART 0
C12   1    0.893696    0.099409    0.376429    11.00000    0.04855    0.05360 =
         0.03655   -0.02006   -0.00697   -0.00263
H12A  2    0.879137    0.005406    0.386752    11.00000    0.07133
H12B  2    0.906728    0.133492    0.292442    11.00000    0.06843
H12C  2    1.006059    0.093741    0.406843    11.00000    0.06039
C13   1    0.149785    0.507915    0.699814    11.00000    0.03732    0.04583 =
         0.03239   -0.01147   -0.00552   -0.00811
H13A  2    0.063075    0.448792    0.705767    11.00000    0.05466
H13B  2    0.132101    0.576705    0.630787    11.00000    0.04960
H13C  2    0.121200    0.561736    0.769657    11.00000    0.05843
C14   1    0.744940    0.323052    0.802975    11.00000    0.03551    0.04408 =
         0.02632   -0.00807   -0.00483   -0.01587
C15   1    0.887354    0.207664    0.793344    11.00000    0.04563    0.04922 =
         0.03912   -0.01430   -0.01310   -0.00765
H15   2    0.898800    0.141651    0.734134    11.00000    0.04922
C16   1    1.014349    0.185583    0.868966    11.00000    0.04875    0.06286 =
         0.05004   -0.01294   -0.01899   -0.00368
H16   2    1.113347    0.099082    0.865538    11.00000    0.06182
C17   1    0.999021    0.277842    0.953801    11.00000    0.04997    0.07403 =
         0.03837   -0.00733   -0.01818   -0.01851
H17   2    1.086807    0.262771    1.006959    11.00000    0.05740
C18   1    0.855745    0.392303    0.962902    11.00000    0.04897    0.06365 =
         0.02958   -0.01317   -0.00670   -0.02476
H18   2    0.835940    0.456350    1.022931    11.00000    0.05631
C19   1    0.728448    0.416510    0.888434    11.00000    0.04048    0.04748 =
         0.02816   -0.01091   -0.00396   -0.01669
H19   2    0.625462    0.498899    0.895330    11.00000    0.03820
HKLF 4
REM  JTM996_0m_a.res in P-1
REM R1 =  0.0426 for    2722 Fo > 4sig(Fo)  and  0.0470 for all    3048 data
REM    262 parameters refined using      1 restraints
END
WGHT      0.0631      0.2279
REM Highest difference peak  0.243,  deepest hole -0.260,  1-sigma level  0.046
Q1    1   0.5364  0.1821  0.3379  11.00000  0.05    0.24
Q2    1   0.5249  0.2152  0.2169  11.00000  0.05    0.20
Q3    1   0.8126  0.0122  0.3312  11.00000  0.05    0.18
Q4    1   0.4139  0.1127  0.3055  11.00000  0.05    0.17
Q5    1   0.4694  0.2142  0.0155  11.00000  0.05    0.16
;
_shelx_res_checksum              85057
loop_
_space_group_symop_operation_xyz
'x, y, z'
'-x, -y, -z'
loop_
_atom_site_type_symbol
_atom_site_label
_atom_site_fract_x
_atom_site_fract_y
_atom_site_fract_z
_atom_site_U_iso_or_equiv
_atom_site_adp_type
_atom_site_calc_flag
_atom_site_occupancy
_atom_site_disorder_assembly
_atom_site_disorder_group
N N1 0.76462(17) 0.22090(13) 0.55436(11) 0.0343(3) Uani d 1 . .
N N2 0.61196(17) 0.34682(13) 0.72855(11) 0.0318(3) Uani d 1 . .
N N3 0.44124(17) 0.42717(13) 0.76695(11) 0.0329(3) Uani d 1 . .
C C1 0.4452(2) 0.34579(14) 0.58985(12) 0.0304(3) Uani d 1 . .
C C2 0.4127(2) 0.30555(15) 0.48398(13) 0.0321(3) Uani d 1 . .
C C3 0.5603(2) 0.22109(15) 0.41634(13) 0.0330(3) Uani d 1 . .
C C4 0.7329(2) 0.18473(15) 0.45272(13) 0.0345(3) Uani d 1 . .
C C5 0.6183(2) 0.29736(15) 0.62018(13) 0.0308(3) Uani d 1 . .
C C6 0.3413(2) 0.42794(15) 0.68545(13) 0.0319(3) Uani d 1 . .
C C7 0.2296(2) 0.3506(2) 0.44751(15) 0.0402(4) Uani d 1 . .
H H7A 0.234(3) 0.329(2) 0.368(2) 0.063(6) Uiso d 1 . .
H H7B 0.138(3) 0.312(2) 0.505(2) 0.063(6) Uiso d 1 . .
H H7C 0.185(3) 0.450(3) 0.445(2) 0.066(7) Uiso d 1 . .
C C8 0.5523(7) 0.1636(3) 0.30143(14) 0.0277(8) Uani d 0.606(2) A 1
C C9 0.5743(8) 0.2332(3) 0.18973(18) 0.0423(8) Uani d 0.606(2) A 1
H H9 0.610994 0.319952 0.171281 0.051 Uiso calc 0.606(2) A 1
S S1 0.52573(14) 0.14045(9) 0.08737(6) 0.0471(3) Uani d 0.606(2) A 1
C C10 0.4936(5) 0.0382(3) 0.30243(10) 0.0463(10) Uani d 0.606(2) A 1
H H10 0.471090 -0.021735 0.373322 0.056 Uiso calc 0.606(2) A 1
C C11 0.4724(5) 0.0112(2) 0.19456(14) 0.0581(5) Uani d 0.606(2) A 1
H H11 0.433455 -0.068226 0.179727 0.070 Uiso calc 0.606(2) A 1
C C8A 0.5135(13) 0.1704(6) 0.3104(3) 0.0277(8) Uani d 0.394(2) A 2
C C9A 0.4500(8) 0.0520(4) 0.31229(13) 0.0423(8) Uani d 0.394(2) A 2
H H9A 0.410352 -0.003177 0.382854 0.051 Uiso calc 0.394(2) A 2
S S1A 0.4527(3) 0.01780(16) 0.16774(12) 0.0581(5) Uani d 0.394(2) A 2
C C10A 0.5659(13) 0.2295(6) 0.1924(4) 0.0463(10) Uani d 0.394(2) A 2
H H10A 0.613757 0.311623 0.175878 0.056 Uiso calc 0.394(2) A 2
C C11A 0.5421(9) 0.1596(4) 0.1058(2) 0.0471(3) Uani d 0.394(2) A 2
H H11A 0.570836 0.185035 0.022056 0.056 Uiso calc 0.394(2) A 2
C C12 0.8937(3) 0.0994(2) 0.37643(16) 0.0462(4) Uani d 1 . .
H H12A 0.879(4) 0.005(3) 0.387(2) 0.071(7) Uiso d 1 . .
H H12B 0.907(3) 0.133(3) 0.292(2) 0.068(7) Uiso d 1 . .
H H12C 1.006(3) 0.094(2) 0.407(2) 0.060(6) Uiso d 1 . .
C C13 0.1498(2) 0.50792(18) 0.69981(15) 0.0380(4) Uani d 1 . .
H H13A 0.063(3) 0.449(2) 0.7058(19) 0.055(6) Uiso d 1 . .
H H13B 0.132(3) 0.577(2) 0.6308(19) 0.050(5) Uiso d 1 . .
H H13C 0.121(3) 0.562(2) 0.770(2) 0.058(6) Uiso d 1 . .
C C14 0.7449(2) 0.32305(16) 0.80297(13) 0.0337(3) Uani d 1 . .
C C15 0.8874(2) 0.20766(19) 0.79334(15) 0.0433(4) Uani d 1 . .
H H15 0.899(3) 0.142(2) 0.7341(19) 0.049(5) Uiso d 1 . .
C C16 1.0143(3) 0.1856(2) 0.86897(18) 0.0530(5) Uani d 1 . .
H H16 1.113(3) 0.099(2) 0.866(2) 0.062(6) Uiso d 1 . .
C C17 0.9990(3) 0.2778(2) 0.95380(16) 0.0515(4) Uani d 1 . .
H H17 1.087(3) 0.263(2) 1.007(2) 0.057(6) Uiso d 1 . .
C C18 0.8557(2) 0.3923(2) 0.96290(14) 0.0445(4) Uani d 1 . .
H H18 0.836(3) 0.456(2) 1.023(2) 0.056(6) Uiso d 1 . .
C C19 0.7284(2) 0.41651(17) 0.88843(13) 0.0371(3) Uani d 1 . .
H H19 0.625(3) 0.4989(19) 0.8953(16) 0.038(4) Uiso d 1 . .
loop_
_atom_site_aniso_label
_atom_site_aniso_U_11
_atom_site_aniso_U_22
_atom_site_aniso_U_33
_atom_site_aniso_U_12
_atom_site_aniso_U_13
_atom_site_aniso_U_23
N1 0.0383(7) 0.0391(7) 0.0284(6) -0.0103(5) -0.0050(5) -0.0118(5)
N2 0.0338(6) 0.0375(6) 0.0280(6) -0.0104(5) -0.0055(5) -0.0123(5)
N3 0.0356(7) 0.0367(6) 0.0296(6) -0.0114(5) -0.0046(5) -0.0107(5)
C1 0.0359(7) 0.0334(7) 0.0258(7) -0.0136(6) -0.0044(6) -0.0067(5)
C2 0.0401(8) 0.0342(7) 0.0268(7) -0.0157(6) -0.0060(6) -0.0061(5)
C3 0.0428(8) 0.0348(7) 0.0260(7) -0.0149(6) -0.0059(6) -0.0074(5)
C4 0.0425(8) 0.0369(8) 0.0265(7) -0.0112(6) -0.0040(6) -0.0098(6)
C5 0.0374(7) 0.0338(7) 0.0256(7) -0.0143(6) -0.0043(6) -0.0081(5)
C6 0.0369(8) 0.0352(7) 0.0276(7) -0.0140(6) -0.0045(6) -0.0080(5)
C7 0.0410(9) 0.0523(10) 0.0328(8) -0.0129(7) -0.0103(7) -0.0122(7)
C8 0.022(2) 0.0366(8) 0.0257(7) -0.0083(10) 0.0019(10) -0.0121(6)
C9 0.0608(18) 0.0439(18) 0.0282(16) -0.0170(13) -0.0100(12) -0.0112(14)
S1 0.0692(5) 0.0549(5) 0.0266(4) -0.0235(3) -0.0131(3) -0.0123(3)
C10 0.064(2) 0.051(2) 0.0330(18) -0.0355(16) 0.0003(13) -0.0078(14)
C11 0.0854(8) 0.0653(7) 0.0400(8) -0.0407(6) -0.0121(6) -0.0181(5)
C8A 0.022(2) 0.0366(8) 0.0257(7) -0.0083(10) 0.0019(10) -0.0121(6)
C9A 0.0608(18) 0.0439(18) 0.0282(16) -0.0170(13) -0.0100(12) -0.0112(14)
S1A 0.0854(8) 0.0653(7) 0.0400(8) -0.0407(6) -0.0121(6) -0.0181(5)
C10A 0.064(2) 0.051(2) 0.0330(18) -0.0355(16) 0.0003(13) -0.0078(14)
C11A 0.0692(5) 0.0549(5) 0.0266(4) -0.0235(3) -0.0131(3) -0.0123(3)
C12 0.0486(10) 0.0536(11) 0.0366(9) -0.0026(8) -0.0070(7) -0.0201(8)
C13 0.0373(8) 0.0458(9) 0.0324(8) -0.0081(7) -0.0055(6) -0.0115(7)
C14 0.0355(8) 0.0441(8) 0.0263(7) -0.0159(6) -0.0048(6) -0.0081(6)
C15 0.0456(9) 0.0492(9) 0.0391(9) -0.0077(7) -0.0131(7) -0.0143(7)
C16 0.0488(10) 0.0629(12) 0.0500(10) -0.0037(8) -0.0190(8) -0.0129(8)
C17 0.0500(10) 0.0740(12) 0.0384(9) -0.0185(9) -0.0182(8) -0.0073(8)
C18 0.0490(10) 0.0636(11) 0.0296(8) -0.0248(8) -0.0067(7) -0.0132(7)
C19 0.0405(8) 0.0475(9) 0.0282(7) -0.0167(7) -0.0040(6) -0.0109(6)
loop_
_atom_type_symbol
_atom_type_description
_atom_type_scat_dispersion_real
_atom_type_scat_dispersion_imag
_atom_type_scat_source
C C 0.0181 0.0091 'International Tables Vol C Tables 4.2.6.8 and 6.1.1.4'
H H 0.0000 0.0000 'International Tables Vol C Tables 4.2.6.8 and 6.1.1.4'
N N 0.0311 0.0180 'International Tables Vol C Tables 4.2.6.8 and 6.1.1.4'
S S 0.3331 0.5567 'International Tables Vol C Tables 4.2.6.8 and 6.1.1.4'
loop_
_geom_angle_atom_site_label_1
_geom_angle_atom_site_label_2
_geom_angle_atom_site_label_3
_geom_angle
C4 N1 C5 114.22(13)
C5 N2 N3 110.22(11)
C5 N2 C14 130.64(13)
N3 N2 C14 119.08(11)
C6 N3 N2 107.32(11)
C5 C1 C2 118.55(13)
C5 C1 C6 105.07(12)
C2 C1 C6 136.37(14)
C3 C2 C1 115.97(13)
C3 C2 C7 122.59(13)
C1 C2 C7 121.44(13)
C2 C3 C4 120.47(13)
C2 C3 C8A 113.7(4)
C4 C3 C8A 125.8(4)
C2 C3 C8 124.2(2)
C4 C3 C8 115.3(2)
N1 C4 C3 123.97(13)
N1 C4 C12 115.76(14)
C3 C4 C12 120.27(13)
N1 C5 N2 126.35(13)
N1 C5 C1 126.65(13)
N2 C5 C1 106.97(12)
N3 C6 C1 110.41(13)
N3 C6 C13 120.49(13)
C1 C6 C13 129.09(13)
C2 C7 H7A 111.4(14)
C2 C7 H7B 111.1(14)
H7A C7 H7B 112(2)
C2 C7 H7C 112.7(15)
H7A C7 H7C 104(2)
H7B C7 H7C 105(2)
C9 C8 C10 112.6
C9 C8 C3 124.92(17)
C10 C8 C3 121.82(18)
C8 C9 S1 109.9
C8 C9 H9 125.1
S1 C9 H9 125.1
C11 S1 C9 92.9
C11 C10 C8 114.2
C11 C10 H10 122.9
C8 C10 H10 122.9
C10 C11 S1 110.4
C10 C11 H11 124.8
S1 C11 H11 124.8
C9A C8A C10A 112.6
C9A C8A C3 125.5(3)
C10A C8A C3 120.8(3)
C8A C9A S1A 109.9
C8A C9A H9A 125.1
S1A C9A H9A 125.1
C11A S1A C9A 92.9
C11A C10A C8A 114.2
C11A C10A H10A 122.9
C8A C10A H10A 122.9
C10A C11A S1A 110.4
C10A C11A H11A 124.8
S1A C11A H11A 124.8
C4 C12 H12A 108.1(15)
C4 C12 H12B 112.5(14)
H12A C12 H12B 111(2)
C4 C12 H12C 110.9(13)
H12A C12 H12C 103(2)
H12B C12 H12C 111.0(19)
C6 C13 H13A 112.5(12)
C6 C13 H13B 110.9(12)
H13A C13 H13B 107.0(17)
C6 C13 H13C 110.2(13)
H13A C13 H13C 110.6(18)
H13B C13 H13C 105.5(17)
C15 C14 C19 120.19(14)
C15 C14 N2 120.79(13)
C19 C14 N2 119.01(14)
C14 C15 C16 119.59(15)
C14 C15 H15 120.4(12)
C16 C15 H15 120.0(12)
C17 C16 C15 120.55(18)
C17 C16 H16 119.6(13)
C15 C16 H16 119.7(13)
C18 C17 C16 119.31(16)
C18 C17 H17 119.8(12)
C16 C17 H17 120.9(12)
C19 C18 C17 121.11(15)
C19 C18 H18 116.5(13)
C17 C18 H18 122.3(13)
C18 C19 C14 119.25(16)
C18 C19 H19 120.9(11)
C14 C19 H19 119.9(11)
loop_
_geom_bond_atom_site_label_1
_geom_bond_atom_site_label_2
_geom_bond_distance
N1 C4 1.3403(18)
N1 C5 1.3438(19)
N2 C5 1.3760(17)
N2 N3 1.3827(17)
N2 C14 1.4170(18)
N3 C6 1.3189(18)
C1 C5 1.401(2)
C1 C2 1.4050(19)
C1 C6 1.4356(19)
C2 C3 1.396(2)
C2 C7 1.499(2)
C3 C4 1.421(2)
C3 C8A 1.504(2)
C3 C8 1.5133(16)
C4 C12 1.504(2)
C6 C13 1.486(2)
C7 H7A 0.95(2)
C7 H7B 0.97(3)
C7 H7C 0.96(3)
C8 C9 1.3662
C8 C10 1.4147
C9 S1 1.7216
C9 H9 0.9500
S1 C11 1.7128
C10 C11 1.3415
C10 H10 0.9500
C11 H11 0.9500
C8A C9A 1.3662
C8A C10A 1.4147
C9A S1A 1.7217
C9A H9A 0.9500
S1A C11A 1.7128
C10A C11A 1.3415
C10A H10A 0.9500
C11A H11A 0.9500
C12 H12A 0.95(3)
C12 H12B 0.97(3)
C12 H12C 0.98(2)
C13 H13A 0.97(2)
C13 H13B 0.98(2)
C13 H13C 0.98(2)
C14 C15 1.385(2)
C14 C19 1.398(2)
C15 C16 1.392(2)
C15 H15 0.98(2)
C16 C17 1.386(3)
C16 H16 1.00(2)
C17 C18 1.382(3)
C17 H17 0.97(2)
C18 C19 1.382(2)
C18 H18 0.96(2)
C19 H19 0.994(18)
loop_
_geom_hbond_atom_site_label_D
_geom_hbond_atom_site_label_H
_geom_hbond_atom_site_label_A
_geom_hbond_site_symmetry_A
_geom_hbond_distance_DH
_geom_hbond_distance_HA
_geom_hbond_distance_DA
_geom_hbond_angle_DHA
_geom_hbond_publ_flag
C10 H10 Cg4 2_656 0.95 2.63 3.491(3) 151 yes
C13 H13A Cg5 1_455 0.97(2) 2.70(2) 3.4771(18) 138.1(16) yes
C15 H15 N1 . 0.98(2) 2.44(2) 3.040(2) 119.2(15) yes
loop_
_geom_torsion_atom_site_label_1
_geom_torsion_atom_site_label_2
_geom_torsion_atom_site_label_3
_geom_torsion_atom_site_label_4
_geom_torsion
C5 N2 N3 C6 0.41(16)
C14 N2 N3 C6 -177.05(12)
C5 C1 C2 C3 -1.1(2)
C6 C1 C2 C3 -179.68(16)
C5 C1 C2 C7 178.51(14)
C6 C1 C2 C7 -0.1(3)
C1 C2 C3 C4 -2.4(2)
C7 C2 C3 C4 178.02(15)
C1 C2 C3 C8A 174.6(2)
C7 C2 C3 C8A -4.9(3)
C1 C2 C3 C8 178.37(17)
C7 C2 C3 C8 -1.2(3)
C5 N1 C4 C3 -0.8(2)
C5 N1 C4 C12 179.82(14)
C2 C3 C4 N1 3.6(2)
C8A C3 C4 N1 -173.1(2)
C8 C3 C4 N1 -177.12(17)
C2 C3 C4 C12 -177.07(15)
C8A C3 C4 C12 6.3(3)
C8 C3 C4 C12 2.2(2)
C4 N1 C5 N2 179.18(14)
C4 N1 C5 C1 -3.1(2)
N3 N2 C5 N1 177.01(14)
C14 N2 C5 N1 -5.9(2)
N3 N2 C5 C1 -1.05(16)
C14 N2 C5 C1 176.02(14)
C2 C1 C5 N1 4.2(2)
C6 C1 C5 N1 -176.83(14)
C2 C1 C5 N2 -177.77(12)
C6 C1 C5 N2 1.23(16)
N2 N3 C6 C1 0.40(16)
N2 N3 C6 C13 -179.02(13)
C5 C1 C6 N3 -1.03(16)
C2 C1 C6 N3 177.70(16)
C5 C1 C6 C13 178.33(15)
C2 C1 C6 C13 -2.9(3)
C2 C3 C8 C9 84.6(2)
C4 C3 C8 C9 -94.6(2)
C2 C3 C8 C10 -85.7(4)
C4 C3 C8 C10 95.0(4)
C10 C8 C9 S1 -1.1
C3 C8 C9 S1 -172.2(4)
C8 C9 S1 C11 1.0
C9 C8 C10 C11 0.5
C3 C8 C10 C11 171.9(4)
C8 C10 C11 S1 0.3
C9 S1 C11 C10 -0.7
C2 C3 C8A C9A -88.1(6)
C4 C3 C8A C9A 88.7(6)
C2 C3 C8A C10A 104.4(4)
C4 C3 C8A C10A -78.8(4)
C10A C8A C9A S1A -1.1
C3 C8A C9A S1A -169.5(7)
C8A C9A S1A C11A 1.0
C9A C8A C10A C11A 0.5
C3 C8A C10A C11A 169.5(7)
C8A C10A C11A S1A 0.3
C9A S1A C11A C10A -0.7
C5 N2 C14 C15 -20.9(2)
N3 N2 C14 C15 155.93(15)
C5 N2 C14 C19 160.39(15)
N3 N2 C14 C19 -22.8(2)
C19 C14 C15 C16 -0.2(3)
N2 C14 C15 C16 -178.91(16)
C14 C15 C16 C17 0.2(3)
C15 C16 C17 C18 0.1(3)
C16 C17 C18 C19 -0.4(3)
C17 C18 C19 C14 0.3(3)
C15 C14 C19 C18 0.0(2)
N2 C14 C19 C18 178.71(14)

_cod_database_fobs_code 1550312
