#------------------------------------------------------------------------------
#$Date: 2019-11-08 04:21:48 +0200 (Fri, 08 Nov 2019) $
#$Revision: 225359 $
#$URL: file:///home/coder/svn-repositories/cod/cif/1/55/03/1550351.cif $
#------------------------------------------------------------------------------
#
# This file is available in the Crystallography Open Database (COD),
# http://www.crystallography.net/
#
# All data on this site have been placed in the public domain by the
# contributors.
#
data_1550351
loop_
_publ_author_name
'Tatikonda, Rajendhraprasad'
'Bulatov, Evgeny'
'\"Ozdemir, Z\"ulal'
'Nonappa, ?'
'Haukka, Matti'
_publ_section_title
;
 Infinite coordination polymer networks: metallogelation of aminopyridine
 conjugates and in situ silver nanoparticle formation.
;
_journal_issue                   3
_journal_name_full               'Soft matter'
_journal_page_first              442
_journal_page_last               451
_journal_paper_doi               10.1039/c8sm02006j
_journal_volume                  15
_journal_year                    2019
_chemical_formula_moiety         '2(C2 H6 O S), C22 H16 N6 O2'
_chemical_formula_sum            'C26 H28 N6 O4 S2'
_chemical_formula_weight         552.66
_space_group_crystal_system      triclinic
_space_group_IT_number           2
_space_group_name_Hall           '-P 1'
_space_group_name_H-M_alt        'P -1'
_symmetry_space_group_name_Hall  '-P 1'
_symmetry_space_group_name_H-M   'P -1'
_atom_sites_solution_hydrogens   geom
_audit_creation_date             2018-03-13
_audit_creation_method
;
Olex2 1.2
(compiled 2015.09.30 svn.r3233 for OlexSys, GUI svn.r5103)
;
_audit_update_record
;
2018-03-15 deposited with the CCDC.
2018-12-11 downloaded from the CCDC.
;
_cell_angle_alpha                89.276(6)
_cell_angle_beta                 72.988(6)
_cell_angle_gamma                79.287(6)
_cell_formula_units_Z            1
_cell_length_a                   7.4404(5)
_cell_length_b                   9.0236(7)
_cell_length_c                   10.0764(7)
_cell_measurement_reflns_used    4656
_cell_measurement_temperature    120
_cell_measurement_theta_max      28.8450
_cell_measurement_theta_min      3.3430
_cell_volume                     635.02(8)
_computing_cell_refinement       'CrysAlisPro 1.171.38.46 (Rigaku OD, 2015)'
_computing_data_collection       'CrysAlisPro 1.171.38.46 (Rigaku OD, 2015)'
_computing_data_reduction        'CrysAlisPro 1.171.38.46 (Rigaku OD, 2015)'
_computing_molecular_graphics    'Olex2 (Dolomanov et al., 2009)'
_computing_publication_material  'Olex2 (Dolomanov et al., 2009)'
_computing_structure_refinement  'ShelXL (Sheldrick, 2015)'
_computing_structure_solution    'ShelXT (Sheldrick, 2015)'
_diffrn_ambient_temperature      120
_diffrn_detector                 'CCD plate'
_diffrn_detector_area_resol_mean 16.0107
_diffrn_detector_type            Eos
_diffrn_measured_fraction_theta_full 0.998
_diffrn_measured_fraction_theta_max 0.998
_diffrn_measurement_details
;
List of Runs (angles in degrees, time in seconds):

  # Type    Start    End  Width  t~exp~   \w     \q     \k     \f   Frames
#--------------------------------------------------------------------------
  1  \w    -39.00  47.00   1.00    9.00    --  -18.14  57.00 -60.00   86
  2  \w      4.00  30.00   1.00    9.00    --   19.23  57.00  30.00   26
  3  \w     -6.00  86.00   1.00    9.00    --   19.23  77.00  60.00   92
  4  \w    -10.00  85.00   1.00    9.00    --   19.23  77.00 -90.00   95
  5  \w      5.00  79.00   1.00    9.00    --   19.23  57.00-180.00   74
  6  \w    -39.00  51.00   1.00    9.00    --  -18.14  57.00  30.00   90
  7  \w    -45.00  63.00   1.00    9.00    --   19.23 -19.00 120.00  108
  8  \w    -20.00  61.00   1.00    9.00    --   19.23 -99.00 120.00   81
  9  \w     40.00  79.00   1.00    9.00    --   19.23-128.00 -53.72   39
;
_diffrn_measurement_device       'four-circle diffractometer'
_diffrn_measurement_device_type  'SuperNova, Single source at offset, Eos'
_diffrn_measurement_method       '\w scans'
_diffrn_measurement_specimen_support 'Mitegen 50um'
_diffrn_orient_matrix_type
'CrysAlisPro convention (1999,Acta A55,543-557)'
_diffrn_orient_matrix_UB_11      -0.0083687000
_diffrn_orient_matrix_UB_12      0.0789853000
_diffrn_orient_matrix_UB_13      0.0096941000
_diffrn_orient_matrix_UB_21      -0.0833101000
_diffrn_orient_matrix_UB_22      0.0016407000
_diffrn_orient_matrix_UB_23      0.0570377000
_diffrn_orient_matrix_UB_31      0.0574689000
_diffrn_orient_matrix_UB_32      -0.0130838000
_diffrn_orient_matrix_UB_33      0.0456332000
_diffrn_radiation_collimation    0.3
_diffrn_radiation_monochromator  mirror
_diffrn_radiation_probe          x-ray
_diffrn_radiation_type           MoK\a
_diffrn_radiation_wavelength     0.71073
_diffrn_reflns_av_R_equivalents  0.0222
_diffrn_reflns_av_unetI/netI     0.0254
_diffrn_reflns_Laue_measured_fraction_full 0.998
_diffrn_reflns_Laue_measured_fraction_max 0.998
_diffrn_reflns_limit_h_max       9
_diffrn_reflns_limit_h_min       -9
_diffrn_reflns_limit_k_max       11
_diffrn_reflns_limit_k_min       -11
_diffrn_reflns_limit_l_max       12
_diffrn_reflns_limit_l_min       -12
_diffrn_reflns_number            8538
_diffrn_reflns_point_group_measured_fraction_full 0.998
_diffrn_reflns_point_group_measured_fraction_max 0.998
_diffrn_reflns_theta_full        25.242
_diffrn_reflns_theta_max         26.372
_diffrn_reflns_theta_min         3.055
_diffrn_source                   'micro-focus sealed X-ray tube'
_diffrn_source_current           24.0
_diffrn_source_power             1.2
_diffrn_source_target            Mo
_diffrn_source_type              'SuperNova (Mo) X-ray Source'
_diffrn_source_voltage           50.0
_exptl_absorpt_coefficient_mu    0.256
_exptl_absorpt_correction_T_max  0.982
_exptl_absorpt_correction_T_min  0.975
_exptl_absorpt_correction_type   analytical
_exptl_absorpt_process_details
;
CrysAlisPro 1.171.38.46 (Rigaku Oxford Diffraction, 2015)
Analytical numeric absorption correction using a multifaceted crystal
            model based on expressions derived by R.C. Clark & J.S. Reid.
(Clark, R. C. & Reid, J. S. (1995). Acta Cryst. A51, 887-897)
Empirical absorption correction using spherical harmonics,
 implemented in SCALE3 ABSPACK scaling algorithm.
;
_exptl_crystal_colour            'clear colourless'
_exptl_crystal_colour_lustre     clear
_exptl_crystal_colour_primary    colourless
_exptl_crystal_density_diffrn    1.445
_exptl_crystal_description       block
_exptl_crystal_F_000             290
_exptl_crystal_size_max          0.222
_exptl_crystal_size_mid          0.148
_exptl_crystal_size_min          0.132
_refine_diff_density_max         0.265
_refine_diff_density_min         -0.300
_refine_diff_density_rms         0.046
_refine_ls_extinction_method     none
_refine_ls_goodness_of_fit_ref   1.047
_refine_ls_hydrogen_treatment    constr
_refine_ls_matrix_type           full
_refine_ls_number_parameters     174
_refine_ls_number_reflns         2591
_refine_ls_number_restraints     0
_refine_ls_restrained_S_all      1.047
_refine_ls_R_factor_all          0.0367
_refine_ls_R_factor_gt           0.0318
_refine_ls_shift/su_max          0.000
_refine_ls_shift/su_mean         0.000
_refine_ls_structure_factor_coef Fsqd
_refine_ls_weighting_details
'w=1/[\s^2^(Fo^2^)+(0.0282P)^2^+0.3593P] where P=(Fo^2^+2Fc^2^)/3'
_refine_ls_weighting_scheme      calc
_refine_ls_wR_factor_gt          0.0743
_refine_ls_wR_factor_ref         0.0771
_reflns_Friedel_coverage         0.000
_reflns_number_gt                2316
_reflns_number_total             2591
_reflns_threshold_expression     'I > 2\s(I)'
_iucr_refine_instructions_details
;

    ofs-201_a.res created by SHELXL-2014/7

TITL ofs-201_a_a.res in P-1
REM Old TITL OFS-201_a in P-1 #2
REM SHELXT solution in P-1
REM R1 0.109, Rweak 0.006, Alpha 0.028, Orientation as input
REM Formula found by SHELXT: C14 N2 O2 S
CELL 0.71073 7.440351 9.023602 10.076359 89.2762 72.9883 79.2869
ZERR 1 0.000489 0.000656 0.000688 0.0058 0.0059 0.0059
LATT 1
SFAC C H N O S
UNIT 26 28 6 4 2
 
L.S. 10
PLAN  6
TEMP -153.15
HTAB N2 O2
BOND $H
LIST 4
MORE -1
CONF
fmap 2 53
acta
REM <olex2.extras>
REM <HklSrc "%.\\OFS-201_a.hkl">
REM </olex2.extras>
 
WGHT    0.028200    0.359300
FVAR       0.83937
S1    5    0.765939    0.644233   -0.042573    11.00000    0.01929    0.02320 =
         0.01342   -0.00010   -0.00434   -0.00841
O1    4    0.705384    0.874699    0.532922    11.00000    0.02943    0.03406 =
         0.01253    0.00135   -0.00557   -0.01686
O2    4    0.635411    0.644433    0.103572    11.00000    0.02922    0.03615 =
         0.01145   -0.00162   -0.00265   -0.01298
N2    3    0.603726    0.766511    0.370694    11.00000    0.01801    0.01815 =
         0.01042    0.00114   -0.00251   -0.00668
AFIX  43
H2    2    0.628854    0.748945    0.280782    11.00000   -1.20000
AFIX   0
N1    3    1.176077    0.982327    0.093462    11.00000    0.01641    0.01974 =
         0.01595    0.00154   -0.00434   -0.00554
N3    3    0.127863    0.598058    0.617302    11.00000    0.02068    0.02537 =
         0.01982    0.00181   -0.00266   -0.00816
C5    1    0.858651    0.926154    0.166688    11.00000    0.01586    0.01359 =
         0.01502   -0.00124   -0.00411   -0.00407
AFIX  43
H5    2    0.744536    0.919155    0.144895    11.00000   -1.20000
AFIX   0
C6    1    0.446412    0.713212    0.457784    11.00000    0.01474    0.01492 =
         0.01487    0.00370   -0.00511   -0.00194
C1    1    1.008931    0.975250    0.069235    11.00000    0.01712    0.01198 =
         0.01475   -0.00105   -0.00383   -0.00372
C4    1    0.878507    0.887664    0.296098    11.00000    0.01831    0.01122 =
         0.01334   -0.00143   -0.00236   -0.00304
C10   1    0.371901    0.607150    0.401167    11.00000    0.01787    0.01930 =
         0.01463    0.00121   -0.00513   -0.00376
AFIX  43
H10   2    0.427633    0.572212    0.306875    11.00000   -1.20000
AFIX   0
C00C  1    0.721410    0.842897    0.411949    11.00000    0.01814    0.01595 =
         0.01434    0.00226   -0.00525   -0.00398
C3    1    1.048032    0.899603    0.323447    11.00000    0.02199    0.01667 =
         0.01468    0.00147   -0.00685   -0.00360
AFIX  43
H3    2    1.064519    0.877645    0.412078    11.00000   -1.20000
AFIX   0
C7    1    0.358525    0.759816    0.596517    11.00000    0.01861    0.01828 =
         0.01514   -0.00128   -0.00326   -0.00341
AFIX  43
H7    2    0.404499    0.831270    0.640087    11.00000   -1.20000
AFIX   0
C2    1    1.192003    0.944140    0.218760    11.00000    0.01785    0.02232 =
         0.01969    0.00190   -0.00822   -0.00517
AFIX  43
H2A   2    1.309430    0.947852    0.236915    11.00000   -1.20000
AFIX   0
 
C12   1    0.821835    0.453714   -0.109223    11.00000    0.02655    0.02296 =
         0.02063   -0.00038   -0.00658   -0.00441
AFIX 137
H12A  2    0.891471    0.389759   -0.054010    11.00000   -1.50000
H12B  2    0.901625    0.448113   -0.206194    11.00000   -1.50000
H12C  2    0.703131    0.418558   -0.104097    11.00000   -1.50000
AFIX   0
 
C9    1    0.216569    0.553776    0.483707    11.00000    0.02073    0.02126 =
         0.02145    0.00138   -0.00741   -0.00707
AFIX  43
H9    2    0.168908    0.480713    0.443479    11.00000   -1.20000
AFIX   0
C8    1    0.202258    0.699191    0.669292    11.00000    0.02050    0.02564 =
         0.01611   -0.00112    0.00052   -0.00486
AFIX  43
H8    2    0.143199    0.732185    0.763814    11.00000   -1.20000
AFIX   0
 
C11   1    0.615012    0.721960   -0.144826    11.00000    0.02868    0.02391 =
         0.02059    0.00307   -0.00995   -0.00607
AFIX 137
H11A  2    0.519572    0.658892   -0.140168    11.00000   -1.50000
H11B  2    0.692623    0.725227   -0.241543    11.00000   -1.50000
H11C  2    0.549904    0.824473   -0.108956    11.00000   -1.50000
AFIX   0
HKLF 4
 
REM  ofs-201_a_a.res in P-1
REM R1 =  0.0318 for    2316 Fo > 4sig(Fo)  and  0.0367 for all    2591 data
REM    174 parameters refined using      0 restraints
 
END  
     
WGHT      0.0282      0.3595 

REM Highest difference peak  0.265,  deepest hole -0.300,  1-sigma level  0.046
Q1    1   1.0000  1.0000  0.0000  10.50000  0.05    0.26
Q2    1   0.6765  0.6839 -0.0974  11.00000  0.05    0.26
Q3    1   0.4337  0.6345  0.4405  11.00000  0.05    0.26
Q4    1   0.8039  0.8691  0.3461  11.00000  0.05    0.26
Q5    1   0.9692  0.8839  0.3078  11.00000  0.05    0.24
Q6    1   0.3941  0.6821  0.4248  11.00000  0.05    0.24

  REM The information below was added by Olex2.
  REM
  REM R1 = 0.0318 for 2316 Fo > 4sig(Fo) and 0.0367 for all 8538 data
  REM n/a parameters refined using n/a restraints
  REM Highest difference peak 0.26, deepest hole -0.30
  REM Mean Shift 0, Max Shift 0.000.
  
  REM +++ Tabular Listing of Refinement Information +++
  REM R1_all = 0.0367
  REM R1_gt = 0.0318
  REM wR_ref = 0.0771
  REM GOOF = 1.047
  REM Shift_max = 0.000
  REM Shift_mean = 0
  REM Reflections_all = 8538
  REM Reflections_gt = 2316
  REM Parameters = n/a
  REM Hole = -0.30
  REM Peak = 0.26
  REM Flack = n/a
  
  
;
_cod_data_source_file            c8sm02006j2.cif
_cod_data_source_block           4inDMSO
_cod_depositor_comments
'Adding full bibliography for 1550349--1550355.cif.'
_cod_original_cell_volume        635.01(8)
_cod_database_code               1550351
_chemical_oxdiff_formula         'C24 H16 N6 O3 S'
_chemical_oxdiff_usercomment     'Clear, colrless, block, 0.2 0.18 0.08'
_shelx_space_group_comment
;
The symmetry employed for this shelxl refinement is uniquely defined
by the following loop, which should always be used as a source of
symmetry information in preference to the above space-group names.
They are only intended as comments.
;
_reflns_odcompleteness_completeness 99.85
_reflns_odcompleteness_iscentric 1
_reflns_odcompleteness_theta     26.32
_olex2_refinement_description
;
1. Fixed Uiso
 At 1.2 times of:
  All C(H) groups, All N(H) groups
 At 1.5 times of:
  All C(H,H,H) groups
2.a Aromatic/amide H refined with riding coordinates:
 N2(H2), C5(H5), C10(H10), C3(H3), C7(H7), C2(H2A), C9(H9), C8(H8)
2.b Idealised Me refined as rotating group:
 C12(H12A,H12B,H12C), C11(H11A,H11B,H11C)
;
_shelx_shelxl_version_number     2014/7
_olex2_submission_special_instructions 'No special instructions were received'
_oxdiff_exptl_absorpt_empirical_details
;
Empirical correction (ABSPACK) includes:
- Absorption correction using spherical harmonics
- Frame scaling
;
_oxdiff_exptl_absorpt_empirical_full_max 1.387
_oxdiff_exptl_absorpt_empirical_full_min 0.825
loop_
_space_group_symop_operation_xyz
'x, y, z'
'-x, -y, -z'
loop_
_atom_site_label
_atom_site_type_symbol
_atom_site_fract_x
_atom_site_fract_y
_atom_site_fract_z
_atom_site_U_iso_or_equiv
_atom_site_adp_type
_atom_site_occupancy
_atom_site_site_symmetry_order
_atom_site_calc_flag
_atom_site_refinement_flags_posn
S1 S 0.76594(5) 0.64423(4) -0.04257(4) 0.01815(11) Uani 1 1 d .
O1 O 0.70538(16) 0.87470(13) 0.53292(10) 0.0240(3) Uani 1 1 d .
O2 O 0.63541(16) 0.64443(13) 0.10357(11) 0.0254(3) Uani 1 1 d .
N2 N 0.60373(17) 0.76651(13) 0.37069(12) 0.0155(3) Uani 1 1 d .
H2 H 0.6289 0.7489 0.2808 0.019 Uiso 1 1 calc R
N1 N 1.17608(17) 0.98233(14) 0.09346(12) 0.0172(3) Uani 1 1 d .
N3 N 0.12786(19) 0.59806(15) 0.61730(13) 0.0222(3) Uani 1 1 d .
C5 C 0.8587(2) 0.92615(15) 0.16669(14) 0.0147(3) Uani 1 1 d .
H5 H 0.7445 0.9192 0.1449 0.018 Uiso 1 1 calc R
C6 C 0.4464(2) 0.71321(15) 0.45778(14) 0.0148(3) Uani 1 1 d .
C1 C 1.0089(2) 0.97525(15) 0.06923(14) 0.0147(3) Uani 1 1 d .
C4 C 0.8785(2) 0.88766(15) 0.29610(14) 0.0147(3) Uani 1 1 d .
C10 C 0.3719(2) 0.60715(16) 0.40117(15) 0.0172(3) Uani 1 1 d .
H10 H 0.4276 0.5722 0.3069 0.021 Uiso 1 1 calc R
C00C C 0.7214(2) 0.84290(16) 0.41195(15) 0.0160(3) Uani 1 1 d .
C3 C 1.0480(2) 0.89960(16) 0.32345(15) 0.0175(3) Uani 1 1 d .
H3 H 1.0645 0.8776 0.4121 0.021 Uiso 1 1 calc R
C7 C 0.3585(2) 0.75982(16) 0.59652(15) 0.0177(3) Uani 1 1 d .
H7 H 0.4045 0.8313 0.6401 0.021 Uiso 1 1 calc R
C2 C 1.1920(2) 0.94414(17) 0.21876(15) 0.0192(3) Uani 1 1 d .
H2A H 1.3094 0.9479 0.2369 0.023 Uiso 1 1 calc R
C12 C 0.8218(2) 0.45371(17) -0.10922(16) 0.0235(3) Uani 1 1 d .
H12A H 0.8915 0.3898 -0.0540 0.035 Uiso 1 1 calc GR
H12B H 0.9016 0.4481 -0.2062 0.035 Uiso 1 1 calc GR
H12C H 0.7031 0.4186 -0.1041 0.035 Uiso 1 1 calc GR
C9 C 0.2166(2) 0.55378(17) 0.48371(16) 0.0205(3) Uani 1 1 d .
H9 H 0.1689 0.4807 0.4435 0.025 Uiso 1 1 calc R
C8 C 0.2023(2) 0.69919(17) 0.66929(16) 0.0220(3) Uani 1 1 d .
H8 H 0.1432 0.7322 0.7638 0.026 Uiso 1 1 calc R
C11 C 0.6150(2) 0.72196(18) -0.14483(16) 0.0237(3) Uani 1 1 d .
H11A H 0.5196 0.6589 -0.1402 0.036 Uiso 1 1 calc GR
H11B H 0.6926 0.7252 -0.2415 0.036 Uiso 1 1 calc GR
H11C H 0.5499 0.8245 -0.1090 0.036 Uiso 1 1 calc GR
loop_
_atom_site_aniso_label
_atom_site_aniso_U_11
_atom_site_aniso_U_22
_atom_site_aniso_U_33
_atom_site_aniso_U_23
_atom_site_aniso_U_13
_atom_site_aniso_U_12
S1 0.0193(2) 0.0232(2) 0.01342(19) -0.00010(14) -0.00434(14) -0.00841(15)
O1 0.0294(6) 0.0341(6) 0.0125(5) 0.0013(4) -0.0056(5) -0.0169(5)
O2 0.0292(6) 0.0362(7) 0.0114(5) -0.0016(5) -0.0026(5) -0.0130(5)
N2 0.0180(6) 0.0182(6) 0.0104(6) 0.0011(5) -0.0025(5) -0.0067(5)
N1 0.0164(6) 0.0197(6) 0.0160(6) 0.0015(5) -0.0043(5) -0.0055(5)
N3 0.0207(7) 0.0254(7) 0.0198(7) 0.0018(5) -0.0027(5) -0.0082(5)
C5 0.0159(7) 0.0136(7) 0.0150(7) -0.0012(5) -0.0041(6) -0.0041(5)
C6 0.0147(7) 0.0149(7) 0.0149(7) 0.0037(5) -0.0051(6) -0.0019(5)
C1 0.0171(7) 0.0120(7) 0.0148(7) -0.0010(5) -0.0038(6) -0.0037(5)
C4 0.0183(7) 0.0112(6) 0.0133(7) -0.0014(5) -0.0024(6) -0.0030(5)
C10 0.0179(7) 0.0193(7) 0.0146(7) 0.0012(6) -0.0051(6) -0.0038(6)
C00C 0.0181(7) 0.0159(7) 0.0143(7) 0.0023(5) -0.0053(6) -0.0040(6)
C3 0.0220(8) 0.0167(7) 0.0147(7) 0.0015(5) -0.0068(6) -0.0036(6)
C7 0.0186(7) 0.0183(7) 0.0151(7) -0.0013(6) -0.0033(6) -0.0034(6)
C2 0.0178(7) 0.0223(8) 0.0197(8) 0.0019(6) -0.0082(6) -0.0052(6)
C12 0.0265(9) 0.0230(8) 0.0206(8) -0.0004(6) -0.0066(7) -0.0044(6)
C9 0.0207(8) 0.0213(8) 0.0214(8) 0.0014(6) -0.0074(6) -0.0071(6)
C8 0.0205(8) 0.0256(8) 0.0161(7) -0.0011(6) 0.0005(6) -0.0049(6)
C11 0.0287(9) 0.0239(8) 0.0206(8) 0.0031(6) -0.0099(7) -0.0061(7)
loop_
_atom_type_symbol
_atom_type_description
_atom_type_scat_dispersion_real
_atom_type_scat_dispersion_imag
_atom_type_scat_source
C C 0.0033 0.0016 'International Tables Vol C Tables 4.2.6.8 and 6.1.1.4'
H H 0.0000 0.0000 'International Tables Vol C Tables 4.2.6.8 and 6.1.1.4'
N N 0.0061 0.0033 'International Tables Vol C Tables 4.2.6.8 and 6.1.1.4'
O O 0.0106 0.0060 'International Tables Vol C Tables 4.2.6.8 and 6.1.1.4'
S S 0.1246 0.1234 'International Tables Vol C Tables 4.2.6.8 and 6.1.1.4'
loop_
_exptl_crystal_face_index_h
_exptl_crystal_face_index_k
_exptl_crystal_face_index_l
_exptl_crystal_face_perp_dist
10 0 -1 0.0537
-5 8 -9 0.0846
-2 0 12 0.0865
-8 0 5 0.0867
2 -11 5 0.0801
-8 -6 -10 0.1060
8 4 11 0.1084
-2 -13 0 0.0691
2 13 1 0.0557
-3 1 -14 0.0923
-1 0 13 0.1023
-10 0 -4 0.0934
loop_
_geom_angle_atom_site_label_1
_geom_angle_atom_site_label_2
_geom_angle_atom_site_label_3
_geom_angle
_geom_angle_site_symmetry_3
O2 S1 C12 106.14(7) .
O2 S1 C11 105.76(7) .
C12 S1 C11 98.25(7) .
C6 N2 H2 116.9 .
C00C N2 H2 116.9 .
C00C N2 C6 126.28(12) .
C2 N1 C1 117.16(12) .
C8 N3 C9 115.38(13) .
C1 C5 H5 120.6 .
C4 C5 H5 120.6 .
C4 C5 C1 118.87(13) .
C10 C6 N2 117.79(13) .
C7 C6 N2 124.51(13) .
C7 C6 C10 117.70(13) .
N1 C1 C5 122.81(13) .
N1 C1 C1 116.29(15) 2_775
C5 C1 C1 120.90(16) 2_775
C5 C4 C00C 123.38(13) .
C5 C4 C3 118.60(13) .
C3 C4 C00C 117.90(12) .
C6 C10 H10 120.4 .
C9 C10 C6 119.12(14) .
C9 C10 H10 120.4 .
O1 C00C N2 124.40(13) .
O1 C00C C4 120.56(13) .
N2 C00C C4 115.04(12) .
C4 C3 H3 120.8 .
C2 C3 C4 118.49(13) .
C2 C3 H3 120.8 .
C6 C7 H7 120.9 .
C8 C7 C6 118.17(13) .
C8 C7 H7 120.9 .
N1 C2 C3 123.99(14) .
N1 C2 H2A 118.0 .
C3 C2 H2A 118.0 .
S1 C12 H12A 109.5 .
S1 C12 H12B 109.5 .
S1 C12 H12C 109.5 .
H12A C12 H12B 109.5 .
H12A C12 H12C 109.5 .
H12B C12 H12C 109.5 .
N3 C9 C10 124.38(14) .
N3 C9 H9 117.8 .
C10 C9 H9 117.8 .
N3 C8 C7 125.25(14) .
N3 C8 H8 117.4 .
C7 C8 H8 117.4 .
S1 C11 H11A 109.5 .
S1 C11 H11B 109.5 .
S1 C11 H11C 109.5 .
H11A C11 H11B 109.5 .
H11A C11 H11C 109.5 .
H11B C11 H11C 109.5 .
loop_
_geom_bond_atom_site_label_1
_geom_bond_atom_site_label_2
_geom_bond_distance
_geom_bond_site_symmetry_2
S1 O2 1.5081(11) .
S1 C12 1.7831(16) .
S1 C11 1.7834(16) .
O1 C00C 1.2221(17) .
N2 H2 0.8800 .
N2 C6 1.4032(18) .
N2 C00C 1.3635(18) .
N1 C1 1.3483(18) .
N1 C2 1.3372(19) .
N3 C9 1.343(2) .
N3 C8 1.335(2) .
C5 H5 0.9500 .
C5 C1 1.393(2) .
C5 C4 1.3875(19) .
C6 C10 1.395(2) .
C6 C7 1.392(2) .
C1 C1 1.495(3) 2_775
C4 C00C 1.5025(19) .
C4 C3 1.390(2) .
C10 H10 0.9500 .
C10 C9 1.376(2) .
C3 H3 0.9500 .
C3 C2 1.382(2) .
C7 H7 0.9500 .
C7 C8 1.384(2) .
C2 H2A 0.9500 .
C12 H12A 0.9800 .
C12 H12B 0.9800 .
C12 H12C 0.9800 .
C9 H9 0.9500 .
C8 H8 0.9500 .
C11 H11A 0.9800 .
C11 H11B 0.9800 .
C11 H11C 0.9800 .
loop_
_geom_hbond_atom_site_label_D
_geom_hbond_atom_site_label_H
_geom_hbond_atom_site_label_A
_geom_hbond_distance_DH
_geom_hbond_distance_HA
_geom_hbond_distance_DA
_geom_hbond_angle_DHA
N2 H2 O2 0.88 2.01 2.8497(16) 158.3
loop_
_geom_torsion_atom_site_label_1
_geom_torsion_atom_site_label_2
_geom_torsion_atom_site_label_3
_geom_torsion_atom_site_label_4
_geom_torsion
_geom_torsion_site_symmetry_4
N2 C6 C10 C9 -179.43(13) .
N2 C6 C7 C8 178.96(13) .
C5 C4 C00C O1 -146.79(14) .
C5 C4 C00C N2 33.27(19) .
C5 C4 C3 C2 -2.3(2) .
C6 N2 C00C O1 0.5(2) .
C6 N2 C00C C4 -179.58(12) .
C6 C10 C9 N3 0.7(2) .
C6 C7 C8 N3 0.2(2) .
C1 N1 C2 C3 -0.5(2) .
C1 C5 C4 C00C 175.98(13) .
C1 C5 C4 C3 0.0(2) .
C4 C5 C1 N1 2.3(2) .
C4 C5 C1 C1 -177.17(15) 2_775
C4 C3 C2 N1 2.7(2) .
C10 C6 C7 C8 -0.5(2) .
C00C N2 C6 C10 -164.70(13) .
C00C N2 C6 C7 15.9(2) .
C00C C4 C3 C2 -178.50(13) .
C3 C4 C00C O1 29.2(2) .
C3 C4 C00C N2 -150.71(13) .
C7 C6 C10 C9 0.0(2) .
C2 N1 C1 C5 -2.0(2) .
C2 N1 C1 C1 177.45(14) 2_775
C9 N3 C8 C7 0.5(2) .
C8 N3 C9 C10 -0.9(2) .
loop_
_refln_index_h
_refln_index_k
_refln_index_l
_refln_F_squared_meas
_refln_F_squared_sigma
0 0 2 1213.97 17.98
0 0 2 1258.95 18.51
0 0 -2 1269.86 18.06
0 0 -2 1230.35 17.06
0 0 -3 12.09 1.31
0 0 -3 11.83 1.02
0 0 3 12.68 1.29
0 0 3 14.16 1.55
0 0 -3 13.77 0.82
0 0 -4 858.25 14.04
0 0 4 844.13 14.08
0 0 4 842.33 15.65
0 0 -4 855.29 12.59
0 0 -4 878.54 15.89
0 0 4 873.69 16.52
0 0 -5 87.23 2.74
0 0 5 85.69 3.6
0 0 -5 87.39 4.55
0 0 5 88.18 4.36
0 0 5 90.94 4.9
0 0 -5 82.67 3.48
0 0 6 112.16 5.89
0 0 6 105.53 4.35
0 0 -6 109.77 3.36
0 0 -6 104.89 5.45
0 0 -7 79.35 2.97
0 0 7 75.26 5.29
0 0 7 74.71 3.92
0 0 -7 73.96 4.99
0 0 8 17.64 2.03
0 0 -8 14.3 2.52
0 0 8 13.53 2.62
0 0 -8 17.2 1.39
0 0 -9 34.68 4.03
0 0 9 39.37 4.44
0 0 9 38.2 3.12
0 0 10 0.01 1.42
0 0 10 -0.03 0.9
0 0 -10 2.17 1.43
0 0 -11 71.07 6.52
0 0 11 71.15 6.67
0 0 12 52.05 6.12
0 0 -12 46.59 5.61
0 -1 12 8.85 2.55
0 1 -12 7.72 2.65
0 -1 11 6.64 2.2
0 1 -11 7.07 2.31
0 1 -10 36.24 4.31
0 -1 10 44.83 5.09
0 -1 9 244.16 11.19
0 1 -9 230.61 10.21
0 -1 9 220.37 7.26
0 1 -8 1.12 0.61
0 -1 8 0.69 0.64
0 1 -8 1.09 1.33
0 -1 8 -0.42 1.01
0 -1 7 199.49 8.73
0 1 -7 201.26 8.09
0 -1 7 187.54 5.88
0 1 -7 195.05 5.63
0 1 -6 184.84 7.18
0 -1 6 184.7 5.46
0 -1 6 200.3 8.04
0 1 -5 12.12 1.84
0 -1 5 14.18 2.09
0 -1 5 14.43 1.26
0 -1 4 152.67 5.85
0 1 -4 152.81 4.89
0 -1 4 142.58 5
0 1 -4 150.28 5.23
0 1 -3 34.35 2.35
0 -1 3 33.55 1.98
0 -1 3 30.35 2.26
0 1 -3 32.96 2.03
0 -1 2 336.08 7.08
0 1 -2 326.7 7.12
0 1 -2 343.72 6.35
0 -1 2 332.87 6.28
0 1 -1 189.34 3.3
0 1 1 87.2 2.36
0 -1 -1 88.94 2.37
0 1 2 1178.44 17.33
0 -1 -2 1213.81 15.77
0 1 2 1194.1 17.65
0 1 2 1201.74 15.78
0 1 2 1199.72 15.71
0 -1 -2 1204.23 15.81
0 -1 -2 1205.05 17.94
0 -1 -2 1199.92 17.58
0 1 2 1202.4 17.79
0 1 3 81.83 3.41
0 1 3 84.15 3.25
0 -1 -3 73.89 3.24
0 1 3 80.65 3.15
0 1 3 84.94 3.53
0 -1 -3 84.46 2.02
0 1 3 85.62 2.35
0 1 3 82.66 1.96
0 -1 -3 78.91 2.32
0 -1 -3 84.32 3.57
0 1 4 -0.43 0.66
0 -1 -4 0.01 0.32
0 1 4 -0.14 0.53
0 1 4 0.32 0.76
0 -1 -4 0.07 0.21
0 -1 -4 1.13 0.98
0 1 5 142.77 6.07
0 -1 -5 130.41 4.05
0 -1 -5 135.59 3.16
0 1 5 134.25 5.05
0 -1 -5 129.29 5.72
0 1 6 114.73 5
0 -1 -6 114.54 5.81
0 -1 -6 114.61 2.99
0 1 6 118.44 6.02
0 -1 -6 112.73 4.11
0 1 7 160.44 7.68
0 -1 -7 168.2 3.89
0 -1 -7 165.43 7.68
0 1 7 171.23 6.54
0 1 8 341.16 10.15
0 1 8 327.76 12.2
0 -1 -8 311.67 11.73
0 1 9 39.98 3.5
0 1 9 37.67 4.29
0 -1 -9 45.01 4.71
0 -1 -10 2.97 1.61
0 1 10 6.36 1.52
0 1 10 6.91 2.36
0 1 11 55.21 5.93
0 -1 -11 50.79 5.61
0 -2 11 66.53 6.59
0 2 -11 58.89 5.7
0 2 -10 -5.03 1.93
0 -2 10 -1.5 1.39
0 -2 9 1.46 1.29
0 2 -9 3.05 0.9
0 2 -9 3.05 1.6
0 -2 8 446.57 14.76
0 -2 8 444.05 9.46
0 2 -8 448.08 13.51
0 -2 7 448.96 13.95
0 2 -7 439.58 12.58
0 -2 7 456.17 8.98
0 -2 6 902.69 20.02
0 2 -6 902.36 18.39
0 -2 6 930.09 14.4
0 2 -5 124.9 5.15
0 -2 5 128.96 3.35
0 -2 5 134.61 6.13
0 2 -4 206.69 6.03
0 -2 4 205.61 5.94
0 -2 4 216.94 7.2
0 2 -3 73.57 3.64
0 -2 3 72.59 2.83
0 -2 3 73.95 3.58
0 2 -3 74.09 2.91
0 2 -2 19.94 1.78
0 2 -2 21.64 1.66
0 -2 2 19.06 1.55
0 2 -2 22.33 1.25
0 -2 2 21.96 1.23
0 -2 2 24.7 1.58
0 2 -2 21.58 1.21
0 2 -1 36.27 1.13
0 2 -1 33.97 2.14
0 2 -1 34.51 1.71
0 2 -1 35.13 1.24
0 -2 1 33.76 1.28
0 -2 1 36.07 1.73
0 2 -1 33.39 1.72
0 2 -1 35.47 1.24
0 -2 1 35.44 1.14
0 -2 1 31.37 2.03
0 -2 1 32.59 1.7
0 2 0 0.32 0.38
0 -2 0 0.77 0.44
0 -2 0 -0.12 0.33
0 2 0 1.43 0.69
0 -2 0 2.19 0.53
0 2 0 0.9 0.47
0 2 0 0.16 0.27
0 -2 -1 3037.3 41.73
0 -2 -1 3062.48 40.2
0 2 1 3007.15 40.38
0 2 1 3053.02 40.14
0 2 1 3064.03 39.51
0 -2 -1 3108.84 39.6
0 -2 -1 3009.82 40.54
0 2 2 64.76 2.65
0 2 2 55.89 2.43
0 2 2 56.29 2.13
0 2 2 58.34 2.73
0 -2 -2 55.19 2.52
0 -2 -2 59.05 2.64
0 2 2 56.83 1.55
0 2 3 419.84 7.18
0 2 3 413.04 8.71
0 2 3 424.52 9.32
0 2 3 415.02 9.22
0 -2 -3 407.35 9.35
0 -2 -3 427.11 9.12
0 2 3 420.42 6.43
0 -2 -3 415.39 6.55
0 2 4 795.34 15.03
0 -2 -4 812.09 15.72
0 -2 -4 786.1 15.18
0 -2 -4 785.11 11.7
0 2 4 783.03 11.57
0 2 4 783.35 14.42
0 2 4 785.85 11.66
0 -2 -5 212.41 4.85
0 2 5 210.37 7.01
0 2 5 206.42 4.14
0 -2 -5 205.98 7.56
0 -2 -5 202.38 7.23
0 2 5 216.73 7.53
0 -2 -6 429.69 12.23
0 2 6 401.13 11.83
0 2 6 430.9 11.14
0 -2 -6 410.93 8.32
0 -2 -7 44.61 2.48
0 2 7 46.81 4.08
0 -2 -7 46.25 4.2
0 2 7 46.43 3.61
0 2 8 266.49 10.78
0 2 8 266.1 9.4
0 -2 -8 256.81 10.77
0 2 9 2.77 1.24
0 2 9 2.75 1.55
0 -2 -9 3.64 1.73
0 2 10 199.73 10.51
0 -2 -10 189.24 10.36
0 2 10 184.96 8.53
0 2 11 3.61 1.35
0 -2 -11 -0.19 1.39
0 2 11 1.95 1.74
0 -3 11 5.53 1.99
0 3 -11 1.02 1.41
0 3 -10 207.59 10.04
0 -3 10 226.91 11.68
0 -3 9 130.04 8.27
0 3 -9 127.96 7.23
0 -3 8 49.02 4.72
0 3 -8 45.69 4.02
0 3 -7 8.84 1.75
0 -3 7 5.83 0.65
0 -3 7 9.18 2.08
0 3 -6 17.39 2.12
0 -3 6 16 2.51
0 -3 6 17.45 0.91
0 -3 6 17.23 0.94
0 -3 5 42 1.28
0 -3 5 48.39 3.68
0 -3 5 45.64 1.22
0 3 -5 50.3 3.12
0 3 -4 41.22 3.35
0 -3 4 38.78 3
0 -3 4 38.08 2.3
0 3 -4 40.41 2.43
0 3 -4 38.21 2.38
0 3 -3 149.39 4.07
0 -3 3 146.79 2.75
0 3 -3 152.29 4.26
0 3 -3 153.69 6.15
0 -3 3 163.34 5.16
0 -3 3 145.27 4.07
0 -3 3 153.64 5.45
0 3 -2 91.42 4.35
0 -3 2 77.26 2.35
0 3 -2 82.66 3.53
0 3 -2 84.75 2.48
0 -3 2 84.17 3.43
0 -3 2 81.4 2.28
0 -3 2 81.69 3.46
0 3 -2 86.25 2.2
0 -3 1 133.99 2.69
0 3 -1 130.88 3.44
0 -3 1 138.98 4.38
0 -3 1 136.02 3.93
0 3 -1 140.9 4.04
0 3 -1 145.71 5.32
0 3 -1 137.61 4.36
0 3 -1 137.34 3.47
0 -3 1 136.96 5.16
0 -3 1 135.98 3.59
0 -3 0 951.01 13.36
0 3 0 963.61 15.58
0 3 0 947.62 14.1
0 -3 0 959.24 15.59
0 3 0 939.11 14.78
0 3 0 924.2 16.77
0 -3 0 969.34 15.15
0 -3 0 965.51 17.26
0 3 0 949.82 14.84
0 -3 -1 6425.98 84.63
0 -3 -1 6320.7 80.88
0 3 1 6437.45 82.34
0 -3 -1 6494.06 82.49
0 3 1 6499.71 84.73
0 3 1 6368.77 82.31
0 3 2 843.24 15.19
0 -3 -2 864.72 14.97
0 -3 -2 836.7 14.46
0 3 2 864.37 14.65
0 3 2 828.04 14.09
0 -3 -3 25.78 2.23
0 -3 -3 30.35 2.36
0 3 3 27.46 1.19
0 3 3 24.88 2.2
0 3 3 26.5 1.73
0 -3 -4 7.34 1.37
0 -3 -4 8.18 1.59
0 3 4 7.07 0.85
0 3 4 6.91 0.57
0 3 4 7.37 1.34
0 3 5 172.17 4.3
0 3 5 173.76 6.71
0 -3 -5 171.55 6.79
0 -3 -5 165.77 3.73
0 3 5 168.44 6.57
0 -3 -5 173.36 7.05
0 -3 -6 318.12 10.37
0 3 6 301.12 5.88
0 3 6 319.93 9.99
0 3 6 302.34 10.01
0 -3 -6 313.37 6.14
0 -3 -6 306.79 10.47
0 3 7 216.39 8.94
0 -3 -7 211.07 9.25
0 3 7 219.96 8.47
0 3 8 35.47 3.54
0 3 8 35.75 3.92
0 -3 -8 33.99 4.08
0 3 9 245.94 11.02
0 -3 -9 226.99 11
0 3 9 230.77 9.67
0 3 10 0.61 0.93
0 -3 -10 -1.38 2.25
0 3 11 30.67 3.76
0 -3 -11 27.51 4.36
0 3 11 30.51 4.37
0 4 -11 113.35 9.2
0 -4 11 108.64 8.59
0 4 -11 88.38 6.8
0 -4 10 29.19 4.28
0 4 -10 32.38 3.92
0 -4 10 27.76 3.19
0 4 -10 38.22 5.07
0 4 -9 126.15 7.04
0 -4 9 135.99 8.57
0 4 -9 132.8 8.96
0 -4 8 186.76 9.46
0 -4 8 177.59 7.37
0 4 -8 186.83 9.99
0 4 -8 172.86 7.68
0 4 -7 1.44 1.11
0 -4 7 -0.43 1.15
0 -4 7 2.84 0.98
0 4 -7 1.85 1.1
0 -4 6 1.57 1.08
0 4 -6 0.32 1.03
0 4 -6 0.21 0.79
0 -4 6 -0.19 0.88
0 4 -5 -1.12 0.89
0 -4 5 -1.13 1.09
0 4 -5 0.42 0.65
0 -4 5 1 0.76
0 4 -4 3.71 0.81
0 -4 4 3.53 0.76
0 -4 4 2.06 0.88
0 4 -4 4.07 1.44
0 4 -4 2.68 0.68
0 -4 4 3.95 1
0 -4 3 25.13 2.17
0 -4 3 22.07 1.18
0 4 -3 24.92 1.54
0 -4 3 27.24 1.54
0 -4 3 21.81 2.11
0 4 -3 23.47 1.14
0 4 -3 21.61 2.64
0 4 -2 228.2 6.56
0 4 -2 227.25 8.03
0 -4 2 224.77 6.4
0 4 -2 226.82 4.9
0 -4 2 223.84 5.13
0 -4 2 223.38 4.4
0 -4 2 224.56 6.7
0 4 -1 24 1.61
0 4 -1 20.88 1.64
0 4 -1 24.47 1.6
0 -4 1 21.15 1.62
0 4 -1 18.99 2.22
0 -4 1 23.15 0.98
0 -4 1 23.04 2.03
0 -4 1 23.83 1.68
0 -4 0 366.26 8.39
0 4 0 380.62 8.19
0 4 0 371.03 10.23
0 4 0 374.86 7.44
0 4 0 377.42 8.2
0 -4 0 376.07 8.97
0 -4 0 374.4 6.7
0 -4 -1 24.33 1.67
0 4 1 24.92 1.53
0 -4 -1 26.53 2.19
0 4 1 25.53 2.64
0 4 1 24.62 2.08
0 4 2 40.44 2.84
0 -4 -2 41.94 2.83
0 -4 -2 40.32 2.49
0 -4 -3 331.4 9.06
0 4 3 324.62 9.11
0 4 3 329.72 6.19
0 -4 -3 328.08 8.7
0 4 3 305.74 7.82
0 4 4 178.79 5.37
0 -4 -4 193.58 7.04
0 4 4 179.06 3.72
0 4 4 179.42 6.94
0 -4 -4 186.57 6.92
0 -4 -5 1.34 0.72
0 -4 -5 2.47 1.16
0 4 5 3.42 1.17
0 4 5 2.6 0.64
0 4 5 1.97 0.3
0 -4 -6 26.37 3.19
0 -4 -6 27.82 3.11
0 4 6 34.25 3.18
0 4 6 31.74 3.22
0 4 7 39.01 3.73
0 -4 -7 37.32 3.88
0 -4 -7 43.95 4.35
0 4 7 36.66 3.57
0 -4 -8 1.42 1.38
0 4 8 1.79 1.28
0 4 8 1.03 0.99
0 4 9 -0.17 1
0 4 9 -0.14 1.15
0 -4 -10 14.07 3.21
0 4 10 18.32 3.27
0 4 10 16.13 2.83
0 4 11 37.06 4.32
0 4 11 41.38 5.01
0 -4 -11 37 5.11
0 5 -10 104.95 8.79
0 -5 10 113.95 6.69
0 -5 10 110.04 8.3
0 -5 9 428.71 15.98
0 -5 9 418.23 13.07
0 5 -9 443.88 13.65
0 5 -9 458.33 17.72
0 -5 8 148.63 8.61
0 5 -8 162.76 9.75
0 5 -8 156.41 7.12
0 -5 8 156.33 7.25
0 -5 7 601.13 17.43
0 -5 7 652.88 15.65
0 5 -7 642.68 14.76
0 5 -7 608.97 18.94
0 -5 6 746.12 16.82
0 -5 6 765.56 18.74
0 5 -6 757.25 15.26
0 5 -6 783.74 20.62
0 5 -5 9.59 2.2
0 -5 5 8.52 1.63
0 -5 5 6.54 1.5
0 -5 5 10.39 1.27
0 5 -4 433.78 13.53
0 -5 4 429.6 11.29
0 -5 4 438.92 8.5
0 5 -4 436.14 8.94
0 -5 4 445.57 11.86
0 -5 3 0.16 0.26
0 5 -3 0.59 0.3
0 5 -3 -0.34 0.88
0 -5 3 1.16 0.79
0 -5 3 0.37 0.75
0 -5 2 1.37 0.32
0 -5 2 2.34 0.83
0 -5 2 1.51 0.87
0 5 -2 2.9 1.31
0 5 -2 1.32 0.5
0 5 -1 2.91 0.69
0 5 -1 3.27 0.75
0 5 -1 2.87 1.15
0 5 -1 2.6 0.73
0 -5 1 2.6 1
0 -5 1 1.64 0.29
0 -5 1 1.07 0.54
0 -5 1 2.38 0.4
0 -5 0 4.69 0.71
0 5 0 6.19 0.93
0 -5 0 4.23 1.09
0 5 0 8.47 1.83
0 5 0 6.19 1.09
0 5 1 320.33 6.97
0 -5 -1 327.46 7.34
0 -5 -1 332.77 9.18
0 5 1 331.75 10.63
0 5 1 324.7 8.71
0 5 2 657.68 14.2
0 -5 -2 642.68 14.27
0 -5 -2 648.74 12.86
0 5 3 256.31 8.51
0 5 3 248.57 5.8
0 -5 -3 248.11 7.8
0 -5 -3 262.7 8.51
0 -5 -4 1.91 0.93
0 -5 -4 3 1.17
0 5 4 1.81 0.41
0 5 4 1.01 1.06
0 -5 -5 542.82 14.61
0 5 5 575.3 14.9
0 -5 -5 584.12 14.98
0 -5 -6 30.45 3.42
0 -5 -6 34.53 3.65
0 5 6 37.53 3.7
0 5 6 30.3 3.01
0 5 7 74.72 5.43
0 5 7 71.89 5.05
0 -5 -7 60.27 5.15
0 -5 -7 65.52 5.4
0 -5 -8 9.46 2.64
0 5 8 7.07 1.7
0 5 8 6.91 1.79
0 -5 -8 9.19 2.18
0 5 9 14.12 2.67
0 -5 -9 16.18 3.22
0 5 9 16.64 2.91
0 5 10 2.18 1.16
0 -5 -10 0.6 1.49
0 5 10 2.8 1.55
0 -6 10 -0.62 1.43
0 -6 10 -0.86 0.99
0 -6 9 23.55 3.1
0 6 -9 19.66 3.96
0 -6 9 25.55 3.88
0 6 -8 10.42 2.9
0 -6 8 6.33 1.61
0 -6 8 9.32 2.39
0 -6 7 19.62 2.67
0 6 -7 25.05 3.85
0 -6 7 24.51 3.37
0 -6 6 38.56 3.9
0 -6 6 40.17 3.58
0 6 -6 37.74 4.53
0 6 -5 2.37 1.55
0 -6 5 2.2 1.05
0 -6 5 4.21 1.34
0 -6 4 151.25 6.73
0 6 -4 162.89 3.96
0 6 -4 165.81 8.54
0 -6 4 159.23 6.88
0 -6 3 15.59 2.13
0 -6 3 21.54 2.32
0 -6 3 14.67 0.9
0 6 -3 21.46 2.97
0 6 -3 17.38 1.37
0 6 -2 68.7 3.14
0 -6 2 56.96 1.72
0 -6 2 57.87 1.61
0 -6 2 66.54 3.65
0 6 -2 65.26 4.97
0 -6 2 70.86 4.31
0 6 -1 235.67 9.46
0 6 -1 223.09 6.63
0 6 -1 236.78 6.77
0 -6 1 247.02 8.29
0 -6 1 228.47 4.54
0 -6 0 32.6 1.85
0 6 0 30.09 2.47
0 -6 0 32.42 2.98
0 6 0 27.28 1.98
0 6 0 29.05 3.3
0 -6 -1 571.16 11.04
0 6 1 538.63 10.57
0 6 1 551.06 15.4
0 6 1 563.73 12.97
0 -6 -1 554.26 13.64
0 -6 -2 355.04 10.64
0 6 2 357.32 10.32
0 6 2 344.01 7.82
0 -6 -2 353.14 8.98
0 6 3 18.19 1.62
0 -6 -3 21.77 2.41
0 6 3 18.6 2.55
0 -6 -3 24.38 2.87
0 -6 -4 0.56 0.89
0 6 4 0.36 0.34
0 6 4 1.57 1.06
0 -6 -5 223.76 9.33
0 6 5 234.96 9.45
0 -6 -5 227.78 9.08
0 6 6 85.31 5.07
0 -6 -6 87.35 6.04
0 6 6 84.82 5.85
0 -6 -6 87.31 5.94
0 -6 -7 127.66 7.78
0 6 7 122.19 7.32
0 -6 -7 120.53 7.53
0 6 7 116.82 6.46
0 6 8 222.61 10.41
0 -6 -8 202.55 10.6
0 -6 -8 217.54 10.82
0 -6 -9 1.77 1.72
0 6 9 2.17 1.41
0 -6 -9 2.8 1.92
0 7 -9 36.67 5.43
0 -7 9 26.23 4.04
0 -7 9 31.17 3.71
0 -7 8 46.64 4.38
0 -7 8 36.24 4.48
0 7 -8 32.11 4.77
0 -7 7 104.76 6.35
0 7 -7 90.55 7.5
0 -7 7 101.39 6.93
0 -7 6 -0.08 1.01
0 7 -6 -0.05 1.29
0 -7 6 0.37 0.98
0 -7 5 270.47 10.04
0 7 -5 276.72 12.33
0 -7 5 271.86 10.24
0 7 -4 31.92 1.84
0 -7 4 28.82 3.14
0 -7 4 29.72 3.01
0 7 -4 31.68 4.11
0 -7 3 356.34 11.25
0 7 -3 341.05 7.96
0 -7 3 344.02 10.18
0 7 -3 332.6 13.08
0 -7 2 69.56 4.7
0 -7 2 64.52 3.81
0 7 -2 65.1 3.41
0 7 -2 67.45 5.54
0 7 -1 294.91 8.27
0 -7 1 309.26 10.14
0 -7 1 265.17 5.26
0 7 -1 262.93 11
0 7 0 1.51 1.16
0 -7 0 1.56 0.31
0 -7 0 0.28 0.92
0 -7 0 1.24 0.51
0 7 0 2.64 0.95
0 7 1 269.95 8.89
0 -7 -1 271.67 9.67
0 -7 -1 264.55 7.1
0 7 1 264.97 10.98
0 -7 -2 82.43 4.22
0 -7 -2 77.18 5.11
0 7 2 77.21 4.83
0 -7 -3 2.09 0.96
0 -7 -3 2.11 1.24
0 7 3 2.2 1.28
0 -7 -4 72.17 5.32
0 -7 -4 73.78 4.8
0 7 4 84.68 5.6
0 7 5 1.02 1.03
0 -7 -5 3.6 1.43
0 -7 -5 3.73 1.52
0 -7 -6 -0.62 1.28
0 -7 -6 1.07 1.46
0 7 6 0.52 1.06
0 -7 -7 5.36 2.1
0 7 7 5.36 1.82
0 -7 -7 6.75 2.13
0 -7 -8 4.31 2.05
0 7 8 5.21 2.06
0 -7 -8 6.01 2.42
0 8 -8 29.06 4.8
0 -8 8 32.87 3.95
0 -8 8 35.83 4.57
0 -8 7 4.06 1.69
0 8 -7 9.42 2.94
0 -8 7 6.66 1.8
0 -8 6 234.45 10.04
0 8 -6 196.24 11.36
0 -8 6 212.09 9.73
0 8 -5 331.4 14.49
0 -8 5 345.62 12.24
0 -8 5 337.2 11.83
0 -8 4 14.47 2.48
0 8 -4 14.59 2.98
0 -8 4 11.91 2.01
0 8 -3 1.18 1.22
0 -8 3 0.97 1.03
0 8 -3 -0.39 0.69
0 -8 2 26.11 3.13
0 8 -2 26.1 2.34
0 8 -2 20.95 3.31
0 8 -1 23.57 3.56
0 -8 1 21.26 2.85
0 8 -1 27.87 2.63
0 8 0 96.07 5.18
0 8 0 97.42 7.08
0 -8 0 93.49 5.96
0 8 1 8.57 2.32
0 8 1 9.87 1.83
0 -8 -1 7.74 1.79
0 -8 -2 115.89 5.24
0 -8 -2 122.51 7
0 8 2 124.26 6.59
0 8 3 340.39 11.78
0 -8 -3 326.04 10.16
0 -8 -3 330.08 12.21
0 8 4 4.84 1.64
0 -8 -4 3.11 1.28
0 -8 -4 1.77 1.33
0 -8 -5 331.25 13.04
0 -8 -5 315.13 11.69
0 -8 -6 4.71 1.69
0 8 6 2.9 1.42
0 -8 -6 2.52 1.45
0 -8 -7 15.02 3.09
0 8 7 15.15 2.96
0 -8 -7 14.45 3.05
0 -9 7 59.43 5.56
0 9 -7 64.28 7.06
0 -9 7 64.4 5.62
0 -9 6 35.09 4.1
0 -9 6 28.74 3.64
0 9 -6 42.43 5.55
0 -9 5 10.48 2.32
0 9 -5 15.64 3.44
0 -9 5 13.61 2.48
0 -9 4 0.6 0.96
0 9 -4 1.35 1.78
0 -9 4 1.13 1.41
0 -9 3 23.35 3.21
0 9 -3 23.31 3.91
0 9 -2 16.57 3.33
0 -9 2 14.49 2.6
0 9 -2 15.8 1.99
0 9 -1 1.43 0.78
0 -9 1 0.77 1.05
0 9 -1 3.55 1.92
0 9 0 14.39 2.96
0 9 0 14.89 2.21
0 -9 0 17.9 2.9
0 9 1 11.59 2.09
0 -9 -1 14.8 2.74
0 -9 -2 7.16 3.17
0 9 2 7.83 1.89
0 9 3 43.82 4.35
0 -9 -3 40.7 4.46
0 9 4 19 3.15
0 -9 -4 18.55 3.21
0 9 5 278.25 12.05
0 -9 -5 268.95 12.43
0 9 6 9.84 2.6
0 -9 -6 9.04 2.67
0 -10 5 17.76 3.15
0 10 -5 14.82 3.88
0 10 -4 175.35 11.35
0 -10 4 189.88 9.95
0 10 -3 5.12 2.25
0 -10 3 3.17 1.45
0 10 -2 132.48 9.62
0 -10 2 117.99 7.71
0 -10 1 97.79 7.02
0 10 -1 102.88 8.44
0 10 0 37.23 3.62
0 -10 0 35.96 4.33
0 10 0 35.55 5.01
0 10 1 38.02 3.87
0 -10 -1 40.38 4.59
0 -10 -2 11 2.6
0 10 2 16.32 2.71
0 -10 -3 11.6 2.61
0 10 3 10.14 2.31
0 -10 -4 41.63 5.02
0 10 4 70.48 6.04
0 -11 2 9.84 2.47
0 11 -2 16.75 3.63
0 11 -1 72.5 7.47
0 -11 1 69.47 6.33
0 -11 0 35.38 4.63
0 11 0 32.25 4.95
-1 10 3 75.96 6.31
1 -10 -3 83.03 7.21
-1 10 2 85.32 6.32
1 -10 -2 92.59 7.38
1 -10 -1 76.51 6.58
-1 10 1 76.89 5.71
-1 10 0 1.51 0.95
1 -10 0 -0.29 1.29
-1 10 0 0.85 1.51
-1 10 -1 25.57 4.35
1 -10 1 31.47 4.18
1 -10 2 1.23 1.2
-1 10 -2 0.68 1.34
1 -10 3 1.85 1.09
-1 10 -3 6.86 2.51
1 -10 4 15.2 2.99
-1 10 -4 10.47 2.89
-1 10 -5 10.77 3.13
1 -10 5 14.84 3.04
-1 9 5 5.98 2.14
1 -9 -5 4.12 1.96
1 -9 -4 25.44 3.95
-1 9 4 35.43 4.36
-1 9 3 246.42 10.9
1 -9 -3 237.19 11.56
-1 9 2 62.87 5.16
1 -9 -2 59.05 5.55
1 -9 -1 0.24 1.3
-1 9 1 0.98 1.03
-1 9 0 183.43 10.63
-1 9 0 180 7.99
1 -9 0 192.69 9.65
-1 9 -1 1.4 0.81
1 -9 1 2.41 1.39
-1 9 -1 0.94 1.03
1 -9 2 34.26 4
-1 9 -2 38.83 4.99
-1 9 -3 -0.03 1.41
1 -9 3 2.9 1.38
-1 9 -4 3.88 1.84
1 -9 4 3.47 1.5
-1 9 -5 86.47 7.79
1 -9 5 87.03 6.33
1 -9 5 87.67 6.24
1 -9 6 3.38 1.44
-1 9 -6 7.81 2.45
1 -9 6 3.6 1.48
1 -9 7 0.98 1.29
1 -9 7 1.47 1.44
1 -8 -7 92.06 7.09
1 -8 -7 106.88 8.58
-1 8 7 100.77 7.67
1 -8 -6 28.54 3.74
1 -8 -6 29.88 4.35
-1 8 6 32.4 4.25
-1 8 5 0.99 1.25
1 -8 -5 1.34 1.07
1 -8 -5 0.49 1.31
-1 8 4 83.49 6.2
1 -8 -4 77.73 5.3
-1 8 3 0.96 1.12
1 -8 -3 1.75 1.39
1 -8 -2 57.55 5.11
-1 8 2 60.42 4.82
-1 8 2 51.61 3.75
1 -8 -1 61.3 5.13
-1 8 1 64.49 4.71
1 -8 0 222.43 9.68
-1 8 0 210.84 10.7
-1 8 0 215.45 8.31
1 -8 1 4.96 1.57
-1 8 -1 0.58 1.66
-1 8 -1 3.79 1.15
-1 8 -2 266.4 12.28
-1 8 -2 263.66 8.17
1 -8 2 262.99 10.39
1 -8 3 93.46 6.07
-1 8 -3 98.77 7.51
1 -8 4 26.62 3.18
1 -8 4 25.39 3.21
-1 8 -4 29.58 4.09
1 -8 5 62.47 5.01
1 -8 5 55.91 4.81
-1 8 -5 68.93 6.48
1 -8 6 21.18 3
-1 8 -6 26.5 4.24
1 -8 6 20.97 3.14
1 -8 7 0.75 0.96
-1 8 -7 2.75 2.04
1 -8 8 2.69 1.26
1 -8 8 5.86 2.09
-1 8 -8 6.52 2.48
1 -7 -8 40.65 5.33
-1 7 8 44.53 5.11
1 -7 -8 40.95 5.03
1 -7 -7 178.53 10.62
-1 7 7 159.8 9.31
1 -7 -7 162.75 9.33
-1 7 6 250.92 11.27
1 -7 -6 251.16 11.99
1 -7 -6 245.66 10.83
1 -7 -5 -0.92 1.36
1 -7 -5 0.4 1.17
-1 7 5 0.65 1.01
1 -7 -4 322.66 12.41
1 -7 -4 312.39 10.73
-1 7 4 305.42 11.58
-1 7 3 290.31 10.74
1 -7 -3 281.74 9.28
1 -7 -3 279.76 11.12
-1 7 3 280.44 8.27
-1 7 2 83.36 5.28
1 -7 -2 71.71 4.04
1 -7 -2 65.77 5.11
-1 7 2 72.01 4.15
1 -7 -1 -0.67 1.23
-1 7 1 -0.65 1.04
1 -7 -1 0.07 0.6
-1 7 0 37.53 3.14
1 -7 0 30.8 1.75
-1 7 0 25.44 3.46
1 -7 0 30.48 3.35
-1 7 -1 4.7 1.75
-1 7 -1 3.83 1.01
1 -7 1 3.18 1.27
1 -7 1 4.61 0.76
1 -7 2 19.54 2.62
1 -7 2 19.32 1.44
-1 7 -2 21.41 2.05
-1 7 -2 18.07 2.95
1 -7 3 3.81 1.3
1 -7 3 5.05 1.36
-1 7 -3 3.46 0.82
-1 7 -3 6.22 1.96
1 -7 4 1.51 1.08
1 -7 4 0.2 0.9
-1 7 -4 -1.06 1.68
1 -7 5 250.88 9.57
1 -7 5 261.36 10.13
-1 7 -5 258.31 12.05
1 -7 6 1.91 1.09
1 -7 6 1.48 1.04
-1 7 -6 1.68 1.49
-1 7 -7 140.57 9.35
1 -7 7 137.65 8.13
1 -7 7 147.53 7.46
1 -7 8 175.96 9.8
-1 7 -8 180.42 11.07
1 -7 8 173.57 8.33
-1 7 -9 35.18 5.15
1 -7 9 36.09 3.87
1 -7 9 30.41 4.34
1 -6 -9 0.11 1.76
-1 6 9 0.81 1.54
1 -6 -8 4.75 1.81
-1 6 8 8.87 2.33
1 -6 -8 5.38 2.03
1 -6 -7 -2.11 1.87
-1 6 7 0.26 1.15
1 -6 -6 79.61 5.92
-1 6 6 91.65 6.34
1 -6 -6 89.29 6.72
-1 6 5 50.48 4.58
1 -6 -5 45.22 4.17
1 -6 -5 49.38 4.68
1 -6 -4 14.69 2.35
1 -6 -4 20.35 2.92
-1 6 4 24.39 3
-1 6 4 16.35 1.71
1 -6 -3 148.44 6.34
1 -6 -3 146.95 7.41
-1 6 3 148.55 5.38
-1 6 3 150.52 7.21
-1 6 2 377.82 11.18
1 -6 -2 350.96 9.39
-1 6 2 349.1 9.28
1 -6 -2 363.41 11.54
-1 6 1 70.24 4.29
1 -6 -1 69.83 4.67
1 -6 -1 70.16 3.32
-1 6 1 67.72 5.13
1 -6 0 19.04 2.38
1 -6 0 20.81 1.45
-1 6 0 21.17 2.24
-1 6 0 18.75 2.74
-1 6 -1 170.31 8.19
-1 6 -1 165.42 5.9
1 -6 1 178.44 7.24
1 -6 2 42.03 2.15
-1 6 -2 37.07 2.46
-1 6 -2 31.56 3.61
1 -6 2 40.59 3.34
-1 6 -3 6.97 0.97
1 -6 3 9.14 1.61
-1 6 -3 5.92 1.7
-1 6 -3 6.02 0.9
1 -6 3 7.42 1.01
1 -6 3 7.55 1.53
-1 6 -4 22.07 3.25
-1 6 -4 20.7 1.27
1 -6 4 21.79 2.62
1 -6 4 26.63 2.75
-1 6 -5 142.25 8.22
1 -6 5 146.6 7.22
1 -6 5 143.36 6.57
1 -6 6 78.37 5.57
1 -6 6 70.25 4.63
-1 6 -6 71.42 6.07
1 -6 7 182.64 7.79
-1 6 -7 191.52 10.43
1 -6 7 181.24 9.11
-1 6 -8 14.37 3.12
1 -6 8 12.6 2.09
1 -6 8 14.96 2.85
1 -6 9 30.79 4.22
1 -6 9 39.8 3.77
-1 6 -9 33.39 4.86
-1 6 -10 2.42 1.65
1 -6 10 3.94 1.98
-1 5 9 60.34 5.72
-1 5 9 52.86 5.19
1 -5 -9 45.99 5.37
-1 5 8 48.77 4.87
1 -5 -8 49.92 5.44
-1 5 8 52.71 5.12
1 -5 -8 58.79 5.69
1 -5 -7 1.89 1.39
1 -5 -7 4.51 1.89
-1 5 7 -0.07 1.22
-1 5 6 26.46 3.32
1 -5 -6 25.11 3.29
1 -5 -6 32.44 3.94
1 -5 -5 12.29 2.26
1 -5 -5 13.1 2.48
-1 5 5 11.45 1.24
-1 5 5 13.89 2.39
-1 5 4 31.33 2.13
1 -5 -4 33.4 3.46
1 -5 -4 38.16 3.37
-1 5 4 35.62 3.46
-1 5 3 12.9 2.05
-1 5 3 13.06 1.46
1 -5 -3 13.14 2.17
1 -5 -3 13.98 1.93
1 -5 -2 99.49 4.45
1 -5 -2 106.16 5.48
-1 5 2 102.6 4.25
-1 5 2 98.58 5.14
1 -5 -1 28.23 2.7
-1 5 1 24.89 2.91
1 -5 -1 28.78 2.06
-1 5 1 31.54 2.7
1 -5 0 1242.71 22.63
-1 5 0 1219.01 24.63
1 -5 0 1267.82 18.32
-1 5 0 1257.77 21.52
-1 5 -1 124.51 4.63
1 -5 1 126.78 5.51
-1 5 -1 125.01 6.34
-1 5 -2 847.71 19.21
1 -5 2 833.84 13.69
1 -5 2 827.2 16.74
-1 5 -2 843.14 14.29
1 -5 2 840.87 16.47
1 -5 3 203.57 7.09
-1 5 -3 213.38 4.93
1 -5 3 202.57 7.29
-1 5 -3 206.34 4.88
1 -5 3 209.46 5.57
-1 5 -3 212.92 8.87
1 -5 4 270.78 9.03
-1 5 -4 260.79 4.57
-1 5 -4 267.06 10.31
1 -5 4 276.26 8.46
1 -5 5 5.62 1.3
-1 5 -5 3.51 1.25
1 -5 5 2.29 1.03
-1 5 -5 3.38 0.68
-1 5 -6 14.81 1.55
1 -5 6 16.38 2.61
1 -5 6 14.52 1.99
-1 5 -6 13.74 2.54
1 -5 7 12.42 2.34
-1 5 -7 22.41 3.41
1 -5 7 14.59 2.04
-1 5 -7 15.82 1.85
1 -5 8 0.7 0.8
1 -5 8 0.44 1.34
-1 5 -8 1.25 0.88
-1 5 -9 89.09 7.41
1 -5 9 78.64 5.05
1 -5 9 96.12 7.19
1 -5 10 94.88 7.67
-1 5 -10 123.65 9.28
-1 5 -11 244.25 13.94
1 -5 11 231.05 12.65
1 -4 -10 7.15 2.65
-1 4 10 5.14 1.97
-1 4 10 6.57 2.01
-1 4 9 244 10.91
-1 4 9 236.51 11.59
1 -4 -9 253.6 12.24
-1 4 8 -0.28 1.17
-1 4 8 0.31 1.08
1 -4 -8 -0.32 1.3
1 -4 -7 203.94 9.64
1 -4 -7 201.64 10.02
-1 4 7 219.87 9.45
-1 4 6 199.93 5.4
-1 4 6 208.36 8.79
1 -4 -6 192.42 8.77
1 -4 -6 197.99 9.32
-1 4 5 629.46 15.87
1 -4 -5 629.34 15.96
-1 4 5 652.8 11.6
1 -4 -5 606.91 16.39
-1 4 4 9.32 1.83
-1 4 4 7.55 1.03
1 -4 -4 10.32 1.78
1 -4 -4 15.01 2.24
-1 4 3 374.25 10.5
-1 4 3 352.34 7.94
1 -4 -3 364.18 9.83
1 -4 -3 362.15 10.58
1 -4 -2 754.72 15.9
-1 4 2 756.48 13.52
1 -4 -2 749.73 14.4
-1 4 2 757.08 15.66
-1 4 1 1391.05 23.03
-1 4 1 1427.43 25.22
1 -4 -1 1376.44 23.56
-1 4 1 1342.02 20.6
1 -4 -1 1406.77 21.22
1 -4 0 33.33 1.66
-1 4 0 33.03 2.96
-1 4 0 30.55 2.2
-1 4 0 36.05 2.43
-1 4 0 31.91 1.49
1 -4 0 42.98 2.91
-1 4 -1 149.97 4.66
-1 4 -1 148.84 6.31
1 -4 1 148.99 5.41
-1 4 -1 147.39 5.13
-1 4 -2 84.39 2.99
1 -4 2 84.79 3.03
1 -4 2 82.07 3.97
-1 4 -2 87.56 4.93
1 -4 2 84.87 3.99
-1 4 -3 91.37 2.51
1 -4 3 88.67 4.07
-1 4 -3 84.63 2.44
-1 4 -3 91.28 5.19
1 -4 3 89.23 4.47
1 -4 3 90.38 3.43
-1 4 -4 1.74 0.49
-1 4 -4 3.01 1.27
1 -4 4 2.67 0.9
1 -4 4 2.71 0.96
-1 4 -5 78.35 3.28
1 -4 5 74.58 4.72
1 -4 5 75.89 3
-1 4 -5 86.03 5.48
1 -4 5 77.57 4.01
-1 4 -6 13.58 1.63
1 -4 6 16.05 1.88
-1 4 -6 14.43 2.52
1 -4 6 11.29 2.09
1 -4 7 189.81 8.87
-1 4 -7 190.92 9.41
1 -4 7 188.91 6.91
-1 4 -7 187.18 6.9
1 -4 8 26.25 3.55
-1 4 -8 29.64 3.02
-1 4 -8 26.89 3.85
1 -4 8 30.56 2.79
1 -4 9 33.79 4.19
1 -4 9 26.14 2.75
-1 4 -9 29.03 4.16
-1 4 -9 28.11 3.22
-1 4 -10 22.8 3.13
-1 4 -10 27.51 4.33
1 -4 10 28.81 4.14
-1 4 -11 13.66 3.28
1 -4 11 7.41 2.51
-1 4 -11 7.88 2.25
1 -3 -10 28.38 4.26
-1 3 10 28.08 4.34
-1 3 10 22.71 3.38
-1 3 9 34.41 4.33
1 -3 -9 29.95 4.09
-1 3 9 36.89 3.96
1 -3 -8 20.54 3.42
-1 3 8 16.73 2.69
-1 3 8 17.21 2.96
-1 3 7 130.76 6.87
1 -3 -7 145.35 7.9
-1 3 7 145.42 7.82
-1 3 6 193.73 5.49
1 -3 -6 176.56 8.49
-1 3 6 183.72 7.79
-1 3 6 173.35 5.33
1 -3 -6 176.68 5.47
1 -3 -6 180 8.24
-1 3 5 238.19 6.42
-1 3 5 248.2 6.16
1 -3 -5 241.67 8.92
-1 3 5 267.78 8.99
1 -3 -5 227.72 9.12
1 -3 -5 250.17 6.36
-1 3 4 465.82 9
-1 3 4 471.85 11.98
1 -3 -4 435.78 8.98
1 -3 -4 466 11.97
-1 3 4 434.06 9.58
1 -3 -4 452.41 12.34
1 -3 -3 141.49 5.99
-1 3 3 163.59 4.64
1 -3 -3 161.3 6.02
-1 3 3 158.41 5.15
1 -3 -2 206.53 6.19
-1 3 2 206.92 5.41
1 -3 -2 223.78 7
-1 3 2 214.6 6.18
-1 3 2 204.47 5.96
-1 3 1 591.34 11.82
-1 3 1 599.02 10.56
1 -3 -1 597.19 10.77
1 -3 -1 572.02 12.05
1 -3 0 5.37 0.7
1 -3 0 7.19 1.34
1 -3 0 6.08 1.08
-1 3 0 5.1 0.61
-1 3 0 4.49 1.18
-1 3 -1 95.6 3.65
-1 3 -1 95.29 3.74
1 -3 1 92.83 3.72
1 -3 1 92.8 4.38
-1 3 -1 94.41 4.41
1 -3 2 61.76 2.48
1 -3 2 60.7 2.91
-1 3 -2 63.6 2.18
-1 3 -2 61.47 3.17
-1 3 -2 57.68 2.82
-1 3 -2 67.07 3.8
1 -3 2 66.27 3.25
1 -3 3 39.22 2.36
-1 3 -3 38.23 2.12
-1 3 -3 38 1.15
1 -3 3 39.7 2.82
-1 3 -3 36.85 1.15
-1 3 -3 39.91 1.55
1 -3 3 42.72 2.29
-1 3 -3 45.94 3.38
-1 3 -4 42 3.41
1 -3 4 38.22 1.88
1 -3 4 32.94 2.23
-1 3 -4 35.64 1.99
1 -3 4 34.12 2.84
1 -3 5 207.55 5.67
1 -3 5 206.55 7.73
-1 3 -5 208.3 6.08
-1 3 -5 200.65 8.13
1 -3 5 211.75 6.22
1 -3 6 137.2 6.76
1 -3 6 154.84 5.43
-1 3 -6 138.37 5.46
-1 3 -6 151.19 7.34
1 -3 7 224.04 7.1
-1 3 -7 218.89 7.75
1 -3 7 244 9.77
-1 3 -8 378.37 11.54
1 -3 8 396.74 13.71
1 -3 8 387.27 10.23
1 -3 9 42.04 3.25
1 -3 9 50.18 4.99
-1 3 -9 47.2 4.2
-1 3 -10 88.9 6.18
1 -3 10 90.72 7.19
-1 3 -11 2.36 1.72
1 -3 11 1.72 1.47
1 -2 -11 219.96 12.26
-1 2 11 200.06 9.87
-1 2 11 197.59 11.76
1 -2 -10 58.78 5.98
-1 2 10 60.77 5.09
-1 2 10 71.03 6.57
-1 2 9 92.51 7.13
1 -2 -9 86.9 6.85
-1 2 9 103.04 6.36
1 -2 -8 33.45 4.06
-1 2 8 31.67 3.39
-1 2 8 25.68 3.54
1 -2 -7 10.87 1.27
1 -2 -7 9.35 2.39
-1 2 7 12.12 2.08
-1 2 7 8.6 2.05
-1 2 6 2.56 0.56
1 -2 -6 2.63 0.69
-1 2 6 4.27 0.97
-1 2 6 1.49 0.89
1 -2 -6 2.32 1.7
1 -2 -5 1.53 1.01
-1 2 5 2.66 0.65
1 -2 -5 1.96 0.63
1 -2 -5 2.69 0.65
1 -2 -5 0.64 1.04
-1 2 5 1.94 0.62
1 -2 -4 159.2 6.63
1 -2 -4 146.4 4.52
1 -2 -4 150.9 4.62
-1 2 4 152.93 4.53
-1 2 4 155.33 4.55
1 -2 -4 147.62 6.12
1 -2 -3 39.21 2.23
1 -2 -3 42.23 3.05
-1 2 3 40.1 2.09
-1 2 3 41.67 2.27
1 -2 -3 40.38 2.92
1 -2 -3 40.52 2.1
1 -2 -2 208.32 5.12
-1 2 2 218.37 6.2
-1 2 2 210.63 5.07
-1 2 2 208.19 5.87
1 -2 -2 225.22 6.58
1 -2 -2 221.81 6.12
-1 2 2 208.57 5.49
1 -2 -2 208.79 5.51
1 -2 -1 12.49 1.21
-1 2 1 12.55 1.14
1 -2 -1 10.34 1.33
-1 2 1 11.91 1.22
1 -2 -1 11.72 1.38
-1 2 1 12.24 1.27
-1 2 1 11.79 1.12
-1 2 0 3892.28 50.88
-1 2 0 3861.97 51.38
1 -2 0 3970.3 49.17
-1 2 0 3920.71 52.04
1 -2 0 3900.13 52.15
-1 2 0 3858.32 49.13
1 -2 0 3848.66 51.08
-1 2 -1 9873.38 122.31
1 -2 1 9999 122.46
1 -2 1 9709.61 123.93
-1 2 -1 9788.33 123.01
-1 2 -1 9669.39 123.87
1 -2 1 9724.59 122.95
-1 2 -2 804.45 12.86
-1 2 -2 804.34 14.04
-1 2 -2 786.93 10.97
1 -2 2 790.92 14.04
-1 2 -2 813.28 14.72
1 -2 2 814.05 12.86
1 -2 2 812.94 14.65
1 -2 2 822.17 12.72
1 -2 3 2069.9 30.99
-1 2 -3 2080.75 31.54
-1 2 -3 2035.91 31.1
-1 2 -3 2120.45 27.94
1 -2 3 2066.82 29.28
-1 2 -3 2062.55 29.17
1 -2 3 2056.29 28.64
-1 2 -4 1121.46 17.89
1 -2 4 1155.48 17.58
1 -2 4 1171.85 20.64
1 -2 4 1121.72 17.46
1 -2 5 19.91 2.39
-1 2 -5 19.14 1.86
1 -2 5 18.78 1.67
1 -2 5 15.36 0.67
1 -2 5 18.67 1.57
-1 2 -6 16.01 1.89
1 -2 6 15.12 2.2
1 -2 6 12.68 0.81
1 -2 7 179.44 8.17
1 -2 7 171.58 4.02
-1 2 -7 176.58 7.11
1 -2 8 333.47 12.23
1 -2 8 325.98 6.64
-1 2 -8 310.85 10.55
-1 2 -9 69.82 5.2
1 -2 9 75.5 6.03
1 -2 10 53.84 5.45
-1 2 -10 60.86 5.2
-1 2 -11 9.14 2.4
1 -2 11 6.89 2.45
1 -2 12 53.21 6.13
-1 2 -12 52.02 5.53
1 -1 -11 23.26 4.04
-1 1 11 20.17 3.84
-1 1 10 21.35 3.51
-1 1 10 24.94 3.08
1 -1 -10 20.23 3.52
-1 1 9 150.99 9.07
-1 1 9 162.17 7.64
1 -1 -9 152.78 8.93
-1 1 8 479.55 15.74
1 -1 -8 441.79 14.83
-1 1 8 471.07 13.22
1 -1 -7 2.37 1.47
-1 1 7 6.67 1.48
-1 1 7 4.25 1.52
1 -1 -7 4.63 0.88
-1 1 6 146.85 7.23
1 -1 -6 144.06 4.66
1 -1 -6 151.42 7.19
1 -1 -5 352.42 7.69
1 -1 -5 329.67 8.18
1 -1 -5 356.91 10.51
-1 1 5 348.64 8.18
-1 1 4 3.54 0.79
-1 1 4 4.49 0.76
1 -1 -4 5.03 0.82
1 -1 -4 1.76 1.19
1 -1 -4 3.94 0.79
-1 1 3 400.51 7.77
-1 1 3 405.16 9.74
1 -1 -3 391.99 10.03
1 -1 -3 398.27 7.88
-1 1 3 413.3 8.05
1 -1 -3 386.29 8.02
1 -1 -3 419.73 9.75
1 -1 -2 342.59 6.84
-1 1 2 346.47 6.85
1 -1 -2 337.02 8.38
1 -1 -2 358.58 7.02
1 -1 -2 356.07 8.04
-1 1 2 360.4 7.93
-1 1 2 350.89 8.14
-1 1 2 355.07 6.99
-1 1 1 1594.42 21.76
1 -1 -1 1556.42 22.27
1 -1 -1 1549.54 22.02
1 -1 -1 1548.11 21.79
1 -1 -1 1549.85 22.98
-1 1 1 1574.4 22.8
-1 1 1 1577.17 22.19
-1 1 1 1563.13 22.01
-1 1 0 2336.98 31.27
-1 1 0 2370.63 30.31
1 -1 0 2339.19 31.21
-1 1 0 2347.85 31.12
1 -1 0 2319.08 31.3
-1 1 0 2368.74 31.12
-1 1 0 2304.56 31.35
1 -1 0 2300.75 31.28
1 -1 0 2330.15 30.43
-1 1 -1 1668.43 23.02
-1 1 -1 1649.5 22.04
1 -1 1 1640.43 23.09
-1 1 -1 1664.92 23.13
-1 1 -1 1655.34 22.92
1 -1 1 1618.11 22.93
1 -1 1 1653.63 22.05
-1 1 -2 0.6 0.5
-1 1 -2 1.03 0.23
1 -1 2 1.38 0.5
-1 1 -2 1.29 0.47
-1 1 -2 -0.02 0.51
-1 1 -2 0.96 0.29
-1 1 -2 0.85 0.31
1 -1 2 0.4 0.29
1 -1 2 0.91 0.57
-1 1 -3 373.22 8.61
1 -1 3 360.78 6.43
-1 1 -3 363.02 5.71
1 -1 3 381.5 7.84
-1 1 -3 375.99 7.78
1 -1 3 371.77 8.51
-1 1 -3 377.93 5.7
1 -1 3 372.33 5.64
-1 1 -3 363.05 7.17
1 -1 4 2.47 0.93
-1 1 -4 3.95 0.87
-1 1 -4 1.67 0.37
1 -1 4 2.2 0.39
1 -1 4 1.74 0.6
-1 1 -5 42.69 2.82
1 -1 5 42.77 1.82
1 -1 5 50.38 3.49
1 -1 5 47.46 1.89
1 -1 6 75.07 4.69
-1 1 -6 67.21 3.98
1 -1 6 63.43 2.55
1 -1 6 70.36 2.69
1 -1 7 58.56 2.7
1 -1 7 57.72 2.67
1 -1 7 65.19 4.75
-1 1 -7 64.29 4.23
-1 1 -8 10.77 2.05
1 -1 8 12.35 2.37
1 -1 8 9.58 1.21
-1 1 -9 1.13 1.26
1 -1 9 -0.3 0.59
1 -1 9 0.05 1.02
-1 1 -10 33.17 4
1 -1 10 40.43 4.68
-1 1 -11 -1.45 1.43
1 -1 11 0.69 1.5
-1 1 -12 7.06 2.42
1 -1 12 1.79 1.54
1 0 -11 2.11 1.66
-1 0 11 7.88 2.51
-1 0 10 14.51 3.21
-1 0 10 13.56 2.24
1 0 -10 10.48 2.62
-1 0 9 98.42 7.27
-1 0 9 108.4 5.85
1 0 -9 106.56 7.3
-1 0 8 170.61 9.08
1 0 -8 166.33 5.52
-1 0 8 172.01 7.13
1 0 -8 160.17 8.41
-1 0 7 110.84 6.76
1 0 -7 121.86 6.77
1 0 -7 109.21 4.28
-1 0 6 30.85 3.32
1 0 -6 33.02 2.19
1 0 -6 31 3.27
1 0 -5 638.53 11.8
-1 0 5 626.45 15.29
-1 0 5 651.53 12.88
1 0 -5 653.11 14.92
-1 0 4 172.57 5.26
1 0 -4 166.38 4.71
1 0 -4 170.89 6.35
1 0 -4 169.89 5.28
1 0 -3 770.78 13.23
-1 0 3 746.92 15.09
-1 0 3 770.04 12.52
-1 0 3 768.81 14.47
1 0 -3 756.04 14.52
1 0 -3 783.78 12.62
-1 0 3 786.5 13.22
-1 0 2 574.18 11.73
-1 0 2 604.73 9.93
1 0 -2 615.31 10.35
1 0 -2 585.54 9.95
-1 0 2 596.55 11.11
-1 0 2 602.27 10.26
1 0 -2 597.84 11.16
1 0 -1 384.23 7.07
-1 0 1 390.53 7.02
-1 0 1 401.19 6.98
1 0 -1 392.58 7.37
-1 0 1 386.96 8.01
1 0 -1 394.11 6.96
-1 0 1 384.34 7.36
-1 0 -2 3276.7 43.17
-1 0 -2 3356.06 43.19
-1 0 -2 3510.87 44.41
1 0 2 3515.09 44.78
1 0 2 3435.07 43.16
-1 0 -2 3458.7 43.22
-1 0 -2 3470.42 44.85
1 0 2 3415.37 43.16
1 0 2 3477.98 44.45
1 0 3 1.53 0.83
-1 0 -3 0.17 0.29
-1 0 -3 0.7 0.48
-1 0 -3 0.92 0.31
-1 0 -3 0.48 0.48
1 0 3 0.45 0.27
-1 0 -3 -0.32 0.52
1 0 3 0.71 0.35
-1 0 -4 22.1 1.47
-1 0 -4 22.05 2.01
1 0 4 28.08 1.99
1 0 4 20.95 1.37
-1 0 -4 19.15 1.72
1 0 4 22.46 2.07
1 0 4 21.63 1.39
-1 0 -5 2108.29 32.56
1 0 5 2146.77 29.86
1 0 5 2148.29 29.89
1 0 5 2177.68 33.66
1 0 5 2108.19 30.74
1 0 6 16.03 1.69
1 0 6 15.19 1.44
-1 0 -6 17.11 2.1
1 0 6 18.47 2.32
1 0 6 15.31 1.49
-1 0 -7 635.14 15.5
1 0 7 650.27 12.72
1 0 7 613.16 13.65
1 0 7 654.77 16.44
-1 0 -7 648.1 10.16
-1 0 -8 18.32 2.68
-1 0 -8 18.6 1.16
1 0 8 19.86 1.97
1 0 8 23.09 3.06
1 0 9 230.55 10.37
1 0 9 221.17 7.28
-1 0 -9 223.39 9.85
1 0 10 5.57 1.18
-1 0 -10 6.68 2.18
1 0 10 4.45 1.73
1 0 11 56.82 5.79
-1 0 -11 55.64 5.58
1 0 12 44.03 5.43
-1 0 -12 41.24 5.08
1 1 -11 13.93 3.14
-1 -1 11 17.56 3.68
-1 -1 10 36.71 4.79
1 1 -10 26.91 3.93
-1 -1 9 59.62 5.71
1 1 -9 48.38 4.91
-1 -1 9 61.96 4.14
-1 -1 8 574.21 13.48
1 1 -8 578.95 12.5
1 1 -8 565.96 16.49
-1 -1 8 580.22 17.64
1 1 -7 197.85 8.57
1 1 -7 193.47 6.23
-1 -1 7 171.86 8.58
1 1 -6 2.86 0.81
1 1 -6 2.84 1.2
-1 -1 6 3.58 1.34
1 1 -5 41.12 3.3
1 1 -5 37.96 2.37
-1 -1 5 38.9 3.41
-1 -1 4 137.72 5.95
1 1 -4 144.64 5.58
1 1 -4 133.23 4.39
-1 -1 3 41.18 2.41
1 1 -3 42.82 2.67
1 1 -3 44.34 2.27
1 1 -3 45.66 2.53
-1 -1 3 46.68 2.77
1 1 -2 1648.72 23.86
1 1 -2 1618.37 23.62
-1 -1 2 1638.74 23.63
-1 -1 2 1610.38 23.94
-1 -1 1 272.46 5.82
1 1 -1 268.41 5.7
1 1 -1 274.15 5.8
-1 -1 1 281.9 5.77
-1 -1 0 7.72 0.73
1 1 0 5.96 0.63
-1 -1 0 6.74 0.55
-1 -1 -1 76.02 1.99
-1 -1 -1 81.36 1.96
1 1 1 82.32 2.19
-1 -1 -1 83.04 1.91
1 1 1 82.77 2.38
-1 -1 -1 80.27 2.38
1 1 2 43.28 1.23
1 1 2 42.32 1.85
-1 -1 -2 43.68 1.82
-1 -1 -2 45.29 1.96
1 1 2 48.67 1.87
-1 -1 -2 43.43 1.9
-1 -1 -2 47.06 1.29
-1 -1 -2 42.92 1.9
1 1 2 46.02 1.28
-1 -1 -2 46.09 1.39
1 1 2 39.97 1.81
-1 -1 -3 4.71 0.8
1 1 3 5.09 0.53
-1 -1 -3 4.9 0.91
-1 -1 -3 5.23 0.76
-1 -1 -3 5.57 0.87
1 1 3 4.22 0.71
1 1 3 4.1 0.68
-1 -1 -3 5.25 0.61
1 1 3 4.79 0.82
-1 -1 -4 52.71 2.99
1 1 4 49.01 2.46
-1 -1 -4 59.72 3.15
1 1 4 51.21 2.53
1 1 4 50.49 2.05
1 1 4 49.92 2.9
-1 -1 -4 54.36 2.68
1 1 5 34.93 1.99
1 1 5 32.33 2.68
1 1 5 35.02 2.29
-1 -1 -5 34.58 2.78
-1 -1 -6 20.91 1.56
1 1 6 18.71 1.69
-1 -1 -6 19.09 2.32
1 1 6 22.03 2.48
1 1 6 17.75 1.78
-1 -1 -7 166.47 5.23
1 1 7 182.7 7.81
-1 -1 -7 177.18 7.63
1 1 7 173.1 6.18
1 1 8 350.12 9.65
1 1 8 312.75 11.46
-1 -1 -8 330.47 11.54
1 1 9 80.09 4.6
-1 -1 -9 84.01 6.05
1 1 9 83.11 6.11
1 1 10 223.41 10.74
1 1 10 223.21 8.29
-1 -1 -10 220.48 10.72
1 1 11 -0.82 1.14
-1 -1 -11 1.08 1.73
1 1 12 33.21 4.69
-1 -1 -12 34.44 4.82
1 2 -11 10.92 3.06
-1 -2 11 8.82 2.79
1 2 -10 42.32 4.75
-1 -2 10 37.02 4.85
1 2 -9 18.03 2.93
1 2 -9 16.18 2.03
-1 -2 9 13.9 2.92
-1 -2 8 169.04 9.12
-1 -2 8 162.03 6.02
1 2 -8 162.16 6.3
1 2 -8 161.87 8.16
-1 -2 7 447.27 14.51
1 2 -7 446.64 13.27
1 2 -7 464.34 11.19
1 2 -6 49.74 3.11
1 2 -6 45.19 3.71
-1 -2 6 49.71 4.24
1 2 -5 9.44 1.63
-1 -2 5 10.78 1.95
-1 -2 4 71.85 4.26
1 2 -4 72.11 3.81
-1 -2 3 42.64 2.66
1 2 -3 42.27 2.58
-1 -2 3 44.54 2.97
1 2 -2 152.38 4.74
-1 -2 2 155.88 4.98
-1 -2 2 144.79 3.56
1 2 -2 146.32 4.44
-1 -2 2 143.29 4.39
-1 -2 1 2333.34 31.3
1 2 -1 2278.13 31.68
-1 -2 1 2310.46 31.97
-1 -2 1 2300.23 31.2
-1 -2 1 2264.66 30.26
1 2 -1 2287.19 30.27
1 2 -1 2310.91 32.04
-1 -2 1 2322.51 31.69
-1 -2 0 1274.34 18.34
1 2 0 1274.83 17.95
-1 -2 0 1283.71 18.16
1 2 0 1273.63 18.8
-1 -2 0 1262.93 18.01
-1 -2 0 1268.74 18.77
1 2 0 1249.85 18.14
-1 -2 -1 4058.1 52.85
1 2 1 4079.5 52.29
-1 -2 -1 4221.68 51.54
-1 -2 -1 4088.98 52.23
1 2 1 4265.36 51.37
-1 -2 -1 3993.93 51.3
1 2 1 4053.33 52.85
1 2 1 4197.56 53.44
-1 -2 -1 4086.62 53.48
-1 -2 -1 4132.85 52.89
1 2 1 4119.58 51.54
1 2 1 4024.25 52.77
1 2 2 89.16 2.34
1 2 2 84.97 2.61
1 2 2 84.32 3.12
1 2 2 82.54 3.12
-1 -2 -2 90.38 3.26
-1 -2 -2 85.2 3.17
-1 -2 -2 91.22 2.88
-1 -2 -2 88.3 2.64
1 2 3 65.92 2.64
1 2 3 62.33 2.29
-1 -2 -3 63.54 3.05
-1 -2 -3 59.82 2.38
1 2 3 59.44 2.87
-1 -2 -3 62.81 2.97
1 2 3 64.03 2.93
-1 -2 -4 7.51 1.38
1 2 4 9.95 1.28
-1 -2 -4 8.9 1.1
1 2 4 9.39 0.98
1 2 4 11.32 1.43
-1 -2 -5 3.4 0.44
-1 -2 -5 3.27 0.87
1 2 5 2.63 0.63
1 2 5 1.84 0.79
-1 -2 -5 3.63 1.14
1 2 5 2.69 1.02
-1 -2 -6 156.23 3.95
1 2 6 171.41 6.22
-1 -2 -6 179.45 7.2
1 2 6 164.56 5.23
1 2 6 168.87 6.75
-1 -2 -7 7.55 1.73
1 2 7 9.64 1.58
1 2 7 7.47 1.61
-1 -2 -7 9.61 0.99
1 2 8 32.79 3.54
-1 -2 -8 38.54 3.95
1 2 8 41.13 3.36
1 2 9 1.12 0.84
-1 -2 -9 -0.22 1.37
1 2 9 -0.73 1.49
1 2 10 115.88 7.54
1 2 10 100.38 5.9
-1 -2 -10 109.16 7.57
1 2 11 30.48 3.37
1 2 11 31.19 4.24
-1 -2 -11 29.37 4.2
1 2 12 99.84 8.01
-1 -2 -12 100.61 8.25
1 3 -11 -0.04 1.29
-1 -3 11 2.66 1.85
1 3 -10 90.35 6.81
-1 -3 10 105.65 8.15
-1 -3 9 3.12 1.58
1 3 -9 3.69 1.12
1 3 -9 3.79 1.7
1 3 -8 984.12 19.62
1 3 -8 918.93 21.77
-1 -3 8 967.5 24.28
-1 -3 7 407.73 13.84
1 3 -7 428.5 12.68
1 3 -6 280.03 9.3
-1 -3 6 278.08 10.39
1 3 -5 359.32 9.84
-1 -3 5 350.78 11
-1 -3 4 37.8 3.12
1 3 -4 38.7 2.74
-1 -3 4 39.06 1.83
-1 -3 3 409.22 7.29
1 3 -3 411.98 10.65
-1 -3 3 405.56 10.06
1 3 -3 398.2 8.94
-1 -3 3 389.63 9.08
-1 -3 2 5.98 1.15
-1 -3 2 3.21 0.55
1 3 -2 3.98 1.15
-1 -3 2 4.14 0.84
1 3 -1 17.51 1.23
1 3 -1 20.63 1.68
-1 -3 1 19.5 1.42
-1 -3 1 18.21 1.27
-1 -3 1 19.83 1.66
-1 -3 1 16.19 1.68
-1 -3 1 19.88 1.32
1 3 -1 19.18 1.86
1 3 0 8.79 1.23
-1 -3 0 8.14 1.15
1 3 0 8.3 0.93
-1 -3 0 9.65 1.12
1 3 0 7.84 0.92
-1 -3 0 6.68 0.87
-1 -3 0 8.9 1.03
-1 -3 0 8.85 0.65
-1 -3 -1 35.11 2.41
1 3 1 31.48 1.96
1 3 1 34.77 1.99
-1 -3 -1 33.35 1.26
-1 -3 -1 36.89 2.04
-1 -3 -1 35.2 2.08
1 3 1 34.74 1.67
1 3 1 37.32 2.08
1 3 1 31.86 2.31
-1 -3 -1 33.19 2.04
1 3 2 105.55 3.6
1 3 2 103.73 3.98
-1 -3 -2 109.24 3.66
1 3 2 110.59 4.03
-1 -3 -2 110.38 4.55
1 3 2 106.23 2.5
1 3 2 106.55 2.39
-1 -3 -3 98.72 4.14
1 3 3 105.59 3.25
1 3 3 96.82 3.51
-1 -3 -3 102.04 3.69
1 3 3 99.14 4.15
1 3 4 121.07 4.12
-1 -3 -4 118.84 4.39
1 3 4 118.12 4.92
1 3 4 116.22 4.26
-1 -3 -4 121.14 5.07
-1 -3 -5 24.38 2.12
1 3 5 20.57 2.22
1 3 5 20.65 0.93
1 3 5 23.13 2.14
-1 -3 -5 24.93 2.58
-1 -3 -6 936.68 18.4
1 3 6 947.68 18.84
1 3 6 956.79 18.9
-1 -3 -6 934.9 20.02
-1 -3 -7 50.67 4.24
1 3 7 44.16 3.52
-1 -3 -7 40.65 3.34
1 3 7 39.84 3.47
1 3 8 220.14 9.16
1 3 8 221.97 8.62
-1 -3 -8 239.66 10.19
-1 -3 -9 1.94 1.65
1 3 9 2.03 1.25
1 3 9 3.75 1.36
-1 -3 -10 14.62 3.14
1 3 10 14.32 2.36
1 3 10 12.24 2.53
1 3 11 -0.48 1.23
1 3 11 1.02 1.14
-1 -3 -11 -1.74 2.16
1 4 -11 15.66 3.12
-1 -4 11 15.63 3.57
1 4 -10 17.91 3.15
-1 -4 10 25.49 4.07
-1 -4 9 32.8 4.38
1 4 -9 24.08 3.41
1 4 -9 25.45 2.94
-1 -4 8 209.69 10.35
1 4 -8 223.04 9.37
1 4 -7 394.41 11.97
1 4 -7 402.77 14.45
-1 -4 7 365.13 13.16
1 4 -6 919.58 22.1
-1 -4 6 899.17 21.08
1 4 -6 902.23 18.83
1 4 -5 83.96 5.56
-1 -4 5 80.1 5.08
1 4 -5 75.16 4.17
-1 -4 5 80.84 2.67
1 4 -4 3.93 1.35
1 4 -4 1.73 0.77
-1 -4 4 1.68 0.41
-1 -4 4 2.66 1.02
-1 -4 3 81.53 4.15
-1 -4 3 87.38 2.88
-1 -4 3 79.51 4.17
1 4 -3 85.56 4.92
-1 -4 3 87.18 3.72
1 4 -2 100.12 4.22
-1 -4 2 105.07 4.53
1 4 -2 105.74 3.36
-1 -4 2 104.1 3.35
-1 -4 2 108.23 3.81
1 4 -2 95.85 4.98
-1 -4 2 105.27 3.36
-1 -4 2 107.88 4.21
-1 -4 1 8.55 1.01
1 4 -1 7.08 0.95
-1 -4 1 9.4 1.44
-1 -4 1 8.33 1.01
1 4 -1 7.65 1
-1 -4 1 9.47 1.09
1 4 -1 7.86 1.51
-1 -4 0 497.65 7.9
1 4 0 477.73 9.88
-1 -4 0 505.47 10.57
-1 -4 0 481.77 9.85
-1 -4 0 465.5 9.7
1 4 0 489.6 8.07
1 4 0 488 9.73
1 4 0 499.66 11.65
1 4 1 87.35 3.68
1 4 1 78.88 3.05
-1 -4 -1 84.56 3.65
-1 -4 -1 81.68 2.13
1 4 1 84.67 4.36
-1 -4 -2 361.88 8.47
1 4 2 343.89 6.61
1 4 2 377.02 8.94
-1 -4 -2 362.16 8.24
1 4 3 2.42 0.87
-1 -4 -3 4.16 1.01
-1 -4 -3 4.37 0.96
1 4 3 4.19 0.65
1 4 3 4.65 0.45
1 4 4 69.63 3.11
-1 -4 -4 68.11 3.63
1 4 4 74.71 4.13
-1 -4 -4 63.78 3.82
1 4 5 23.23 1.5
-1 -4 -5 27.37 2.78
1 4 5 20.18 2.28
-1 -4 -5 21.3 2.2
1 4 5 23.98 2.11
1 4 6 71.74 2.25
-1 -4 -6 72.8 4.87
-1 -4 -6 79.67 4.56
1 4 6 79.82 4.37
1 4 6 75.86 4.65
-1 -4 -7 66.7 5.05
-1 -4 -7 61 4.37
1 4 7 68.08 4.69
1 4 7 66.45 4.43
-1 -4 -8 75.2 5.23
1 4 8 82.02 5.4
1 4 8 76.27 5.23
-1 -4 -8 83.97 6.08
1 4 9 397.32 13.56
1 4 9 428.55 13.64
-1 -4 -9 421.2 15.17
-1 -4 -10 21.58 3.7
1 4 10 13.27 2.51
1 4 10 15.82 2.75
1 4 11 3.62 1.35
-1 -4 -11 2.04 2
1 4 11 1.98 1.26
-1 -5 10 4.67 2.16
1 5 -10 5.94 2.33
-1 -5 10 5.94 1.62
1 5 -10 5.54 1.87
-1 -5 9 3.45 1.79
1 5 -9 7.55 2.16
1 5 -9 2.95 1.93
-1 -5 8 -0.32 1.23
1 5 -8 0.93 1.13
1 5 -8 1.91 1.74
1 5 -7 1.28 1.03
1 5 -7 3.77 1.33
-1 -5 6 147.87 7.7
1 5 -6 168.71 6.82
-1 -5 6 171.59 7.38
1 5 -6 161.29 8.79
-1 -5 5 46.99 3.67
-1 -5 5 45.33 1.94
-1 -5 5 49.05 4.06
-1 -5 5 48.08 1.99
1 5 -5 48.46 4.53
1 5 -4 367.2 8.18
-1 -5 4 372.63 10.66
-1 -5 4 386.22 7.35
1 5 -4 380.59 12.43
-1 -5 4 365.57 7.24
-1 -5 4 391.8 11.07
-1 -5 3 401.41 7.91
-1 -5 3 384.11 7.86
-1 -5 3 401.44 10.27
1 5 -3 393.84 7.83
-1 -5 3 365.64 8.76
-1 -5 3 406.3 10.75
1 5 -3 389.37 7.33
1 5 -3 393.54 12.18
1 5 -2 601.25 12.59
-1 -5 2 610.05 11.37
-1 -5 2 625.7 13.7
-1 -5 2 618.36 11.32
-1 -5 2 604.22 11.21
1 5 -2 611.1 11.1
1 5 -2 606.24 8.63
1 5 -2 584.15 15.08
-1 -5 2 617.68 12.37
-1 -5 1 112.02 3.85
-1 -5 1 111.11 4.98
1 5 -1 123.02 5.98
1 5 -1 111.87 3.97
1 5 -1 113.36 4.12
1 5 0 1294.75 18.44
-1 -5 0 1276.33 18.29
1 5 0 1274.73 20.83
-1 -5 0 1292.4 22.06
1 5 0 1265.59 23.86
1 5 1 263.33 4.54
-1 -5 -1 271.8 7.85
1 5 1 288.27 7.79
1 5 1 277.75 6.91
1 5 1 266.63 9.11
-1 -5 -1 271.21 4.67
1 5 2 1689.21 26.71
1 5 2 1661.25 23.48
-1 -5 -2 1673.16 26.42
-1 -5 -2 1746.3 25.44
-1 -5 -3 5.06 1.16
1 5 3 4.37 0.58
-1 -5 -3 4.46 1.08
1 5 3 4.41 0.62
1 5 3 3.68 1.05
1 5 4 -0.01 0.38
1 5 4 0.83 0.76
-1 -5 -4 1.16 0.83
-1 -5 -4 -0.1 0.71
1 5 5 11.82 1.34
1 5 5 11.46 1.45
-1 -5 -5 11.17 1.77
-1 -5 -5 12.4 2.02
1 5 5 13.88 2.12
1 5 6 204.39 7.13
-1 -5 -6 215.2 8.2
-1 -5 -6 189.01 8.37
1 5 6 194.99 8.18
1 5 7 200.08 7.74
-1 -5 -7 180.81 8.12
-1 -5 -7 187.28 8.87
1 5 7 184.75 8.36
-1 -5 -8 13.43 2.44
-1 -5 -8 20.14 3.2
1 5 8 14.09 2.39
1 5 8 16.74 2.47
1 5 9 -1.6 1.45
1 5 9 -0.22 0.88
-1 -5 -9 1.41 1.54
-1 -5 -9 0.15 1
-1 -5 -10 6.72 2.21
1 5 10 8.01 2.04
-1 -6 10 4.5 1.64
-1 -6 10 1.42 1.05
1 6 -10 0.7 1.32
1 6 -9 17.11 3.7
-1 -6 9 14.12 2.46
-1 -6 9 14.46 3.07
-1 -6 8 154.3 9.09
1 6 -8 162.47 10.32
-1 -6 8 145.9 7.72
-1 -6 7 22.93 3
1 6 -7 21.07 3.56
-1 -6 7 20.37 3.17
-1 -6 6 2.63 1.34
-1 -6 6 3.65 1.55
1 6 -6 3.94 1.5
-1 -6 5 15.42 2.32
1 6 -5 12.96 2.68
-1 -6 5 17.17 2.48
-1 -6 4 55.22 3.97
-1 -6 4 55.53 4.07
1 6 -4 51.99 2.43
1 6 -4 52.73 4.8
1 6 -3 4.18 1.68
-1 -6 3 3.37 0.81
-1 -6 3 3.49 1.17
-1 -6 3 2.86 0.86
-1 -6 3 3.17 0.74
1 6 -3 4.46 0.83
-1 -6 2 3.44 0.77
-1 -6 2 4.86 1.25
-1 -6 2 4.86 1
1 6 -2 4.3 0.88
1 6 -2 4.44 1.51
-1 -6 1 13.43 1.89
1 6 -1 10.27 1.25
1 6 -1 11.31 2.08
1 6 -1 11.88 1.44
-1 -6 1 10.8 1.22
1 6 0 19.38 1.37
-1 -6 0 21.92 2.34
1 6 0 15.07 2.39
1 6 0 19.61 1.96
1 6 1 470.67 7.54
-1 -6 -1 513.42 10.22
-1 -6 -1 500.8 12.24
1 6 1 511.04 14.2
1 6 1 486.3 11.55
-1 -6 -2 1.55 0.76
-1 -6 -2 3.07 0.57
1 6 2 3.76 0.78
-1 -6 -2 3.42 0.99
1 6 2 2.9 0.33
1 6 2 3.68 1.08
1 6 3 173.71 4.71
1 6 3 189.92 7.33
1 6 3 170.77 3.85
-1 -6 -3 182.31 6.64
1 6 3 179.4 4.07
-1 -6 -3 192.61 7.24
-1 -6 -4 120.44 5.92
1 6 4 127.67 4.06
-1 -6 -4 128.34 5.97
1 6 4 124.46 6.23
1 6 4 125.86 3.05
1 6 5 102.11 4.21
-1 -6 -5 104.11 5.8
1 6 5 102.74 5.91
-1 -6 -5 116.81 6.08
1 6 6 278.65 10.55
-1 -6 -6 289.45 10.83
-1 -6 -6 307.61 10.69
1 6 6 307.86 8.75
-1 -6 -7 -0.24 1.22
1 6 7 0.94 0.9
-1 -6 -7 0.1 0.9
-1 -6 -8 55.6 5.08
-1 -6 -8 59.65 5.52
1 6 8 57.71 5.06
1 6 9 49.31 4.85
-1 -6 -9 57 5.71
-1 -6 -9 44.56 4.84
-1 -6 -10 43.13 5.33
1 6 10 44 4.81
-1 -7 9 4.65 1.99
1 7 -9 6.03 2.21
1 7 -8 10.86 3.16
-1 -7 8 10.13 2.5
-1 -7 8 9.83 2.21
-1 -7 7 79.54 6.19
-1 -7 7 77.05 5.65
1 7 -7 63.46 6.43
-1 -7 6 432.51 14.23
1 7 -6 463.33 17.01
1 7 -5 598.09 18.75
-1 -7 5 580.91 15.62
-1 -7 5 550.66 15.57
-1 -7 4 93.63 5.77
-1 -7 4 108.98 5.75
1 7 -4 99.93 7
-1 -7 3 28.45 3.08
-1 -7 3 23.59 2.46
1 7 -3 23.02 1.89
1 7 -3 22.41 3.31
1 7 -2 0.18 0.53
-1 -7 2 -0.36 0.54
1 7 -2 0.12 1.12
-1 -7 2 0.73 1.09
1 7 -1 25.87 3.23
-1 -7 1 28.36 2.1
-1 -7 1 27.86 2.92
1 7 -1 28.46 2.39
1 7 0 45.07 3.2
-1 -7 0 44 3.64
-1 -7 0 42.17 2.43
1 7 0 40.58 4.14
1 7 1 30.46 2.82
-1 -7 -1 30 3.06
1 7 1 30.43 3.57
-1 -7 -1 29.15 2.23
1 7 2 5.89 1.47
-1 -7 -2 7.47 1.33
-1 -7 -2 8.22 1.76
-1 -7 -3 24.61 2.78
-1 -7 -3 24.97 2.5
1 7 3 28.19 3
-1 -7 -4 79.87 4.89
-1 -7 -4 77.07 5.13
1 7 4 74.78 5.06
-1 -7 -5 8.69 1.87
-1 -7 -5 8.13 1.73
1 7 5 8.9 2.09
-1 -7 -6 465.4 14.47
-1 -7 -6 445.7 14.23
1 7 6 468.06 14.7
-1 -7 -7 38.92 4.23
1 7 7 45.25 4.54
-1 -7 -7 42.03 4.48
-1 -7 -8 121.39 7.93
1 7 8 115.5 7.58
-1 -7 -8 112.27 7.78
-1 -7 -9 43.45 5.2
1 7 9 52.27 5.29
-1 -8 8 2.98 1.64
-1 -8 8 2.08 1.49
1 8 -8 2.3 1.74
-1 -8 7 41.65 4.43
-1 -8 7 40.3 4.53
1 8 -7 41.89 5.51
1 8 -6 0.92 1.63
-1 -8 6 4.05 1.63
-1 -8 6 4.04 1.47
1 8 -5 1.29 1.42
-1 -8 5 -0.64 1.07
-1 -8 5 -0.65 1.09
1 8 -4 14.36 3.03
-1 -8 4 14.07 2.51
-1 -8 4 12.74 2.08
-1 -8 3 198.11 8.82
1 8 -3 199.65 6.34
1 8 -3 193.97 10.25
-1 -8 3 189.57 7.24
1 8 -2 8.71 2.3
-1 -8 2 10.61 2.1
-1 -8 2 8.03 1.36
1 8 -2 11.13 1.55
-1 -8 1 143.62 7.31
1 8 -1 153.05 6.17
1 8 -1 137.57 8.31
-1 -8 0 96.08 5.85
1 8 0 88.98 4.91
1 8 0 103.82 7.12
-1 -8 0 88.85 3.77
-1 -8 -1 74.86 3.77
-1 -8 -1 79.79 5.34
1 8 1 71.01 4.6
1 8 1 86.06 6.46
-1 -8 -2 136.26 7.08
1 8 2 142.46 6.88
-1 -8 -2 131.05 5.63
-1 -8 -3 77.61 5.39
-1 -8 -3 71.51 4.45
1 8 3 73.32 5.14
1 8 4 31.24 3.54
-1 -8 -4 23.47 2.88
-1 -8 -4 27.81 3.34
1 8 5 36.21 3.98
-1 -8 -5 30.1 3.67
-1 -8 -5 29.09 3.42
-1 -8 -6 -0.19 1.32
-1 -8 -6 0.22 0.97
1 8 6 0.14 0.91
-1 -8 -7 271.02 11.97
1 8 7 260.31 11.62
-1 -8 -7 235.96 11.12
-1 -8 -8 112.49 8.07
1 8 8 127.93 8.37
-1 -8 -8 119.33 8.19
-1 -9 7 117.87 7.84
1 9 -7 118.12 9.6
-1 -9 7 110.34 7.55
1 9 -6 2.76 2.03
-1 -9 6 2.77 1.48
-1 -9 6 -0.29 1.05
-1 -9 5 63.07 5.41
1 9 -5 55.21 6.14
-1 -9 4 0.05 1.07
1 9 -4 0.17 1.61
1 9 -3 44.51 5.22
-1 -9 3 38.09 4.06
1 9 -2 13.24 3.07
1 9 -2 12.21 1.78
-1 -9 2 10.03 2.27
-1 -9 1 3.79 1.5
1 9 -1 6.21 1.41
1 9 -1 3.21 1.6
1 9 0 31.45 3.12
-1 -9 0 31.15 3.64
1 9 0 27.89 3.95
1 9 1 2.26 1.39
1 9 1 2.63 1.21
-1 -9 -1 3.29 1.47
-1 -9 -2 94.59 6.31
1 9 2 90.31 5.8
-1 -9 -3 116.52 7.16
1 9 3 119.21 6.93
-1 -9 -4 21.63 3.19
-1 -9 -4 19.47 2.61
1 9 4 20.88 3.03
-1 -9 -5 23.65 3.16
-1 -9 -5 25.58 3.62
1 9 5 28.78 3.74
1 9 6 0.14 1.21
-1 -9 -6 0.53 1.2
-1 -9 -6 -1.26 1.52
-1 -9 -7 1 1.31
-1 -9 -7 4.29 1.85
1 9 7 0.95 1.16
1 10 -5 140.99 10.37
-1 -10 5 146.29 8.84
-1 -10 4 291.7 12.46
1 10 -4 256.45 13.71
1 10 -3 4.57 2.15
-1 -10 3 3.61 1.78
-1 -10 2 21.83 3.32
1 10 -2 14.24 3.22
-1 -10 1 3.7 1.69
1 10 -1 5.21 1.36
1 10 -1 6.11 2.2
-1 -10 0 47.12 4.8
1 10 0 38.59 5.06
1 10 0 43.29 3.86
1 10 1 61.33 4.84
-1 -10 -1 75.26 6.03
-1 -10 -2 15.59 2.85
1 10 2 8.35 2.09
-1 -10 -3 44.81 4.75
1 10 3 44.62 4.51
-1 -10 -4 13.06 2.71
1 10 4 14.99 2.87
-1 -10 -5 106.2 7.77
1 10 5 112.55 7.76
1 11 -2 1.33 1.56
-1 -11 2 0.26 1.12
1 11 -1 13.2 3.13
-1 -11 1 13.95 2.99
-1 -11 0 70.77 6.24
1 11 0 57.05 6.49
-1 -11 -1 -0.41 1.33
1 11 1 -0.25 0.9
-1 -11 -2 20.18 3.54
1 11 2 21.47 3.23
-2 10 1 6.68 2.07
2 -10 -1 5.53 2.15
2 -10 0 53.64 5.69
-2 10 0 60 5.03
2 -10 1 66.88 6.36
-2 10 -1 71.99 7.34
2 -10 2 -0.26 1.33
-2 10 -2 -1.17 1.89
-2 10 -3 59.92 6.79
2 -10 3 45.98 5.07
2 -10 4 18.19 3.32
-2 10 -4 10.91 3.03
2 -9 -4 3.19 1.91
-2 9 4 5.32 2.04
2 -9 -3 431.64 17.06
-2 9 3 461.81 16.09
2 -9 -2 2.99 1.8
-2 9 2 3.76 1.59
2 -9 -1 0.97 1.44
-2 9 1 2.96 1.26
-2 9 1 0.9 1.16
2 -9 0 24.17 3.67
-2 9 0 23.49 3.02
2 -9 1 81.31 6.4
-2 9 -1 80.41 5.2
-2 9 -1 65.04 6.53
2 -9 2 150.99 8.69
-2 9 -2 139.05 9.57
2 -9 3 22.79 3.33
-2 9 -3 16.59 3.47
2 -9 4 5.89 1.9
-2 9 -4 11.76 2.96
-2 9 -5 11.52 2.85
2 -9 5 12.91 2.63
2 -9 6 58.44 5.31
-2 9 -6 62.22 6.7
2 -8 -6 3.74 2.14
-2 8 6 5.21 1.93
-2 8 5 73.31 6.38
2 -8 -5 82.35 7.29
2 -8 -4 18.69 3.54
-2 8 4 23.36 3.52
2 -8 -3 2.22 1.5
-2 8 3 1.13 1.49
2 -8 -2 8.48 2.33
-2 8 2 8.55 2.09
-2 8 2 4.35 1.4
-2 8 1 49.86 4.16
-2 8 1 61.5 4.88
2 -8 -1 61.92 5.52
2 -8 0 11.9 2.47
-2 8 0 15.89 2.35
-2 8 0 14.85 2.97
2 -8 1 25.96 3.44
-2 8 -1 26.96 2.88
-2 8 -1 27.67 4.01
-2 8 -2 41.5 4.85
-2 8 -2 35.61 3.06
2 -8 2 26.64 3.42
-2 8 -3 13.71 2.94
2 -8 3 10.06 2.14
2 -8 4 1.93 1.25
-2 8 -4 0.87 1.6
2 -8 5 3.31 1.37
-2 8 -5 -0.07 1.42
-2 8 -6 33.09 4.75
2 -8 6 33.56 3.8
2 -8 6 39.82 4.44
-2 8 -7 5 2.25
2 -8 7 2.41 1.41
2 -8 7 2.65 1.43
2 -8 8 91.29 6.32
2 -8 8 91.67 7.32
-2 8 -8 90.42 8.17
2 -7 -7 8.64 2.93
2 -7 -7 11.65 2.82
-2 7 7 10.11 2.72
2 -7 -6 22.63 3.46
-2 7 6 27.76 3.99
2 -7 -6 26.7 4.21
2 -7 -5 24.57 3.35
2 -7 -5 26.16 3.91
-2 7 5 24.34 3.61
2 -7 -4 56.92 5.47
2 -7 -4 53.27 4.43
-2 7 4 68.23 5.6
2 -7 -3 0.63 1.04
2 -7 -3 -0.03 1.4
-2 7 3 1.01 0.72
-2 7 3 -0.81 1.33
2 -7 -2 152.98 8.33
-2 7 2 157.44 7.88
-2 7 2 134.01 6.34
2 -7 -2 154.12 6.26
2 -7 -1 1.69 1.13
-2 7 1 0.97 0.98
-2 7 1 1.76 1.07
-2 7 0 -0.72 1.13
2 -7 0 0.26 1.06
-2 7 0 0.12 0.81
2 -7 1 402.74 12.98
-2 7 -1 396.07 11.14
-2 7 -1 380.61 14
2 -7 2 0.67 0.96
2 -7 2 4.47 0.97
-2 7 -2 3.03 0.97
-2 7 -2 1.49 1.26
2 -7 3 120.19 6.64
-2 7 -3 123.35 4.89
-2 7 -3 125.04 8
2 -7 3 126.82 4.89
-2 7 -4 14.18 2.89
2 -7 4 18.93 2.67
2 -7 4 13.75 1.68
2 -7 5 52.22 4.69
2 -7 5 55.28 4.41
-2 7 -5 53.52 5.49
2 -7 6 5.82 1.59
-2 7 -6 0.31 1.16
2 -7 6 4.74 1.64
-2 7 -7 27.46 4.23
2 -7 7 28.64 3.27
2 -7 7 19.17 3.2
-2 7 -8 48.83 5.77
2 -7 8 49.37 4.36
2 -7 8 42.37 4.85
-2 7 -9 0.04 1.51
2 -7 9 0.23 1.45
2 -7 9 1.09 1.1
2 -6 -8 167.26 11.28
-2 6 8 177.33 10.09
2 -6 -8 172.72 10.35
2 -6 -7 4.57 1.93
2 -6 -7 5.77 2.41
-2 6 7 1.56 1.38
2 -6 -6 89.32 7.34
-2 6 6 94.4 6.81
2 -6 -6 83.79 6.36
-2 6 5 50.08 4.79
2 -6 -5 49.44 5.1
2 -6 -5 47.16 4.39
-2 6 4 48.95 3.35
2 -6 -4 45.84 4.09
2 -6 -4 47.2 4.79
-2 6 4 51.06 4.66
2 -6 -3 3.59 1.7
2 -6 -3 1.08 1.18
-2 6 3 2.36 0.93
-2 6 3 0.45 1.2
2 -6 -2 136.36 7.43
-2 6 2 133.87 5.94
-2 6 2 152.19 7.31
2 -6 -2 142.97 5.94
2 -6 -1 0.14 0.93
-2 6 1 0.8 0.67
-2 6 1 0.25 0.85
2 -6 -1 1.39 0.74
-2 6 0 39.32 4.02
-2 6 0 44.56 3.54
2 -6 0 47.24 2.41
2 -6 0 46.39 3.99
2 -6 1 31.02 3.22
-2 6 -1 33.74 2.91
-2 6 -1 37.23 3.87
2 -6 2 303.04 7.94
2 -6 2 308.51 10.23
-2 6 -2 312.03 8.57
-2 6 -2 311.16 11.66
-2 6 -3 657.32 18.3
2 -6 3 668.01 15.82
2 -6 3 634.52 12.99
-2 6 -3 649.56 12.65
2 -6 4 72.25 3.76
-2 6 -4 70.29 2.87
2 -6 4 75.87 5.13
2 -6 4 77.17 4.78
-2 6 -4 79.43 6.04
-2 6 -5 19.7 3.16
2 -6 5 14.77 2.15
2 -6 5 15.68 2.51
2 -6 6 7.86 1.6
-2 6 -6 3.13 1.51
2 -6 6 6.7 1.77
-2 6 -7 13.51 2.96
2 -6 7 13.08 2.02
2 -6 7 8.91 2.25
2 -6 8 83.05 6.59
2 -6 8 102.24 5.75
-2 6 -8 102.45 7.92
-2 6 -9 6.4 2.26
2 -6 9 5.1 2.07
2 -6 9 3.02 1.22
-2 6 -10 4.37 2.26
2 -6 10 3.31 1.91
-2 5 9 41.79 5.15
2 -5 -9 45.15 5.56
-2 5 9 45.74 5.13
-2 5 8 15.45 2.98
2 -5 -8 15.08 3.09
2 -5 -7 4.5 1.79
2 -5 -7 5.05 2.17
-2 5 7 8.94 2.19
2 -5 -6 119.05 8.22
-2 5 6 146.17 8.02
2 -5 -6 140.23 7.99
2 -5 -5 57.84 5.39
-2 5 5 49.59 4.52
2 -5 -5 54.89 4.76
-2 5 5 56.97 3.39
2 -5 -4 38.18 4.07
-2 5 4 34.92 2.71
-2 5 4 34.52 3.65
2 -5 -4 43.81 3.9
-2 5 3 54.77 3.42
2 -5 -3 55.87 4.62
-2 5 3 54.93 4.38
2 -5 -3 48.6 3.72
2 -5 -2 5.68 1.29
-2 5 2 3.57 0.96
-2 5 2 3.11 1.5
2 -5 -2 2.19 1.03
2 -5 -1 2.19 0.95
-2 5 1 2.04 0.92
2 -5 -1 1.01 0.67
-2 5 0 31.56 1.85
-2 5 0 32.83 3.39
2 -5 0 31.44 3.07
2 -5 0 35.43 2.08
-2 5 -1 43.11 1.53
-2 5 -1 47.55 3.19
-2 5 -1 48.81 4.05
2 -5 1 43.24 3.44
-2 5 -2 21.77 2.73
2 -5 2 16.89 2.12
-2 5 -2 15.83 1.68
2 -5 2 16.16 1.66
-2 5 -3 17.92 1.57
-2 5 -3 16.97 2.57
2 -5 3 18.38 1.79
2 -5 3 17.04 2.1
-2 5 -4 17.2 2.62
-2 5 -4 13.43 1.11
2 -5 4 16.07 2.02
2 -5 4 14.86 1.71
2 -5 4 16.73 2.4
2 -5 5 108.38 6.11
-2 5 -5 103.52 2.52
-2 5 -5 106.74 6.74
2 -5 5 114.35 5.05
2 -5 5 115.31 5.34
2 -5 6 160.23 6.48
-2 5 -6 159.92 8.63
2 -5 6 161.09 7.96
-2 5 -6 156.88 4.54
2 -5 7 51.55 4.87
2 -5 7 52.67 3.67
-2 5 -7 60.9 5.59
2 -5 8 1.15 1.35
2 -5 8 0.46 0.67
-2 5 -8 0.42 1.16
2 -5 9 60.33 5.74
2 -5 9 52.27 3.91
-2 5 -9 49.79 5.61
2 -5 10 33.41 4.6
-2 5 -10 34.74 4.9
2 -5 11 87.36 7.81
-2 5 -11 79.08 7.67
-2 4 9 155.81 9.03
-2 4 9 175.45 10.59
2 -4 -9 149.66 9.74
-2 4 8 -0.5 1.24
2 -4 -8 -2.57 2.07
-2 4 7 1.93 1.48
2 -4 -7 1.02 1.77
-2 4 6 10.92 1.51
2 -4 -6 6.89 2.15
-2 4 6 8.48 1.92
2 -4 -6 9.96 2.36
2 -4 -5 127.72 7.71
-2 4 5 131.56 7.04
-2 4 5 142.93 5.42
2 -4 -5 138.92 7.24
-2 4 4 116.95 4.86
2 -4 -4 113.4 6.74
2 -4 -4 121.77 6.25
2 -4 -3 308.21 10.75
-2 4 3 313.2 8.49
2 -4 -3 316.63 9.67
2 -4 -2 10.37 1.56
-2 4 2 8.58 1.32
2 -4 -2 11.96 2.03
-2 4 1 226.65 6.43
2 -4 -1 237.65 8.27
-2 4 1 218.65 7.1
2 -4 -1 243.72 6.78
2 -4 0 341.35 9.77
2 -4 0 349.14 7.53
-2 4 0 349.15 10.5
-2 4 0 328.28 7.24
2 -4 1 174.14 6.39
-2 4 -1 165.88 6.91
-2 4 -1 172.02 3.92
2 -4 2 2119.37 32.66
-2 4 -2 2120.21 35.02
2 -4 3 420.58 9.55
2 -4 3 436.63 11.53
2 -4 3 428.8 10.34
-2 4 -3 433.66 12.33
-2 4 -4 17.07 2.4
2 -4 4 16.58 1.84
2 -4 4 17.14 1.78
-2 4 -4 18.86 1.18
2 -4 4 17.18 2.24
-2 4 -4 18.21 1.07
-2 4 -5 4.11 1.5
2 -4 5 5.38 1.42
-2 4 -5 4.41 0.76
2 -4 5 4.81 1.04
2 -4 5 4.2 1.03
2 -4 6 17.65 2.58
-2 4 -6 16.37 1.61
-2 4 -6 17.39 2.73
2 -4 6 11.52 1.56
2 -4 7 3.48 1.54
-2 4 -7 7.5 1.33
2 -4 7 6.98 1.3
-2 4 -7 4.57 1.66
2 -4 8 55.94 3.58
2 -4 8 60.41 5.24
-2 4 -8 50.1 3.64
-2 4 -8 53.1 5.2
2 -4 9 164.78 9.28
2 -4 9 162.09 6.49
-2 4 -9 169.76 9.83
-2 4 -9 167.18 7.34
2 -4 10 28.3 4.07
-2 4 -10 22.79 2.99
-2 4 -10 26.93 4.24
-2 4 -11 24.15 4.18
2 -4 11 22.39 3.86
2 -3 -10 1.91 1.97
-2 3 10 0.28 1.37
-2 3 10 0.43 1.09
-2 3 9 25.06 4.04
2 -3 -9 30.85 4.43
-2 3 9 27.63 3.72
-2 3 8 7.37 2.32
-2 3 8 4.81 1.73
2 -3 -8 7.72 2.5
2 -3 -7 240.61 7.76
-2 3 7 240.93 10.04
2 -3 -7 231.63 10.64
-2 3 7 232.5 7.58
2 -3 -6 27.03 2.47
2 -3 -6 21.13 3.24
-2 3 6 23.97 2.24
2 -3 -5 138.46 5.65
-2 3 5 127.59 5.13
2 -3 -5 115.85 7.08
2 -3 -5 137.44 7.03
2 -3 -4 225.37 7.39
2 -3 -4 225.78 9.35
-2 3 4 231.8 6.95
2 -3 -4 243 8.82
-2 3 3 96.09 4.18
2 -3 -3 85.48 4.71
2 -3 -3 79.36 5.07
2 -3 -3 86.13 4.33
2 -3 -2 61.79 3.6
2 -3 -2 55.11 3.9
2 -3 -2 50.52 3.27
-2 3 2 60.81 3.27
2 -3 -1 460.55 11.51
2 -3 -1 464.66 10.01
-2 3 1 463.73 10.44
-2 3 1 465.28 9.89
2 -3 0 90.06 4.33
-2 3 0 83.96 3.98
2 -3 0 85.12 3.31
-2 3 0 86.71 4.45
-2 3 0 83.79 3.17
2 -3 1 86.2 3.97
-2 3 -1 82.26 2.66
-2 3 -1 85.49 4.3
2 -3 2 699.07 13.18
-2 3 -2 678.45 10.29
-2 3 -2 708.49 14.82
2 -3 3 240.34 6.66
2 -3 3 248.87 7.93
-2 3 -3 257.35 4.81
2 -3 3 257.48 6.87
-2 3 -3 266.83 8.45
2 -3 4 732.59 13.62
-2 3 -4 775.61 12.11
-2 3 -4 742.34 10.94
-2 3 -4 746.27 16.68
2 -3 4 732.46 16.08
2 -3 4 752.31 14.43
2 -3 5 179.52 6.34
2 -3 5 171.55 5.41
-2 3 -5 171.96 5.15
-2 3 -5 180.14 7.59
2 -3 5 179.35 7.39
2 -3 6 30.72 3.21
2 -3 6 31.7 2.28
-2 3 -6 33.69 3.47
-2 3 -6 33.71 2.44
2 -3 7 9.11 1.95
-2 3 -7 8.83 1.55
-2 3 -7 11.72 2.22
2 -3 7 10.64 1.4
2 -3 8 1.78 0.66
-2 3 -8 3.4 1.3
2 -3 8 2.1 1.3
-2 3 -8 3.33 1.54
2 -3 9 16.9 3
2 -3 9 18.7 1.99
-2 3 -9 18.96 2.69
-2 3 -10 -0.51 1.2
2 -3 10 -0.34 1.29
-2 3 -11 22.17 3.24
2 -3 11 24.96 4
-2 3 -12 16.16 3.04
2 -3 12 14.02 3.36
2 -2 -10 -1.17 2.22
-2 2 10 -2.41 1.75
-2 2 10 0.58 1.15
2 -2 -9 41.7 4.96
-2 2 9 35.4 3.97
-2 2 9 39.63 5.07
-2 2 8 481.45 14.88
2 -2 -8 497.47 16.64
-2 2 8 493.38 17.13
2 -2 -7 -0.59 1.22
-2 2 7 0.68 0.65
2 -2 -7 -0.22 0.49
2 -2 -6 521.42 15.53
2 -2 -6 567.87 12.63
-2 2 6 554.86 12.54
-2 2 5 103.91 4.58
2 -2 -5 101.57 5.94
2 -2 -5 109.95 4.81
-2 2 4 217.58 6.68
2 -2 -4 212.91 8.94
2 -2 -4 227.29 8.33
2 -2 -4 227 7
-2 2 3 18.15 1.77
2 -2 -3 23.08 2.54
2 -2 -3 22.92 2.72
2 -2 -3 21.52 2.03
2 -2 -2 4.81 1.5
2 -2 -2 3.08 1.19
-2 2 2 3.71 0.96
2 -2 -2 3.77 0.9
2 -2 -2 2.6 0.84
2 -2 -1 160.06 5.45
2 -2 -1 150.28 5.73
-2 2 1 153.56 5.07
2 -2 -1 154.27 5.13
2 -2 -1 152.94 5.54
-2 2 1 145.55 4.84
2 -2 0 18.26 1.82
-2 2 0 20.43 1.84
2 -2 0 19.11 1.86
2 -2 0 19.6 1.81
2 -2 0 17.35 1.49
-2 2 0 19.9 1.78
-2 2 0 19.74 1.51
-2 2 0 23 1.97
-2 2 -1 526.35 10.09
-2 2 -1 529.88 11.37
2 -2 1 515.94 10.34
-2 2 -1 503.91 8.93
-2 2 -1 499.21 10.49
2 -2 1 506.35 10.7
2 -2 1 521.35 11.06
-2 2 -2 898.57 14.42
2 -2 2 874.8 14.59
2 -2 2 882.93 15.98
-2 2 -2 878.96 15.99
2 -2 3 677.15 11.71
-2 2 -3 682.41 11.71
-2 2 -3 697.4 14.08
2 -2 3 687 14.07
2 -2 3 702.71 12.87
-2 2 -4 56.24 2.55
-2 2 -4 56.37 3.58
2 -2 4 59.11 2.51
-2 2 -4 54.98 2.47
-2 2 -4 59.89 1.91
2 -2 4 58.27 3.2
2 -2 4 55.23 3.61
-2 2 -5 0.26 0.5
2 -2 5 0.5 0.43
-2 2 -5 0.21 0.22
-2 2 -5 0.17 0.19
2 -2 5 -0.37 0.88
2 -2 5 0 0.71
-2 2 -5 -0.56 0.97
-2 2 -6 1269.5 21.56
2 -2 6 1253.24 19.33
2 -2 6 1244.26 24.47
2 -2 7 11.27 2.18
-2 2 -7 7.52 1.39
2 -2 7 8.86 1.14
2 -2 7 6.62 0.67
2 -2 8 481.45 14.99
2 -2 8 478.52 8.26
-2 2 -8 489.29 13.07
2 -2 8 473.53 10.14
2 -2 9 15.05 1.64
2 -2 9 12.59 2.49
-2 2 -9 11.75 2.21
-2 2 -10 15.86 2.71
2 -2 10 22.05 3.52
2 -2 11 -0.99 1.28
-2 2 -11 0.62 1.2
2 -2 12 13.92 3.16
-2 2 -12 15.36 3.07
-2 1 10 -1.42 1.78
2 -1 -10 -1.39 2.09
-2 1 10 -1.53 1.14
2 -1 -9 41.6 4.87
-2 1 9 42.6 5.08
-2 1 9 36.21 3.84
2 -1 -8 114.09 7.62
-2 1 8 118.77 8
-2 1 7 97.09 5.01
2 -1 -7 94.91 4.53
2 -1 -7 94.99 6.52
-2 1 6 238.71 7.8
2 -1 -6 244.78 7.51
2 -1 -6 250.02 9.94
-2 1 5 63.04 3.64
2 -1 -5 70.17 3.7
2 -1 -5 69.13 4.75
-2 1 4 529.18 11.53
2 -1 -4 532.19 11.43
2 -1 -4 514.17 13.19
2 -1 -3 890.79 16.03
2 -1 -3 890.49 17.52
-2 1 3 891.62 15.97
-2 1 2 90.91 3.8
2 -1 -2 94.36 4.89
-2 1 2 92.75 3.83
2 -1 -2 92.27 3.81
2 -1 -2 93.24 3.92
2 -1 -2 90.96 4.23
-2 1 1 412.59 8.95
2 -1 -1 410.85 10.1
2 -1 -1 412.5 8.98
-2 1 1 425.25 9.69
-2 1 1 432.53 9.11
2 -1 -1 413.23 9.1
2 -1 -1 416.86 9.2
-2 1 1 413.54 9
2 -1 0 61.01 3.07
-2 1 0 58.46 2.64
-2 1 0 61.64 2.94
-2 1 0 61.57 2.87
-2 1 0 66.51 3.03
2 -1 0 58.44 2.84
2 -1 0 61.59 3
2 -1 0 57.12 2.55
2 -1 1 6.93 0.86
-2 1 -1 7.66 0.91
2 -1 1 6.2 0.93
2 -1 1 8.57 1.15
-2 1 -1 5.69 1
-2 1 -1 6.84 0.85
-2 1 -1 8.04 1.06
-2 1 -2 2523.5 35.31
2 -1 2 2452.84 35.13
2 -1 2 2429.9 34.52
2 -1 2 2445.5 32.78
2 -1 2 2471.12 34.07
-2 1 -2 2447.96 33.86
-2 1 -2 2440.43 32.48
-2 1 -2 2467.85 34.55
2 -1 3 23.52 2.08
2 -1 3 21.7 1.21
-2 1 -3 22.87 1.22
-2 1 -3 23.82 1.8
-2 1 -3 23.87 1.82
-2 1 -3 22.27 1.29
2 -1 3 26.12 1.94
-2 1 -3 22.97 1.89
-2 1 -4 11.52 1.29
2 -1 4 12.36 1.77
-2 1 -4 11.96 0.97
2 -1 4 11.01 0.87
-2 1 -4 12.66 1.32
2 -1 4 13.31 1.01
2 -1 4 13.04 1.64
-2 1 -5 103.46 4.23
2 -1 5 103.19 2.9
2 -1 5 109.47 5.25
-2 1 -5 103.51 3.15
2 -1 5 101.63 3.08
-2 1 -5 106.2 4.05
-2 1 -5 102.32 3.11
-2 1 -6 338.99 9.23
-2 1 -6 340.84 8.14
2 -1 6 345.61 6.73
2 -1 6 346.27 10.62
-2 1 -6 337.26 7.17
2 -1 6 355.24 6.99
2 -1 7 58.95 4.45
2 -1 7 63.85 2.65
-2 1 -7 74.83 4.4
-2 1 -7 60.17 3.14
2 -1 7 71.92 2.9
-2 1 -8 194.66 5.87
2 -1 8 196.69 5.36
2 -1 8 199.83 8.99
2 -1 8 186.86 5.36
-2 1 -8 180.52 7.75
2 -1 9 315.13 12.33
2 -1 9 308.22 7.6
2 -1 9 313.12 7.65
-2 1 -9 316.62 11.26
2 -1 10 44.46 4.78
-2 1 -10 43.37 4.38
2 -1 11 80.62 6.85
-2 1 -11 91.11 6.79
2 -1 12 11.75 2.96
-2 1 -12 7.75 2.43
-2 0 10 37.9 5.1
2 0 -10 37.82 4.88
-2 0 10 35.23 3.84
-2 0 9 0.57 1.17
2 0 -9 -0.1 1.51
-2 0 9 0.59 0.97
2 0 -8 61.61 3.81
2 0 -8 51.96 5.03
-2 0 8 55.41 5.47
-2 0 7 45.4 4.69
2 0 -7 45.07 3.19
2 0 -7 48.72 4.57
2 0 -6 83.14 4.18
-2 0 6 75.52 4.33
2 0 -6 75.61 5.29
2 0 -5 8.38 1.33
2 0 -5 12.05 2.09
-2 0 5 8.31 1.42
-2 0 4 35.48 2.65
2 0 -4 39.43 3.31
2 0 -4 30.69 2.33
2 0 -3 375.59 8.81
-2 0 3 379.33 9.03
2 0 -3 366.88 9.8
-2 0 3 376.31 8.64
-2 0 2 32.18 2.14
-2 0 2 33.68 2.27
2 0 -2 29.19 2.14
2 0 -2 27.29 2.03
2 0 -2 30.39 2.4
-2 0 1 52.48 3.09
-2 0 1 55.99 2.7
-2 0 1 54.19 2.72
-2 0 1 50.18 2.71
2 0 -1 56.86 2.76
2 0 -1 49.63 2.76
2 0 -1 48.58 2.6
-2 0 0 2124.2 30.87
-2 0 0 2196.77 30.29
-2 0 0 2137.38 30.26
2 0 0 2139.96 30.22
2 0 0 2126.59 30.26
-2 0 -1 72.75 2.69
2 0 1 70.72 2.82
2 0 1 72.52 2.93
2 0 1 69.94 2.91
-2 0 -1 76.63 3.03
-2 0 -1 75.17 2.93
-2 0 -1 74 1.86
2 0 1 75.8 1.88
-2 0 -2 1679.98 24.91
2 0 2 1678.05 24.38
-2 0 -2 1685.09 24.56
-2 0 -2 1677.45 24.1
-2 0 -2 1698.38 22.3
-2 0 -2 1709.62 23.6
2 0 2 1681.84 24.91
2 0 2 1683.74 24.18
2 0 2 1719.64 22.86
2 0 3 166.59 5.26
-2 0 -3 172.7 5.31
2 0 3 168.98 4.49
-2 0 -3 174.06 4.45
-2 0 -3 165.79 4.26
2 0 3 169.69 4.29
-2 0 -3 171.69 5.06
2 0 3 166.91 5.05
2 0 4 907.16 16.66
-2 0 -4 929.99 15.63
2 0 4 894.31 16.16
-2 0 -4 883.74 14.19
2 0 4 915.77 14.21
-2 0 -4 893.87 14.05
-2 0 -4 892.31 14.19
2 0 5 76.38 4.16
2 0 5 72.1 2.21
-2 0 -5 73.71 2.72
-2 0 -5 75.17 3.03
-2 0 -5 75.81 3.05
2 0 5 75.22 2.95
2 0 5 74.46 1.83
-2 0 -5 71.72 3.67
-2 0 -6 31.34 1.73
2 0 6 30.35 1.7
2 0 6 31.64 2.96
-2 0 -6 31.24 2.64
2 0 6 28.61 1.92
-2 0 -6 28.5 2
2 0 7 393.85 8.79
2 0 7 390.04 11.82
2 0 7 379.09 8.12
-2 0 -7 379.62 7.36
-2 0 -7 402.33 11.27
2 0 8 127.18 6.92
2 0 8 130.13 4.85
-2 0 -8 127.83 6.59
2 0 9 77.56 3.92
2 0 9 81.01 5.97
-2 0 -9 86.31 5.84
2 0 10 16.77 2.95
-2 0 -10 9.23 2.32
2 0 11 34.4 4.37
-2 0 -11 33.44 4.25
2 0 12 -0.12 1.61
-2 0 -12 2.7 1.78
-2 -1 10 19.11 3.7
2 1 -10 17.76 3.48
2 1 -9 106.62 7.48
-2 -1 9 100.04 7.78
2 1 -8 5.7 1.77
-2 -1 8 5.84 2.22
2 1 -8 7.47 1.43
-2 -1 7 1152.57 26.7
2 1 -7 1185.91 21.43
-2 -1 6 81.96 4.73
2 1 -6 76.88 4.11
2 1 -6 78.01 5.25
-2 -1 6 77.5 5.63
2 1 -5 713.49 14.59
2 1 -5 729.1 16.8
-2 -1 5 738.98 15.61
-2 -1 4 690.57 14.2
2 1 -4 652.32 14.87
2 1 -4 653.4 13.32
2 1 -3 60.88 3.17
-2 -1 3 55.22 3.21
2 1 -3 64.56 3.78
2 1 -2 9.75 1.45
-2 -1 2 9.95 1.2
-2 -1 2 11.83 1.42
2 1 -2 9.99 1.32
2 1 -1 204.75 5.67
-2 -1 1 202.64 5.68
-2 -1 1 211.92 5.64
2 1 -1 216.95 5.85
-2 -1 1 213.15 6.06
2 1 0 1333.26 20.43
-2 -1 0 1380.98 20.52
2 1 0 1368.52 20.63
-2 -1 0 1390.92 20.52
-2 -1 0 1348.46 20.03
-2 -1 -1 796.44 12.99
2 1 1 786.05 12.93
2 1 1 808.51 13.08
-2 -1 -1 800.8 12.99
-2 -1 -1 790.07 12.89
2 1 1 787.39 12.85
2 1 2 580.41 10.32
-2 -1 -2 592.06 10.04
2 1 2 598.37 10.46
2 1 2 577.14 9.95
2 1 2 586.3 10.21
2 1 2 591.63 10.34
-2 -1 -2 597.01 10.36
-2 -1 -2 598.58 10.37
-2 -1 -2 588.94 10.14
2 1 3 495.43 9.65
-2 -1 -3 497.33 8.42
2 1 3 492.88 8.4
-2 -1 -3 473.43 9.24
2 1 3 486.44 9.8
-2 -1 -3 488.61 9.73
-2 -1 -3 503.86 8.93
-2 -1 -3 474.94 9.28
-2 -1 -3 493.49 9.7
2 1 3 494.01 9.26
2 1 4 1.13 0.7
-2 -1 -4 0.95 0.71
-2 -1 -4 0.52 0.3
2 1 4 0.46 0.31
-2 -1 -4 1.36 0.62
-2 -1 -4 0.92 0.52
2 1 4 0.24 0.49
-2 -1 -4 1.34 0.65
2 1 5 -0.18 0.65
-2 -1 -5 0.34 0.23
-2 -1 -5 0.78 0.83
2 1 5 0.44 0.49
2 1 5 0.22 0.15
2 1 6 0.57 0.71
-2 -1 -6 0.68 0.84
2 1 6 0.77 0.27
2 1 6 0.31 0.58
2 1 7 229.18 7.01
2 1 7 232.87 5.35
2 1 7 240 8.78
-2 -1 -7 239.27 8.68
-2 -1 -8 37 3.64
2 1 8 32.44 2.67
2 1 8 35.9 3.6
2 1 9 165.86 8.35
-2 -1 -9 155.28 8.04
2 1 9 143.76 6.03
2 1 10 40.88 4.43
-2 -1 -10 34.76 4.12
2 1 10 33.66 3
2 1 11 0.88 1.21
-2 -1 -11 0.12 1.3
-2 -1 -12 -0.88 1.6
2 1 12 -0.19 1.17
-2 -2 10 12.06 2.92
2 2 -10 11.39 2.77
-2 -2 9 -0.06 1.32
2 2 -9 -0.6 1.26
2 2 -8 44.6 4.6
2 2 -8 56.87 3.97
-2 -2 8 49.39 5.16
2 2 -7 56.82 3.85
2 2 -7 44.38 4.29
-2 -2 7 51.8 4.92
-2 -2 6 15.46 2.57
2 2 -6 20.45 2.21
2 2 -6 18.5 2.67
-2 -2 5 636.31 16.55
2 2 -5 654.33 14.07
2 2 -5 665.54 15.73
-2 -2 4 446.49 11.27
2 2 -4 449.52 10.68
2 2 -4 466.72 11.77
-2 -2 3 493.34 11.48
2 2 -3 519.8 11.87
2 2 -3 515.6 11.19
2 2 -2 1569.45 24.71
-2 -2 2 1617.61 25.13
-2 -2 1 3.07 0.84
2 2 -1 2.26 0.66
2 2 -1 1.9 0.63
-2 -2 1 1.85 0.7
2 2 -1 3.07 0.78
-2 -2 1 2.01 0.54
-2 -2 0 278.9 6.58
2 2 0 278.91 6.38
-2 -2 0 281.2 6.36
2 2 0 284.14 6.68
-2 -2 0 281.09 5.78
2 2 0 282.13 6.76
2 2 0 275.96 5.79
2 2 1 293.31 6.58
-2 -2 -1 293.04 6.37
2 2 1 291.71 6.48
-2 -2 -1 294.98 6.71
2 2 1 298.9 6.69
2 2 1 308.84 5.92
-2 -2 -1 295.56 5.89
-2 -2 -2 507.26 8.8
-2 -2 -2 524.76 8.42
2 2 2 492.1 8.89
2 2 2 500.54 9.72
-2 -2 -2 524.3 9.27
2 2 2 516.78 9.3
2 2 2 506.05 9.1
-2 -2 -2 513.83 9.94
-2 -2 -2 501.73 8.59
-2 -2 -3 506.08 9.35
2 2 3 499.18 9.97
-2 -2 -3 501.74 8.02
2 2 3 498.58 9.18
-2 -2 -3 528.22 8.51
2 2 3 499.31 10.09
2 2 3 509.66 8.65
-2 -2 -3 490.36 10.19
-2 -2 -3 507.68 9.93
2 2 4 0.92 0.56
-2 -2 -4 1.31 0.64
-2 -2 -4 0.4 0.31
2 2 4 0.8 0.3
2 2 4 0.61 0.27
-2 -2 -4 0.55 0.67
-2 -2 -4 1.11 0.41
2 2 4 1.67 0.78
-2 -2 -4 1.22 0.82
-2 -2 -5 9.4 0.96
2 2 5 10.32 1.45
2 2 5 8.47 0.75
-2 -2 -5 9.87 0.9
-2 -2 -5 7.89 1.48
2 2 5 7.83 1.26
2 2 6 125.35 3.47
2 2 6 138.77 5.36
-2 -2 -6 136.3 6.13
2 2 6 138.19 5.77
-2 -2 -7 155.57 7.12
-2 -2 -7 157.08 4.38
2 2 7 156.65 4.35
2 2 7 158.77 6.14
2 2 7 165.62 7
2 2 8 270.22 9.92
2 2 8 261.65 8.6
-2 -2 -8 268.95 10.35
2 2 9 54.09 4.61
2 2 9 55.87 3.97
-2 -2 -9 51.19 4.74
2 2 10 384.02 13.92
-2 -2 -10 398 14.6
2 2 10 404.56 11.95
2 2 11 52.88 5.29
2 2 11 50.39 4.13
-2 -2 -11 47.63 5.27
2 2 12 0.25 0.95
-2 -2 -12 -1.44 1.87
2 3 -10 49.85 5.45
-2 -3 10 61.31 6.45
-2 -3 9 24.63 3.88
2 3 -9 23.89 3.64
2 3 -9 31.15 3.24
-2 -3 8 15.93 3.07
2 3 -8 13.72 2.08
2 3 -8 14.03 2.73
2 3 -7 65.01 5.14
-2 -3 7 65.79 5.62
2 3 -7 66.23 4.37
2 3 -6 273.18 8.98
-2 -3 6 289.64 11.1
2 3 -6 257.09 9.73
2 3 -5 6.4 1.64
-2 -3 5 6.72 1.58
2 3 -5 6.47 1.32
2 3 -4 0.43 0.87
-2 -3 4 0.36 0.85
-2 -3 3 638.57 14.28
2 3 -3 646.66 14.27
-2 -3 3 645.35 14.03
-2 -3 3 637.62 11.79
-2 -3 2 1489.61 24.37
2 3 -2 1492.29 24.36
-2 -3 2 1464.3 22.23
-2 -3 1 743.63 14.01
-2 -3 1 740.15 12.85
2 3 -1 730.9 12.85
2 3 -1 741.36 13.93
2 3 0 6.51 1.04
-2 -3 0 7.98 1.13
2 3 0 7.67 1.09
-2 -3 0 6.84 0.99
2 3 0 7.24 1.03
-2 -3 0 8.46 1.09
2 3 1 1296.57 19.91
-2 -3 -1 1336.72 20.16
-2 -3 -1 1316.62 20.69
-2 -3 -1 1348.57 19.89
2 3 1 1324.62 18.59
2 3 1 1321.56 20.64
2 3 1 1342.32 20.64
-2 -3 -1 1278.52 20.67
-2 -3 -2 5.89 0.77
-2 -3 -2 4.59 0.5
-2 -3 -2 5.3 0.86
-2 -3 -2 6.08 0.78
2 3 2 5.75 0.77
2 3 2 4.72 1.03
-2 -3 -2 4.5 0.95
-2 -3 -2 5.33 1.07
2 3 2 5.42 0.85
-2 -3 -3 650.17 10.71
-2 -3 -3 678.15 10.13
2 3 3 664.01 12.95
2 3 3 629.02 11.19
2 3 3 663.85 10.27
-2 -3 -3 661.69 13.09
-2 -3 -3 660.94 11.23
2 3 3 677.31 10.52
-2 -3 -3 665.88 12
2 3 4 1.15 0.53
-2 -3 -4 1.41 0.55
2 3 4 1.85 0.43
2 3 4 1.38 0.48
-2 -3 -4 1.17 0.25
-2 -3 -4 1.15 0.88
-2 -3 -4 0.6 0.71
-2 -3 -4 0.99 0.49
2 3 4 1.51 0.78
2 3 5 107.83 2.66
2 3 5 103.88 3.48
2 3 5 105.47 4.26
2 3 5 103.4 4.78
-2 -3 -5 109.8 3.85
-2 -3 -5 110.41 5.22
-2 -3 -6 23.92 1.98
2 3 6 25.31 1.68
-2 -3 -6 24.54 2.71
2 3 6 26.76 2.51
2 3 6 22.19 2.18
2 3 7 66.93 4.22
2 3 7 57.2 2.76
2 3 7 60.62 4.07
-2 -3 -7 62.81 3.57
-2 -3 -7 63.15 4.61
2 3 8 289.15 10.07
2 3 8 294.23 9.74
-2 -3 -8 282.01 10.96
-2 -3 -9 233.99 10.51
2 3 9 216.69 9.32
2 3 9 242.23 9.13
2 3 10 149.88 8.26
2 3 10 149.95 7.42
-2 -3 -10 150.71 8.92
2 3 11 6.12 1.97
-2 -3 -11 12.69 2.88
2 3 11 9.69 2.07
2 3 12 2.86 1.79
-2 -3 -12 0.45 1.52
2 3 12 -0.32 0.91
-2 -4 10 238.43 12.95
2 4 -10 237.89 11.93
-2 -4 9 42.96 5.25
2 4 -9 53.29 5.25
2 4 -9 49.76 4.32
2 4 -8 23.19 3.28
2 4 -8 21.98 2.78
-2 -4 8 16.95 3.16
-2 -4 7 321.6 12.72
2 4 -7 319.51 11.56
2 4 -7 323.16 10.69
2 4 -6 1.25 1.16
-2 -4 6 0.78 1.01
2 4 -6 1.1 1.22
-2 -4 5 44.01 4
2 4 -5 40.56 3.44
2 4 -5 43.35 4.06
2 4 -4 43.83 3.78
-2 -4 4 48.64 3.82
2 4 -3 2.78 1.2
-2 -4 3 2.56 0.95
-2 -4 3 3.37 0.72
2 4 -2 2.69 1.02
-2 -4 2 2.57 0.91
-2 -4 2 2.17 0.65
-2 -4 1 279.36 6.89
2 4 -1 278.61 6.94
2 4 -1 278.35 8.23
-2 -4 0 290.14 5.84
2 4 0 278.62 4.9
-2 -4 0 277.88 7.55
-2 -4 0 270.42 7.88
2 4 0 283.85 7.16
-2 -4 0 285.23 7.22
2 4 0 269.84 7.89
2 4 1 31.97 2.08
2 4 1 32.8 1.45
-2 -4 -1 30.42 2.21
2 4 1 32.41 2.36
-2 -4 -1 29.18 2.27
2 4 1 33.11 2.58
-2 -4 -1 33.83 2.62
2 4 2 1130.85 17.43
-2 -4 -2 1123.69 18.59
-2 -4 -2 1151.5 16.92
-2 -4 -2 1155.15 19.75
2 4 2 1131.62 19.52
2 4 3 139.44 5.41
-2 -4 -3 138.71 4.6
2 4 3 128.28 3.45
2 4 3 133.91 2.82
-2 -4 -3 127.35 5.31
-2 -4 -3 140.81 4.42
-2 -4 -4 541.45 10.95
2 4 4 566.84 12.73
-2 -4 -4 536.29 12.53
2 4 4 549.05 9.58
2 4 5 104.15 3.97
-2 -4 -5 97.31 4.14
2 4 5 99.68 4.98
-2 -4 -5 100.98 5.27
2 4 6 111.44 4.8
-2 -4 -6 123.18 4.99
2 4 6 115.06 2.81
2 4 6 110.05 2.72
2 4 6 116.45 5.71
-2 -4 -6 112.58 5.99
2 4 7 143.31 6.14
2 4 7 150.59 6.86
-2 -4 -7 153.75 7.54
-2 -4 -7 152.75 6.15
2 4 8 76.36 4.83
-2 -4 -8 75.15 4.58
2 4 8 71 4.91
-2 -4 -8 62.76 5.24
2 4 9 9.85 2.06
-2 -4 -9 10.35 2.51
2 4 9 5.57 1.67
-2 -4 -10 4.38 1.81
2 4 10 5.4 1.68
2 4 10 5.14 1.57
2 4 11 180.54 9.64
2 4 11 192.57 9.38
-2 -4 -11 202.38 11.28
2 5 -10 9.06 2.6
-2 -5 10 4.86 2.29
2 5 -10 12.21 3.16
2 5 -9 60.97 5.08
-2 -5 9 64.88 6.35
2 5 -9 74.25 7.23
2 5 -9 69.1 5.88
2 5 -8 4.21 1.69
-2 -5 8 5.59 2.02
2 5 -8 2.43 1.07
2 5 -8 4.27 1.88
-2 -5 7 89.4 6.66
2 5 -7 108.74 7.73
2 5 -7 92.35 6
-2 -5 6 -0.09 1.17
2 5 -6 0.86 1.18
2 5 -5 109.37 6.83
-2 -5 5 117.57 6.54
2 5 -4 117.89 6.64
-2 -5 4 118.93 6.02
-2 -5 3 100.44 5.01
2 5 -3 99.63 5.76
-2 -5 2 210.15 6.65
-2 -5 2 205 7.4
2 5 -2 211.48 6.09
-2 -5 2 209.73 6.12
2 5 -2 215.89 8.23
-2 -5 1 259.82 6.48
-2 -5 1 251.83 8.02
2 5 -1 258.35 6.98
-2 -5 1 250.25 7.01
2 5 -1 258.9 8.76
2 5 0 11.08 1.83
-2 -5 0 12.29 0.96
-2 -5 0 12.32 1.71
2 5 0 12.28 1.52
-2 -5 0 13.63 1.61
-2 -5 -1 88.1 4.24
-2 -5 -1 87.48 4.24
2 5 1 93.9 4.32
2 5 1 95.47 4.97
2 5 2 847.62 14.47
-2 -5 -2 862.68 16.07
-2 -5 -2 848.66 13.17
-2 -5 -2 842.75 16.85
2 5 2 861.14 16.66
-2 -5 -3 0.69 0.35
-2 -5 -3 1.95 0.79
2 5 3 1.13 0.38
2 5 3 0.96 0.82
2 5 4 47.87 1.78
-2 -5 -4 47.37 3.45
-2 -5 -4 49 3.1
2 5 4 40.06 1.37
2 5 4 44.12 3.37
2 5 5 176.43 4.92
-2 -5 -5 170.42 7.18
2 5 5 175.19 7.22
-2 -5 -5 175.36 6.36
-2 -5 -6 47.74 4.07
2 5 6 45.88 3.82
2 5 6 49.48 2.98
-2 -5 -6 51.08 3.5
-2 -5 -7 750.72 16.72
2 5 7 743.61 15.56
-2 -5 -7 732.87 18.72
2 5 7 711.61 17.72
2 5 8 19.28 2.4
-2 -5 -8 21.13 2.67
-2 -5 -8 18.97 3.05
2 5 8 19.23 2.76
2 5 9 169.01 8.5
2 5 9 161.14 7.61
-2 -5 -10 9.3 2.66
2 5 10 11.38 2.36
-2 -5 -11 22.89 4.02
2 5 11 30.32 3.91
2 6 -9 3.44 1.34
-2 -6 9 -1.27 2
-2 -6 9 -0.75 0.96
2 6 -9 1.99 2.17
-2 -6 8 3.44 1.41
2 6 -8 2.24 1.59
-2 -6 7 26.85 3.66
-2 -6 7 24.34 3.24
2 6 -7 20.03 3.57
-2 -6 6 267.11 10.97
2 6 -6 280.74 12.43
-2 -6 6 279.62 10.62
-2 -6 5 71.36 5.06
-2 -6 5 74.56 5.23
-2 -6 5 75.19 3.36
2 6 -5 76.95 6.08
-2 -6 4 76.32 4.85
-2 -6 4 80.3 5.14
-2 -6 4 74.67 3.42
2 6 -4 76.25 5.71
-2 -6 3 65.97 4.02
-2 -6 3 62.08 4.36
-2 -6 3 59.76 3.18
2 6 -3 59.67 4.79
2 6 -3 58.92 2.34
-2 -6 2 86.96 4.15
-2 -6 2 92.5 5.19
-2 -6 2 92.86 4.11
2 6 -2 88.6 3.97
2 6 -2 90.89 5.69
-2 -6 1 65.96 3.02
-2 -6 1 61.77 4.11
-2 -6 1 59.97 3.43
2 6 -1 61.89 3.43
2 6 -1 66.31 4.71
-2 -6 0 154.4 6.33
-2 -6 0 134.56 5.51
2 6 0 146.85 5.65
-2 -6 0 144.12 3.56
2 6 0 152.19 7.08
2 6 1 115.47 5.15
-2 -6 -1 120.8 5.46
-2 -6 -1 103.6 5.01
2 6 1 110.84 6
-2 -6 -2 89.31 4.62
2 6 2 89.58 4.74
-2 -6 -3 17.95 2.08
-2 -6 -3 16.76 1.44
2 6 3 18.47 1.48
-2 -6 -3 16.52 2.02
2 6 3 19.68 2.39
-2 -6 -4 94.14 5.11
-2 -6 -4 103.3 5.06
2 6 4 94.28 2.72
2 6 4 106.72 5.65
-2 -6 -5 5.06 1.3
2 6 5 3.62 0.57
-2 -6 -5 4.18 1.37
2 6 5 1.77 1.04
-2 -6 -6 77.54 4.81
2 6 6 88.08 5.58
-2 -6 -6 87.19 5.63
-2 -6 -7 7.04 1.66
-2 -6 -7 5.12 1.73
2 6 7 5.46 1.78
-2 -6 -8 159.06 7.82
-2 -6 -8 137.25 8.2
2 6 8 148.61 7.98
-2 -6 -9 64.41 5.97
2 6 9 55.24 5
2 6 10 69.55 5.9
-2 -6 -10 65.67 6.4
-2 -7 8 64.14 6.08
-2 -7 8 55.25 5.21
2 7 -8 74.78 7.46
-2 -7 7 0.73 1.18
2 7 -7 1.88 2.18
-2 -7 7 0.93 0.99
-2 -7 6 123.75 7.39
-2 -7 6 121.54 7.18
2 7 -6 127.17 8.64
2 7 -5 -0.04 1.29
-2 -7 5 1.79 1.15
-2 -7 5 1.18 1.02
2 7 -4 -1.03 1.57
-2 -7 4 -0.58 1.04
-2 -7 4 -0.18 0.99
-2 -7 4 -0.49 0.52
-2 -7 3 -0.67 0.83
-2 -7 3 1.43 1.05
2 7 -3 -0.52 0.96
2 7 -3 0.74 0.54
-2 -7 3 0.35 0.57
-2 -7 2 35.83 2.75
-2 -7 2 34.67 2.62
2 7 -2 38.87 2.79
2 7 -2 37.04 4
-2 -7 2 35.82 3.45
-2 -7 1 250.55 9.22
2 7 -1 238 7.67
-2 -7 1 263.57 6.57
2 7 -1 238.84 10.01
-2 -7 0 141.29 6.6
2 7 0 134.22 5.78
2 7 0 131.82 7.23
-2 -7 -1 393.04 11.47
2 7 1 399.21 11.03
2 7 1 397.14 13.09
-2 -7 -2 18.55 2.34
-2 -7 -2 21.41 2.22
2 7 2 22.12 2.52
-2 -7 -3 44.05 3.34
-2 -7 -3 48.54 3.72
2 7 3 41.04 3.57
-2 -7 -4 154.33 6.89
-2 -7 -4 159.66 6.99
2 7 4 156.81 7.37
-2 -7 -5 17.54 2.43
-2 -7 -5 15.86 2.37
2 7 5 14.27 2.38
-2 -7 -6 13.89 2.28
-2 -7 -6 14.35 2.5
2 7 6 13.05 2.42
-2 -7 -7 7.79 1.86
-2 -7 -7 11.22 2.48
2 7 7 4.14 1.72
2 7 8 45.93 4.61
-2 -7 -8 52.56 4.8
-2 -7 -8 55.28 5.36
2 7 9 7.92 2.2
-2 -7 -9 3.7 1.8
2 8 -7 10.42 2.93
-2 -8 7 7.41 2.09
-2 -8 7 10.39 2.35
-2 -8 6 170.97 8.83
-2 -8 6 167.63 8.94
2 8 -6 180.16 10.82
2 8 -5 -0.11 1.48
-2 -8 5 0.31 0.9
2 8 -4 17.82 3.3
-2 -8 4 16.26 2.35
-2 -8 4 16.91 2.8
-2 -8 3 50.57 4.53
-2 -8 3 51.02 3.67
2 8 -3 42.85 3.02
2 8 -3 48.31 4.97
-2 -8 2 65.27 4.94
2 8 -2 75.03 4.15
2 8 -2 56.77 5.28
-2 -8 2 64.59 3.62
2 8 -1 20.26 3.2
2 8 -1 22.52 2.4
-2 -8 1 22.79 2.92
2 8 0 4.94 1.87
-2 -8 0 3.66 1.38
2 8 0 7.74 1.56
2 8 1 30.93 3.05
-2 -8 -1 26.77 3.08
2 8 1 25.06 3.46
-2 -8 -2 124.99 6.57
2 8 2 137.71 6.68
-2 -8 -2 116.17 5.42
-2 -8 -3 115.79 5.78
-2 -8 -3 117.67 6.41
2 8 3 124.57 6.63
-2 -8 -4 89.26 5.39
-2 -8 -4 89.51 5.6
2 8 4 91.34 5.89
-2 -8 -5 0.92 0.99
-2 -8 -5 0.03 1.09
2 8 5 0.43 1.03
-2 -8 -6 66.81 5.34
-2 -8 -6 62.66 5.07
2 8 6 73.74 5.66
-2 -8 -7 3.59 1.52
2 8 7 3.6 1.44
-2 -8 -7 3.25 1.47
2 8 8 67.79 5.98
-2 -8 -8 81.84 6.7
-2 -9 6 64.52 5.81
2 9 -6 82.71 7.73
-2 -9 5 133.2 8.13
2 9 -5 157.42 10.23
-2 -9 4 170.53 9.03
2 9 -4 177.22 10.53
2 9 -3 5.89 2.21
-2 -9 3 7.01 2
-2 -9 2 189.6 9.13
2 9 -2 190.5 7.28
2 9 -2 183.25 10.18
-2 -9 1 58.01 4.92
2 9 -1 54.28 3.91
2 9 -1 52.58 5.39
2 9 0 -0.27 1.3
-2 -9 0 2.13 1.15
2 9 0 2.1 1.13
2 9 1 11.96 2.61
2 9 1 14.63 2.32
-2 -9 -1 17.83 2.76
-2 -9 -2 -0.53 1.19
-2 -9 -2 2.23 0.99
2 9 2 0.32 0.84
-2 -9 -3 50.18 3.94
-2 -9 -3 50.12 4.47
2 9 3 48.12 4.35
-2 -9 -4 1.96 1.37
-2 -9 -4 1.8 0.9
2 9 4 2.33 1.43
-2 -9 -5 209.17 9.35
2 9 5 219.33 10.14
-2 -9 -5 199.81 9.56
-2 -9 -6 21.51 3.23
-2 -9 -6 25.11 3.52
2 9 6 27.54 3.74
-2 -9 -7 94.14 7.08
-2 -9 -7 108.71 7.47
2 9 7 103.18 7.45
2 10 -5 8.13 2.74
-2 -10 5 11.89 2.67
2 10 -4 36.1 5.06
-2 -10 4 43.14 4.83
-2 -10 3 41.63 4.62
2 10 -3 40.59 5.16
-2 -10 2 253.58 11.34
2 10 -2 240.34 12.56
-2 -10 1 57.96 5.28
2 10 -1 55.26 4.21
2 10 -1 68.9 6.49
2 10 0 256.53 9.79
-2 -10 0 270.2 11.51
2 10 0 247.55 12.63
-2 -10 -1 127.82 7.83
2 10 1 137.85 7.25
2 10 1 128.06 8.86
2 10 2 28.67 3.47
-2 -10 -2 38.38 4.25
-2 -10 -3 60.83 5.37
2 10 3 73.88 5.72
-2 -10 -4 0.41 1.17
2 10 4 -0.59 1.13
-2 -10 -5 4.25 1.75
2 10 5 3 1.49
-2 -11 2 -0.01 1.32
2 11 -2 0.67 1.37
-2 -11 1 50.73 5.22
2 11 -1 34.73 5.12
2 11 0 4.17 1.92
-2 -11 0 10.98 2.68
2 11 0 11.12 2.16
-2 -11 -1 0.1 1.45
2 11 1 1.3 1.12
-2 -11 -2 96.33 7.21
2 11 2 78.3 6
3 -9 -2 0.63 1.55
-3 9 2 3.16 1.82
3 -9 -1 129.93 9.12
-3 9 1 127.52 7.98
3 -9 0 19.57 3.57
-3 9 0 19.12 3.08
-3 9 0 12.53 2.49
3 -9 1 9.45 2.58
-3 9 -1 13.05 2.35
3 -9 2 168.07 9.7
-3 9 -2 154.95 10.31
3 -9 3 12.16 2.63
-3 9 -3 9.67 3
3 -9 4 20.52 3.35
-3 9 -4 15.46 3.55
-3 9 -5 2.07 1.74
3 -9 5 0.13 1.1
-3 9 -6 8.51 2.66
3 -9 6 4.84 1.78
3 -8 -4 19.73 3.78
-3 8 4 25.14 3.84
3 -8 -3 5.01 2.07
-3 8 3 1.68 1.23
3 -8 -2 -0.23 1.21
-3 8 2 0.43 1.34
3 -8 -1 27.65 3.98
-3 8 1 27.78 3.34
-3 8 1 30.37 3.71
3 -8 0 57.57 5.52
-3 8 0 60.17 5.07
-3 8 0 63.22 5.07
3 -8 1 56.07 5.34
-3 8 -1 64.88 4.83
-3 8 -1 56.18 5.74
-3 8 -2 7.77 1.6
-3 8 -2 9.88 2.69
3 -8 2 10.81 2.47
-3 8 -3 4.38 1.98
3 -8 3 4.48 1.72
3 -8 4 77.92 5.92
-3 8 -4 68.89 6.5
3 -8 5 18.26 2.85
-3 8 -5 16.29 3.36
-3 8 -6 22.04 3.91
3 -8 6 27.34 3.5
3 -8 7 12.81 2.9
-3 8 -7 8.73 2.59
3 -8 7 10.79 2.32
-3 8 -8 14.98 3.52
3 -8 8 15.56 2.81
3 -8 8 14.64 3.2
3 -7 -6 46.34 5.05
3 -7 -6 48.2 6.19
-3 7 6 55.12 5.76
-3 7 5 141.69 8.85
3 -7 -5 143.74 10.03
3 -7 -5 125.97 7.78
3 -7 -4 52.91 5.83
-3 7 4 48.85 5.07
3 -7 -4 44.86 4.31
3 -7 -3 14.56 3.08
-3 7 3 21.05 3.34
3 -7 -2 12.91 2.74
-3 7 2 12.01 2.17
-3 7 2 16.28 2.78
-3 7 1 34.87 3.54
-3 7 1 33.8 3.74
3 -7 -1 25.2 3.55
3 -7 0 5.58 1.78
-3 7 0 9.06 2
-3 7 0 10.34 2.07
3 -7 1 19.94 3.02
-3 7 -1 25.43 2.9
-3 7 -1 29.41 3.87
-3 7 -2 5.22 1.75
3 -7 2 6.42 1.95
3 -7 2 4.24 1.1
-3 7 -2 5.5 1.49
3 -7 3 133.78 7.34
-3 7 -3 130.91 5.74
-3 7 -3 139.18 8.49
3 -7 3 128.86 5.72
3 -7 4 -0.32 0.98
3 -7 4 -0.3 0.62
-3 7 -5 4.71 1.94
3 -7 5 2.42 1.34
3 -7 5 3.08 1.03
3 -7 6 11.09 2.53
-3 7 -6 6.1 2.02
3 -7 6 12.5 2.24
3 -7 7 106.9 7.58
3 -7 7 107.15 6.42
-3 7 -7 101.79 8.12
3 -7 8 148.63 9.35
3 -7 8 154.09 7.77
-3 7 -8 143.77 9.9
-3 7 -9 32.5 4.83
3 -7 9 32.54 4.73
3 -6 -7 28.02 4.18
3 -6 -7 28.6 4.84
-3 6 7 25.31 3.99
3 -6 -6 18.29 3.16
3 -6 -6 17.96 3.79
-3 6 6 13.91 2.9
3 -6 -5 0.75 1.22
3 -6 -5 1.72 1.61
-3 6 5 -0.7 1.17
3 -6 -4 31.1 4.31
3 -6 -4 31.65 3.57
-3 6 4 29.96 3.02
-3 6 4 28.31 3.7
3 -6 -3 14.16 2.3
-3 6 3 17.72 2.42
3 -6 -3 12.28 2.8
-3 6 3 20 2.98
3 -6 -2 97.37 6.85
-3 6 2 107.84 5.84
-3 6 2 116.35 6.86
3 -6 -2 114.09 5.74
3 -6 -1 5.1 1.25
3 -6 -1 4.7 1.58
-3 6 1 6.01 1.54
3 -6 0 42.55 4.31
-3 6 0 37.96 3.63
3 -6 1 125.14 6.93
-3 6 -1 125.38 7.37
-3 6 -2 1.32 1.29
3 -6 2 1.48 1.22
3 -6 3 417.41 10.9
3 -6 3 437.14 12.95
-3 6 -3 421.89 10.58
-3 6 -3 397.63 13.97
3 -6 4 43.53 3.26
3 -6 4 41.25 3.71
-3 6 -4 45.08 2.8
-3 6 -4 48.14 4.8
-3 6 -5 0.65 1.27
3 -6 5 -0.58 0.87
3 -6 5 0.14 0.75
-3 6 -6 12.85 2.81
3 -6 6 15.5 2.76
3 -6 6 15.39 2.28
3 -6 6 16.77 2.24
-3 6 -7 27.4 4.01
3 -6 7 26.96 3.72
3 -6 7 29.87 3.1
3 -6 8 0.97 0.82
3 -6 8 0.99 1.18
-3 6 -9 39.17 5.21
3 -6 9 43.15 5.08
3 -6 10 105.48 8.31
-3 6 -10 106.67 8.93
3 -5 -8 7.41 2.34
-3 5 8 8.18 2.51
3 -5 -7 -1.93 1.89
-3 5 7 1.93 1.35
3 -5 -6 2.74 1.66
3 -5 -6 0.8 1.32
-3 5 6 -0.07 1.27
-3 5 5 74.98 4.58
-3 5 5 84.02 6.18
3 -5 -5 62.8 5.3
3 -5 -5 59.12 5.97
3 -5 -4 7.75 1.99
3 -5 -4 6.57 2.22
-3 5 4 7.14 1.53
3 -5 -3 57.35 5.26
-3 5 3 54.19 3.94
3 -5 -3 67.84 4.69
3 -5 -2 6.37 1.51
3 -5 -2 4.46 1.51
-3 5 2 6.84 1.49
3 -5 -1 109.39 6.49
-3 5 1 105.74 5.59
3 -5 -1 111.03 5.09
-3 5 0 404.26 11.86
-3 5 0 387.8 9.17
3 -5 0 430.1 12.96
3 -5 1 235.01 8.96
-3 5 -1 218.31 5.68
-3 5 -1 250.21 9.65
3 -5 2 193.09 7.75
-3 5 -2 174.73 4
-3 5 -2 172.85 8.06
3 -5 3 333.21 10.25
-3 5 -3 329.46 11.6
3 -5 3 319.4 9.17
3 -5 4 13.49 1.97
3 -5 4 9.7 1.64
-3 5 -4 10.42 2.13
-3 5 -5 23.01 3.24
3 -5 5 24.62 3.21
3 -5 5 23.3 2.5
-3 5 -5 21.1 1.51
3 -5 5 22.48 2.44
-3 5 -6 11.32 2.47
3 -5 6 15.03 2.05
3 -5 6 11.24 1.83
3 -5 6 13.37 2.47
-3 5 -7 14.64 2.97
3 -5 7 11.93 2.53
3 -5 7 11.04 1.74
-3 5 -8 33.91 4.33
3 -5 8 31.32 2.91
3 -5 8 27.18 3.76
-3 5 -9 41.94 5.14
3 -5 9 39.16 4.68
-3 5 -10 -0.29 1.73
3 -5 10 -0.58 1.6
-3 5 -11 35.48 5.17
3 -5 11 31.75 4.71
3 -4 -8 -2.45 2.19
-3 4 8 0.34 1.22
-3 4 7 241.91 11.09
3 -4 -7 211.43 10.84
3 -4 -6 4.74 1.75
3 -4 -6 1.98 1.81
-3 4 5 403.37 11.38
3 -4 -5 413.6 15.67
3 -4 -5 424.17 13.85
3 -4 -4 128.42 8.04
-3 4 4 131.01 5.99
3 -4 -4 131.88 6.96
3 -4 -3 166.66 8.58
-3 4 3 152.71 6.45
3 -4 -3 149.83 6.97
3 -4 -2 0.25 0.94
3 -4 -2 1.7 1.29
-3 4 2 -0.78 0.8
3 -4 -1 0.4 0.89
3 -4 -1 -0.84 1.03
-3 4 1 0.12 0.66
3 -4 0 4.52 1.38
-3 4 0 3.44 1.21
-3 4 -1 5.02 0.88
-3 4 -1 6.96 1.61
3 -4 1 4.86 1.35
-3 4 -1 3.07 0.99
3 -4 2 880 17.98
-3 4 -2 894.16 14
-3 4 -2 854.6 18.73
-3 4 -3 -0.08 0.27
3 -4 3 -0.39 0.73
3 -4 3 0.24 0.62
-3 4 -4 787.98 12.12
3 -4 4 783.57 18.37
3 -4 4 777.51 15.83
-3 4 -4 786.08 18.58
3 -4 4 770.99 15.97
-3 4 -5 4.44 1.49
3 -4 5 4.01 1.19
-3 4 -5 2.61 0.58
3 -4 5 1.42 0.67
3 -4 5 3.18 1.42
-3 4 -5 2.16 0.52
-3 4 -6 14.93 2.56
3 -4 6 12.73 2.43
3 -4 6 11.33 1.59
-3 4 -6 11.09 1.32
-3 4 -6 12.98 0.79
3 -4 6 13.65 1.98
3 -4 7 92.16 6.25
-3 4 -7 107.83 6.97
3 -4 7 104.55 4.77
-3 4 -7 101.95 4.51
-3 4 -8 1.34 1.24
3 -4 8 1.46 0.67
3 -4 8 1.23 1.09
-3 4 -8 0.34 0.7
-3 4 -9 330.69 13.88
3 -4 9 329.45 13.58
3 -4 10 1.34 1.45
-3 4 -10 7.27 2.42
-3 4 -11 43.7 5.54
3 -4 11 40.49 5.2
-3 3 9 -0.73 1.25
3 -3 -9 3.57 2.09
-3 3 9 -0.35 1.36
3 -3 -8 -3 1.82
-3 3 8 -0.79 1.17
3 -3 -7 1.88 1.66
3 -3 -6 92.96 5.37
-3 3 6 104.63 5.44
3 -3 -6 101.12 6.89
3 -3 -5 269.28 9.29
3 -3 -5 242.48 11.46
-3 3 5 257.81 8.67
3 -3 -5 260.7 10.47
3 -3 -4 10.23 2.13
3 -3 -4 9.83 2.25
3 -3 -4 11.18 2.01
-3 3 4 11.74 1.79
3 -3 -3 163.35 6.89
3 -3 -3 137.9 7.69
-3 3 3 156.16 6.34
3 -3 -3 153.73 6.94
3 -3 -2 462.4 13.71
-3 3 2 477.99 11.84
3 -3 -2 466.21 12.36
3 -3 -2 465.06 12.14
3 -3 -1 10.83 1.88
3 -3 -1 13.49 1.81
3 -3 -1 13.39 2.13
-3 3 1 11.64 1.67
3 -3 0 311.23 9.73
3 -3 0 325.15 9.92
-3 3 0 338.06 9.65
3 -3 1 139.8 5.86
-3 3 -1 138.27 5.93
-3 3 -1 132.21 4.44
-3 3 -1 132.75 5.7
3 -3 2 177.59 6.33
-3 3 -2 181.42 5.01
-3 3 -2 180.23 6.71
3 -3 3 470.23 10.81
3 -3 3 487.09 11.18
-3 3 -3 462.65 12.01
3 -3 4 267.01 9.21
3 -3 4 256.94 7.19
-3 3 -4 256.73 8.86
3 -3 4 262.26 8.03
-3 3 -5 18.19 1.59
-3 3 -5 19.21 2.47
3 -3 5 16.89 1.66
3 -3 5 18.35 2.45
-3 3 -5 16.51 1.22
3 -3 5 19.07 2.18
-3 3 -6 6 1.6
-3 3 -6 5.99 1.09
3 -3 6 7.44 1.13
3 -3 6 6.09 1.48
-3 3 -6 7.18 0.72
-3 3 -6 6.37 0.66
3 -3 6 6.65 1.69
3 -3 7 123.35 7.08
3 -3 7 121.53 4.57
-3 3 -7 118.94 6.9
-3 3 -7 123.89 5.24
-3 3 -8 12.99 2.55
3 -3 8 13.17 2.52
-3 3 -8 17.05 2.16
3 -3 8 14.71 1.6
-3 3 -9 23.2 3.55
-3 3 -9 25.58 2.88
3 -3 9 30.38 3.94
3 -3 10 184.23 10.29
-3 3 -10 186.66 8.52
-3 3 -10 209.75 11.08
-3 3 -11 56.24 6.06
3 -3 11 50.32 5.58
-3 3 -11 49.47 4.68
3 -3 12 61.31 6.5
-3 3 -12 68.66 7.1
-3 2 9 100.53 7.18
-3 2 9 93.61 8.04
3 -2 -9 98.58 7.89
3 -2 -8 66.48 6.21
-3 2 7 34.18 3.26
3 -2 -7 41.63 4.67
3 -2 -7 45.07 3.61
-3 2 6 53.87 3.9
3 -2 -6 48.83 4.79
3 -2 -6 58.08 4.08
3 -2 -5 31.87 3.66
-3 2 5 31.1 2.92
3 -2 -5 37.43 3.2
-3 2 4 411.01 10.95
3 -2 -4 363.23 11.88
3 -2 -4 399.16 11.14
3 -2 -3 222.89 9.56
-3 2 3 238.8 7.81
3 -2 -3 238.95 8.65
3 -2 -3 238.87 8.15
3 -2 -2 -0.26 0.91
3 -2 -2 -0.14 0.66
3 -2 -2 0.41 0.87
-3 2 2 -0.1 0.69
3 -2 -1 2.61 1.22
3 -2 -1 4.46 1.24
3 -2 -1 2.43 0.92
-3 2 1 3.77 1.17
3 -2 0 87.16 4.69
-3 2 0 71.05 3.97
3 -2 0 74.23 3.83
3 -2 0 80.3 4.33
3 -2 1 896.06 17.41
3 -2 1 880.57 16.75
-3 2 -1 856.95 15.22
-3 2 -1 868.29 15.91
-3 2 -1 885.17 17.16
3 -2 1 850.53 16.02
3 -2 2 133.79 5.66
3 -2 2 133.9 4.99
3 -2 2 136.06 5.1
-3 2 -2 131.24 5.56
-3 2 -2 126.66 4.89
3 -2 3 1050.11 17.53
3 -2 3 1021.98 18.58
-3 2 -3 1043.21 17.07
-3 2 -3 1084.25 19.05
-3 2 -4 67.65 3.97
3 -2 4 69.06 3.02
-3 2 -4 64.65 2.84
3 -2 4 64.5 4.22
-3 2 -4 70.66 2.86
3 -2 4 74.01 3.95
-3 2 -5 173.69 5.46
3 -2 5 174.65 6.57
3 -2 5 172.89 4.84
-3 2 -5 167.3 4.69
3 -2 5 171.42 7.25
-3 2 -5 166.22 4.51
-3 2 -5 180.46 7.07
3 -2 6 47.65 3.96
-3 2 -6 40.92 2.82
3 -2 6 44.53 2.24
-3 2 -6 39.06 1.98
3 -2 6 46.89 3.57
-3 2 -6 42.22 2.02
-3 2 -6 40.32 3.5
-3 2 -7 1.22 1.13
3 -2 7 1.58 1.32
-3 2 -7 0.47 0.76
3 -2 7 0.35 0.42
-3 2 -7 0.23 0.29
3 -2 8 209.12 9.6
3 -2 8 218.74 5.6
-3 2 -8 213.21 8.05
3 -2 9 105.13 7.12
-3 2 -9 109.18 6.07
3 -2 10 218.27 10.9
-3 2 -10 195.94 8.98
3 -2 11 2.35 1.39
-3 2 -11 1.78 1.62
3 -2 12 196.35 11.58
-3 2 -12 168.1 9.51
-3 1 9 21.71 3.92
3 -1 -9 20.59 3.87
-3 1 8 75.87 5.17
3 -1 -8 71.8 6.35
3 -1 -7 12.26 2.72
-3 1 7 12.23 2.02
3 -1 -7 11.41 1.89
3 -1 -6 463.49 12.34
3 -1 -6 456.76 14.78
-3 1 6 445.86 12.43
-3 1 5 63.75 4.16
3 -1 -5 56.42 3.88
3 -1 -5 61.76 4.9
-3 1 4 219.4 7.7
3 -1 -4 243.29 8.06
3 -1 -4 217 8.73
-3 1 3 286.35 8.62
3 -1 -3 286.97 8.69
3 -1 -3 287.94 9.52
3 -1 -2 21.73 2.38
-3 1 2 30.71 2.6
3 -1 -2 29.33 2.6
3 -1 -1 11.41 1.9
-3 1 1 10.03 1.51
3 -1 -1 13.06 1.76
3 -1 -1 10.41 1.32
3 -1 0 28.86 2.68
-3 1 0 24.7 2.24
3 -1 0 28.15 2.45
3 -1 0 27.59 1.93
3 -1 1 89.81 4.21
-3 1 -1 95.97 4.42
-3 1 -1 93.82 3.91
-3 1 -1 95.7 3.39
3 -1 1 100.72 4.53
3 -1 1 92.7 3.4
3 -1 2 41.74 2.57
-3 1 -2 45.93 2.41
-3 1 -2 45.37 3.02
-3 1 -2 40.06 2.23
3 -1 2 42.09 2.89
3 -1 2 42.89 2.27
3 -1 3 413.36 9.96
-3 1 -3 416.72 7.88
-3 1 -3 402.92 9.07
3 -1 3 429.76 8.51
-3 1 -3 413.45 8.67
3 -1 3 415.73 9.8
3 -1 4 1262.99 22.92
-3 1 -4 1259.93 18.04
3 -1 4 1291.14 18.56
-3 1 -4 1285.59 19.44
3 -1 4 1254.42 21.74
-3 1 -4 1226.35 21.22
-3 1 -5 183.02 5.96
3 -1 5 191.29 4.26
3 -1 5 184.84 7.25
-3 1 -5 187.12 5.05
3 -1 5 191.58 6.85
3 -1 6 43.01 3.67
-3 1 -6 45.22 3.1
3 -1 6 45.8 1.74
-3 1 -6 44.61 2.33
-3 1 -6 45.78 2.36
3 -1 6 45.26 2.35
3 -1 6 43.59 3.4
3 -1 7 2.15 1.02
3 -1 7 2.54 0.43
-3 1 -7 3.92 1.15
-3 1 -7 2.58 0.67
3 -1 7 3.67 0.78
3 -1 8 8.56 1.97
3 -1 8 13.05 0.97
-3 1 -8 9.69 1.82
3 -1 8 12.61 1.36
3 -1 9 2.02 1.15
-3 1 -9 1.31 1.01
3 -1 10 59.98 5.52
-3 1 -10 62.56 5.06
3 -1 11 27.77 4.08
-3 1 -11 23.2 3.37
3 -1 12 1.86 1.55
-3 1 -12 0.66 1.26
3 0 -10 37.04 5.01
-3 0 10 45.74 4.71
-3 0 10 49.74 6.24
-3 0 9 101.75 8.31
3 0 -9 84 7.14
-3 0 8 0.73 1.65
3 0 -8 1.59 0.76
3 0 -8 0.98 1.29
3 0 -7 0.16 1.28
3 0 -7 1.31 0.86
-3 0 7 2.2 1.12
-3 0 6 335.36 10.66
3 0 -6 333.73 10.2
3 0 -6 309.68 11.82
-3 0 5 78.05 4.66
3 0 -5 76.72 4.49
3 0 -5 75.09 5.28
-3 0 4 295.87 9.17
3 0 -4 298.47 9.04
3 0 -4 292.85 10.15
-3 0 3 97.15 4.77
3 0 -3 87.96 4.52
3 0 -3 94.1 5.26
3 0 -2 0.51 0.66
-3 0 2 2.36 1.08
3 0 -2 1.58 1.11
-3 0 1 454.75 10.55
3 0 -1 431.75 10.49
-3 0 0 47.9 3.02
3 0 0 44.81 2.93
3 0 0 46.88 2.01
3 0 1 2.24 0.38
-3 0 -1 1.98 0.68
3 0 1 0.92 0.64
-3 0 -1 2.28 0.84
-3 0 -2 332.48 7.12
-3 0 -2 326.21 8.33
-3 0 -2 337.12 7.66
3 0 2 330.9 8.2
-3 0 -2 329.14 6.03
-3 0 -3 240.6 4.92
-3 0 -3 240.09 6.99
-3 0 -3 241.61 6.63
-3 0 -3 240.47 6.23
3 0 3 246 6.74
3 0 3 238.66 6.91
-3 0 -3 244.61 5.78
3 0 4 27.22 2.09
-3 0 -4 26.78 0.98
3 0 4 28.46 2.4
-3 0 -4 29.27 2.07
-3 0 -4 26.42 1.86
3 0 4 27.16 1.91
3 0 4 30.2 2.62
3 0 5 372.6 9.89
3 0 5 367.93 10.22
-3 0 -5 366.55 8.31
3 0 5 352.26 8.06
-3 0 -5 356.57 8.13
-3 0 -6 73.75 4.15
3 0 6 76.84 4.55
-3 0 -6 64.95 3.09
-3 0 -6 72.41 3.39
3 0 6 79.16 3.5
3 0 6 79.16 4.8
3 0 7 87.71 5.38
-3 0 -7 83.9 4.82
-3 0 -7 84 3.47
3 0 7 88.45 3.81
3 0 8 11.18 2.17
-3 0 -8 14.74 2.19
3 0 8 17.43 1.77
3 0 9 96.48 6.42
3 0 9 83.39 4.08
-3 0 -9 83.88 5.59
-3 0 -10 16.06 2.73
3 0 10 15.75 2.89
3 0 11 95.52 7.24
-3 0 -11 91.18 6.77
-3 0 -12 36.16 4.6
3 0 12 33.86 4.62
-3 -1 10 84.44 7.99
3 1 -10 93.04 7.83
3 1 -9 4.84 2.2
-3 -1 9 6.84 2.11
3 1 -8 27.09 2.93
3 1 -8 19.91 3.35
-3 -1 8 16.96 3.27
3 1 -7 2.36 1.11
3 1 -7 2.73 1.75
-3 -1 7 0.25 0.98
-3 -1 7 1.34 1.1
-3 -1 6 14.94 2.33
3 1 -6 14.22 2.02
3 1 -6 13.69 2.68
-3 -1 5 204.7 7.93
3 1 -5 186.27 7.16
3 1 -5 189.59 8.48
-3 -1 4 132.97 5.98
3 1 -4 132.46 5.74
3 1 -4 122.23 6.3
-3 -1 3 296.93 8.94
3 1 -3 316.09 8.96
3 1 -3 300.52 9.57
-3 -1 2 1841.18 29.4
3 1 -2 1831.16 29.07
-3 -1 1 455.49 10.73
3 1 -1 471.91 10.76
-3 -1 0 424.81 9.73
3 1 0 406.57 9.65
-3 -1 -1 218.74 6.37
3 1 1 208.28 6.21
-3 -1 -2 1188.54 19.27
-3 -1 -2 1141.79 19.23
3 1 2 1168.22 19.19
3 1 2 1161.44 19.39
-3 -1 -2 1240.06 19.97
-3 -1 -3 46.86 2.78
-3 -1 -3 46.46 2.54
-3 -1 -3 44.99 1.89
-3 -1 -3 48.81 2.73
3 1 3 48.41 2.64
3 1 3 49.17 2.7
3 1 3 49.87 2.91
-3 -1 -4 490.5 9.69
-3 -1 -4 510.22 10.47
3 1 4 504.55 11.18
3 1 4 478.35 10.24
3 1 4 477.42 9.69
3 1 4 496.21 11.1
3 1 5 2.63 1.08
3 1 5 1.75 0.84
-3 -1 -5 0.84 0.57
3 1 5 0.9 0.52
-3 -1 -5 0.78 0.41
3 1 5 1.6 0.71
-3 -1 -5 1.44 0.72
-3 -1 -6 1.95 0.92
3 1 6 2.58 0.95
-3 -1 -6 4.57 0.67
3 1 6 4.01 0.95
-3 -1 -6 4.9 1.08
-3 -1 -7 97.82 5.38
-3 -1 -7 99.73 3.06
3 1 7 96.81 5.45
3 1 7 104.48 4.55
-3 -1 -8 187.11 8.16
3 1 8 205.35 8.67
3 1 8 201.53 6.83
-3 -1 -9 160.34 8.09
3 1 9 168.25 8.39
3 1 9 177.53 6.64
-3 -1 -10 114.51 7.26
3 1 10 115.8 5.53
3 1 10 128.33 7.73
-3 -1 -11 152.27 9
3 1 11 161.49 9.28
3 1 12 21.25 3.66
-3 -1 -12 31.83 4.48
3 2 -10 14.66 3.26
-3 -2 10 12.2 3.25
-3 -2 9 139.79 9.71
3 2 -9 145.6 9.28
3 2 -8 2.31 1.53
-3 -2 8 4.13 2.07
3 2 -8 4.24 1.42
3 2 -7 0.56 1.43
-3 -2 7 2.35 1.59
3 2 -7 -0.6 1
-3 -2 6 317.59 12.61
-3 -2 6 342.25 11.37
3 2 -6 337.33 10.53
3 2 -6 320.93 11.92
-3 -2 5 81.99 5.07
3 2 -5 82.81 4.82
3 2 -5 83.13 5.51
3 2 -4 120.89 5.64
-3 -2 4 121.62 5.92
3 2 -4 116.54 6.09
-3 -2 3 19.42 2.24
3 2 -3 21.4 2.26
3 2 -2 36.5 2.83
-3 -2 2 34.47 2.8
3 2 -1 12.47 1.23
-3 -2 1 10.92 1.6
3 2 -1 11.67 1.61
3 2 0 889.97 16.37
-3 -2 0 887.45 16.26
3 2 0 890.47 13.35
3 2 1 1127.37 18.96
-3 -2 -1 1125.65 18.73
3 2 1 1147.36 18.86
-3 -2 -1 1113.05 15.3
-3 -2 -2 22.72 1.83
3 2 2 21.71 1.83
-3 -2 -2 23.38 1.9
3 2 2 20.28 1.77
3 2 2 23.83 1.99
-3 -2 -2 21.7 1.27
3 2 2 20.08 1.72
-3 -2 -2 22.72 1.84
-3 -2 -3 293.06 7.19
3 2 3 292.31 7.02
-3 -2 -3 277.65 6.91
-3 -2 -3 287.42 5.53
3 2 3 286.21 7.09
3 2 3 290.8 7.48
3 2 3 288.26 7.57
-3 -2 -3 299.59 7.02
-3 -2 -4 12.72 1.46
-3 -2 -4 10.58 1.19
-3 -2 -4 11.93 0.73
3 2 4 13.93 1.32
3 2 4 9.3 1.41
3 2 4 11.47 1.43
3 2 4 12.69 1.56
-3 -2 -4 14.05 1.3
-3 -2 -4 13.9 1.64
3 2 5 374.09 9.45
-3 -2 -5 378.18 8.18
3 2 5 370.17 9.25
-3 -2 -5 371.27 9.41
3 2 5 372.27 7.5
3 2 6 42.07 3.18
3 2 6 45.37 1.95
-3 -2 -6 41.94 3.4
-3 -2 -6 42.08 2.39
-3 -2 -6 40.24 2.96
3 2 6 46.57 3.11
-3 -2 -7 16.01 1.53
-3 -2 -7 11.92 2.05
3 2 7 11.1 1.83
3 2 7 16.91 1.98
-3 -2 -8 71.93 5.17
-3 -2 -8 81.56 3.68
3 2 8 78.68 4.47
3 2 8 78.58 5.13
-3 -2 -9 148.13 7.87
3 2 9 147 7.59
3 2 9 154.24 6.61
-3 -2 -10 4.29 1.7
3 2 10 4.05 1.2
3 2 10 2.86 1.38
3 2 11 3.65 1.44
-3 -2 -11 1.23 1.12
3 2 11 4.46 1.39
3 2 12 92.74 7.31
-3 -2 -12 84.72 7.23
-3 -3 10 107.7 9.02
3 3 -10 85.51 7.55
3 3 -9 9.27 2.73
-3 -3 9 7.15 2.43
3 3 -9 7.09 1.84
-3 -3 8 115.41 8.33
3 3 -8 117.8 6.58
3 3 -8 114.43 7.76
3 3 -7 6.55 2.06
3 3 -7 5.85 1.56
-3 -3 7 1.68 1.38
3 3 -6 362.17 11.34
-3 -3 6 345.9 13.19
3 3 -6 362.41 12.61
3 3 -5 93.54 5.27
-3 -3 5 86.36 5.96
-3 -3 5 93.07 5.6
3 3 -5 87.33 5.6
3 3 -4 515.27 13.19
-3 -3 4 522.26 13.71
3 3 -3 78.73 4.45
-3 -3 3 75.23 4.49
3 3 -2 6.15 1.16
3 3 -2 6.36 1.39
-3 -3 2 6.87 1.36
3 3 -1 55.05 3.49
-3 -3 1 54.63 3.41
3 3 -1 54.54 2.93
3 3 0 51.72 3.23
-3 -3 0 53.93 3.2
3 3 0 53.82 3.04
3 3 0 50.09 2.56
-3 -3 -1 52.37 3.01
3 3 1 61.18 3.34
-3 -3 -1 57.33 2.58
3 3 1 58.57 3.19
3 3 1 57.9 2.58
-3 -3 -2 24.21 1.91
3 3 2 28 2.06
-3 -3 -2 29.35 1.91
-3 -3 -2 29.9 1.79
3 3 2 27.56 2.25
3 3 2 31.21 2.25
-3 -3 -2 29.6 1.95
3 3 2 29.04 1.99
-3 -3 -3 1346.05 20.33
3 3 3 1306.96 21.29
-3 -3 -3 1370.82 20.75
-3 -3 -3 1368.04 20
3 3 3 1375.67 20.99
3 3 3 1378.56 22.64
-3 -3 -3 1407.81 22.96
-3 -3 -3 1359.78 21.71
3 3 3 1356.18 21.66
3 3 4 8.86 1.17
-3 -3 -4 8.38 1.12
-3 -3 -4 9.64 0.91
-3 -3 -4 7.21 0.91
3 3 4 7.68 1.03
3 3 4 9.22 1.45
-3 -3 -4 5.75 1.19
3 3 4 7.51 1.31
3 3 5 129.76 4.79
-3 -3 -5 130.71 3.62
-3 -3 -5 131.79 3.87
3 3 5 129.8 3.94
-3 -3 -5 123.28 5.44
3 3 5 133.25 5.52
-3 -3 -5 128.38 5.02
-3 -3 -6 469.06 12.64
-3 -3 -6 469.96 8.61
-3 -3 -6 456.79 8.5
3 3 6 452.77 11.02
3 3 6 457.51 11.67
3 3 6 469.64 8.07
3 3 7 42.92 3.33
-3 -3 -7 44.69 3.91
-3 -3 -7 45.14 2.08
3 3 7 41.53 3.31
3 3 8 503.42 13.57
3 3 8 521.83 13.4
-3 -3 -8 467.87 14.44
-3 -3 -9 71.91 5.62
3 3 9 70.38 5.07
3 3 9 68.6 4.66
3 3 10 75.34 5.65
3 3 10 75.37 5.07
-3 -3 -10 70.95 5.99
-3 -3 -11 7.14 2.15
3 3 11 11.45 2.12
3 3 12 5.37 1.95
-3 -3 -12 7.95 2.66
3 4 -9 26.17 3.97
-3 -4 9 30.51 4.59
3 4 -9 24.58 3.26
-3 -4 8 18.01 3.32
3 4 -8 13.73 2.78
3 4 -8 14.4 2.4
3 4 -7 44.73 4.07
-3 -4 7 42.89 4.83
3 4 -7 45.38 4.62
3 4 -6 43.54 3.92
-3 -4 6 39.24 4.35
3 4 -5 228.09 8.85
-3 -4 5 221.19 9.71
3 4 -5 241.96 9.96
-3 -4 4 40.86 3.77
3 4 -4 35.65 3.26
3 4 -4 35.6 3.43
-3 -4 3 215.48 8.2
-3 -4 3 235.12 8.49
3 4 -3 211.45 7.99
3 4 -3 226.14 8.18
-3 -4 2 390.12 10.8
3 4 -2 365.94 10.16
-3 -4 1 142.47 5.84
3 4 -1 151.96 5.73
-3 -4 0 21.49 2.13
3 4 0 26.01 2.24
-3 -4 0 21.81 2.02
3 4 0 28.86 2.29
-3 -4 -1 1.15 0.63
3 4 1 0.29 0.43
-3 -4 -1 -0.39 0.55
-3 -4 -1 0.18 0.58
3 4 1 0.02 0.51
3 4 1 1.08 0.82
-3 -4 -2 30.1 2.14
3 4 2 30.93 2.21
-3 -4 -2 31.54 2.21
3 4 2 30.97 2.42
3 4 2 28.43 2.39
-3 -4 -2 29.77 2.54
-3 -4 -2 28.17 2.35
-3 -4 -2 27.99 1.43
3 4 2 31.39 1.96
3 4 3 102.99 4.22
-3 -4 -3 101.1 3.03
-3 -4 -3 102.43 3.91
3 4 3 99.63 3.79
3 4 3 104.67 4.06
3 4 3 98.26 4.69
-3 -4 -3 108.94 4.98
-3 -4 -3 104.69 3.68
3 4 4 279.58 7.1
-3 -4 -4 280.29 6.42
-3 -4 -4 276.87 6.09
-3 -4 -4 284.53 6.85
3 4 4 288.23 6.37
3 4 4 283.51 8.62
-3 -4 -4 285.7 8.75
3 4 5 33.69 2.17
-3 -4 -5 32.55 2.24
3 4 5 32.64 2.07
-3 -4 -5 37.27 2.24
-3 -4 -5 34.43 1.59
-3 -4 -5 36.2 3.16
3 4 5 35.01 3.02
3 4 6 6.36 1.16
-3 -4 -6 6.64 0.51
-3 -4 -6 8.77 1.17
3 4 6 8.1 0.99
-3 -4 -6 7.69 1.78
3 4 6 7.68 1.5
3 4 6 8.84 0.93
3 4 7 281.32 8.6
-3 -4 -7 281.08 10.45
-3 -4 -7 284.55 7.6
3 4 7 278.29 9.58
-3 -4 -8 126.65 7.29
3 4 8 123.36 5.98
3 4 8 126.13 6.51
3 4 9 530.42 14.56
-3 -4 -9 539.71 16.85
3 4 9 542.78 15.09
3 4 10 69.14 5.24
-3 -4 -10 65.16 5.95
3 4 10 70.35 5.25
-3 -4 -11 45.26 5.31
3 4 11 44.27 4.38
-3 -5 9 1.59 1.53
3 5 -9 -0.56 0.83
-3 -5 8 6.72 2.33
3 5 -8 8.26 2.03
3 5 -8 3.19 1.83
3 5 -7 1.7 1.53
-3 -5 7 -0.64 1.33
3 5 -7 -0.52 0.92
3 5 -6 26.36 3.75
-3 -5 6 24.6 3.44
3 5 -6 21.93 2.94
3 5 -5 1.29 1.19
-3 -5 5 4.08 1.59
3 5 -5 2.54 1.22
-3 -5 4 84.7 5.47
3 5 -4 98.67 6.06
3 5 -3 1.84 1.09
-3 -5 3 3.57 1.17
3 5 -2 5.07 1.44
-3 -5 2 4.73 1.17
3 5 -1 1.95 0.88
-3 -5 1 3.01 0.85
3 5 -1 3.7 0.97
-3 -5 0 356.42 7.86
-3 -5 0 349.3 9.69
-3 -5 0 359.25 9.88
3 5 0 376.16 9.61
3 5 0 355.38 9.98
3 5 0 376.11 7
-3 -5 -1 117 3.17
-3 -5 -1 117.34 4.88
-3 -5 -1 122.32 5.19
3 5 1 114.9 5.06
-3 -5 -1 121.53 5.29
3 5 1 121.89 5.41
3 5 1 118.68 3.52
-3 -5 -2 994.43 17.44
-3 -5 -2 1013.34 18.29
3 5 2 1006.99 16.06
3 5 2 1003.13 19.1
-3 -5 -2 1015.84 19.45
-3 -5 -3 44.22 2.44
3 5 3 48.23 2.64
3 5 3 51.58 3.59
-3 -5 -3 44.81 3.39
-3 -5 -3 47.11 2.91
-3 -5 -4 1.05 0.58
3 5 4 2.52 0.56
3 5 4 1.95 0.97
-3 -5 -4 3.52 1.23
3 5 4 1.53 0.69
3 5 5 82.93 3.67
-3 -5 -5 84.88 5.01
3 5 5 78.04 2.94
-3 -5 -5 88.07 4.04
3 5 5 84.93 4.98
3 5 6 2.11 0.76
-3 -5 -6 3.58 1.01
-3 -5 -6 0.24 0.96
3 5 6 1.43 0.49
3 5 6 4.24 1.39
3 5 7 211.62 6.91
-3 -5 -7 215.3 9.29
-3 -5 -7 216.27 7.2
3 5 7 216.75 8.8
-3 -5 -8 40.73 4.26
3 5 8 38.27 3.11
3 5 8 48.07 4.27
-3 -5 -9 156.9 8.92
3 5 9 164.83 8.25
3 5 10 27.97 3.52
-3 -5 -10 31.36 4.31
-3 -5 -11 2.73 1.96
3 5 11 1.89 1.12
3 6 -8 14.94 3.42
-3 -6 8 11.77 2.89
3 6 -8 11.09 2.35
3 6 -7 44.23 5.2
-3 -6 7 41.45 4.68
3 6 -7 47.86 4.66
-3 -6 6 16.63 2.92
3 6 -6 18.57 3.33
-3 -6 5 123.52 7.14
3 6 -5 125.02 7.79
-3 -6 4 49.88 4.14
3 6 -4 48.99 4.51
-3 -6 3 129.53 6.18
3 6 -3 123.03 6.89
-3 -6 2 126.09 5.46
-3 -6 2 124.93 6.28
-3 -6 2 120.08 5.2
3 6 -2 133.34 6.84
-3 -6 1 87.84 3.95
-3 -6 1 81.8 4.91
3 6 -1 91.33 4.54
-3 -6 1 90.59 4.56
3 6 -1 94.14 5.48
3 6 0 42.4 1.58
-3 -6 0 51.26 3.76
-3 -6 0 49.35 2.31
3 6 0 50.31 3.4
-3 -6 0 51.58 3.53
3 6 0 44.11 3.7
-3 -6 -1 154.15 6.41
3 6 1 161.68 6.47
-3 -6 -1 158.48 6.5
3 6 1 170.12 7.26
-3 -6 -2 253.9 8.16
-3 -6 -2 255.6 8.69
3 6 2 253.48 8.5
3 6 3 314.17 7.96
-3 -6 -3 342.64 9.45
-3 -6 -3 351.92 10.76
3 6 3 347.53 10.45
-3 -6 -4 242.25 7.75
3 6 4 250.04 8.98
-3 -6 -5 164.67 7.39
-3 -6 -5 161.81 6.3
3 6 5 179.44 7.72
3 6 6 0.79 0.55
-3 -6 -6 2.03 1.07
3 6 6 1.04 0.82
-3 -6 -7 79.19 5.72
-3 -6 -7 72.97 4.5
3 6 7 82.51 5.6
-3 -6 -8 -0.84 1.38
3 6 8 -0.35 1.07
-3 -6 -9 6.12 1.95
3 6 9 6.08 1.98
-3 -6 -10 2.99 1.89
3 6 10 0.47 1.03
3 7 -8 1.24 1.58
-3 -7 8 3.12 1.41
3 7 -8 3.38 1.3
-3 -7 8 0.48 1.1
3 7 -7 20.85 3.9
-3 -7 7 13.53 2.7
-3 -7 7 16.57 3.14
-3 -7 6 137.77 8.13
-3 -7 6 140.62 8.13
3 7 -6 154.21 9.59
-3 -7 5 90.7 6.09
-3 -7 5 84.31 6.07
3 7 -5 87.45 6.81
-3 -7 4 95.6 5.73
-3 -7 4 107.54 6.59
-3 -7 4 92.73 4.55
3 7 -4 92.33 6.61
-3 -7 3 116.37 5.77
-3 -7 3 115.54 6.59
-3 -7 3 119.31 5.3
3 7 -3 121.23 7.33
-3 -7 2 5.75 1.17
3 7 -2 9.45 2.1
-3 -7 2 7.66 1.82
3 7 -2 7.52 1.37
-3 -7 2 7.22 1.41
-3 -7 1 394.42 8.91
-3 -7 1 392.46 12.02
-3 -7 1 377.29 10.62
3 7 -1 380.48 10.5
3 7 -1 372.11 12.55
-3 -7 0 25.64 1.45
3 7 0 26.48 3.12
-3 -7 0 29.79 3.05
3 7 0 26.7 2.67
-3 -7 0 23.42 2.58
-3 -7 -1 5.08 1.36
3 7 1 5.49 1.36
-3 -7 -1 4.43 1.29
3 7 1 5.24 1.6
-3 -7 -2 85.73 4.93
-3 -7 -2 82.59 5.12
3 7 2 85.44 5.03
-3 -7 -3 175.24 7.15
3 7 3 189.45 7.88
-3 -7 -4 1.21 0.9
-3 -7 -4 2.23 1.08
3 7 4 0.95 1.08
-3 -7 -5 39.97 3.72
-3 -7 -5 41.53 3.38
3 7 5 40.76 3.9
-3 -7 -6 98.99 6.25
-3 -7 -6 95.77 5.44
3 7 6 94.95 6.13
-3 -7 -7 11.58 2.01
-3 -7 -7 12.62 2.51
3 7 7 11.62 2.33
-3 -7 -8 89.37 6.7
3 7 8 85.97 6.29
3 7 9 205.88 10.24
-3 -7 -9 201.64 10.77
3 8 -7 -0.33 1.39
-3 -8 7 -0.33 1.51
-3 -8 7 1.19 1.33
3 8 -6 44.34 5.43
-3 -8 6 40.08 4.41
-3 -8 6 50.08 5.01
3 8 -5 -0.47 1.5
-3 -8 5 -0.98 1.18
-3 -8 5 -0.15 1.01
-3 -8 4 108.39 6.16
-3 -8 4 124.95 7.43
3 8 -4 127.79 8.28
-3 -8 3 263.98 10.75
-3 -8 3 263.04 8.55
3 8 -3 255.09 11.51
-3 -8 2 46.55 4.32
-3 -8 2 43.98 3.43
3 8 -2 51.62 3.67
3 8 -2 48.99 4.8
-3 -8 1 533.92 15.21
-3 -8 1 529.63 13.62
3 8 -1 516.05 13.2
3 8 -1 487.19 15.7
-3 -8 0 130.55 6.95
-3 -8 0 142.06 6.72
3 8 0 142.33 6.57
3 8 0 141.86 7.99
-3 -8 -1 179.19 8.01
3 8 1 184.92 7.72
3 8 1 161.8 8.52
-3 -8 -2 67.4 4.77
3 8 2 65.97 4.72
-3 -8 -3 11.01 2.01
-3 -8 -3 16.26 2.35
3 8 3 12.88 2.22
-3 -8 -4 20.79 2.66
-3 -8 -4 19.76 2.63
3 8 4 18.57 2.74
-3 -8 -5 29.28 3.21
-3 -8 -5 32 3.54
3 8 5 35.29 3.85
-3 -8 -6 3.56 1.24
-3 -8 -6 0.74 1.05
3 8 6 1.33 1.07
-3 -8 -7 -1.13 1.19
-3 -8 -7 -0.42 1.36
3 8 7 1.22 1.14
-3 -8 -8 176.13 9.81
3 8 8 182.38 9.71
3 9 -6 0.93 1.84
-3 -9 6 3.71 1.8
3 9 -5 1.2 1.47
-3 -9 5 0.99 1.2
3 9 -4 28.49 4.19
-3 -9 4 35.61 4.21
3 9 -3 37.45 4.66
-3 -9 3 32.82 3.97
3 9 -2 2.66 1.44
-3 -9 2 1.23 1.09
3 9 -2 -0.16 0.64
-3 -9 1 0.78 1.16
3 9 -1 -0.48 0.72
3 9 -1 -0.55 1.71
-3 -9 0 50.96 4.57
3 9 0 44.38 3.82
3 9 0 49.31 5.08
-3 -9 -1 51.45 4.54
3 9 1 56.94 4.46
3 9 1 58.97 5.51
-3 -9 -2 80.34 5.63
3 9 2 84.34 5.62
-3 -9 -3 166.75 7.51
-3 -9 -3 148.81 7.73
3 9 3 157.4 7.99
-3 -9 -4 45.68 4.11
-3 -9 -4 49.07 4.36
3 9 4 42.87 4.33
-3 -9 -5 180.84 8.76
-3 -9 -5 189.08 8.89
3 9 5 198.19 9.59
-3 -9 -6 13 2.45
-3 -9 -6 9.66 2.31
3 9 6 11.68 2.43
-3 -9 -7 -1.03 1.23
3 9 7 -0.55 1.32
-3 -10 4 92.19 7.07
3 10 -4 80.53 7.46
3 10 -3 1.79 1.45
-3 -10 3 1.43 1.56
3 10 -2 7.53 2.52
-3 -10 2 3.93 1.63
-3 -10 1 75.18 6.02
3 10 -1 78.99 5.22
3 10 -1 64.3 6.26
-3 -10 0 8.42 2.25
3 10 0 13.58 2.31
3 10 0 10.04 2.52
-3 -10 -1 1.1 0.98
3 10 1 2.13 1.21
3 10 1 0.98 1.26
-3 -10 -2 1.38 1.1
3 10 2 -0.15 0.91
-3 -10 -3 224.45 10.27
3 10 3 240.81 10.49
-3 -10 -4 8.37 2.15
3 10 4 15.3 2.78
-3 -10 -5 65.96 5.62
3 10 5 70.11 5.95
-3 -11 1 19.56 3.39
3 11 -1 11.38 2.81
-3 -11 0 19.91 3.35
3 11 0 15.6 2.56
3 11 0 16.66 3.49
-3 -11 -1 12.25 2.65
3 11 1 6.86 1.77
-3 -11 -2 -0.51 1.01
3 11 2 0.69 1.07
4 -9 1 -0.39 1.44
-4 9 -1 -1.17 1.24
-4 9 -2 38.61 5.31
4 -9 2 39.01 5.01
-4 9 -2 48.97 5.32
4 -9 3 2.53 1.44
-4 9 -3 2.43 2.06
4 -8 -2 44.12 5.61
-4 8 2 47.85 5.23
4 -8 -1 107.65 8.37
-4 8 1 109.75 7.1
-4 8 1 121.73 7.99
4 -8 0 36.15 4.72
-4 8 0 29.41 3.84
-4 8 0 29.77 3.81
4 -8 1 0.28 1.16
-4 8 -1 2.1 1.23
-4 8 -1 1.07 0.97
4 -8 2 -0.39 1.19
-4 8 -2 1.13 1.3
-4 8 -2 0.88 0.96
-4 8 -2 0.12 1.15
-4 8 -3 8.16 2.51
4 -8 3 13.16 2.78
-4 8 -4 12.13 3.04
4 -8 4 13.86 2.87
-4 8 -5 2.4 1.47
4 -8 5 2.77 1.48
4 -8 6 -0.56 1.47
-4 8 -6 -1.12 1.54
4 -7 -4 16.19 3.74
-4 7 4 10.37 2.62
4 -7 -3 25.14 4.17
-4 7 3 37.24 4.57
4 -7 -2 18.01 3.44
-4 7 2 18.51 2.81
-4 7 2 15.24 3.01
4 -7 -1 52.03 5.5
-4 7 1 49.55 4.6
-4 7 1 49.19 4.78
4 -7 0 50.51 5.21
-4 7 0 51.85 4.76
-4 7 0 46.88 4.56
4 -7 1 103.99 7.29
-4 7 -1 96 6.58
-4 7 -1 109.79 6.59
4 -7 2 8.46 2.23
-4 7 -2 6.75 1.68
-4 7 -2 5.34 1.77
-4 7 -2 6.92 2.06
4 -7 3 5.15 1.39
4 -7 3 3.03 1.48
-4 7 -3 2.29 1.11
-4 7 -3 3.47 1.69
4 -7 4 158.95 8.42
-4 7 -4 147.16 9.15
4 -7 4 169.3 7.43
4 -7 5 58.65 5.02
-4 7 -5 56.17 5.71
4 -7 5 60.21 4.46
-4 7 -6 40.88 5.07
4 -7 6 36.5 3.91
4 -7 6 37 3.59
-4 7 -7 25.86 4.18
4 -7 7 28.02 3.45
-4 7 -8 -1.41 1.8
4 -6 -5 60.08 6.83
-4 6 5 60.61 5.94
4 -6 -5 53.71 5.3
4 -6 -4 52.52 6.1
4 -6 -4 62.9 5.38
4 -6 -3 21.5 2.99
4 -6 -3 16.75 3.32
-4 6 3 20.34 2.87
4 -6 -2 72.08 6.44
-4 6 2 66.02 5.01
4 -6 -2 67.16 4.81
4 -6 -1 -0.81 1.51
-4 6 1 -0.36 0.92
4 -6 0 43.89 4.58
-4 6 0 40.36 4.05
-4 6 -1 88.57 6
-4 6 -1 87.33 6.28
4 -6 1 91.3 6.37
4 -6 2 0.48 1.05
-4 6 -2 0.04 1.29
-4 6 -2 1.49 1.07
4 -6 3 372.09 12.57
-4 6 -3 335.47 12.95
4 -6 3 351.27 10.87
4 -6 4 7.68 1.68
-4 6 -4 7.42 2.01
4 -6 4 4.37 1.51
4 -6 5 165.83 7.76
4 -6 5 150.53 7.03
-4 6 -5 133.74 8.35
4 -6 6 5.06 1.48
4 -6 6 3.03 1.13
4 -6 7 11.82 2.63
-4 6 -7 16.1 3.22
4 -6 7 16.35 2.41
4 -6 7 13.57 2.31
-4 6 -8 28.38 4.26
4 -6 8 20.08 3.55
-4 6 -9 20.62 3.81
4 -6 9 17.12 3.43
4 -5 -6 17.7 3.33
4 -5 -5 17.13 3.01
4 -5 -5 21.07 3.99
4 -5 -4 142.17 9.66
-4 5 4 146.01 7.29
4 -5 -4 148.05 8.24
4 -5 -3 12.17 2.75
-4 5 3 10.41 2.03
-4 5 2 45.39 4.02
4 -5 -2 39.82 4.61
4 -5 -2 40.98 3.79
4 -5 -1 232.03 10.62
-4 5 1 227.21 9.19
4 -5 0 8.05 1.96
-4 5 0 7.09 1.67
4 -5 1 268.48 10.57
-4 5 -1 278.42 10.49
-4 5 -1 272.29 10.48
4 -5 2 58.1 4.57
-4 5 -2 56.6 4.65
-4 5 -2 60.2 4.84
4 -5 3 165.76 7.65
-4 5 -3 152.88 7.82
4 -5 3 163.73 6.97
4 -5 4 59.24 4.34
-4 5 -4 53.37 4.73
4 -5 4 56.75 4.11
4 -5 5 513.03 13.59
-4 5 -5 481.19 15.56
4 -5 5 515.75 13.76
-4 5 -6 4.21 1.75
4 -5 6 3 1.33
4 -5 6 4.99 1.3
-4 5 -7 24.41 3.59
4 -5 7 20.9 3.31
4 -5 7 19.09 2.33
4 -5 7 29.42 3.34
4 -5 8 111.83 7.9
-4 5 -8 112.01 7.85
-4 5 -9 35.97 4.69
4 -5 9 36.56 4.82
-4 5 -10 10.88 2.94
4 -5 10 15.05 3.42
4 -4 -7 15.04 3.25
4 -4 -6 5.4 2.1
4 -4 -6 4.39 1.51
4 -4 -5 36.23 4.24
4 -4 -5 25.27 4.23
4 -4 -5 32.1 3.62
-4 4 5 29.95 3.23
4 -4 -4 3.22 1.8
4 -4 -4 4 1.43
4 -4 -4 5.16 2.07
-4 4 4 2.13 1.09
4 -4 -3 59.85 4.82
-4 4 3 61.3 4.53
4 -4 -3 57.23 4.72
4 -4 -3 47.67 5.19
4 -4 -2 99.38 6.99
4 -4 -2 99.7 6.17
-4 4 2 96.52 5.7
4 -4 -2 99.83 5.82
4 -4 -1 147.2 8.03
-4 4 1 140.43 6.84
4 -4 0 41.6 4.06
-4 4 0 41.8 3.76
4 -4 1 0.47 0.91
-4 4 -1 0.84 1.04
-4 4 -1 0.01 0.78
4 -4 2 146.7 6.83
-4 4 -2 138.91 7.01
-4 4 -2 132.43 4.88
-4 4 -2 132.43 6.57
-4 4 -3 12.93 2.18
-4 4 -3 9 1.17
4 -4 3 14.75 2.11
-4 4 -4 25.16 2.97
4 -4 4 21.95 2.42
4 -4 4 25.97 2.74
4 -4 5 1.38 1.04
-4 4 -5 1.93 1.21
4 -4 5 0.99 0.71
-4 4 -5 2.37 0.67
4 -4 6 147.98 8.13
-4 4 -6 134.82 4.79
4 -4 6 143.56 6.87
4 -4 6 138.78 5.85
-4 4 -6 138.43 7.62
4 -4 7 4.75 1.81
-4 4 -7 3.22 1.7
4 -4 7 4.01 1.06
4 -4 7 3.34 1.32
-4 4 -8 12.65 2.66
4 -4 8 6.94 2.04
4 -4 9 64.18 5.93
-4 4 -9 52.77 5.44
-4 4 -10 37.33 4.83
4 -4 10 36.22 4.77
4 -4 11 154.91 10.22
-4 4 -11 159.38 10.53
4 -3 -8 41 5.33
4 -3 -7 131.13 8.81
4 -3 -6 -0.3 1.8
4 -3 -6 0.33 0.86
-4 3 6 -0.15 0.98
4 -3 -5 72.39 5.21
-4 3 5 68.96 4.85
4 -3 -5 58.06 5.29
4 -3 -4 38.89 4.08
-4 3 4 40.91 3.62
4 -3 -4 39.82 3.81
4 -3 -3 3.55 1.35
4 -3 -3 5.86 1.93
4 -3 -3 4.09 1.65
-4 3 3 4.34 1.28
4 -3 -2 46.82 4.03
4 -3 -2 37.69 4.23
-4 3 2 43.16 3.68
4 -3 -2 44.29 3.82
4 -3 -1 1.91 1.09
4 -3 -1 0.43 0.89
-4 3 1 0.72 0.87
4 -3 0 61.04 4.48
4 -3 0 62.89 4.79
-4 3 0 56.91 4.2
4 -3 1 312.8 10.49
4 -3 1 300.54 10.11
-4 3 -1 284.05 9.82
-4 3 -1 292.29 9.05
4 -3 2 430.13 11.83
-4 3 -2 415.28 12.3
-4 3 -2 430.62 11.38
4 -3 3 210.59 7.46
-4 3 -3 206.81 8.3
-4 3 -3 195.3 7.4
4 -3 4 40.38 3.02
4 -3 4 43.88 3.48
-4 3 -4 42.02 3.51
4 -3 5 179.31 6.25
-4 3 -5 181.67 7.75
4 -3 5 180.97 7.4
4 -3 6 41.69 4.19
-4 3 -6 35.02 2.54
4 -3 6 32.16 2.48
4 -3 6 44.08 3.74
-4 3 -6 34.66 3.54
4 -3 7 0.77 1.01
-4 3 -7 -0.04 0.91
4 -3 7 1.26 1.33
4 -3 7 0.38 0.45
-4 3 -7 -0.1 0.61
-4 3 -7 0.81 0.43
-4 3 -8 39.37 3.2
4 -3 8 41.06 4.42
-4 3 -8 44.69 4.47
-4 3 -9 8.06 2.19
-4 3 -9 12.11 1.99
-4 3 -10 1.17 0.9
4 -3 10 1.38 1.02
-4 3 -11 1.2 1.55
4 -3 11 -3.45 1.76
4 -2 -8 150.51 9.89
4 -2 -7 1.91 1.5
-4 2 7 2.08 1.11
4 -2 -7 4.06 1.41
4 -2 -6 10.24 2.73
4 -2 -6 9.72 1.94
-4 2 6 8.61 1.88
-4 2 5 297.36 10.41
4 -2 -5 307.33 12.17
4 -2 -5 292.49 10.69
-4 2 4 54.68 4.15
4 -2 -4 62.83 5.08
4 -2 -4 53.12 4.33
-4 2 3 109.62 5.87
4 -2 -3 120.02 6.68
4 -2 -3 122.72 6.39
4 -2 -2 114.31 7.11
-4 2 2 117.71 5.95
4 -2 -2 130.08 6.53
4 -2 -2 128.22 6.49
4 -2 -1 2.97 1.18
4 -2 -1 6.12 1.56
-4 2 1 2.9 1
4 -2 0 42.16 3.83
-4 2 0 36.53 3.23
4 -2 0 38.4 3.38
4 -2 1 15.23 1.76
4 -2 1 19.13 2.42
-4 2 -1 14.89 2.09
4 -2 1 14.92 2.17
-4 2 -2 7.62 1.26
4 -2 2 8.13 1.28
4 -2 2 6.21 1.35
4 -2 2 7.79 1.67
-4 2 -2 10.3 1.89
4 -2 3 388.13 11.12
4 -2 3 359.38 9.65
-4 2 -3 359.19 10.87
-4 2 -3 368.06 9.51
4 -2 4 16.74 2.09
-4 2 -4 14.24 1.86
4 -2 4 12.14 1.53
4 -2 5 87.48 5.52
-4 2 -5 82.27 3.41
4 -2 5 81.45 3.66
-4 2 -5 85.19 4.82
4 -2 5 74.38 4.57
4 -2 6 288.5 10.83
-4 2 -6 306.07 8.5
4 -2 6 298.46 7.27
-4 2 -6 288.15 6.73
4 -2 6 297.62 9.9
-4 2 -6 306.94 10.16
4 -2 7 79.57 5.74
-4 2 -7 97.05 4.86
4 -2 7 93.51 3.45
-4 2 -7 94.64 3.69
4 -2 7 90.44 5.52
-4 2 -7 86.22 5.54
-4 2 -8 116.49 5.75
4 -2 8 119.46 7.37
-4 2 -8 121.55 4.24
-4 2 -8 131.87 7.33
-4 2 -9 29.18 3.12
-4 2 -9 24.4 3.4
4 -2 9 29.77 3.85
4 -2 10 144.62 8.88
-4 2 -10 152.21 9.01
-4 2 -10 140.68 7.45
-4 2 -11 0.59 1.5
-4 2 -11 -0.6 1.32
4 -2 11 0.16 1.49
4 -2 12 7.63 2.29
-4 2 -12 8.58 2.27
4 -1 -8 4.92 2.11
-4 1 8 5.42 1.66
4 -1 -7 0.33 1.45
-4 1 7 0.75 1.19
4 -1 -7 0.58 1.06
-4 1 6 255.42 9.85
4 -1 -6 261.97 9.95
4 -1 -6 243.63 11.33
4 -1 -5 39.13 4.32
-4 1 5 48.06 4.03
4 -1 -5 40.71 3.74
-4 1 4 293.8 10.13
4 -1 -4 304.99 10.33
4 -1 -4 308.38 11.5
-4 1 3 61.3 4.27
4 -1 -3 63.42 4.4
4 -1 -3 65.77 4.88
-4 1 2 20.82 2.48
4 -1 -2 20.05 2.41
-4 1 1 434.19 11.73
4 -1 -1 444.39 12.09
4 -1 -1 416.36 10.17
4 -1 0 56.58 4.26
-4 1 0 57.87 3.9
4 -1 0 63.91 4.16
4 -1 0 57.45 3.04
4 -1 1 163.81 6.93
-4 1 -1 188.71 7.1
4 -1 1 182.07 7.13
4 -1 1 177.47 5.21
4 -1 2 160.86 6.32
-4 1 -2 170.06 6.69
-4 1 -2 159.42 4.79
4 -1 2 166.87 6.69
4 -1 2 148.87 4.62
4 -1 3 146.44 5.54
-4 1 -3 140.14 4.71
-4 1 -3 146.67 6.27
-4 1 -3 144.74 4.81
4 -1 3 142.08 6.06
4 -1 4 47.98 3.44
4 -1 4 52.48 2.87
-4 1 -4 46.64 2.32
-4 1 -4 46.3 3.53
-4 1 -4 41.89 2.77
4 -1 4 43.95 3.29
-4 1 -5 -0.12 0.56
4 -1 5 0.07 0.35
4 -1 5 -0.18 0.73
-4 1 -5 0.52 0.27
-4 1 -6 0.99 0.75
4 -1 6 0.94 0.34
4 -1 6 1.32 1.08
4 -1 6 2.27 1.2
4 -1 7 11.38 2.18
4 -1 7 10.37 0.72
4 -1 7 12.05 2.08
-4 1 -7 13.55 1.92
-4 1 -7 11.73 1.41
-4 1 -8 20.45 2.5
-4 1 -8 21.73 1.92
4 -1 8 22.52 3.09
-4 1 -9 101.75 6
4 -1 9 108.01 7.08
4 -1 10 93.41 6.99
-4 1 -10 81.51 5.76
4 -1 11 86.32 7.11
-4 1 -11 75.09 5.95
4 -1 12 94.5 7.86
-4 1 -12 89.99 6.93
4 0 -9 0.85 1.55
-4 0 9 -4.93 2.34
-4 0 8 173.55 8.8
4 0 -8 145.27 9.55
4 0 -7 3.79 1.97
4 0 -7 4.8 1.47
-4 0 7 1.84 1.4
4 0 -6 7.08 2.26
4 0 -6 4.87 1.28
-4 0 6 4.57 1.55
-4 0 5 182.21 8.09
4 0 -5 186.33 8
4 0 -5 197.46 9.4
-4 0 4 502.72 13.75
4 0 -4 510.42 13.79
4 0 -4 496.95 14.94
-4 0 3 32.03 3.1
4 0 -3 26.27 2.84
4 0 -3 30.68 3.33
4 0 -2 7.12 1.54
-4 0 2 6.46 1.58
-4 0 1 51.74 3.68
4 0 -1 49.12 3.63
-4 0 0 75.76 4.38
4 0 0 79.48 4.5
4 0 0 77.66 2.91
-4 0 -1 208.38 7.33
4 0 1 215.85 7.41
4 0 1 193.96 4.23
-4 0 -2 1558.87 24.68
-4 0 -2 1603.42 26.64
4 0 2 1582.99 26.38
-4 0 -2 1541.85 21.15
-4 0 -3 334.84 7.55
-4 0 -3 339.04 9.57
4 0 3 326.86 9.28
-4 0 -3 339.61 6.86
4 0 3 344.85 9.33
-4 0 -4 792.71 14.02
-4 0 -4 808.51 12.39
-4 0 -4 779.08 16.4
4 0 4 769.46 15.84
4 0 4 760.25 16.13
4 0 5 69.69 3.84
-4 0 -5 70.08 1.85
-4 0 -5 60.52 3.86
4 0 5 66.6 4.39
4 0 5 68.44 4.17
4 0 6 17.16 2.43
4 0 6 17.61 1.8
-4 0 -6 16.6 2.08
-4 0 -6 17.62 1.78
4 0 6 22.56 2.56
4 0 7 263.38 9.95
-4 0 -7 278.42 9.22
-4 0 -7 277.85 7.85
4 0 7 274.05 7.81
4 0 7 286.36 10
4 0 8 162.8 8.06
-4 0 -8 158.14 7.33
-4 0 -8 175.94 6.2
4 0 8 161.57 5.93
4 0 9 3.36 1.34
-4 0 -9 3.47 1.54
4 0 9 2.69 0.83
-4 0 -10 91.12 6.27
4 0 10 101.98 7.11
4 0 11 13.03 2.9
-4 0 -11 14.39 2.72
4 0 12 2.56 1.69
-4 0 -12 5.05 2.01
4 1 -9 40.86 5.33
-4 -1 9 40.81 5.67
-4 -1 8 30.83 3.84
4 1 -8 33.98 4.63
-4 -1 8 31.98 4.8
4 1 -8 35.04 3.71
-4 -1 7 146.21 7.93
4 1 -7 146.48 7.44
4 1 -7 140.03 8.8
4 1 -6 33.02 4.1
-4 -1 6 38.58 3.85
4 1 -6 40.06 3.76
-4 -1 5 203.69 8.68
4 1 -5 199.39 8.32
4 1 -5 202.48 9.53
4 1 -4 1.42 0.94
-4 -1 4 2.22 1.35
4 1 -4 2.46 1.35
-4 -1 3 280.78 9.55
4 1 -3 270.45 9.28
4 1 -2 8.91 1.66
-4 -1 2 12 1.96
-4 -1 1 119.19 5.58
4 1 -1 121.83 5.63
4 1 0 14.54 1.96
-4 -1 0 15.81 2.01
4 1 1 19.82 2.21
-4 -1 -1 19.68 2.18
-4 -1 -2 51.18 3.09
-4 -1 -2 51.91 3.38
4 1 2 53.92 3.45
4 1 3 11.99 1.65
-4 -1 -3 10.17 1.19
4 1 3 14.45 1.74
-4 -1 -3 11.05 1.59
-4 -1 -3 12.64 0.88
-4 -1 -4 1467.6 20.68
-4 -1 -4 1495.43 24.91
4 1 4 1512.58 24.49
4 1 4 1489.13 24.37
4 1 4 1495.16 25.39
4 1 5 0.58 0.81
4 1 5 0.13 0.54
-4 -1 -5 0.45 0.61
4 1 5 0.39 0.56
4 1 5 0.75 1
4 1 6 89.81 5.14
4 1 6 90.24 4.02
-4 -1 -6 91.4 4.56
4 1 6 88.38 5.05
4 1 6 92.96 4.41
-4 -1 -6 90.94 4.39
4 1 7 425.67 12.55
-4 -1 -7 442.58 12.39
-4 -1 -7 412.4 9.32
-4 -1 -7 430.91 11.09
-4 -1 -7 428.11 10.84
4 1 7 430.03 10.77
4 1 8 17.72 2.56
-4 -1 -8 20.53 2.65
-4 -1 -8 25.67 2.53
-4 -1 -8 18.79 2.19
4 1 8 17.68 2.08
4 1 9 222.8 9.79
-4 -1 -9 222.68 9.53
4 1 9 219.44 7.69
-4 -1 -10 41.97 4.39
4 1 10 50.63 4.84
4 1 10 42.71 3.37
4 1 11 59.91 5.56
-4 -1 -11 55.75 5.31
4 1 12 -0.46 1.45
-4 -1 -12 0.47 1.28
4 2 -9 19.85 3.75
-4 -2 9 15.46 3.79
-4 -2 8 63.14 6.59
4 2 -8 48.2 5.47
4 2 -8 46.96 4.35
4 2 -7 1.89 1.32
-4 -2 7 0.19 1.45
-4 -2 7 -0.75 1.3
4 2 -7 1.67 1.07
4 2 -6 46.03 4.77
-4 -2 6 55.65 4.72
4 2 -6 51.44 4.32
-4 -2 5 191.63 8.51
4 2 -5 184.16 8.05
4 2 -5 171.37 8.75
-4 -2 4 681.13 16.99
4 2 -4 714.92 16.92
-4 -2 3 165.17 7.24
4 2 -3 168.89 7.19
-4 -2 2 361.27 10.77
4 2 -2 354.18 10.59
-4 -2 1 197.49 7.36
4 2 -1 192.25 7.26
-4 -2 0 16.38 1.97
4 2 0 20.94 2.29
4 2 0 20.26 1.16
-4 -2 -1 13.53 1.77
4 2 1 10.6 1.62
-4 -2 -2 54.1 3.41
4 2 2 58.69 3.52
-4 -2 -3 400.03 9.85
4 2 3 392.28 9.73
4 2 3 393.76 9.92
-4 -2 -3 374.09 6.91
4 2 3 393.07 9.76
-4 -2 -4 57.02 3.32
4 2 4 62.6 3.43
4 2 4 61.88 3.6
4 2 4 64.23 3.77
-4 -2 -5 -0.28 0.59
4 2 5 -0.02 0.52
4 2 5 0.74 0.62
-4 -2 -5 0.21 0.62
4 2 5 0.49 0.75
4 2 6 322.97 9.7
-4 -2 -6 315.68 8.42
4 2 6 326.26 9.25
-4 -2 -6 319.84 9.25
4 2 6 307.78 7.76
4 2 6 317.27 9.99
-4 -2 -6 299.66 7.55
-4 -2 -7 49.04 3.97
4 2 7 60.95 2.86
4 2 7 53.93 4.02
-4 -2 -7 57.31 3.35
-4 -2 -7 53.32 3.68
4 2 7 54.63 3.69
-4 -2 -7 55.01 2.61
4 2 8 8.94 1.87
-4 -2 -8 7.14 1.88
-4 -2 -8 8.13 1.34
4 2 8 8.87 1.64
4 2 9 0.45 0.87
-4 -2 -9 0.94 1.14
-4 -2 -9 0.23 0.53
4 2 9 1.55 1.03
-4 -2 -10 244.17 10.88
4 2 10 233.81 10.4
4 2 10 244.13 8.93
4 2 11 31.78 4.01
-4 -2 -11 24.43 3.75
4 2 11 26.01 2.91
4 2 12 91.49 7.19
-4 -2 -12 95.12 7.62
-4 -3 9 122.85 9.68
4 3 -9 124.81 9.1
-4 -3 8 5.97 2.25
4 3 -8 4.45 1.54
-4 -3 7 10.08 2.77
4 3 -7 6.46 2.25
4 3 -7 4.86 1.54
-4 -3 6 0.11 1.52
-4 -3 6 2.93 1.51
4 3 -6 1.75 1.12
-4 -3 5 -0.46 1.3
4 3 -5 -0.41 0.82
4 3 -4 44.46 3.91
-4 -3 4 42.74 3.88
4 3 -3 389.16 11.7
-4 -3 3 385.85 11.79
4 3 -2 36.46 3.25
-4 -3 2 41.42 3.51
4 3 -2 37.79 2.72
4 3 -1 330.96 10.05
-4 -3 1 328.81 9.93
4 3 -1 326.47 7.84
4 3 0 5.63 0.81
-4 -3 0 4.8 1.36
4 3 0 4.03 1.26
4 3 1 133.13 5.73
-4 -3 -1 138.35 5.66
4 3 1 127.17 3.46
4 3 2 27.36 2.44
-4 -3 -2 27.02 2.35
4 3 2 23.26 2.31
-4 -3 -2 26.36 1.49
4 3 2 28.7 2.24
-4 -3 -3 758.81 14.23
4 3 3 733.16 14.91
-4 -3 -3 741.61 14.58
4 3 3 717.51 14.54
4 3 3 774.81 15.64
-4 -3 -3 740.71 12.68
-4 -3 -4 288.4 7.72
4 3 4 280.43 7.79
-4 -3 -4 276.69 6.13
4 3 4 270.91 8.45
-4 -3 -4 294.15 8.76
-4 -3 -4 282.01 7.38
4 3 4 277.26 8.27
-4 -3 -5 37.29 1.66
-4 -3 -5 33.13 2.34
4 3 5 36.62 2.5
4 3 5 31.23 2.76
-4 -3 -5 29.12 2.74
4 3 5 35.98 2.97
4 3 6 186.12 6.78
-4 -3 -6 177.41 3.54
-4 -3 -6 184.35 5.78
4 3 6 191.45 5.61
4 3 6 187.84 7.11
-4 -3 -6 176.8 7.1
4 3 7 2.97 1.06
4 3 7 1.37 0.5
-4 -3 -7 0.87 0.89
-4 -3 -7 1.42 0.6
4 3 7 3.24 1.25
-4 -3 -7 1.4 0.88
4 3 8 1002.52 21.2
-4 -3 -8 995.31 22.79
-4 -3 -8 1047.19 17.48
4 3 8 1011.35 21.03
4 3 9 3.56 1.23
-4 -3 -9 0.36 0.93
4 3 9 1.69 0.97
-4 -3 -10 453.99 15.67
4 3 10 447.84 14.46
4 3 10 449.5 13.39
4 3 11 41.76 4.47
-4 -3 -11 36.01 4.63
4 3 11 34.34 3.59
4 3 12 8.77 2.42
-4 -3 -12 10.84 2.85
-4 -4 8 174.25 10.88
4 4 -8 176.68 9.13
-4 -4 7 36.37 4.73
4 4 -7 34.55 3.88
-4 -4 6 97.35 7.22
4 4 -6 106.74 6.57
4 4 -6 117.36 7.47
4 4 -5 18.48 2.84
-4 -4 5 19.38 3.1
-4 -4 5 20.58 2.97
4 4 -5 18.26 2.72
4 4 -4 8.52 1.88
-4 -4 4 7.44 1.81
4 4 -4 8.03 1.76
4 4 -3 1.91 1.05
4 4 -3 2.2 1.12
-4 -4 3 2.23 1.2
4 4 -2 8.47 1.47
4 4 -2 10.81 1.94
-4 -4 2 11.99 2.07
4 4 -1 0.51 0.48
4 4 -1 -0.56 0.87
-4 -4 1 0.9 0.86
4 4 0 61.44 4.11
-4 -4 0 57.75 3.79
4 4 0 59.78 3.13
-4 -4 -1 10.34 1.22
4 4 1 8.83 1.58
-4 -4 -1 7.83 1.43
4 4 1 7.31 1.37
4 4 1 9.2 1.18
4 4 2 37.49 2.97
-4 -4 -2 45.35 3.01
-4 -4 -2 42.59 2.54
4 4 2 39.66 3.09
-4 -4 -2 41.08 2.47
4 4 2 38.2 2.53
-4 -4 -3 27.73 1.95
4 4 3 26.87 2.43
-4 -4 -3 27.38 2.25
-4 -4 -3 29.08 2.12
4 4 3 27.33 2.26
4 4 3 26.23 2.54
-4 -4 -3 30.19 2.81
-4 -4 -3 28.93 2.22
-4 -4 -4 203.34 5.95
4 4 4 211.16 6.82
-4 -4 -4 216.81 6.33
-4 -4 -4 224.7 5.9
4 4 4 205.73 6.92
4 4 4 214.82 7.71
-4 -4 -4 209.68 7.75
-4 -4 -5 129.49 5
-4 -4 -5 150.51 4.9
4 4 5 156.01 5.44
-4 -4 -5 143.39 4.42
4 4 5 149.26 6.49
-4 -4 -5 152.6 6.7
4 4 6 245.8 7.61
-4 -4 -6 260.2 6.47
-4 -4 -6 272.43 6.25
4 4 6 260.69 6.98
-4 -4 -6 269.16 9.38
4 4 6 267.08 9.16
4 4 7 0.2 0.64
-4 -4 -7 1.1 0.94
-4 -4 -7 -0.03 0.33
4 4 7 1.37 1.09
4 4 8 120.31 5.86
4 4 8 137.92 6.88
-4 -4 -8 133.5 7.47
4 4 9 13.64 2.18
-4 -4 -9 17.14 2.86
4 4 9 17.48 2.51
-4 -4 -10 66.26 5.87
4 4 10 64.44 5.02
4 4 10 66.3 5.11
-4 -4 -11 13.58 3.05
4 4 11 13.75 2.43
4 5 -8 45.26 5.53
-4 -5 8 29.9 4.52
4 5 -8 35.21 4.19
4 5 -7 2.38 1.75
-4 -5 7 3.82 1.98
4 5 -7 1.29 1.11
-4 -5 6 0.35 1.1
4 5 -6 0.93 0.98
4 5 -5 132.6 7.39
-4 -5 5 133.59 7.86
4 5 -5 128.42 7.59
4 5 -4 174.04 8.3
-4 -5 4 172.61 8.43
4 5 -4 186.99 8.49
4 5 -3 262.22 9.96
-4 -5 3 233.58 9.27
-4 -5 3 244.56 9.74
4 5 -3 248.91 9.27
4 5 -2 168.36 7.59
-4 -5 2 163.18 7.45
4 5 -2 166.77 6.95
4 5 -1 55.45 4.22
-4 -5 1 65.47 4.43
4 5 -1 66.04 4.05
4 5 0 56.84 4.1
-4 -5 0 56.81 3.86
4 5 0 58.86 3.82
4 5 0 50.61 3.35
4 5 1 214.21 7.91
-4 -5 -1 202.02 7.21
-4 -5 -1 209.96 7.28
4 5 1 219.27 7.71
4 5 1 211.98 7.02
4 5 1 206.3 5.88
4 5 2 31.36 2.84
-4 -5 -2 27.28 2.41
-4 -5 -2 26.19 2.37
-4 -5 -2 30.49 1.85
4 5 2 32.01 2.95
-4 -5 -2 26.55 2.65
4 5 2 27.27 2.06
4 5 3 139.35 5.85
-4 -5 -3 132.88 3.81
-4 -5 -3 133.55 5.14
-4 -5 -3 135.69 5.25
4 5 3 148.4 6.45
-4 -5 -3 129.44 6.16
4 5 3 138.36 5.11
-4 -5 -4 350.95 7.4
4 5 4 373.29 9.86
-4 -5 -4 371.78 8.7
-4 -5 -4 376.62 9.05
4 5 4 351.93 10.77
-4 -5 -4 361.95 11.14
4 5 5 137.65 5.4
-4 -5 -5 141.24 4.51
-4 -5 -5 133.3 4.85
-4 -5 -5 133.37 6.65
4 5 5 132.67 6.48
-4 -5 -6 25.86 1.59
4 5 6 27.07 2.17
-4 -5 -6 28.4 2.16
-4 -5 -6 25.44 3.04
4 5 6 21.54 2.71
-4 -5 -6 24.9 2.96
4 5 7 409.3 10.26
-4 -5 -7 420.73 13.47
4 5 7 410.43 12.77
-4 -5 -8 17.39 2.76
4 5 8 23.82 3.02
-4 -5 -9 13.32 2.85
4 5 9 15.04 2.51
-4 -5 -10 2.39 1.41
4 5 10 3.14 1.35
-4 -5 -11 24.91 4.07
4 5 11 22.05 3.29
4 6 -8 0.92 1.36
-4 -6 8 0.83 1.53
4 6 -8 -2.08 1.22
4 6 -7 9.49 2.74
-4 -6 7 11.49 2.74
4 6 -7 6.64 1.99
4 6 -6 17.16 3.16
-4 -6 6 11.91 2.62
4 6 -6 12.67 2.49
4 6 -5 77.22 5.86
-4 -6 5 91.64 6.49
4 6 -5 82.81 6.33
4 6 -4 15.48 2.68
-4 -6 4 16.24 2.64
4 6 -4 13.7 2.51
-4 -6 3 91.68 5.57
4 6 -3 92.49 5.81
4 6 -3 100.58 6.29
-4 -6 2 405.65 11.53
4 6 -2 406.23 12.97
4 6 -2 388.99 12.11
-4 -6 1 50.33 3.39
4 6 -1 55.19 4.13
4 6 -1 52.31 4.29
-4 -6 0 961.32 17.28
-4 -6 0 990.34 20.36
-4 -6 0 975.32 20.3
4 6 0 1010.12 21.37
4 6 0 991.98 19.9
4 6 0 960.55 19.86
4 6 0 973.86 15.85
-4 -6 -1 36.9 2.07
-4 -6 -1 36.68 3.11
-4 -6 -1 43.95 3.45
4 6 1 34.17 3.11
-4 -6 -1 33.04 3.07
4 6 1 41.45 3.39
4 6 1 42.8 2.32
4 6 1 39.13 3.52
4 6 2 102.33 5.48
-4 -6 -2 96.17 2.55
-4 -6 -2 113.24 5.17
-4 -6 -2 116.21 5.42
4 6 2 115.12 5.83
-4 -6 -2 122.06 6.04
4 6 2 105.8 3.99
4 6 3 13.27 1.96
-4 -6 -3 12.73 1.65
-4 -6 -3 12 1.72
4 6 3 15.14 2.23
-4 -6 -3 10.77 1.93
4 6 4 2.63 0.99
-4 -6 -4 2.74 0.9
4 6 4 5.63 1.48
-4 -6 -4 1.57 1.15
4 6 5 36.09 2.86
-4 -6 -5 39.9 2.93
4 6 5 36.72 3.56
-4 -6 -5 34.06 3.57
-4 -6 -6 12.41 1.65
-4 -6 -6 8.13 1.94
4 6 6 11.19 1.58
4 6 6 11.04 2.22
-4 -6 -7 0.85 1.07
4 6 7 1.81 1.21
-4 -6 -8 56.05 5.17
4 6 8 39.55 4.03
-4 -6 -9 488.81 16.78
4 6 9 507 15.97
-4 -6 -10 124.74 8.56
4 6 10 118.81 7.58
4 7 -7 16.32 3.59
-4 -7 7 11.93 2.85
4 7 -7 12.91 2.76
4 7 -6 37.6 4.85
-4 -7 6 35.97 4.36
4 7 -6 36.79 4.35
4 7 -5 -0.9 1.49
-4 -7 5 3.29 1.58
4 7 -5 -0.73 1.24
4 7 -4 8.78 2.29
-4 -7 4 7.16 1.85
4 7 -4 8.55 2.05
-4 -7 3 140.49 6.93
-4 -7 3 137.85 7.62
4 7 -3 143.52 7.89
4 7 -2 2.93 1.35
-4 -7 2 6.19 1.56
-4 -7 2 5.76 1.64
-4 -7 2 4.5 1.28
-4 -7 1 157.21 5.85
-4 -7 1 144.41 7.25
4 7 -1 146.26 6.55
-4 -7 1 157.99 6.88
4 7 -1 135.45 7.1
-4 -7 0 101.88 5.85
4 7 0 109.77 5.72
-4 -7 0 107.26 5.73
4 7 0 111.46 6.27
-4 -7 -1 74.13 4.83
4 7 1 84.86 5.09
-4 -7 -1 73.28 4.85
4 7 1 82.08 5.31
-4 -7 -2 18.77 2.4
4 7 2 18.53 2.52
-4 -7 -2 17 2.41
-4 -7 -3 64.08 4.21
-4 -7 -3 70.66 5.06
4 7 3 73.39 4.99
4 7 4 9.21 1.68
-4 -7 -4 10.79 1.79
4 7 4 6 1.52
-4 -7 -4 8.51 2.02
4 7 5 0.3 0.72
-4 -7 -5 1.38 0.91
4 7 5 1.54 0.9
-4 -7 -6 60.99 4.97
-4 -7 -6 55.3 3.9
4 7 6 59.29 4.88
-4 -7 -7 -0.44 1.14
4 7 7 -0.45 1.06
-4 -7 -8 2.09 1.68
4 7 8 0.3 1.3
-4 -7 -9 4.07 1.43
4 7 9 3.58 1.5
4 8 -6 26.73 4.23
-4 -8 6 21.84 3.42
4 8 -6 28.08 4.03
-4 -8 6 27.6 3.88
4 8 -5 4.75 1.99
-4 -8 5 8.77 2.32
4 8 -5 7.6 2.26
4 8 -4 29.79 4.03
-4 -8 4 31.87 3.98
-4 -8 3 233.75 10.37
-4 -8 3 228.91 8.52
4 8 -3 229.58 10.71
-4 -8 2 37.75 3.99
-4 -8 2 46.61 3.76
4 8 -2 44.13 4.5
4 8 -1 16.28 2.77
-4 -8 1 14.42 2.5
4 8 -1 15.71 2.3
-4 -8 1 15.54 2.24
-4 -8 0 162.09 7.92
-4 -8 0 165.89 7.55
4 8 0 157.38 7.29
4 8 0 151.47 8.07
-4 -8 -1 406.26 12.75
-4 -8 -1 401.6 12.58
4 8 1 396.1 12.33
4 8 1 389.12 13.31
-4 -8 -2 126.19 6.64
-4 -8 -2 129.53 7.03
4 8 2 118.84 6.6
-4 -8 -3 32.91 3.31
-4 -8 -3 32.86 3.7
4 8 3 36.13 3.7
-4 -8 -4 335.15 10.84
4 8 4 327.33 11.85
4 8 5 0.7 0.85
-4 -8 -5 2.37 1.19
-4 -8 -5 0.39 1.17
4 8 5 -0.09 0.99
-4 -8 -6 120.36 7.3
-4 -8 -6 120.44 6.4
4 8 6 133.91 7.74
-4 -8 -7 17.1 3.09
4 8 7 8.27 2.15
-4 -8 -8 117.55 7.98
4 8 8 126.97 8.16
-4 -9 5 110.69 7.83
4 9 -5 94.65 7.87
4 9 -4 22.14 3.73
-4 -9 4 18.76 3.22
4 9 -3 33 4.31
-4 -9 3 38.03 4.4
4 9 -2 5.69 1.86
-4 -9 2 9.74 2.3
-4 -9 2 4.33 1.42
4 9 -1 31.18 3.96
-4 -9 1 37.07 4.13
4 9 -1 31.91 3.34
-4 -9 1 29.59 3.29
-4 -9 0 12.95 2.43
4 9 0 10.73 2.02
-4 -9 0 12.33 2.22
4 9 0 12.55 2.52
-4 -9 -1 0.66 1.08
-4 -9 -1 1.06 1.31
4 9 1 2.37 1.17
4 9 1 1.43 1.18
-4 -9 -2 56.48 4.73
4 9 2 52.22 4.52
-4 -9 -3 -0.04 0.95
4 9 3 1.56 1.12
-4 -9 -4 -0.56 0.79
-4 -9 -4 -1.56 1.12
4 9 4 0.75 1.19
-4 -9 -5 0.7 1.01
-4 -9 -5 1.74 1.27
4 9 5 0 1.24
-4 -9 -6 -0.57 0.99
-4 -9 -6 0.32 1.13
4 9 6 0.25 1.12
-4 -9 -7 75.2 6.3
4 9 7 67.52 6.01
4 10 -3 5.31 1.84
-4 -10 3 10.29 2.67
-4 -10 2 121.33 8
4 10 -2 112.33 8.23
-4 -10 1 1.39 1.26
4 10 -1 -0.47 1.27
4 10 -1 2.7 1.28
-4 -10 0 88.78 6.54
4 10 0 75.76 5.49
4 10 0 88.94 7.1
-4 -10 -1 102.61 6.95
4 10 1 109.21 6.77
4 10 1 93.68 7.21
-4 -10 -2 8.71 2.02
4 10 2 3.42 1.62
-4 -10 -3 1.94 1.25
4 10 3 -0.13 1.19
-4 -10 -4 46.28 4.43
-4 -10 -4 49.71 4.7
4 10 4 42.86 4.6
-4 -10 -5 4.79 1.71
-4 -10 -5 3 1.61
4 10 5 -0.02 1.04
5 -8 1 7.11 2.53
-5 8 -1 6.15 2.13
-5 8 -1 12 2.51
5 -8 2 14.98 3.24
-5 8 -2 14.14 3.02
5 -8 3 -0.27 1.16
-5 8 -3 -0.17 1.19
5 -8 4 268.16 12.68
-5 8 -4 237.43 12.46
-5 8 -4 258.37 13.26
5 -7 -2 12.03 3.34
-5 7 2 6.97 2.14
5 -7 -1 -3.87 1.94
-5 7 1 -0.55 1.15
5 -7 0 3.46 1.96
-5 7 0 1.07 1.27
5 -7 1 63 6.15
-5 7 -1 56.08 5.42
5 -7 2 35.61 4.49
-5 7 -2 34.08 4.32
5 -7 3 17.19 2.66
5 -7 3 26.85 3.87
-5 7 -3 29.96 4.13
-5 7 -3 16.48 3.16
-5 7 -4 -0.2 1.43
5 -7 4 0.05 0.98
5 -7 4 0.53 1.4
-5 7 -4 -3.85 1.73
5 -7 5 164.82 9.04
-5 7 -5 156.28 9.81
5 -7 5 168.93 8.32
5 -7 6 172.99 9.12
-5 7 -6 160.49 10.1
5 -7 6 172.09 8.56
-5 7 -7 9.85 2.69
5 -6 -4 86.75 8.48
5 -6 -3 34.12 5.23
-5 6 3 33.19 3.94
5 -6 -2 79.16 7.47
-5 6 2 72.69 5.76
-5 6 1 49.48 4.79
5 -6 -1 45.74 5.43
5 -6 0 103.92 7.81
-5 6 0 117.29 7.41
5 -6 1 8.06 2.41
-5 6 -1 3.44 1.56
5 -6 2 6.58 2.11
-5 6 -2 6.5 2.15
-5 6 -2 2.71 1.58
5 -6 3 43.36 4.58
-5 6 -3 50.67 5.08
-5 6 -3 49.51 4.88
5 -6 3 45.87 4.15
5 -6 4 1.86 1.18
-5 6 -4 1.24 1.07
5 -6 4 4.8 1.8
-5 6 -4 3.98 1.51
-5 6 -5 12.51 2.66
5 -6 5 14.55 2.45
5 -6 5 17.16 2.74
-5 6 -6 21.7 3.61
5 -6 6 23.32 3.05
5 -6 6 30.42 3.57
-5 6 -7 2.73 1.53
5 -6 7 1.6 1.57
-5 6 -8 60.32 6.21
5 -6 8 66.17 5.53
5 -5 -5 0.15 1.38
-5 5 4 1.06 0.98
5 -5 -4 2.14 1.45
5 -5 -3 4.89 2.02
-5 5 3 6.87 1.91
5 -5 -2 2 2.02
-5 5 2 3.96 1.88
5 -5 -1 -1 1.44
-5 5 1 0.42 0.99
5 -5 0 5.03 1.87
-5 5 0 6.55 1.89
5 -5 1 14.42 2.71
-5 5 -1 20.97 3.14
5 -5 2 42.32 4.27
-5 5 -2 35.85 4.03
-5 5 -2 34.54 3.75
5 -5 3 50.07 4.56
-5 5 -3 50.23 4.82
-5 5 -3 46.38 4.36
5 -5 4 125.44 6.92
-5 5 -4 111.12 7.24
-5 5 -4 116.43 7.06
5 -5 4 121.11 6.66
5 -5 5 141.47 7.17
-5 5 -5 136.9 7.88
5 -5 5 132.25 7.1
5 -5 6 427.18 12.94
-5 5 -6 432.37 15.2
5 -5 6 451.93 13.98
-5 5 -7 7.1 1.96
5 -5 7 5.77 1.78
-5 5 -8 -0.47 1.29
5 -5 8 3.74 1.62
-5 5 -9 5.43 2.07
5 -5 9 3.4 2.02
5 -4 -6 -1.03 1.7
5 -4 -5 -0.07 1.58
-5 4 5 0.69 0.88
5 -4 -5 1.59 1.25
5 -4 -4 119.22 7.68
-5 4 4 128.66 7.37
5 -4 -4 120.92 7.94
5 -4 -3 11.62 2.85
5 -4 -3 10.18 2.15
-5 4 3 10.38 2.2
5 -4 -2 18.14 3.29
-5 4 2 17.3 2.78
5 -4 -2 17.37 2.9
5 -4 -1 97.53 7.27
5 -4 -1 80.33 6.08
-5 4 1 87.63 5.98
5 -4 0 19.15 3.19
5 -4 0 18.14 3.02
-5 4 0 16.5 2.68
5 -4 1 47.64 4.58
-5 4 -1 48.69 4.46
5 -4 2 83.53 5.79
-5 4 -2 75.67 5.64
-5 4 -2 69.65 4.84
5 -4 3 32.32 3.49
-5 4 -3 36.08 3.91
-5 4 -3 36.67 3.62
5 -4 4 348.33 11.28
-5 4 -4 322.28 12.3
-5 4 -4 338.14 11.46
5 -4 4 346.57 11.45
5 -4 5 49.62 3.84
-5 4 -5 50.06 4.77
5 -4 5 59.57 4.61
-5 4 -5 50.41 4.42
-5 4 -6 -0.09 0.91
5 -4 6 -0.19 0.67
5 -4 6 0.09 1.04
-5 4 -7 29.35 3.7
5 -4 7 31.46 3.6
5 -4 8 27.15 3.96
-5 4 -8 30.07 3.89
5 -4 8 27.52 3.5
5 -4 9 50.62 5.62
-5 4 -9 53.67 5.42
-5 4 -10 3.69 1.81
5 -4 10 1.68 1.52
5 -3 -6 17.16 3.48
5 -3 -6 14.6 2.67
-5 3 6 17.65 2.84
5 -3 -5 59.98 5.29
-5 3 5 62.73 5.18
5 -3 -5 66.37 6.14
5 -3 -4 -1.63 1.15
-5 3 4 -0.06 0.92
5 -3 -4 0.84 1.55
5 -3 -3 254.66 10.76
-5 3 3 230.79 9.73
5 -3 -2 287.63 11.4
5 -3 -2 278.67 12.78
-5 3 2 273.1 10.62
5 -3 -1 162.67 8.31
5 -3 -1 155.45 8.94
-5 3 1 153.9 7.71
5 -3 0 302.58 11.43
5 -3 0 296.8 12.03
-5 3 0 291.27 10.82
5 -3 1 -0.05 1.01
-5 3 -1 1.9 0.94
5 -3 1 2.41 1.39
5 -3 2 16.93 2.63
-5 3 -2 20.19 2.34
5 -3 2 23.48 3.04
-5 3 -2 16.05 2.58
5 -3 3 114.37 6.18
-5 3 -3 116.55 6.75
-5 3 -3 114.39 5.68
5 -3 4 1.68 1.07
-5 3 -4 1.25 0.85
5 -3 4 1.8 1.13
-5 3 -4 -0.08 1.01
5 -3 5 44 3.43
-5 3 -5 50.94 4.59
5 -3 5 47.11 4.04
-5 3 -5 40.29 3.65
5 -3 6 129.01 5.61
5 -3 6 135.28 7.05
-5 3 -6 131.17 6.97
-5 3 -7 44.72 3.22
-5 3 -7 32.95 3.69
5 -3 7 40.81 4
-5 3 -8 7.16 1.9
5 -3 8 8.91 2.35
-5 3 -8 9.55 1.7
5 -3 8 10.11 2.16
-5 3 -9 22.68 3.5
5 -3 9 29.83 4.23
5 -3 10 93.58 7.63
-5 3 -10 72.76 6.48
-5 3 -11 26.99 4.26
5 -3 11 38.62 5.13
-5 2 7 79.91 6.03
5 -2 -7 78.58 7.18
5 -2 -6 27.57 4.16
5 -2 -6 20.98 3.1
-5 2 6 27.64 3.57
-5 2 5 48.29 4.53
5 -2 -5 63.86 5.83
5 -2 -5 54.33 4.89
-5 2 4 37.42 3.9
5 -2 -4 41.98 4.55
5 -2 -4 38.26 4.04
-5 2 3 515.27 15.1
5 -2 -3 539.16 15.92
-5 2 2 48.92 4.21
5 -2 -2 41.05 4.11
5 -2 -1 19.2 2.8
-5 2 1 22.34 2.91
5 -2 0 134.07 7.05
5 -2 0 117.02 7.19
-5 2 0 120.57 6.54
5 -2 1 4.61 1.49
-5 2 -1 4.71 1.47
5 -2 1 5.9 1.72
5 -2 2 5.9 1.71
5 -2 2 5.21 1.58
-5 2 -2 4.5 1.37
5 -2 3 135.67 6.96
5 -2 3 135.4 6.5
-5 2 -3 130.24 6.83
-5 2 -3 133.26 5.4
5 -2 4 1.05 0.88
-5 2 -4 1.11 0.61
5 -2 4 1.28 1.03
5 -2 4 0.06 0.74
-5 2 -4 -0.1 0.91
5 -2 5 115.28 5.25
-5 2 -5 117.41 6.64
-5 2 -5 106.38 5.4
5 -2 5 116.51 6.24
5 -2 6 304.06 8.45
-5 2 -6 305.75 11.18
-5 2 -6 315.28 10.32
5 -2 6 308.5 10.79
5 -2 7 310.73 12.31
-5 2 -7 329.59 9.86
-5 2 -7 309.49 10.96
5 -2 7 333.43 11.64
-5 2 -8 25.87 3.28
5 -2 8 23.98 3.55
-5 2 -8 23.95 2.69
5 -2 8 25.96 3.24
-5 2 -9 26.17 3.49
5 -2 9 29.15 3.99
-5 2 -9 21.47 2.7
-5 2 -10 112.62 6.65
5 -2 10 106.52 7.94
-5 2 -10 112.06 7.7
5 -2 11 209.73 11.67
-5 2 -11 215.18 11.5
-5 2 -11 199.78 9.57
-5 1 7 121.14 7.58
5 -1 -7 110 8.55
5 -1 -7 134.35 7.82
-5 1 6 220.61 10
5 -1 -6 201.09 10.97
5 -1 -6 197.42 9.49
5 -1 -5 18.1 3.21
-5 1 5 17.21 2.76
5 -1 -5 19.9 2.92
-5 1 4 110.23 6.6
5 -1 -4 110.84 6.71
-5 1 3 11.58 2.23
5 -1 -3 12.06 2.18
-5 1 2 21.13 2.81
5 -1 -2 22.83 2.98
-5 1 1 76.66 5.16
5 -1 -1 83.07 5.44
5 -1 0 9.07 1.27
5 -1 0 11.64 2.13
-5 1 0 9.87 2
-5 1 -1 100.85 5.8
5 -1 1 100.88 5.82
5 -1 1 103.81 3.99
-5 1 -2 116.66 6.13
5 -1 2 115.91 6.15
5 -1 2 106.02 3.88
5 -1 3 304.05 9.78
-5 1 -3 312.51 10.53
-5 1 -3 322.1 7.62
5 -1 3 313.11 10.47
5 -1 4 45.34 3.78
5 -1 4 49.76 3.43
-5 1 -4 46.87 3.96
-5 1 -4 47.9 2.91
5 -1 4 48.65 3.81
5 -1 5 662.77 16.17
-5 1 -5 665.82 12.22
-5 1 -5 683.68 16.96
-5 1 -5 693.75 14.5
5 -1 5 711 16.72
-5 1 -6 27.54 3.16
-5 1 -6 30.25 2.82
5 -1 6 27.53 3.12
-5 1 -7 8.99 1.75
5 -1 7 13.43 2.47
-5 1 -7 15.62 2.48
5 -1 7 12.85 2.35
5 -1 8 91.87 6.51
-5 1 -8 84.84 5.19
-5 1 -8 92.58 5.96
-5 1 -8 88.2 4.34
5 -1 8 82.2 5.74
-5 1 -8 76.12 5.28
5 -1 9 17.02 2.96
-5 1 -9 14.79 2.54
-5 1 -9 14.07 2.34
5 -1 10 75.94 6.41
-5 1 -10 60.55 5.02
-5 1 -10 65.31 5.66
5 -1 11 53.08 5.69
-5 1 -11 36.27 4.14
-5 1 -11 47.08 5.21
5 0 -8 19.07 3.8
-5 0 8 23.9 3.55
5 0 -7 6.89 2.43
-5 0 7 8.79 2.18
5 0 -7 9.81 2.21
5 0 -6 9.42 2.78
-5 0 6 7.23 1.95
5 0 -6 7.07 1.79
5 0 -5 16.61 2.69
-5 0 5 17.03 2.75
5 0 -4 2.46 1.09
-5 0 4 2.81 1.32
-5 0 3 144.31 7.38
5 0 -3 154.29 7.63
5 0 -2 13.28 2.27
-5 0 2 13.23 2.28
-5 0 1 521.47 14.18
5 0 -1 523.63 14.35
5 0 -1 492.21 10.8
-5 0 0 411.79 12.12
5 0 0 393.62 11.96
5 0 0 371.17 7.96
5 0 1 3.75 0.53
-5 0 -1 3.15 1.07
5 0 1 4.92 1.43
-5 0 -2 45.51 3.72
5 0 2 40.66 3.54
-5 0 -3 34.91 3.28
5 0 3 34.23 3.19
-5 0 -3 29.68 1.52
-5 0 -4 289.04 7.29
-5 0 -4 316.74 10.24
5 0 4 324.24 10.11
-5 0 -4 308.21 7.02
5 0 4 304.27 9.78
-5 0 -5 166.1 4.37
-5 0 -5 175.05 7.46
-5 0 -5 164.74 5.64
5 0 5 172.74 7.38
5 0 5 159.86 6.86
5 0 6 53.67 3.84
-5 0 -6 56.57 4.19
5 0 6 52.29 4.17
-5 0 -6 51.66 3.44
5 0 7 728.4 18.97
-5 0 -7 727.58 17.63
-5 0 -7 754.57 16.84
-5 0 -7 773.96 15.87
5 0 7 769.25 18.69
5 0 8 14.11 2.53
-5 0 -8 13.13 2.24
-5 0 -8 13.8 2.19
-5 0 -8 11.73 1.68
5 0 8 10.42 2.33
-5 0 -9 33.96 3.61
5 0 9 34.74 4.05
-5 0 -9 33.93 3.53
-5 0 -9 30.18 2.76
5 0 10 0.88 1.33
-5 0 -10 1.16 1.16
-5 0 -10 2.68 1.18
-5 0 -11 67.69 5.75
5 0 11 65.73 6.12
5 0 12 2.17 1.61
-5 0 -12 1.22 1.66
-5 -1 8 56.35 5.56
5 1 -8 58.03 6.38
5 1 -7 10.9 2.37
-5 -1 7 12.05 2.65
5 1 -7 6.85 2.6
5 1 -6 9.94 2.17
-5 -1 6 8.27 2.17
-5 -1 5 165.02 8.42
5 1 -5 158.28 8.12
5 1 -4 4.5 1.49
-5 -1 4 7.64 2.06
-5 -1 3 236.21 9.55
5 1 -3 235.41 9.54
-5 -1 2 226.93 9.09
5 1 -2 225.71 9.07
5 1 -1 18.71 2.53
-5 -1 1 16.19 2.47
-5 -1 0 148.8 6.85
5 1 0 159.3 7.1
5 1 0 143.37 3.49
5 1 1 7.05 1.49
-5 -1 -1 6.24 1.5
-5 -1 -2 225.11 8.32
5 1 2 232.74 8.39
5 1 3 24.4 2.57
-5 -1 -3 19.94 2.39
-5 -1 -4 40.75 2.36
-5 -1 -4 32.73 3.02
5 1 4 42.76 3.36
-5 -1 -4 38.37 1.82
5 1 4 42.06 3.39
5 1 5 1.32 0.99
-5 -1 -5 1.07 0.53
5 1 5 1.25 0.78
-5 -1 -5 0.37 0.24
-5 -1 -5 0.84 0.66
-5 -1 -6 60.94 4.16
5 1 6 65.1 4.02
5 1 6 66.59 4.62
5 1 6 62.28 3.94
5 1 7 159.97 7.79
5 1 7 171.6 6.54
-5 -1 -7 169.24 7.14
5 1 7 178.43 6.88
-5 -1 -7 184.41 7
5 1 7 165.75 7.79
5 1 8 124.38 7.09
-5 -1 -8 140.1 7.17
-5 -1 -8 135.37 6.47
-5 -1 -8 136.53 6.16
5 1 8 138 6.14
5 1 8 142.83 7.5
5 1 9 364.33 13.17
-5 -1 -9 381.98 12.97
-5 -1 -9 357.66 11.34
-5 -1 -9 367.94 10.94
5 1 9 368.31 10.87
5 1 10 27.72 3.66
-5 -1 -10 33.76 4
5 1 10 27.6 2.87
-5 -1 -10 30.34 3.19
-5 -1 -11 431.21 15.49
5 1 11 444.22 16.14
5 1 12 90.42 7.4
-5 -1 -12 74.46 6.64
-5 -2 8 1.37 1.43
5 2 -8 0.96 1.17
-5 -2 8 -0.08 1.59
-5 -2 7 105.98 7.39
5 2 -7 114.73 7.32
-5 -2 6 49.79 4.85
5 2 -6 46.14 4.49
-5 -2 5 105.47 6.76
5 2 -5 100.35 6.41
-5 -2 4 0.37 0.99
5 2 -4 1.53 0.82
-5 -2 3 0.41 0.93
5 2 -3 -0.34 1.17
-5 -2 2 0.46 1.01
5 2 -2 0.4 0.83
-5 -2 1 107.41 5.96
5 2 -1 116.36 6.18
5 2 -1 110.09 3.77
-5 -2 0 148.86 6.81
5 2 0 133.29 6.52
5 2 0 130.78 2.87
-5 -2 -1 182.14 7.44
5 2 1 196.05 7.79
-5 -2 -2 214.8 7.92
5 2 2 205.07 7.77
-5 -2 -3 288.91 9.23
5 2 3 299.98 9.42
5 2 3 285.16 8.91
-5 -2 -4 154.88 5.32
-5 -2 -4 179.04 6.96
5 2 4 169.67 6.72
-5 -2 -4 175.84 4.13
5 2 4 172.56 6.91
-5 -2 -5 293.92 6.18
-5 -2 -5 306.87 9.37
-5 -2 -5 302.13 5.77
5 2 5 301.21 9.02
5 2 5 303.83 9.4
5 2 5 308.82 9.84
5 2 6 0.22 0.56
-5 -2 -6 1.2 0.78
5 2 6 1.31 0.85
-5 -2 -6 1.48 0.91
5 2 6 1.98 1.1
5 2 7 13.26 2.17
-5 -2 -7 13.16 1.88
5 2 7 15.1 2.11
5 2 7 11.33 1.62
-5 -2 -7 12.32 1.88
5 2 7 13.85 2.26
5 2 8 261.24 10.14
-5 -2 -8 269.61 10.51
-5 -2 -8 280.02 8.93
-5 -2 -8 257.88 9.17
5 2 8 280.54 9.41
5 2 9 0.41 1.28
-5 -2 -9 2.51 1.35
-5 -2 -9 1.71 1.04
-5 -2 -9 -0.43 0.69
5 2 9 -0.6 0.9
5 2 10 6.35 1.88
-5 -2 -10 8.62 2.26
5 2 10 10.41 1.89
5 2 11 52.77 5.23
-5 -2 -11 50.9 5.25
5 2 12 -0.96 1.36
-5 -2 -12 0.84 1.37
5 3 -8 1.6 1.32
-5 -3 8 -1.86 1.52
-5 -3 7 54.72 5.41
-5 -3 7 52.8 6.07
5 3 -7 52.61 5.04
-5 -3 6 78.44 6.21
5 3 -6 78.42 5.97
-5 -3 5 6.17 2.01
5 3 -5 2.54 1.44
-5 -3 4 104.03 6.52
5 3 -4 85.61 5.85
-5 -3 3 43 4.1
5 3 -3 41.53 4.04
5 3 -3 42.09 3.33
5 3 -2 10.24 1.47
-5 -3 2 9.43 2
5 3 -2 10.22 2.06
5 3 -1 2.2 0.61
-5 -3 1 3.01 1.17
5 3 -1 3.22 1.25
-5 -3 0 230.6 8.61
5 3 0 250.71 9.11
5 3 0 217.35 4.94
-5 -3 -1 34.48 3.12
5 3 1 25.19 2.76
-5 -3 -2 38.66 3.26
5 3 2 46.03 3.58
5 3 3 15.99 2.03
-5 -3 -3 14.52 1.97
5 3 3 17.38 2.24
-5 -3 -3 14.52 0.81
5 3 3 18.64 2.23
-5 -3 -4 127.59 5.67
5 3 4 131.6 5.82
5 3 4 123.7 5.91
-5 -3 -4 123.56 3.94
5 3 4 124.25 5.73
-5 -3 -5 290.37 8.78
-5 -3 -5 293.44 6.12
5 3 5 293.61 8.85
5 3 5 289.06 9.51
-5 -3 -5 284.27 9.49
5 3 5 275.66 9.29
-5 -3 -6 144.68 5.87
5 3 6 148.98 5.82
5 3 6 139.13 6.48
-5 -3 -6 134.2 6.45
5 3 6 146.54 6.84
-5 -3 -7 45.73 3.22
5 3 7 45.18 3.74
-5 -3 -7 44.87 3.8
5 3 7 47.97 3.06
5 3 7 51.7 4.25
5 3 8 572.52 15.22
-5 -3 -8 553.86 16.22
-5 -3 -8 578.14 13.02
-5 -3 -8 584.82 15.32
5 3 8 573.83 15.01
5 3 9 24.84 3.09
-5 -3 -9 25.56 3.5
5 3 9 26.98 3.06
5 3 10 -0.81 1.33
-5 -3 -10 1.66 1.08
5 3 10 0.49 0.78
5 3 11 15.79 2.75
-5 -3 -11 19.13 3.43
5 3 11 19.32 2.85
5 4 -7 0.54 1.45
-5 -4 7 -0.79 1.59
5 4 -7 -0.79 1.04
5 4 -6 8.08 2.09
-5 -4 6 6.68 2.19
-5 -4 6 11.38 2.6
5 4 -6 11.38 2.31
-5 -4 5 92.02 6.59
5 4 -5 105.06 6.83
5 4 -5 99.24 6.51
-5 -4 4 527.86 16.02
5 4 -4 504.13 15.51
5 4 -4 492.89 14.21
5 4 -3 78.36 5.54
-5 -4 3 78.89 5.61
5 4 -3 67.06 4.37
5 4 -2 320.11 11.34
-5 -4 2 308.16 11.02
5 4 -2 305.13 8.93
5 4 -1 379.76 12.17
-5 -4 1 359.92 11.62
5 4 -1 366.65 9.05
5 4 0 482.76 13.76
-5 -4 0 465.19 13.15
5 4 0 500.65 9.96
5 4 1 107.64 5.83
-5 -4 -1 103.1 5.5
5 4 2 205.46 8.02
-5 -4 -2 209.98 7.77
5 4 2 202.39 7.84
5 4 2 205.28 6.99
5 4 3 19.9 2.21
-5 -4 -3 16.01 2.06
5 4 3 20.1 2.44
5 4 3 19.33 2.46
-5 -4 -3 19.92 1.55
-5 -4 -4 7.67 1.16
-5 -4 -4 10.69 1.32
-5 -4 -4 11.68 1.72
5 4 4 9.14 1.73
5 4 4 8.76 1.61
5 4 4 7.49 1.43
5 4 5 9.27 1.62
-5 -4 -5 10.32 1.15
-5 -4 -5 12.64 1.68
5 4 5 11.17 1.93
-5 -4 -5 10.58 1.94
5 4 5 9.05 1.72
5 4 6 12.98 1.73
-5 -4 -6 11.6 1.1
-5 -4 -6 10.2 1.5
5 4 6 10.68 1.97
-5 -4 -6 10.21 2
5 4 6 11.14 1.92
-5 -4 -7 53.83 3.26
5 4 7 59.97 3.4
-5 -4 -7 59.22 4.55
5 4 7 65.6 4.68
5 4 8 0.88 0.87
-5 -4 -8 -0.6 1.25
5 4 8 -0.22 1.21
-5 -4 -8 -0.75 1.21
5 4 9 2.14 1.24
-5 -4 -9 -0.31 0.87
5 4 9 -1 1.35
-5 -4 -10 108.97 7.59
5 4 10 75.4 5.58
-5 -4 -11 97.35 7.57
5 4 11 77.94 5.87
5 5 -7 36.52 4.72
-5 -5 7 37.17 5.12
5 5 -7 44.59 4.89
5 5 -6 3.01 1.7
-5 -5 6 0.33 1.13
5 5 -6 2.85 1.33
5 5 -5 13.1 2.53
-5 -5 5 15.49 2.91
-5 -5 5 10.91 2.64
5 5 -5 10.17 2.2
5 5 -4 14.16 2.41
-5 -5 4 15.4 2.75
5 5 -4 20.72 3.13
5 5 -3 1.98 1.04
-5 -5 3 0.85 1.08
5 5 -3 0.98 0.99
5 5 -2 223.74 9.57
-5 -5 2 217 9.32
5 5 -2 212.11 7.87
5 5 -1 36.94 3.77
-5 -5 1 38.71 3.7
5 5 -1 41.6 3.09
5 5 0 204.06 8.62
-5 -5 0 192.21 8.09
5 5 0 192.4 6.44
5 5 1 216.2 8.77
-5 -5 -1 230.48 8.52
5 5 1 226.15 6.75
5 5 2 143.54 6.83
-5 -5 -2 152.19 6.54
-5 -5 -2 138.52 5.9
5 5 2 145.28 6.76
5 5 2 152.4 5.79
5 5 3 51.66 3.92
-5 -5 -3 54.76 3.69
-5 -5 -3 51.02 3.32
5 5 3 53.08 4.12
-5 -5 -3 50.5 4
5 5 3 52.33 3.42
5 5 4 328.85 10.13
-5 -5 -4 330.82 9.32
-5 -5 -4 335.47 8.75
5 5 4 319.12 10.68
-5 -5 -4 317.18 10.73
5 5 4 327.93 9.57
-5 -5 -5 74.03 3.92
5 5 5 71.53 4.32
-5 -5 -5 75.61 3.59
5 5 5 79.62 5.17
-5 -5 -5 74.88 5.16
5 5 5 76.58 4.59
-5 -5 -6 30.07 2.37
5 5 6 33.47 2.79
5 5 6 33.88 3.46
-5 -5 -6 28.42 3.21
5 5 7 1.28 1.08
-5 -5 -7 3.61 1.5
-5 -5 -8 102.8 6.88
5 5 8 103.17 6.39
-5 -5 -9 289.98 12.46
5 5 9 312.46 11.81
-5 -5 -10 69.89 6.25
5 5 10 81.13 6.03
-5 -5 -11 2.63 1.43
5 5 11 2.2 1.32
5 6 -6 -0.08 1.26
-5 -6 6 3.32 1.62
5 6 -6 -0.13 1.05
5 6 -5 38.11 4.31
-5 -6 5 31.94 4.19
5 6 -5 32.36 4.05
5 6 -4 2.55 1.43
-5 -6 4 0.78 1.19
5 6 -4 1.52 1.25
5 6 -3 -0.24 0.95
-5 -6 3 -0.12 1.26
-5 -6 3 1.32 1.11
5 6 -3 0.35 0.9
5 6 -2 51.73 4.68
-5 -6 2 52.61 4.27
-5 -6 2 61.25 5.04
5 6 -2 62.35 4.43
5 6 -1 2.34 0.93
5 6 -1 3.28 1.5
-5 -6 1 2.68 1.47
5 6 0 112.14 6.59
-5 -6 0 122.99 6.53
5 6 0 114.06 5.49
5 6 1 563.54 15.41
-5 -6 -1 539.28 14.37
-5 -6 -1 562.09 14.32
5 6 1 564.41 14.85
5 6 1 550.91 13.15
5 6 1 569.11 11.99
5 6 2 239.84 9.31
-5 -6 -2 249.9 8.71
-5 -6 -2 241.28 8.45
5 6 2 239 9.17
-5 -6 -2 240.21 9.24
5 6 2 244.03 7.31
5 6 3 42.6 3.71
-5 -6 -3 44.24 3.36
-5 -6 -3 35.51 2.99
5 6 3 45.22 3.06
5 6 3 40.29 3.74
-5 -6 -3 44.79 3.99
5 6 4 60.19 4.27
-5 -6 -4 56.84 3.61
-5 -6 -4 54.46 3.55
5 6 4 64.94 4.78
-5 -6 -4 68.47 4.99
5 6 4 56.21 3.61
-5 -6 -5 543.82 12.21
5 6 5 558.57 13.93
-5 -6 -5 549.43 12.52
-5 -6 -5 569.32 15.95
5 6 5 567.06 15.67
5 6 6 12.91 1.83
5 6 6 13.09 2.39
-5 -6 -6 14.59 2.52
-5 -6 -7 144.91 8.03
-5 -6 -7 147.03 8.04
5 6 7 156.57 8.05
-5 -6 -8 1.47 1.15
5 6 8 1.48 1.33
-5 -6 -9 88.66 6.88
5 6 9 67.95 5.61
-5 -6 -10 0.04 1.18
5 6 10 0.2 0.88
-5 -7 6 4.03 1.67
5 7 -6 1.55 1.2
5 7 -5 28.82 3.83
-5 -7 5 27.28 3.87
5 7 -5 22.71 3.54
5 7 -4 205.81 10.34
-5 -7 4 196.7 9.56
5 7 -4 178.51 9.21
5 7 -3 119.4 7.63
-5 -7 3 124.52 7.01
5 7 -3 126.64 7.28
5 7 -2 369.39 13.5
-5 -7 2 351.56 11.4
5 7 -2 354.83 12.1
5 7 -1 111.11 7.01
-5 -7 1 112.64 6.65
5 7 -1 103.65 6.02
5 7 0 43.05 4.24
-5 -7 0 37.94 3.74
-5 -7 0 44.2 3.92
5 7 0 37.32 3.51
-5 -7 -1 11.51 2.08
5 7 1 9.71 2.12
-5 -7 -1 8.47 1.8
5 7 1 11.59 2.1
-5 -7 -1 11.2 2.11
5 7 1 9.26 1.79
5 7 2 487.78 14.48
-5 -7 -2 500.75 13.44
-5 -7 -2 486.51 13.48
5 7 2 499.43 14.41
-5 -7 -2 503.59 14.56
-5 -7 -3 3.58 1.08
5 7 3 5.16 1.53
-5 -7 -3 4.87 1.39
5 7 3 4.12 1.6
-5 -7 -3 3.74 1.42
5 7 4 77.32 5.06
-5 -7 -4 78.53 4.65
-5 -7 -4 70.88 5.38
5 7 4 81.64 5.64
-5 -7 -5 25.15 2.55
5 7 5 21.78 2.61
5 7 5 27.59 3.39
-5 -7 -5 24.79 3.33
-5 -7 -6 22.07 3.17
5 7 6 14.47 2.64
-5 -7 -7 7.86 2
5 7 7 7.74 2.12
-5 -7 -8 113.4 7.67
5 7 8 106.08 7.15
-5 -7 -9 40.43 4.78
5 7 9 36.05 4.34
5 8 -5 4.64 1.74
-5 -8 5 0.84 1.24
5 8 -4 6.13 2.06
-5 -8 4 10.46 2.64
5 8 -3 32.86 3.93
5 8 -3 27.31 3.81
-5 -8 3 38.93 4.37
-5 -8 3 33.68 3.48
5 8 -2 48.5 4.89
5 8 -2 32.92 3.81
-5 -8 2 35.64 4.08
-5 -8 2 47.23 4.11
-5 -8 1 238.6 10.33
-5 -8 1 248.73 9.73
5 8 -1 214.59 9.67
5 8 -1 255.23 11.28
5 8 0 3.66 1.54
-5 -8 0 0.69 0.85
5 8 0 2.72 1.26
-5 -8 0 5.08 1.59
5 8 0 4.43 1.41
-5 -8 -1 123.76 6.88
5 8 1 119.08 6.78
-5 -8 -1 129.48 7.1
5 8 1 113.3 6.65
5 8 1 121.17 7.28
5 8 2 160.71 8.26
-5 -8 -2 165.64 7.82
-5 -8 -2 160.36 8.13
5 8 2 167.96 8.21
5 8 3 11.34 2.29
-5 -8 -3 10.31 1.89
5 8 3 10.06 2.25
-5 -8 -3 6.03 1.77
5 8 4 0.65 0.94
-5 -8 -4 0.09 0.83
5 8 4 -0.01 1.04
-5 -8 -4 1.89 1.51
5 8 5 81.99 5.34
-5 -8 -5 82.3 5.13
-5 -8 -5 83.15 6.33
5 8 5 86.23 6.23
-5 -8 -6 1.99 1.33
5 8 6 -0.05 0.97
-5 -8 -7 3.01 1.7
5 8 7 -0.22 1.01
-5 -8 -8 5.09 2.02
5 8 8 4.98 1.8
5 9 -3 3.37 1.98
-5 -9 3 3.5 1.74
5 9 -2 21.78 3.62
-5 -9 2 21.01 3.29
-5 -9 2 23.49 3.13
5 9 -1 9.89 2.36
5 9 -1 8.99 2.25
-5 -9 1 14.01 2.66
-5 -9 1 8.5 1.94
-5 -9 0 68.65 5.58
-5 -9 0 64.76 5.18
5 9 0 65.98 5.14
5 9 0 64.15 5.49
5 9 0 62.83 5.67
5 9 1 21.62 3.26
-5 -9 -1 22.35 3.2
5 9 1 25.61 3.32
5 9 1 18.41 3.03
-5 -9 -1 21.65 3.1
5 9 2 29.57 3.74
-5 -9 -2 24.71 3.16
5 9 2 23.7 3.26
-5 -9 -2 30.66 3.67
5 9 3 1.45 1.01
-5 -9 -3 2.37 1.19
5 9 3 0.9 1.16
-5 -9 -3 1.71 1.35
5 9 4 65.54 5.19
-5 -9 -4 56.38 4.65
5 9 4 61.3 5.34
-5 -9 -5 32.94 3.56
-5 -9 -5 35.84 4.11
5 9 5 40.79 4.49
-5 -9 -6 108.46 7.4
5 9 6 121.7 7.93
-5 -9 -7 33.93 4.35
5 9 7 35.46 4.47
-5 -10 1 21.09 3.37
-5 -10 1 19.53 2.93
5 10 -1 13.74 3.05
-5 -10 0 45.88 4.84
-5 -10 0 48.29 4.71
5 10 0 53.1 4.82
5 10 0 47.23 5.26
-5 -10 -1 1.27 1.2
-5 -10 -1 0.68 1.06
5 10 1 -0.36 1.14
5 10 1 -0.96 1.63
-5 -10 -2 35.66 4.14
5 10 2 33.04 3.94
5 10 2 36.71 4.34
-5 -10 -3 336.11 12.73
5 10 3 327.55 13.17
5 10 3 326.28 13.06
5 10 4 15.19 2.74
-5 -10 -4 15.72 2.77
5 10 4 22.52 3.49
6 -7 2 3.38 1.82
-6 7 -2 5.99 2.01
6 -7 3 10.93 2.49
6 -7 3 10.42 2.56
-6 7 -3 5.12 2.11
6 -7 4 -0.23 1.19
6 -7 4 1.25 1.16
-6 7 -4 -0.96 1.51
-6 7 -4 -0.62 1.12
6 -6 -1 1.63 1.58
-6 6 1 5.88 2.11
6 -6 0 5.12 2.14
-6 6 0 6.53 2.06
6 -6 1 2.43 1.39
-6 6 -1 1.91 1.5
6 -6 2 3.9 1.82
-6 6 -2 5.47 1.94
6 -6 3 3.92 1.8
-6 6 -3 3.12 2.01
-6 6 -3 4.52 1.74
6 -6 4 29.01 3.72
6 -6 4 32.55 4.19
-6 6 -4 27.75 4.15
-6 6 -4 33.58 4.15
6 -6 5 489.66 16.39
-6 6 -5 506.93 18.26
-6 6 -5 478 16.83
6 -6 5 505.56 16.12
-6 6 -6 16.68 3.12
-6 6 -6 19.51 3.66
6 -6 6 20.66 3.27
-6 6 -7 63.4 6.5
-6 6 -7 64.62 6.2
6 -6 7 60.82 5.56
6 -5 -3 10.22 3.29
-6 5 3 9.77 2.42
6 -5 -2 3.46 2.25
-6 5 2 4.78 1.95
-6 5 1 51.06 5.14
6 -5 -1 53.65 6.25
6 -5 0 7.47 2.49
-6 5 0 12.37 2.78
-6 5 -1 42.28 4.73
6 -5 1 40.03 4.94
6 -5 2 1.1 1.19
-6 5 -2 0.4 1.06
6 -5 3 9.33 2.29
-6 5 -3 11.12 2.49
-6 5 -3 9.32 2.1
6 -5 4 5.25 1.63
6 -5 4 7.43 1.97
-6 5 -4 11.69 2.73
-6 5 -4 11.1 2.39
6 -5 5 8.72 2.12
-6 5 -5 11.56 2.35
6 -5 5 11.54 2.3
-6 5 -5 11.68 2.69
-6 5 -6 2.89 1.42
-6 5 -6 3.8 2.21
6 -5 6 4.48 1.68
-6 5 -7 117.2 8.43
-6 5 -7 122.96 8.05
6 -5 7 112.01 7.4
-6 5 -8 46.71 5.47
-6 5 -8 51.63 5.41
6 -5 8 49.46 5.06
-6 4 4 5.41 1.9
6 -4 -4 4.85 1.76
6 -4 -3 0.94 1.39
-6 4 3 -0.75 1.48
6 -4 -2 653.96 22.8
6 -4 -2 676.91 20.68
-6 4 2 676.38 19.55
6 -4 -1 23.56 3.71
6 -4 -1 17.82 3.46
-6 4 1 14.51 2.85
6 -4 0 75.79 6.75
6 -4 0 86.03 6.78
-6 4 0 86.31 6.43
6 -4 1 101.83 7.53
-6 4 -1 106.74 7.14
6 -4 2 3.27 1.71
-6 4 -2 0.36 0.9
6 -4 3 0.75 1.17
-6 4 -3 1.02 1.17
-6 4 -3 1.28 0.86
6 -4 4 22.73 3.06
6 -4 4 22.41 3.1
-6 4 -4 28.53 3.87
-6 4 -4 27.67 3.2
6 -4 5 15.42 2.64
-6 4 -5 18.12 2.65
6 -4 5 16.46 2.55
-6 4 -5 18.18 3.16
-6 4 -6 44.43 4.91
-6 4 -6 37.81 4.01
6 -4 6 45.6 4.56
-6 4 -7 2.87 1.37
-6 4 -7 2.04 1.2
6 -4 7 2.4 1.38
-6 4 -8 6.43 1.81
-6 4 -8 4.76 1.77
6 -4 8 6.68 2.11
-6 4 -9 48.8 5.22
6 -4 9 49.33 5.18
6 -3 -5 31.92 4.25
-6 3 5 31.68 4.03
6 -3 -4 13.51 2.84
-6 3 4 17.18 2.92
6 -3 -3 124.08 8.11
-6 3 3 121.44 7.62
6 -3 -2 22.44 3.46
-6 3 2 26.98 3.62
6 -3 -1 31.15 3.98
-6 3 1 33.55 3.98
6 -3 0 103.31 7.12
6 -3 0 86.87 7.08
-6 3 0 101.16 6.77
6 -3 1 14.67 2.88
-6 3 -1 11.8 2.4
6 -3 1 9.98 2.35
6 -3 2 95.61 6.76
6 -3 2 97.45 6.83
-6 3 -2 94.49 6.51
6 -3 3 24.66 3.52
6 -3 3 28.18 3.53
-6 3 -3 20.34 3.1
-6 3 -3 24.95 2.68
6 -3 4 93.85 6.03
-6 3 -4 102.79 6.82
-6 3 -4 83.87 4.99
6 -3 4 89.29 5.93
6 -3 5 33.54 3.43
-6 3 -5 32.87 4
-6 3 -5 28.63 3.06
6 -3 5 35.93 3.82
-6 3 -6 491.9 16.28
-6 3 -6 486.84 14.26
6 -3 6 506.58 15.5
-6 3 -7 35.04 4.21
-6 3 -7 32.98 3.7
6 -3 7 34.53 3.98
-6 3 -8 1.18 0.99
-6 3 -8 1.54 1.36
6 -3 8 1.63 1.03
-6 3 -9 11.91 2.53
-6 3 -9 9.92 2.51
6 -3 9 10.78 2.5
6 -3 10 70.18 6.98
-6 3 -10 67.09 6.34
-6 3 -10 76.07 6.55
-6 2 5 31.83 4.08
6 -2 -5 29.61 4
-6 2 4 93.09 6.71
6 -2 -4 94.74 7
6 -2 -3 21.97 3.4
-6 2 3 19.09 3.12
-6 2 2 43.88 4.49
6 -2 -2 38.11 4.34
-6 2 1 75.27 5.78
6 -2 -1 78.38 6.07
-6 2 0 43.82 4.42
6 -2 0 46.31 4.64
-6 2 -1 10.64 2.26
6 -2 1 12.79 2.6
6 -2 2 69.15 5.51
6 -2 2 66.98 5.48
-6 2 -2 57.95 4.99
6 -2 3 1.4 1.28
-6 2 -3 -0.04 1.02
6 -2 3 -0.8 1.01
-6 2 -4 14.4 1.86
6 -2 4 14.17 2.42
6 -2 4 13.75 2.55
6 -2 4 13.18 2.23
-6 2 -4 10.68 2.21
6 -2 5 18.88 2.78
6 -2 5 23.12 3.18
-6 2 -5 21.76 2.4
6 -2 5 20.76 2.59
-6 2 -5 23.65 3.24
6 -2 6 0.8 1.28
-6 2 -6 2.12 0.93
-6 2 -6 3.24 1.25
-6 2 -7 1.24 0.68
-6 2 -7 1.93 1.31
6 -2 7 1.93 1.35
-6 2 -8 303.81 10.53
-6 2 -8 311.75 12.66
-6 2 -8 312.28 11.62
6 -2 8 334.83 12.75
-6 2 -9 31.73 3.85
-6 2 -9 21.94 2.86
-6 2 -9 28.82 3.89
6 -2 9 28.14 3.8
6 -2 10 72.33 6.78
-6 2 -10 65.52 5.98
-6 2 -10 65.56 5.83
6 -1 -6 1.47 0.94
-6 1 6 4.81 1.67
6 -1 -5 3.48 1.75
-6 1 5 -1.82 1.67
-6 1 4 118.37 7.54
6 -1 -4 115.72 7.56
6 -1 -3 16.86 2.95
-6 1 3 14.47 2.67
-6 1 2 549.16 16.35
6 -1 -2 520.37 16.42
-6 1 1 470.88 15.02
6 -1 -1 501.48 15.64
-6 1 0 60.9 5.03
6 -1 0 63.56 5.22
-6 1 -1 194.11 9
6 -1 1 179.09 8.72
-6 1 -2 32.26 3.63
6 -1 2 35.68 3.8
-6 1 -3 24.74 3.15
6 -1 3 31.31 3.58
6 -1 4 34.59 3.73
6 -1 4 29.32 3.27
-6 1 -4 30.62 3.52
-6 1 -4 31.1 2.2
6 -1 5 -0.49 1.27
-6 1 -5 -0.27 0.61
-6 1 -5 -0.23 1
6 -1 5 -0.08 0.99
6 -1 6 1.74 1.22
-6 1 -6 2.3 0.88
6 -1 6 3.62 1.41
-6 1 -6 2.86 1.42
-6 1 -7 191.06 9.09
-6 1 -7 187.3 7.68
6 -1 7 177.44 8.72
-6 1 -8 1.2 0.78
-6 1 -8 5.41 1.52
-6 1 -8 1.74 1.2
-6 1 -8 3.54 1.05
6 -1 8 5.8 1.84
-6 1 -9 0.24 0.86
-6 1 -9 2.27 1.32
-6 1 -9 0.84 0.85
6 -1 9 1.49 1.28
6 -1 10 347.25 14.85
-6 1 -10 338.18 12.63
-6 1 -10 349.79 13.54
-6 1 -10 364.43 13.73
-6 1 -11 43.05 4.54
6 -1 11 42.61 5.26
-6 1 -11 47.99 5.05
-6 0 6 3.63 1.69
6 0 -6 2.49 1.03
-6 0 5 8.3 2.22
6 0 -5 3.63 1.52
-6 0 4 8.88 2.29
6 0 -4 7.18 2.01
-6 0 3 36.64 4.03
6 0 -3 30.19 3.67
-6 0 2 1.63 1.21
6 0 -2 2.97 1.65
-6 0 1 96.97 6.3
6 0 -1 87 6.06
-6 0 0 16.69 2.89
6 0 0 13.07 2.52
-6 0 -1 46.07 4.24
6 0 1 46.78 4.27
-6 0 -2 123.83 6.89
6 0 2 127.55 6.95
-6 0 -3 134.6 7.09
6 0 3 123.29 6.82
-6 0 -4 118.94 6.68
6 0 4 120.23 6.6
6 0 4 128.64 6.73
-6 0 -5 58.1 4.65
-6 0 -5 48.47 2.66
6 0 5 55.41 4.46
6 0 5 50.73 4.28
6 0 6 274.48 10.07
-6 0 -6 276.76 10.51
-6 0 -6 267.79 7.87
6 0 6 262.5 10.29
6 0 7 11.52 2.02
-6 0 -7 12.17 1.81
-6 0 -7 12.26 2.29
6 0 7 16.35 2.67
-6 0 -8 142.04 7.6
-6 0 -8 145.57 6.54
6 0 8 145.35 8.03
-6 0 -8 138.65 6.77
6 0 9 108.53 7.53
-6 0 -9 106.85 6.67
-6 0 -9 110.97 6.83
-6 0 -9 102.55 5.49
6 0 9 103.36 7.05
-6 0 -9 105.23 6.4
6 0 10 35.75 4.52
-6 0 -10 27.57 3.61
-6 0 -10 35.67 3.95
6 0 11 40.89 5.12
-6 0 -11 41.16 4.6
-6 -1 6 50.04 5.19
6 1 -6 45.36 4.82
-6 -1 5 46.81 4.91
6 1 -5 61.49 5.51
6 1 -4 0.22 1.04
-6 -1 4 4.51 1.69
-6 -1 3 50.99 4.82
6 1 -3 53.28 4.9
-6 -1 2 54.23 4.79
6 1 -2 56.4 4.93
6 1 -1 3.26 1.34
-6 -1 1 6.76 1.75
-6 -1 0 101.59 6.26
6 1 0 106.15 6.45
-6 -1 -1 54.86 4.54
6 1 1 57.14 4.62
-6 -1 -2 87.02 5.59
6 1 2 80.24 5.37
-6 -1 -3 108.61 6.22
6 1 3 109.4 6.17
-6 -1 -4 121.81 6.56
6 1 4 130.14 6.65
6 1 4 126.93 6.54
-6 -1 -5 120.97 6.52
6 1 5 127.88 6.52
6 1 5 121.9 6.59
-6 -1 -6 73.07 5.02
6 1 6 71.97 4.8
-6 -1 -6 67.43 3.43
6 1 6 69.43 5.08
-6 -1 -7 5.61 1.22
6 1 7 1.97 0.96
-6 -1 -7 8.62 1.76
6 1 7 7.94 1.94
6 1 8 5.27 1.74
-6 -1 -8 1.56 0.96
-6 -1 -8 5.74 1.33
6 1 9 93.84 6.71
-6 -1 -9 75.4 5.75
-6 -1 -9 85.09 5.59
-6 -1 -9 81.04 5.11
-6 -1 -10 6.62 2
-6 -1 -10 10.99 2.18
-6 -1 -10 9.28 1.8
6 1 11 -1.33 1.37
-6 -1 -11 5.53 2.06
6 2 -6 0.34 0.98
-6 -2 6 1.67 1.56
6 2 -5 5.93 1.97
-6 -2 5 6.45 2.24
6 2 -4 15.53 2.77
-6 -2 4 14.47 2.87
-6 -2 3 142.16 8.02
6 2 -3 152.85 8.32
6 2 -2 11.7 2.29
-6 -2 2 15.87 2.65
-6 -2 1 435.38 13.92
6 2 -1 442.08 14.15
-6 -2 0 1087.51 23.78
6 2 0 1093.7 23.99
6 2 1 2.11 1.27
-6 -2 -1 0.2 1
-6 -2 -2 153.26 7.39
6 2 2 155.52 7.51
-6 -2 -3 188.8 8.19
6 2 3 206.99 8.5
-6 -2 -4 131.91 6.65
6 2 4 117.61 6.24
6 2 4 125.17 6.37
-6 -2 -5 102.49 5.75
6 2 5 101.39 5.67
6 2 5 119.82 6.4
-6 -2 -6 105.74 5.87
6 2 6 112.66 5.85
6 2 6 112.66 6.4
-6 -2 -7 38.79 3.55
6 2 7 45.7 3.85
-6 -2 -7 46.11 3.89
6 2 7 49.6 3.76
6 2 7 46.3 4.29
-6 -2 -8 51.47 4.1
6 2 8 40.71 3.69
-6 -2 -8 47.99 4.03
6 2 8 45.27 4.41
-6 -2 -9 10.24 2.26
-6 -2 -9 12.56 2.05
6 2 9 13.89 2.23
-6 -2 -9 11.92 2.1
6 2 10 45.63 4.76
-6 -2 -10 41.26 4.6
-6 -2 -10 47.07 4.22
6 2 10 40.96 3.82
6 2 11 33.54 4.28
-6 -2 -11 32.13 4.35
6 3 -6 23.93 3.57
-6 -3 6 36.51 4.65
6 3 -5 18.05 3.06
-6 -3 5 18.67 3.25
-6 -3 4 20.73 3.22
6 3 -4 18.71 3.04
-6 -3 3 183.38 9.24
6 3 -3 166.74 8.78
-6 -3 2 43.6 4.3
6 3 -2 39.03 4.16
-6 -3 1 286.87 11.05
6 3 -1 285.7 11.13
-6 -3 0 137.42 7.27
6 3 0 130.7 7.19
6 3 1 15.43 2.47
-6 -3 -1 16.42 2.47
-6 -3 -2 74.78 5.04
6 3 2 77.51 5.25
-6 -3 -3 78.41 5.06
6 3 3 74.99 5.05
6 3 3 75.37 4.79
6 3 4 5.12 1.45
6 3 4 4.17 1.52
-6 -3 -4 2.92 1.21
-6 -3 -5 110.68 5.83
-6 -3 -5 111.66 3.98
6 3 5 106.6 5.75
6 3 5 112.54 6.12
-6 -3 -6 5.53 1.45
6 3 6 4.94 1.33
6 3 6 4.61 1.42
-6 -3 -6 5.33 1.59
6 3 6 5.58 1.75
-6 -3 -7 28.51 2.86
6 3 7 29.57 3.25
6 3 7 29.33 2.81
-6 -3 -7 21.82 2.81
6 3 7 28.78 3.33
-6 -3 -8 15.9 2.15
6 3 8 16.27 2.43
-6 -3 -8 19.25 2.79
6 3 8 16.01 2.64
-6 -3 -9 1.75 1.46
6 3 9 2.5 1.3
-6 -3 -9 1.43 1
6 3 10 91.53 6.47
-6 -3 -10 79.42 6.5
6 3 10 83.78 5.8
-6 -3 -11 63.52 6.14
6 3 11 62.09 5.09
-6 -4 6 230.37 11.74
6 4 -6 235.01 11.54
-6 -4 5 13.12 2.86
6 4 -5 8.05 2.11
-6 -4 4 20.26 3.25
6 4 -4 22.55 3.36
-6 -4 3 8.54 2.19
6 4 -3 6.97 2.09
-6 -4 2 27.48 3.47
6 4 -2 25.02 3.42
-6 -4 1 1.09 1
6 4 -1 -0.1 1.12
-6 -4 0 93.68 6.01
6 4 0 92.54 6.08
-6 -4 -1 549.2 15.16
6 4 1 536.14 15.4
-6 -4 -2 212.31 8.73
6 4 2 225.15 9.24
-6 -4 -3 418.91 12.36
6 4 3 410.24 12.69
6 4 3 421.99 11.84
-6 -4 -4 33.31 3.14
6 4 4 33.42 3.31
6 4 4 29.66 3.21
6 4 4 27.5 2.92
-6 -4 -5 48.37 3.79
-6 -4 -5 45.21 2.67
6 4 5 43.68 3.7
6 4 5 47.41 4.13
6 4 5 49.87 4.05
-6 -4 -6 323.82 10.14
6 4 6 328.87 10.4
6 4 6 334.68 11.45
-6 -4 -6 341.1 11.74
6 4 6 341.49 11.46
-6 -4 -7 1.28 0.71
6 4 7 2.4 0.98
6 4 7 1.75 1
-6 -4 -7 0.84 1.08
6 4 7 1.41 1
-6 -4 -8 52.53 4.62
6 4 8 43.56 4.14
-6 -4 -9 12.15 2.68
6 4 9 8.53 2.03
-6 -4 -9 7.81 1.93
-6 -4 -10 0.45 1.48
6 4 10 0.21 1.13
-6 -5 6 20.57 3.87
6 5 -6 13.34 2.81
-6 -5 5 24.17 3.91
-6 -5 5 25.77 3.93
6 5 -5 27.79 3.87
-6 -5 4 7.83 2.18
6 5 -4 7.49 2.04
-6 -5 3 105.88 7.17
6 5 -3 94.08 6.81
-6 -5 2 6.71 1.92
6 5 -2 8.24 2.12
-6 -5 1 134.29 7.5
6 5 -1 126.78 7.56
-6 -5 0 69.01 5.21
6 5 0 76.54 5.65
-6 -5 -1 229.74 9.33
6 5 1 223.34 9.63
-6 -5 -2 210.62 8.65
6 5 2 219.51 9.25
6 5 2 202.9 7.59
-6 -5 -3 240.47 9.02
6 5 3 218.4 9.15
-6 -5 -3 236.21 7.98
6 5 3 248.27 9.7
6 5 3 238.84 8.41
-6 -5 -4 6.36 1.37
-6 -5 -4 6.26 1.53
6 5 4 6.84 1.78
6 5 4 4 1.35
-6 -5 -4 5.79 1.54
6 5 4 2.63 1.08
-6 -5 -5 319.9 10.12
-6 -5 -5 355.07 8.91
6 5 5 331.33 10.91
6 5 5 349.3 12
-6 -5 -5 347.95 12.06
6 5 5 335.27 10.86
-6 -5 -6 283.52 9.13
6 5 6 296.4 9.91
6 5 6 296.69 11.12
-6 -5 -6 274.88 10.89
6 5 6 283.94 10.32
-6 -5 -7 162.11 8.38
6 5 7 174.58 8.54
-6 -5 -8 23.74 3.52
6 5 8 28.27 3.49
-6 -5 -8 30.51 3.69
-6 -5 -9 108.6 7.57
6 5 9 101.62 6.78
-6 -5 -10 20.18 3.5
6 5 10 20.49 3.17
-6 -6 5 0.63 1.21
6 6 -5 -2.32 1.51
-6 -6 4 66.72 6.01
-6 -6 4 66.05 6.04
6 6 -4 70.54 6.23
-6 -6 3 72.82 6.07
6 6 -3 75.1 6.26
6 6 -2 130.66 8
-6 -6 2 104.69 7.08
6 6 -1 75.3 5.91
-6 -6 1 68.23 5.45
6 6 0 145.02 8.11
-6 -6 0 161.06 8.16
6 6 1 84.85 6.01
-6 -6 -1 66.84 4.99
6 6 1 75.51 4.3
6 6 2 1.64 0.8
-6 -6 -2 3.46 1.31
-6 -6 -2 7.89 1.66
6 6 2 5.78 1.62
-6 -6 -3 55.88 4.24
6 6 3 51.85 4.42
-6 -6 -3 57.37 4
6 6 3 60.13 4.83
-6 -6 -3 58.36 4.81
6 6 3 53.4 3.74
-6 -6 -4 4.33 1.24
-6 -6 -4 6.69 1.37
6 6 4 7.68 1.8
6 6 4 7.48 1.94
-6 -6 -4 5.6 1.85
6 6 4 6.08 1.43
-6 -6 -5 6.88 1.34
6 6 5 6.69 1.8
6 6 5 10.81 2.01
-6 -6 -5 9.38 2.24
6 6 5 9.55 1.71
6 6 6 24.79 3.34
-6 -6 -6 28.36 3.57
6 6 6 25.57 2.88
-6 -6 -7 67.7 5.59
6 6 7 61.53 5.23
-6 -6 -8 -1.19 1.12
6 6 8 2.66 1.54
-6 -6 -8 1.93 1.48
-6 -6 -9 18.64 3.32
6 6 9 19.83 3.22
6 7 -4 31.63 4.32
6 7 -3 21.77 3.57
-6 -7 2 13.27 2.68
6 7 -2 13.17 2.78
-6 -7 1 32 3.89
6 7 -1 34.7 4.13
-6 -7 0 41.47 4.19
-6 -7 0 39.94 4.01
6 7 0 38.68 4.3
6 7 1 277.08 11.48
-6 -7 -1 273.41 10.71
-6 -7 -1 276.91 10.46
6 7 2 132.08 7.55
-6 -7 -2 125.34 6.76
-6 -7 -2 111.84 6.22
6 7 2 116.94 6.97
-6 -7 -2 117.54 6.98
6 7 3 86.62 5.98
-6 -7 -3 88.13 5.43
-6 -7 -3 80.43 5.1
6 7 3 86.22 6.02
-6 -7 -3 91.65 6.2
-6 -7 -4 17.31 2.33
-6 -7 -4 18.51 2.39
6 7 4 14.9 2.46
6 7 4 24.34 3.27
-6 -7 -4 25.74 3.39
6 7 5 58.95 4.64
-6 -7 -5 58.97 5.25
6 7 5 52.96 4.86
6 7 6 9.57 2.25
-6 -7 -6 7.42 2.11
6 7 7 1.06 1.14
-6 -7 -7 -0.61 1.27
-6 -7 -8 0.92 1.08
6 7 8 2.75 1.53
6 8 -3 9.38 2.52
-6 -8 3 13.05 2.82
6 8 -2 28.17 4.04
-6 -8 2 21.34 3.41
6 8 -1 3.56 1.75
-6 -8 1 3.34 1.25
-6 -8 1 2.43 1.49
6 8 0 5.94 1.93
-6 -8 0 10.32 2.2
-6 -8 0 9.51 2.12
6 8 1 2.55 1.64
-6 -8 -1 3.96 1.43
-6 -8 -1 6.21 1.84
6 8 2 18.37 3.11
-6 -8 -2 19.11 2.77
6 8 2 22.49 3.23
-6 -8 -2 15.23 2.69
-6 -8 -3 1.83 1.36
6 8 3 0.21 0.96
6 8 3 -0.08 1.08
-6 -8 -3 0.46 1.16
6 8 4 148.63 8.01
-6 -8 -4 140.6 7.02
-6 -8 -4 151.62 8.57
6 8 4 144.48 8.28
6 8 5 19.41 2.84
6 8 5 20.64 3.26
-6 -8 -5 20.15 3.23
-6 -8 -6 183.07 10.01
6 8 6 185.65 9.8
-6 -8 -7 112.64 7.96
6 8 7 108.16 7.62
6 9 -1 125.52 8.54
-6 -9 1 120.73 7.91
-6 -9 1 132.11 7.7
6 9 0 16.3 3.15
-6 -9 0 15.1 2.86
-6 -9 0 9.6 2.25
6 9 1 0.48 1.19
6 9 1 1.63 1.04
-6 -9 -1 2.76 1.59
6 9 2 83.15 6.54
-6 -9 -2 85.26 6.12
-6 -9 -2 96.22 6.83
6 9 2 86.42 6.43
6 9 3 13.67 2.71
-6 -9 -3 11.47 2.29
6 9 3 10.21 2.48
-6 -9 -3 11.79 2.54
-6 -9 -4 0.75 0.76
6 9 4 1.31 0.99
6 9 4 -0.58 1.39
-6 -9 -4 -0.72 1.3
-6 -9 -5 5.56 2.01
6 9 5 6.81 2.33
7 -5 0 1.11 1.28
-7 5 0 4.4 1.87
7 -5 1 15.34 3.39
-7 5 -1 10.93 2.57
7 -5 2 2.62 1.39
-7 5 -2 -0.33 1.37
7 -5 3 23.74 3.95
-7 5 -3 22.95 3.83
7 -5 4 16.98 3.07
7 -5 4 14.91 3.09
-7 5 -4 16.47 3.24
-7 5 -5 58.65 6.09
7 -5 5 56.72 5.47
7 -5 6 6.01 2.07
-7 5 -6 3.97 2.05
-7 4 2 46.74 5.27
7 -4 -2 44.21 5.4
7 -4 -1 88.53 7.49
-7 4 1 80.34 6.84
7 -4 0 37.12 4.92
-7 4 0 24.8 3.8
7 -4 1 10.44 2.92
7 -4 1 13.25 3.01
-7 4 -1 5.53 2.19
7 -4 2 1.58 1.48
-7 4 -2 0.58 1.45
7 -4 3 71.94 6.47
-7 4 -3 74.35 6.52
7 -4 4 26.93 3.69
7 -4 4 26.46 3.83
-7 4 -4 21.52 3.58
-7 4 -5 73.92 6.62
7 -4 5 73.17 6.08
-7 4 -6 89.87 7.31
7 -4 6 88.67 6.8
-7 4 -7 67.91 6.5
7 -4 7 61.59 5.76
-7 4 -8 0.17 1.17
7 -4 8 -1.65 1.48
7 -3 -3 104.4 8.04
-7 3 3 100.74 7.6
7 -3 -2 81.02 7.04
-7 3 2 72.7 6.42
7 -3 -1 179.74 10.43
-7 3 1 167.48 9.63
7 -3 0 61.19 5.99
-7 3 0 60.03 5.75
-7 3 -1 19.49 3.28
7 -3 1 20.6 3.51
7 -3 2 86.12 7.03
-7 3 -2 86.64 6.75
7 -3 3 3.17 1.93
7 -3 3 0.91 1.08
7 -3 4 19.32 3.01
7 -3 4 19.91 3.21
-7 3 -4 23.14 3.61
7 -3 5 11.47 2.4
-7 3 -5 10.91 2.73
7 -3 6 28.7 3.73
-7 3 -6 28.68 4.11
-7 3 -7 2.59 1.64
7 -3 7 4.42 1.61
-7 3 -8 74.35 6.65
7 -3 8 56.38 5.55
-7 3 -9 0.18 1.51
7 -3 9 4.26 1.97
-7 2 3 28.84 4.07
7 -2 -3 31.86 4.43
-7 2 2 134.6 8.48
7 -2 -2 133.11 8.79
-7 2 1 328.69 13.48
7 -2 -1 348.51 14.28
-7 2 0 19.4 3.24
7 -2 0 24.03 3.7
-7 2 -1 42.73 4.69
7 -2 1 37.59 4.58
7 -2 2 3.35 1.63
-7 2 -2 2.35 1.5
-7 2 -3 0.59 1.22
7 -2 3 0.34 0.99
7 -2 4 -0.29 1.22
-7 2 -4 2.21 1.28
7 -2 4 1.56 1.23
7 -2 5 19.76 3.09
-7 2 -5 23.66 3.5
7 -2 5 18.59 3.07
7 -2 6 9.26 2.23
-7 2 -6 11.19 2.56
-7 2 -7 105.05 7.52
7 -2 7 120.91 7.81
-7 2 -8 32.81 4.32
7 -2 8 36.44 4.35
-7 2 -9 21.41 3.53
7 -2 9 16.28 3.13
-7 1 4 56.91 5.72
7 -1 -4 50.72 5.47
7 -1 -3 0.17 1.14
-7 1 3 -0.5 1.24
7 -1 -2 17.15 3.08
-7 1 2 18.24 3.25
-7 1 1 57.76 5.4
7 -1 -1 75.33 6.3
7 -1 0 3 1.6
-7 1 0 3.26 1.68
-7 1 -1 119.98 7.65
7 -1 1 108.4 7.39
7 -1 2 22.28 3.36
-7 1 -2 24.51 3.45
-7 1 -3 160.22 8.81
7 -1 3 159.85 8.83
7 -1 4 31.58 3.75
7 -1 4 26.55 3.6
-7 1 -4 34.59 4.02
7 -1 5 94.57 6.61
-7 1 -5 93.61 6.72
7 -1 5 102.65 6.69
7 -1 6 114.44 7.24
-7 1 -6 111.45 7.37
7 -1 6 114.2 7.29
-7 1 -7 99.19 6.97
7 -1 7 92.63 6.66
-7 1 -8 87.33 6.72
7 -1 8 92.6 6.9
-7 1 -9 20.78 3.03
-7 1 -9 19.39 3.28
7 -1 9 21.44 3.57
-7 1 -10 -0.21 1.02
-7 1 -10 -0.55 1.05
7 -1 10 0.86 1.17
-7 0 4 11.21 2.7
7 0 -4 7.65 2.31
-7 0 3 10.81 2.56
7 0 -3 18.95 3.38
-7 0 2 34.13 4.2
7 0 -2 31.02 4.06
-7 0 1 4.41 1.91
7 0 -1 6.12 1.91
-7 0 0 22.04 3.45
7 0 0 20.93 3.33
-7 0 -1 169.77 8.98
7 0 1 179.25 9.31
7 0 2 3.33 1.46
-7 0 -2 5.54 1.83
-7 0 -3 45.92 4.52
7 0 3 44.56 4.49
7 0 4 5.2 1.59
7 0 4 3.21 1.39
-7 0 -4 3.25 1.39
7 0 5 15.64 2.66
-7 0 -5 11.05 2.35
7 0 5 14.15 2.55
7 0 6 49.33 4.6
-7 0 -6 54.05 4.96
7 0 6 49.05 4.72
7 0 7 156.35 8.15
-7 0 -7 154.54 8.42
7 0 7 133.66 7.98
-7 0 -8 131.38 7.84
7 0 8 130.07 8.13
-7 0 -9 17.74 3
-7 0 -9 27.43 3.73
-7 0 -9 21.3 2.73
7 0 9 22.47 3.54
-7 0 -10 8.5 2.19
-7 0 -10 9.85 2.33
7 0 10 9.39 2.45
-7 -1 5 6.33 2.1
7 1 -5 6.36 2.05
-7 -1 4 12.78 2.74
7 1 -4 14.04 2.81
7 1 -3 2.59 1.3
-7 -1 3 1.31 1.28
-7 -1 2 132.74 8.15
7 1 -2 127.8 8.15
-7 -1 1 102.19 6.99
7 1 -1 101.21 7.09
-7 -1 0 634.93 18.51
7 1 0 663.41 19.04
-7 -1 -1 24.36 3.36
7 1 1 21 3.12
-7 -1 -2 65.8 5.4
7 1 2 66.76 5.4
-7 -1 -3 11.65 2.35
7 1 3 14.36 2.58
7 1 4 7.58 1.87
7 1 4 8.64 2
-7 -1 -4 7.9 1.96
-7 -1 -5 69.88 5.44
7 1 5 74.16 5.49
7 1 5 68.35 5.31
7 1 6 2.06 1.2
7 1 6 2.21 1.19
-7 -1 -6 3.52 1.5
7 1 7 1.49 1.01
-7 -1 -7 -0.44 0.85
7 1 7 3.2 1.66
7 1 8 0.14 0.81
-7 -1 -8 0.87 1.3
-7 -1 -8 1.55 0.92
7 1 8 1.55 1.29
-7 -1 -9 30.6 3.97
-7 -1 -9 27.62 3.54
-7 -1 -9 27.28 3.24
7 1 9 35.17 4.33
-7 -1 -10 29.5 3.99
-7 -2 5 68.89 6.4
7 2 -5 57.32 5.8
7 2 -4 2.25 1.41
-7 -2 4 0.16 1.46
7 2 -3 18.7 3.17
-7 -2 3 18.74 3.27
7 2 -2 -0.48 1.02
-7 -2 2 2.64 1.63
7 2 -1 1.42 1.19
-7 -2 1 2.2 1.57
7 2 0 4.39 1.67
-7 -2 0 6.58 2.05
7 2 1 25.23 3.57
-7 -2 -1 28.34 3.58
-7 -2 -2 465.86 14.92
7 2 2 473.57 15.15
7 2 3 25.65 3.32
-7 -2 -3 20.61 3.03
-7 -2 -4 430.78 14.02
7 2 4 459.58 14.31
7 2 4 449.76 13.91
-7 -2 -5 32.36 3.63
7 2 5 31.97 3.57
7 2 5 35.97 3.78
7 2 6 11.93 2.28
-7 -2 -6 15.79 2.57
7 2 6 11.74 2.42
-7 -2 -7 110.86 6.63
7 2 7 123.26 6.74
7 2 7 115.83 7.22
-7 -2 -8 10.23 1.98
-7 -2 -8 8.83 1.97
7 2 8 9.04 2.37
-7 -2 -9 72.71 5.39
-7 -2 -9 69.95 5.31
7 2 9 66.83 5.87
-7 -2 -10 -0.54 1.34
-7 -2 -10 1.95 1
7 3 -5 43.58 5.17
-7 -3 5 45.42 5.27
7 3 -4 15.33 3.02
-7 -3 4 21.08 3.62
7 3 -3 0.79 0.96
-7 -3 3 1.69 1.26
-7 -3 2 107.2 7.35
7 3 -2 127.47 8.15
7 3 -1 36.7 4.28
-7 -3 1 34.69 4.07
-7 -3 0 48.1 4.73
7 3 0 46.24 4.73
7 3 1 31.6 3.8
-7 -3 -1 24.45 3.36
7 3 2 10.09 2.31
-7 -3 -2 9.73 2.13
7 3 3 16.34 2.47
7 3 3 15.25 2.53
-7 -3 -3 15 2.58
-7 -3 -4 293.47 11.08
7 3 4 292.01 11.17
7 3 4 292.24 10.79
7 3 5 12.1 2.35
7 3 5 8.7 1.88
-7 -3 -6 50.76 4.33
7 3 6 38.64 3.81
7 3 6 42.99 4.2
-7 -3 -7 68.37 4.99
-7 -3 -7 77.09 5.64
7 3 7 67.36 4.93
7 3 7 85.84 6.08
-7 -3 -8 113.22 6.45
-7 -3 -8 127.4 7.34
7 3 8 123.84 7.7
-7 -3 -9 36.98 4.08
7 3 9 35.25 3.89
-7 -3 -10 49.54 5.38
-7 -3 -10 47.29 4.64
7 3 10 46.41 4.53
7 4 -4 15.9 3.1
-7 -4 4 18.84 3.39
-7 -4 3 105.75 7.62
7 4 -3 107.71 7.7
-7 -4 2 70.74 5.98
7 4 -2 68.73 5.95
-7 -4 1 114.71 7.44
7 4 -1 120.6 7.8
-7 -4 0 152.04 8.37
7 4 0 151.23 8.55
-7 -4 -1 242.74 10.51
7 4 1 257.42 11.07
7 4 2 5.5 1.82
-7 -4 -2 6.2 1.81
7 4 3 3.07 1.21
7 4 3 3.47 1.33
-7 -4 -3 1.91 1.33
7 4 4 1.8 1.34
7 4 4 -0.14 0.82
-7 -4 -4 -0.52 0.8
-7 -4 -5 73.05 5.21
7 4 5 74.09 5.4
7 4 5 75.79 5.33
-7 -4 -6 120.6 6.58
7 4 6 121.77 6.72
-7 -4 -6 127.4 7.35
7 4 6 121.66 7
-7 -4 -7 1.2 0.94
7 4 7 -2.66 1.14
7 4 7 -0.78 1.16
-7 -4 -7 -2.56 1.39
7 4 7 1 1.17
-7 -4 -8 49.78 4.71
7 4 8 43.28 4.34
7 4 8 43.67 4.55
-7 -4 -9 -0.54 1.39
7 4 9 0.48 1.09
-7 -4 -9 0.01 1.11
-7 -4 -10 131.19 8.84
7 4 10 121.64 7.62
-7 -5 4 18.8 3.57
7 5 -4 15.99 3.13
-7 -5 3 1.66 1.2
7 5 -3 -0.28 1.44
-7 -5 2 28.3 3.85
7 5 -2 31.27 4.12
-7 -5 1 16.56 2.96
7 5 -1 13.93 2.68
-7 -5 0 3.99 1.69
7 5 0 0.38 1.19
-7 -5 -1 2.45 1.6
7 5 1 2.5 1.4
-7 -5 -2 116.94 6.98
7 5 2 116.98 7.29
7 5 2 105.58 5.94
7 5 3 5.26 1.54
-7 -5 -3 5.24 1.62
7 5 3 4.85 1.74
-7 -5 -4 204.7 8.97
-7 -5 -4 213.29 7.65
7 5 4 227.12 9.85
7 5 4 229.64 9.16
7 5 5 17.17 2.7
-7 -5 -5 21.87 2.8
-7 -5 -5 18.94 2.94
7 5 5 17.41 2.61
-7 -5 -6 98.32 5.79
7 5 6 91.39 5.92
7 5 6 98.6 6.61
-7 -5 -6 94.4 6.54
7 5 6 89.71 6
7 5 7 23.87 3.32
-7 -5 -7 18.46 2.98
7 5 7 23.93 3.22
7 5 8 5.88 1.74
-7 -5 -8 8.19 2.24
-7 -5 -9 20.5 3.57
7 5 9 26.32 3.61
-7 -5 -9 24.46 3.58
-7 -6 3 12.1 2.75
7 6 -3 7.68 2.34
-7 -6 2 26.6 3.88
7 6 -2 17.91 3.31
-7 -6 1 3.17 1.71
7 6 -1 2.43 1.33
-7 -6 0 -0.16 1.37
7 6 0 1.01 1.32
7 6 1 1.81 1.12
-7 -6 -1 3.75 1.46
7 6 1 0.06 1.04
-7 -6 -2 29.2 3.46
7 6 2 27.9 3.73
7 6 2 30.08 3.02
7 6 3 11.32 1.98
-7 -6 -3 14.45 2.38
-7 -6 -3 13.57 2.2
7 6 3 10.58 2.26
-7 -6 -4 130.01 7.03
7 6 4 123.52 7.31
-7 -6 -4 122.78 7.52
7 6 4 123.59 6.5
-7 -6 -5 161.83 7.65
7 6 5 161.16 8.28
7 6 5 157.1 8.56
-7 -6 -5 176.85 9.15
7 6 5 177.03 8.05
7 6 6 7.59 1.83
7 6 6 9.86 2.34
-7 -6 -6 6.14 1.94
7 6 6 8.35 1.9
-7 -6 -7 53.35 5.17
7 6 7 46.05 4.74
7 6 8 10.49 2.46
-7 -6 -8 7.75 2.15
-7 -7 2 284.19 12.94
7 7 -2 255.55 12.69
-7 -7 1 9.15 2.25
7 7 -1 6.79 2.17
-7 -7 0 165 9.12
7 7 0 158.15 9.41
-7 -7 -1 52.92 4.92
7 7 1 53.71 5.38
-7 -7 -1 51.26 4.62
-7 -7 -2 41.17 3.99
-7 -7 -2 30.87 3.66
7 7 2 38.55 4.38
-7 -7 -3 6.12 1.62
-7 -7 -3 2.24 1.09
7 7 3 5.59 1.9
-7 -7 -3 3.53 1.56
-7 -7 -4 11.23 2.11
7 7 4 15.06 2.69
7 7 4 13.54 2.67
-7 -7 -4 15.75 2.88
7 7 5 53.4 4.8
7 7 5 46.63 4.84
-7 -7 -5 63.27 5.61
-7 -7 -6 213.48 10.72
7 7 6 218.3 10.71
-7 -7 -7 91.28 7.04
7 7 7 72.38 6.2
-7 -8 1 15.24 3.09
7 8 -1 20.07 3.59
-7 -8 0 36.45 4.35
-7 -8 0 40.04 4.42
7 8 0 40.82 4.95
-7 -8 0 36.1 4.29
-7 -8 -1 58.83 5.39
7 8 1 65.35 6.04
-7 -8 -1 66.24 5.46
-7 -8 -1 72.16 5.91
-7 -8 -2 4.33 1.54
-7 -8 -2 5.28 1.62
7 8 2 3.95 1.65
-7 -8 -2 3.84 1.39
-7 -8 -3 81.78 5.86
7 8 3 80.05 6.44
-7 -8 -3 75.59 5.42
7 8 3 82.44 6.42
-7 -8 -3 89.31 6.74
7 8 4 8.57 2.2
7 8 4 10.61 2.57
-7 -8 -4 12.82 2.75
7 8 5 14.52 2.69
7 8 5 10.4 2.45
-7 -8 -5 12.56 2.79
7 8 6 0.47 0.97
-7 -8 -6 3.16 1.78
8 -3 1 21.11 3.9
-8 3 -1 15.16 3.26
8 -3 2 51 5.92
-8 3 -2 38.83 5.03
-8 3 -3 37.65 4.92
8 -3 3 38.66 5.09
-8 3 -4 101.37 7.94
8 -3 4 89.12 7
8 -3 5 17.98 3.42
-8 3 -5 17.18 3.44
-8 3 -6 85.81 7.45
8 -3 6 96.31 7.42
-8 2 1 7.48 2.33
8 -2 -1 11.59 2.74
-8 2 0 7.96 2.34
8 -2 0 5.77 2.2
8 -2 1 1.29 1.44
-8 2 -1 -0.45 1.23
8 -2 2 4.83 1.96
-8 2 -2 5.96 2.2
-8 2 -3 26.32 4.05
8 -2 3 40.33 5.03
8 -2 4 15.82 2.96
8 -2 4 9.89 2.55
-8 2 -4 14.71 3.07
8 -2 5 2.69 1.35
8 -2 5 8.73 2.34
-8 2 -5 8.57 2.37
8 -2 6 13.65 2.76
-8 2 -6 14.75 3.08
-8 2 -7 18.3 3.46
8 -2 7 19.73 3.45
8 -1 -2 28.41 4.28
-8 1 2 23.47 4.01
-8 1 1 69.33 6.47
8 -1 -1 73.37 6.82
8 -1 0 3.75 1.49
-8 1 0 1.92 1.73
-8 1 -1 92.92 7.32
8 -1 1 92.29 7.34
-8 1 -2 1.86 1.44
8 -1 2 2.92 1.82
-8 1 -3 28.92 4.11
8 -1 3 33.42 4.44
8 -1 4 76.82 6.54
-8 1 -4 67.66 6.14
8 -1 4 74.13 6.11
8 -1 5 5.67 1.91
-8 1 -5 4.67 1.8
8 -1 5 5.68 2.04
8 -1 6 25.39 3.74
8 -1 6 25.83 3.82
-8 1 -6 28.12 4.04
-8 1 -7 16.73 3.19
8 -1 7 17.32 3.18
-8 1 -8 31.59 4.34
8 -1 8 24.13 3.76
8 0 -2 11.17 2.74
-8 0 2 13.46 2.93
8 0 -1 20.27 3.55
-8 0 1 16.56 3.22
-8 0 0 59.63 5.81
8 0 0 60.21 5.96
8 0 1 36.27 4.61
-8 0 -1 34.54 4.45
8 0 2 9.06 2.42
-8 0 -2 11.3 2.62
-8 0 -3 93.15 7.05
8 0 3 108.28 7.65
-8 0 -4 46.46 5.01
8 0 4 47.84 5
8 0 4 44.72 4.64
-8 0 -5 133.27 8.43
8 0 5 146.68 8.54
8 0 5 142.76 8.65
8 0 6 37.18 4.35
8 0 6 32.35 4.07
-8 0 -6 39.21 4.59
8 0 7 61.01 5.56
-8 0 -7 49.47 5.17
8 0 7 57.9 5.62
-8 0 -8 58.43 5.66
8 0 8 56.38 5.67
-8 0 -9 105.52 7.68
8 0 9 109.13 8.04
-8 -1 2 -1.27 1.76
8 1 -2 0.2 0.97
-8 -1 1 84.8 6.99
8 1 -1 80.84 6.86
-8 -1 0 75.47 6.5
8 1 0 78.6 6.66
-8 -1 -1 84.24 6.74
8 1 1 73.65 6.37
-8 -1 -2 18.69 3.19
8 1 2 15.39 3.11
8 1 3 30.58 4.07
-8 -1 -3 38.66 4.53
8 1 4 0.82 1.06
8 1 4 1.25 1.04
-8 -1 -4 1.94 1.2
-8 -1 -5 318.51 13.02
8 1 5 334.68 13.21
8 1 5 323.84 12.85
8 1 6 11.12 2.39
-8 -1 -6 12.05 2.59
8 1 6 13.73 2.69
8 1 7 50.45 4.88
-8 -1 -7 57.54 5.4
8 1 7 48.64 5.06
8 1 8 36.47 4.12
-8 -1 -8 39.5 4.54
8 1 8 39.19 4.68
-8 -1 -9 82.38 6.52
-8 -1 -9 75.55 5.8
8 1 9 88.93 7.17
8 2 -2 41.68 5.06
-8 -2 2 40.32 4.91
-8 -2 1 77.01 6.67
8 2 -1 92.56 7.37
-8 -2 0 117 8.01
8 2 0 113.06 7.98
-8 -2 -1 65.65 5.85
8 2 1 49.32 5.16
-8 -2 -2 15.61 2.92
8 2 2 10.42 2.38
-8 -2 -3 2.26 1.49
8 2 3 0.49 1.28
8 2 4 2.17 1.39
-8 -2 -4 0.96 1.13
8 2 4 0.68 1.07
8 2 5 2.16 1.53
8 2 5 -0.41 1.14
-8 -2 -5 1.4 1.37
8 2 6 24.74 3.52
8 2 6 31.99 3.95
-8 -2 -6 28.37 3.64
-8 -2 -7 83.67 6.28
8 2 7 103.1 6.85
8 2 7 94.09 6.92
-8 -2 -8 37.52 4.17
-8 -2 -8 37.75 4.22
8 2 8 31.54 4.25
-8 -2 -9 69.7 5.7
8 2 9 64.47 6.14
8 3 -2 25.6 4.05
-8 -3 2 24.57 3.96
-8 -3 1 99.85 7.55
8 3 -1 102.12 7.79
-8 -3 0 115.27 7.92
8 3 0 110 7.91
-8 -3 -1 62.85 5.68
8 3 1 57.84 5.63
-8 -3 -2 103.69 7.23
8 3 2 94 7.01
-8 -3 -3 106.75 7.25
8 3 3 120.69 7.77
8 3 3 124.55 7.38
-8 -3 -4 85.13 6.36
8 3 4 79.29 6.19
8 3 4 89.97 6.3
-8 -3 -5 43.85 4.5
8 3 5 41.55 4.44
8 3 5 50.34 4.73
-8 -3 -6 36.67 4.06
8 3 6 40.16 4.44
-8 -3 -7 28.33 3.58
8 3 7 35.31 4.02
8 3 7 35.28 4.31
-8 -3 -8 39.74 4.23
-8 -3 -8 46.54 4.7
8 3 8 34.99 4.34
-8 -3 -9 3.25 1.61
8 3 9 0.51 1.25
-8 -4 2 50.16 5.46
8 4 -2 53.81 5.81
8 4 -1 14.92 3.18
-8 -4 1 18.04 3.37
8 4 0 16.88 3.29
-8 -4 0 14.77 2.98
-8 -4 -1 51.89 5.14
8 4 1 49.3 5.21
8 4 2 8.43 2.25
-8 -4 -2 6.04 2.07
8 4 3 31.18 3.65
8 4 3 34.05 4.18
-8 -4 -3 34.1 4.07
8 4 4 1.69 1.17
8 4 4 2.87 1.63
-8 -4 -4 3.97 1.61
-8 -4 -5 92.44 6.43
8 4 5 97.4 6.79
8 4 5 101.94 6.69
-8 -4 -6 75.6 5.73
8 4 6 75.21 5.83
8 4 6 72.44 5.81
-8 -4 -7 28.44 3.49
-8 -4 -7 41.76 4.52
8 4 7 33.03 4.05
-8 -4 -8 67.88 5.91
8 4 8 72.14 6.13
8 5 -2 15.87 3.27
-8 -5 2 18.28 3.53
-8 -5 1 65.38 6.18
8 5 -1 65.65 6.36
8 5 0 1.06 1.38
-8 -5 0 -1.21 1.72
-8 -5 -1 134.54 8.36
8 5 1 124.01 8.32
8 5 2 4.38 1.57
8 5 2 4.48 1.82
-8 -5 -2 4.13 1.63
8 5 3 9.32 2.04
8 5 3 9.45 2.34
-8 -5 -3 4.78 1.61
8 5 4 23 3.12
8 5 4 24.06 3.51
-8 -5 -4 27.92 3.57
8 5 5 11.9 2.39
-8 -5 -5 11.61 2.28
8 5 5 13.59 2.55
8 5 6 22.21 3.22
-8 -5 -6 14.74 2.55
-8 -5 -6 26.82 3.76
8 5 6 26.31 3.52
-8 -5 -7 98.71 7.24
8 5 7 95.33 6.82
-8 -5 -8 49.67 5.21
8 5 8 38.61 4.47
-8 -6 1 79.18 6.9
8 6 -1 87.85 7.48
8 6 0 57.01 5.86
-8 -6 0 36.52 4.59
-8 -6 -1 31.79 4.12
8 6 1 43.11 5
-8 -6 -2 119.97 7.77
8 6 2 121.08 8.23
8 6 2 121.71 6.85
8 6 3 25.05 3.19
8 6 3 24.4 3.69
-8 -6 -3 24.92 3.51
-8 -6 -4 74.6 5.82
8 6 4 76.81 6.29
8 6 4 81.2 5.73
-8 -6 -5 42.11 4.24
8 6 5 53.98 5.22
-8 -6 -5 50.12 5.06
8 6 5 46.13 4.42
-8 -6 -6 6.05 2.06
8 6 6 2.67 1.31
-8 -6 -7 71.16 6.25
8 6 7 64.52 5.9
8 6 7 52.8 5.02
-8 -7 -1 48.4 5.16
8 7 1 26.63 4.14
-8 -7 -2 143.83 8.68
8 7 2 157.36 9.59
-8 -7 -2 153.94 8.12
-8 -7 -3 11.79 2.45
8 7 3 10.26 2.59
-8 -7 -3 6.57 2.12
-8 -7 -4 60.41 5.21
8 7 4 53.18 5.35
-8 -7 -4 52.04 5.31
8 7 5 1.15 1.3
-8 -7 -5 -1.4 1.39
-9 0 -2 58.27 6.13
9 0 2 46.32 5.54
9 0 3 3.07 1.88
-9 0 -3 4.49 1.93
9 0 4 2.08 1.42
-9 0 -4 7.18 2.38
9 0 4 4.92 2.17
9 0 5 14.26 3.05
9 0 5 13.45 3
-9 0 -5 8.71 2.48
-9 -1 -1 39.25 5.04
9 1 1 42.91 5.36
9 1 2 0.12 1.31
-9 -1 -2 3.86 2.11
9 1 3 43.64 5.26
-9 -1 -3 48.53 5.45
-9 -1 -4 122.88 8.66
9 1 4 141.22 9.27
9 1 4 112.84 7.87
9 1 5 37.39 4.53
9 1 5 28.15 4.12
-9 -1 -5 36.21 4.72
-9 -1 -6 142.65 9.23
9 1 6 135.69 8.85
9 1 6 120.6 8.46
-9 -2 -1 53.07 5.78
9 2 1 55.12 5.99
-9 -2 -2 123.01 8.63
9 2 2 123.06 8.79
-9 -2 -3 26.92 4.04
9 2 3 27.45 4.14
-9 -2 -4 62.68 6.06
9 2 4 58.63 5.93
9 2 4 60.19 5.71
9 2 5 0.79 1.14
9 2 5 -0.47 1.42
-9 -2 -5 0.61 1.03
-9 -2 -6 55.74 5.61
9 2 6 59.71 5.79
9 2 6 62.65 5.96
9 3 1 35.38 4.88
-9 -3 -1 29.04 4.31
-9 -3 -2 26.15 3.94
9 3 2 30.67 4.32
9 3 3 1.53 1.24
-9 -3 -3 0.59 1.33
9 3 3 1.43 1.47
9 3 4 3 1.47
-9 -3 -4 6.89 2.27
9 3 4 5.4 1.92
9 3 5 6.85 2.09
-9 -3 -5 6.3 1.94
9 3 5 2.78 1.59
9 3 6 19.34 3.31
9 3 6 15.48 2.98
-9 -3 -6 13.56 2.81
9 4 2 -3.16 1.76
-9 -4 -2 -0.09 1.03
9 4 3 -0.28 1.38
9 4 3 0.71 1.52
-9 -4 -3 -0.76 1.46
9 4 4 0.18 1.22
9 4 4 1.31 1.3
-9 -4 -4 0.22 0.99
9 4 5 1.11 1.09
-9 -4 -5 1.2 1.12
loop_
_exptl_oxdiff_crystal_face_indexfrac_h
_exptl_oxdiff_crystal_face_indexfrac_k
_exptl_oxdiff_crystal_face_indexfrac_l
_exptl_oxdiff_crystal_face_x
_exptl_oxdiff_crystal_face_y
_exptl_oxdiff_crystal_face_z
10.0000 0.0000 -1.0000 -0.0934 -0.8901 0.5291
-5.0000 8.0000 -9.0000 0.5865 -0.0837 -0.8027
-2.0000 0.0000 12.0000 0.1331 0.8511 0.4327
-8.0000 -0.0000 5.0000 0.1154 0.9517 -0.2316
2.0000 -11.0000 5.0000 -0.8371 0.1005 0.4870
-8.0000 -6.0000 -10.0000 -0.5039 0.0863 -0.8376
8.0000 4.0000 11.0000 0.3556 -0.0325 0.9094
-2.0000 -13.0000 0.0000 -1.0101 0.1453 0.0552
2.0000 13.0000 1.0000 1.0198 -0.0883 -0.0095
-3.0000 1.0000 -14.0000 -0.0316 -0.5470 -0.8244
-1.0000 0.0000 13.0000 0.1344 0.8248 0.5358
-10.0000 -0.0000 -4.0000 0.0449 0.6049 -0.7572
