#------------------------------------------------------------------------------
#$Date: 2018-10-27 06:02:03 +0300 (Sat, 27 Oct 2018) $
#$Revision: 211686 $
#$URL: file:///home/coder/svn-repositories/cod/cif/1/55/01/1550129.cif $
#------------------------------------------------------------------------------
#
# This file is available in the Crystallography Open Database (COD),
# http://www.crystallography.net/. The original data for this entry
# were provided by IUCr Journals, http://journals.iucr.org/.
#
# The file may be used within the scientific community so long as
# proper attribution is given to the journal article from which the
# data were obtained.
#
data_1550129
loop_
_publ_author_name
'Goswami, Shailesh K.'
'Hanton, Lyall R.'
'McAdam, C. John'
'Moratti, Stephen C.'
'Simpson, Jim'
_publ_section_title
;
 (<i>Z</i>)-1,2-Bis(3-bromophenyl)diazene 1-oxide
;
_journal_coeditor_code           BH4042
_journal_issue                   10
_journal_name_full               IUCrData
_journal_page_first              x181486
_journal_paper_doi               10.1107/S2414314618014864
_journal_volume                  3
_journal_year                    2018
_chemical_formula_iupac          'C12 H8 Br2 N2 O'
_chemical_formula_moiety         'C12 H8 Br2 N2 O'
_chemical_formula_sum            'C12 H8 Br2 N2 O'
_chemical_formula_weight         356.02
_chemical_name_systematic
;
(<i>Z</i>)-1,2-Bis(3-bromophenyl)diazene 1-oxide
;
_space_group_crystal_system      monoclinic
_space_group_IT_number           14
_space_group_name_Hall           '-P 2yn'
_space_group_name_H-M_alt        'P 1 21/n 1'
_symmetry_space_group_name_Hall  '-P 2yn'
_symmetry_space_group_name_H-M   'P 1 21/n 1'
_atom_sites_solution_hydrogens   geom
_audit_creation_method           SHELXL-2018/1
_cell_angle_alpha                90
_cell_angle_beta                 92.044(5)
_cell_angle_gamma                90
_cell_formula_units_Z            2
_cell_length_a                   3.8938(2)
_cell_length_b                   5.8223(3)
_cell_length_c                   25.8645(16)
_cell_measurement_reflns_used    2305
_cell_measurement_temperature    90(2)
_cell_measurement_theta_max      74.4320
_cell_measurement_theta_min      7.6120
_cell_volume                     586.00(6)
_computing_cell_refinement
;
CrysAlis PRO (Agilent, 2014)
;
_computing_data_collection
;
CrysAlis PRO (Agilent, 2014)
;
_computing_data_reduction
;
CrysAlis PRO (Agilent, 2014)
;
_computing_molecular_graphics
;
Mercury (Macrae <i>et al.</i>, 2008)
;
_computing_publication_material
;
SHELXL2018 (Sheldrick, 2015b), enCIFer (Allen <i>et al.</i>,
2004),
PLATON (Spek, 2009), publCIF (Westrip 2010) and WinGX
(Farrugia, 2012)
;
_computing_structure_refinement
;
SHELXL2018 (Sheldrick, 2015b) and TITAN (Hunter & Simpson, 1999)
;
_computing_structure_solution
;
SHELXT2014 (Sheldrick, 2015a)
;
_diffrn_ambient_temperature      90(2)
_diffrn_detector_area_resol_mean 5.1725
_diffrn_measured_fraction_theta_full 0.992
_diffrn_measured_fraction_theta_max 0.972
_diffrn_measurement_device_type  'Agilent SuperNova, Dual, Cu at zero, Atlas'
_diffrn_measurement_method       '\w scans'
_diffrn_radiation_source         'SuperNova (Cu) X-ray Source'
_diffrn_radiation_type           CuK\a
_diffrn_radiation_wavelength     1.54184
_diffrn_reflns_av_R_equivalents  0.0356
_diffrn_reflns_av_unetI/netI     0.0236
_diffrn_reflns_limit_h_max       4
_diffrn_reflns_limit_h_min       -4
_diffrn_reflns_limit_k_max       5
_diffrn_reflns_limit_k_min       -7
_diffrn_reflns_limit_l_max       30
_diffrn_reflns_limit_l_min       -31
_diffrn_reflns_number            3440
_diffrn_reflns_theta_full        67.684
_diffrn_reflns_theta_max         74.917
_diffrn_reflns_theta_min         6.852
_diffrn_standards_number         0
_exptl_absorpt_coefficient_mu    8.646
_exptl_absorpt_correction_T_max  1.00000
_exptl_absorpt_correction_T_min  0.33412
_exptl_absorpt_correction_type   multi-scan
_exptl_absorpt_process_details
;
(CrysAlis PRO; Agilent, 2014)
;
_exptl_crystal_colour            yellow
_exptl_crystal_density_diffrn    2.018
_exptl_crystal_density_method    'not measured'
_exptl_crystal_description       plate
_exptl_crystal_F_000             344
_exptl_crystal_size_max          0.380
_exptl_crystal_size_mid          0.190
_exptl_crystal_size_min          0.080
_refine_diff_density_max         0.849
_refine_diff_density_min         -0.992
_refine_ls_extinction_method     none
_refine_ls_goodness_of_fit_ref   1.000
_refine_ls_hydrogen_treatment    constr
_refine_ls_matrix_type           full
_refine_ls_number_parameters     82
_refine_ls_number_reflns         1171
_refine_ls_number_restraints     0
_refine_ls_restrained_S_all      1.000
_refine_ls_R_factor_all          0.0516
_refine_ls_R_factor_gt           0.0494
_refine_ls_shift/su_max          0.000
_refine_ls_shift/su_mean         0.000
_refine_ls_structure_factor_coef Fsqd
_refine_ls_weighting_details
'w=1/[\s^2^(Fo^2^)+(0.0939P)^2^+2.3574P] where P=(Fo^2^+2Fc^2^)/3'
_refine_ls_weighting_scheme      calc
_refine_ls_wR_factor_gt          0.1352
_refine_ls_wR_factor_ref         0.1367
_reflns_number_gt                1128
_reflns_number_total             1171
_reflns_threshold_expression     'I > 2\s(I)'
_cod_data_source_file            bh4042sup1.cif
_cod_data_source_block           I
_cod_database_code               1550129
_shelx_estimated_absorpt_t_min   0.138
_shelx_estimated_absorpt_t_max   0.545
_shelx_hkl_file
;
   0   0  -3    1.90    0.64
   0   0  -3    1.47    1.01
   0   0  -4  390.76    8.84
   0   0  -4  436.31    7.33
   0   0  -5    1.60    1.37
   0   0  -5   40.22    2.63
   0   0  -6 1096.91   13.86
   0   0  -6 1156.18   17.53
   0   0  -7    2.83    2.36
   0   0  -7    9.49    1.87
   0   0  -8 3621.07   32.88
   0   0  -8 3308.25   27.75
   0   0  -9  203.38    8.22
   0   0 -10 9999.00   57.67
   0   0 -11    4.07    2.21
   0   0 -12 5013.35   43.31
   0   0 -13    1.01    1.66
   0   0 -14 6279.19   49.79
   0   0 -15    7.81    2.33
   0   0 -18  119.97    9.10
   0   0  19    2.08    1.63
   0   0 -19    8.58    2.85
   0   0  20 3429.15   46.82
   0   0 -20 3336.07   49.12
   0   0 -20 3435.98   48.76
   0   0 -21    3.80    2.34
   0   0  21    1.92    1.88
   0   0 -22 3986.16   56.12
   0   0 -22 4077.52   51.09
   0   0  22 4069.45   52.02
   0   0 -23    9.73    3.30
   0   0  23    4.22    2.28
   0   0  24 1308.52   28.65
   0   0 -24 1278.73   28.12
   0   0 -25    3.64    2.48
   0   0 -26  639.78   18.68
   0   0 -27   -0.18    1.83
   0   0  27    1.54    1.32
   0   0 -28    3.07    2.16
   0   0 -29    3.22    1.82
   0   0 -29    1.89    1.55
   0   0 -30  370.94   11.68
   0   0 -30  514.95   12.81
   0   0 -31    1.00    1.14
   0  -1   0    3.76    0.72
   0   1   2  135.61    1.70
   0  -1  -2  131.68    3.70
   0  -1  -3 2029.93   12.07
   0  -1  -3 2116.55   15.25
   0  -1  -4 4055.61   22.55
   0   1  -4 4047.74   26.90
   0  -1  -6 4893.12   31.24
   0  -1  -6 4859.46   30.28
   0  -1  -7 3613.23   28.30
   0  -1  -7 3498.17   28.38
   0   1  -8 3660.36   32.82
   0  -1  -8 3756.81   32.05
   0  -1  -8 4013.42   31.63
   0   1  -8 4113.95   35.38
   0   1  -9 2680.71   30.51
   0   1  -9 3088.67   31.95
   0  -1  -9 2827.02   30.30
   0  -1  -9 2971.14   28.75
   0  -1 -10 2001.41   24.47
   0   1 -10 1987.69   26.52
   0  -1 -11  129.95    7.24
   0  -1 -11  138.91    6.73
   0  -1 -12 1845.47   25.01
   0  -1 -12 1901.97   27.69
   0   1 -12 1926.48   27.46
   0   1 -13  149.93    7.92
   0   1 -13  118.40    7.81
   0  -1 -13  136.37    7.87
   0  -1 -13  138.00    7.00
   0   1 -14 1252.93   22.97
   0  -1 -14 1258.14   24.44
   0  -1 -15 2047.53   31.39
   0   1 -15 2007.02   33.84
   0   1 -15 2099.61   30.38
   0  -1 -16 2184.53   32.92
   0  -1 -17 2900.34   42.80
   0   1 -17 2944.76   43.95
   0  -1  18 1700.88   33.25
   0   1 -18 1804.26   35.18
   0  -1 -18 1743.25   33.89
   0  -1 -18 1755.96   33.85
   0  -1 -19 2900.90   44.45
   0   1 -19 3087.36   46.65
   0  -1  19 3033.73   45.29
   0  -1  19 2891.80   42.12
   0  -1 -19 3115.50   45.77
   0  -1 -20  122.89    9.44
   0  -1  20   99.74    8.19
   0  -1  20  110.62    8.92
   0   1 -20  122.71    9.63
   0  -1 -20  118.13    9.50
   0  -1  21   16.31    3.66
   0  -1 -21    6.20    2.51
   0  -1 -21    7.33    3.36
   0   1 -21    9.92    3.18
   0  -1  21   13.78    3.37
   0  -1 -22   28.41    5.46
   0  -1  22   27.20    4.55
   0  -1  22   41.29    5.56
   0   1 -22   38.34    5.11
   0  -1  23   60.39    6.54
   0  -1 -23   71.67    7.45
   0   1 -23   61.67    6.22
   0  -1 -24  195.87   11.81
   0  -1  24  202.73   11.54
   0   1 -24  181.37   10.04
   0  -1  25  265.72   13.11
   0  -1 -25  233.51   12.90
   0   1 -25  246.24   11.28
   0  -1 -26  607.08   18.94
   0  -1  26  545.56   17.71
   0   1 -27  682.19   17.00
   0  -1  27  736.53   19.76
   0  -1 -28  841.03   19.98
   0   1 -28  657.34   15.51
   0  -1  29  941.10   19.43
   0  -1 -29  955.47   19.63
   0  -1  30  365.33   11.09
   0  -1 -30  360.88   11.32
   0  -1 -31  198.55    7.22
   0   1 -31  140.01    6.66
   0  -2   0  457.79    9.45
   0  -2   2   57.75    3.60
   0  -2  -2   51.93    3.31
   0  -2   3 2981.21   25.40
   0  -2  -3 2854.73   24.42
   0  -2   4  167.35    6.26
   0   2  -4  179.95    4.54
   0  -2  -4  173.35    3.39
   0  -2  -5  135.21    3.92
   0  -2   5  125.92    5.63
   0  -2  -6  156.65    6.49
   0  -2   6  164.33    6.62
   0   2  -7  341.05    9.67
   0  -2   7  282.84    9.60
   0   2  -7  318.67    9.93
   0  -2  -7  297.38    9.30
   0   2  -8  384.89   11.50
   0  -2  -8  370.66   10.82
   0  -2  -9 5870.14   46.27
   0   2  -9 5918.58   47.61
   0   2 -10  564.93   15.32
   0  -2 -10  615.70   16.18
   0   2 -10  600.87   16.10
   0  -2 -11 6321.11   54.63
   0   2 -11 6259.33   53.73
   0   2 -11 6339.00   55.34
   0  -2 -12  167.27    9.67
   0   2 -12  165.93    9.62
   0   2 -12  163.32    9.10
   0   2 -13 3433.70   45.52
   0   2 -13 3404.20   43.01
   0  -2 -13 3451.23   45.16
   0  -2 -14   62.82    5.98
   0   2 -14   65.99    6.27
   0   2 -14   54.80    6.15
   0  -2 -14   60.85    6.42
   0  -2 -15  622.35   18.68
   0   2 -15  592.36   18.97
   0   2 -15  566.39   19.53
   0  -2 -15  594.18   19.87
   0  -2  16   32.75    5.06
   0  -2 -16   26.94    4.28
   0   2 -16   38.37    5.27
   0  -2 -16   27.35    4.50
   0  -2 -16   21.75    4.51
   0  -2  16   34.66    4.63
   0   2 -16   27.77    4.77
   0  -2 -17   11.17    3.08
   0   2 -17   13.23    3.46
   0  -2 -17    9.84    3.18
   0  -2  17   20.03    4.11
   0  -2 -17   20.97    4.24
   0   2 -17   15.45    3.51
   0  -2  17   15.00    3.16
   0  -2 -18   21.87    4.33
   0  -2 -18   24.80    4.96
   0   2 -18   28.08    5.00
   0  -2  18   26.43    4.44
   0  -2  18   31.71    4.98
   0  -2 -18   23.53    4.24
   0   2 -18   28.87    4.95
   0  -2  19  977.10   25.45
   0  -2  19 1039.08   27.97
   0   2 -19  987.66   27.59
   0  -2 -19  996.77   26.47
   0  -2 -20  233.95   13.65
   0   2 -20  192.01   12.26
   0  -2  20  208.32   11.88
   0  -2  20  216.76   12.95
   0  -2 -21 1301.86   32.50
   0  -2  21 1261.54   30.93
   0  -2  22   20.91    4.27
   0  -2 -22   17.66    4.75
   0  -2  22   23.94    4.60
   0  -2  23 2885.52   44.27
   0   2 -23 2716.85   36.47
   0  -2 -23 2758.26   46.63
   0  -2  23 3153.08   47.32
   0  -2 -23 3290.60   48.88
   0  -2 -24   53.35    6.91
   0  -2  24   48.33    6.07
   0  -2 -24   36.24    5.38
   0  -2  25  817.62   22.53
   0  -2 -25  882.73   23.67
   0  -2 -26   10.97    3.37
   0  -2  26    7.53    2.78
   0  -2 -26    4.04    1.91
   0  -2 -27  141.09    8.94
   0  -2  27  108.12    7.64
   0  -2 -28  132.43    7.97
   0  -2  28  119.96    7.32
   0  -2  29  178.86    8.21
   0  -2 -29  178.61    8.09
   0  -2  30    1.75    1.05
   0  -2 -30    2.27    1.50
   0  -2 -31  563.94   10.58
   0  -3   0    1.36    1.12
   0  -3  -1   12.61    2.21
   0  -3   1   15.15    2.46
   0  -3   2  114.82    6.42
   0  -3  -2   97.36    5.86
   0  -3  -3  265.84    9.62
   0  -3   3  269.26    9.88
   0  -3   4 4148.23   39.04
   0  -3  -4 3922.91   37.23
   0  -3  -5 2070.00   27.70
   0  -3   5 2191.20   28.69
   0  -3  -6 2797.67   33.32
   0  -3   6 2874.74   33.71
   0  -3  -7 1006.39   20.67
   0  -3   7 1033.94   20.49
   0  -3  -8 2505.43   33.67
   0  -3   8 2400.29   32.19
   0  -3  -9  205.10   10.37
   0   3  -9  203.61   10.25
   0  -3 -10   18.56    3.46
   0  -3  10   12.11    2.43
   0   3 -10   18.01    3.45
   0   3 -11   45.43    5.48
   0  -3 -11   45.46    5.72
   0   3 -12   24.59    4.41
   0  -3  12   27.13    4.24
   0  -3 -12   29.04    5.28
   0  -3 -12   29.19    4.77
   0  -3 -13  522.95   19.43
   0  -3 -13  577.06   21.71
   0   3 -13  586.29   20.82
   0  -3  13  523.13   18.96
   0  -3  13  567.04   19.30
   0  -3 -13  568.46   22.82
   0  -3  14  822.48   24.64
   0  -3 -14  890.62   27.15
   0  -3 -14  838.69   25.30
   0  -3 -14  885.37   29.03
   0  -3  14  926.75   24.97
   0   3 -14  942.08   27.49
   0   3 -15 1230.60   32.31
   0  -3 -15 1205.30   30.33
   0  -3 -15 1180.43   31.76
   0  -3  15 1144.10   29.92
   0  -3 -16  707.60   23.60
   0  -3  16  707.35   22.56
   0   3 -16  710.18   24.74
   0  -3 -16  678.98   24.60
   0  -3  16  686.25   23.55
   0  -3 -17  437.62   19.05
   0  -3 -17  384.41   18.70
   0  -3  17  424.20   18.84
   0  -3  17  430.00   17.90
   0   3 -17  438.09   19.75
   0  -3  18 1883.07   37.33
   0   3 -18 1786.56   40.17
   0  -3  18 1821.16   38.55
   0  -3 -19  191.38   12.89
   0  -3  19  179.35   11.70
   0  -3  19  189.04   12.64
   0  -3 -19  208.87   14.73
   0  -3 -20  488.80   20.37
   0  -3 -20  501.72   21.95
   0  -3  20  438.46   18.92
   0  -3  20  432.92   17.97
   0  -3 -21   23.15    5.11
   0  -3 -21   35.01    5.89
   0  -3  21   31.25    5.53
   0  -3  21   21.55    4.56
   0  -3 -22  282.85   14.88
   0  -3 -22  263.79   14.49
   0  -3  22  266.27   14.26
   0  -3 -23   53.45    6.41
   0  -3 -23   68.21    7.26
   0  -3  23   62.66    6.91
   0  -3 -24  114.68    8.68
   0  -3  24  115.73    8.66
   0  -3 -25  288.31   12.52
   0  -3  25  265.39   12.27
   0  -3 -26  513.08   15.34
   0  -3  26  482.35   15.17
   0  -3 -27  424.83   12.74
   0  -3  27  432.25   13.18
   0  -3 -28  929.87   16.81
   0  -3  28  966.95   17.85
   0  -3  28  982.86   17.68
   0  -3  29  121.63    5.69
   0  -3 -29  116.07    5.26
   0  -4   0 2948.87   40.59
   0  -4  -1   21.61    3.87
   0  -4   1   22.66    3.90
   0  -4   2 1145.24   27.30
   0  -4   2 1136.25   25.32
   0  -4  -2 1115.94   24.73
   0  -4   3   70.91    6.67
   0  -4  -3   69.49    6.42
   0  -4   3   63.24    6.33
   0  -4  -3   80.74    6.89
   0  -4   4  517.00   17.65
   0  -4  -4  533.00   17.85
   0  -4   4  475.56   16.78
   0  -4  -4  457.70   16.51
   0  -4  -5  124.19    9.11
   0  -4   5  109.21    8.03
   0  -4  -5  111.55    8.34
   0  -4   5  106.91    8.19
   0  -4   6    2.11    1.88
   0  -4  -6    3.87    2.59
   0  -4   6    1.25    1.33
   0  -4  -6    1.15    1.17
   0  -4   7   69.44    6.71
   0   4  -7   83.26    7.27
   0  -4   7   78.89    6.81
   0  -4   7   68.99    6.94
   0  -4  -7   85.28    8.12
   0  -4  -7   93.29    8.04
   0  -4   8  984.31   26.28
   0  -4  -8 1130.89   28.69
   0  -4   8  990.43   23.97
   0  -4  -8 1136.74   24.64
   0   4  -8 1195.28   28.39
   0  -4  -8 1166.99   30.04
   0  -4  -9   99.54    7.73
   0  -4  -9   99.91    9.33
   0  -4  -9  107.73    9.30
   0  -4   9   79.65    6.86
   0   4  -9  104.91    8.61
   0   4 -10 1195.27   29.50
   0  -4 -10 1150.98   30.89
   0  -4 -10 1179.13   32.09
   0  -4 -10 1186.19   26.96
   0  -4  10 1128.23   28.00
   0  -4 -11  362.20   15.35
   0  -4  11  335.69   15.74
   0  -4 -11  345.77   17.74
   0  -4 -11  347.29   17.30
   0   4 -11  372.14   17.20
   0  -4 -12 1716.38   39.50
   0  -4 -12 1714.63   39.73
   0   4 -12 1698.61   37.69
   0  -4 -12 1666.87   33.52
   0  -4 -13  210.64   14.45
   0  -4  13  216.83   13.19
   0   4 -13  224.75   14.23
   0  -4  13  217.26   13.45
   0  -4 -13  198.07   12.16
   0  -4 -13  218.25   14.58
   0  -4  14 1587.60   36.53
   0  -4 -14 1580.00   39.47
   0  -4  14 1663.02   37.23
   0  -4 -14 1639.00   35.20
   0  -4 -15    5.76    3.90
   0  -4 -15    7.50    3.66
   0  -4  15    8.34    3.35
   0  -4  15    6.79    3.35
   0  -4 -16   54.74    7.81
   0  -4  16   43.61    6.27
   0  -4  16   48.22    6.80
   0  -4 -16   40.90    6.18
   0  -4  17   15.74    4.49
   0  -4  17   14.35    4.05
   0  -4 -17   12.47    4.53
   0  -4 -17    9.01    4.01
   0  -4 -18  135.70   11.42
   0  -4 -18  129.61   10.01
   0  -4  18  119.57    9.93
   0  -4 -19   18.05    4.61
   0  -4 -19    8.12    3.64
   0  -4  19   20.02    4.41
   0  -4 -20  717.18   21.76
   0  -4 -20  745.91   23.50
   0  -4  21    7.53    3.15
   0  -4 -21    5.05    2.83
   0  -4 -21    4.65    2.67
   0  -4  22  840.10   22.58
   0  -4 -22  845.40   21.45
   0  -4 -22  862.68   22.38
   0  -4 -23   94.00    6.91
   0  -4  23   99.51    7.49
   0  -4 -23   95.72    7.09
   0  -4 -24  653.10   16.22
   0  -4  24  636.01   17.04
   0  -4  25  139.07    7.31
   0  -4 -25  117.00    6.32
   0  -4  25  123.12    6.67
   0  -4 -26   39.01    3.28
   0  -4  26   42.38    3.69
   0  -4  26   37.03    3.30
   0  -5   0    4.77    3.16
   0  -5   0    8.52    3.38
   0  -5   0    5.77    2.66
   0  -5  -1   97.26    8.07
   0  -5  -1  110.41   10.88
   0  -5   1   95.97    7.87
   0  -5   1  107.60   10.26
   0  -5   1   97.99    9.66
   0  -5   2  116.52    8.64
   0  -5   2  128.49   11.09
   0  -5  -2  117.11    8.95
   0  -5   2  115.50   10.43
   0  -5  -2  121.77   11.63
   0  -5  -3  354.81   19.98
   0  -5   3  353.82   14.75
   0  -5   3  350.30   17.69
   0  -5  -3  360.85   15.79
   0  -5  -4  917.34   32.10
   0  -5   4  846.61   22.85
   0  -5   4  834.71   26.66
   0  -5  -4  823.77   24.22
   0  -5   5 1819.81   38.69
   0  -5  -5 1940.17   37.93
   0  -5  -5 2001.21   47.45
   0   5  -5 1891.27   38.29
   0  -5  -6   18.40    5.31
   0  -5   6   13.01    3.86
   0  -5  -6   11.45    3.96
   0  -5  -7  338.97   19.14
   0  -5   7  298.41   14.99
   0  -5  -7  327.17   16.26
   0  -5   8   66.97    7.45
   0  -5   8   59.56    6.73
   0  -5  -8   57.29    7.49
   0  -5  -8   70.12    8.90
   0  -5   9   57.36    7.07
   0  -5  -9   70.28    8.52
   0  -5  -9   66.20    7.99
   0  -5   9   60.46    6.70
   0  -5 -10   19.37    4.72
   0  -5 -10   20.76    4.80
   0  -5  10   24.63    4.37
   0  -5  10   21.40    4.63
   0  -5 -11   34.86    6.14
   0  -5  11   31.27    5.53
   0  -5 -11   42.21    6.27
   0  -5 -12  110.20    9.35
   0  -5 -12   98.96    9.84
   0  -5  12   95.97    9.18
   0  -5  13    3.06    2.57
   0  -5 -13    1.84    1.98
   0  -5 -13    2.56    2.14
   0  -5 -13    7.66    3.97
   0  -5  14   96.16    9.00
   0  -5 -14  111.29    8.38
   0  -5 -14  100.03    7.87
   0  -5 -14  103.17    9.71
   0  -5 -15  517.82   20.55
   0  -5  15  481.82   19.19
   0  -5 -15  505.32   16.99
   0  -5 -16   81.34    8.30
   0  -5 -16   69.37    6.31
   0  -5  16   71.92    7.53
   0  -5  17  456.49   17.29
   0  -5 -17  446.65   15.10
   0  -5 -18  222.27   10.26
   0  -5  18  235.94   12.06
   0  -5  19  614.89   18.20
   0  -5 -19  575.38   15.30
   0  -5  20    0.16    1.81
   0  -5 -20    1.25    1.55
   0  -5 -20    2.05    1.99
   0  -5 -21   73.87    4.62
   0  -5 -21   93.79    6.19
   0  -5  21   85.02    6.03
   0  -5  22    9.35    2.10
   0  -5 -22    9.84    2.07
   0  -5  23    1.33    1.10
   0  -5 -23    0.62    0.93
   0  -6   0  147.01   12.83
   0  -6   0  148.93    9.59
   0  -6   1  316.43   18.20
   0  -6  -1  308.55   13.85
   0  -6   1  314.13   13.62
   0  -6  -1  323.87   19.31
   0  -6  -2   44.39    7.68
   0  -6  -2   43.73    5.47
   0  -6   2   35.21    6.24
   0  -6  -3  211.41   15.75
   0  -6   3  178.21   12.23
   0  -6  -3  180.40   10.86
   0  -6   3  194.44   13.64
   0  -6  -4   36.60    5.16
   0  -6   4   30.27    5.28
   0  -6  -4   42.39    7.54
   0  -6   4   36.38    5.97
   0  -6  -5   11.47    3.08
   0  -6   5   14.69    3.97
   0  -6   5   12.61    3.69
   0  -6  -5   12.92    4.74
   0  -6   6  193.33   12.54
   0  -6   6  194.20   12.55
   0  -6  -6  224.69   15.65
   0  -6  -6  182.17   11.18
   0  -6   7   18.53    4.28
   0  -6   7   11.94    3.69
   0  -6  -7   21.11    4.20
   0  -6   8  105.92    8.86
   0  -6  -8  124.85   11.01
   0  -6   8  101.70    9.11
   0  -6  -8  101.85    8.61
   0  -6  -9  387.34   16.18
   0  -6   9  364.54   16.44
   0  -6   9  403.17   16.35
   0  -6 -10   13.14    3.58
   0  -6 -10   16.04    3.74
   0  -6  10   16.17    4.28
   0  -6 -11  320.39   14.43
   0  -6 -11  368.86   15.29
   0  -6  11  329.91   14.92
   0  -6 -12   44.88    5.11
   0  -6  12   45.52    5.73
   0  -6 -12   41.94    5.35
   0  -6 -13  207.92   11.04
   0  -6 -13  236.10   10.37
   0  -6  13  217.40   11.20
   0  -6  14   98.61    7.27
   0  -6 -14   93.65    7.21
   0  -6  15   72.00    5.80
   0  -6 -15   81.02    6.34
   0  -6  16   40.05    4.18
   0  -6 -16   41.46    4.34
   0  -6 -17   29.06    3.38
   0  -6  17   28.73    3.23
   0  -6  18    7.67    1.65
   0  -6 -18    4.17    1.54
   0  -7   0    2.21    2.29
   0  -7   1   28.47    4.86
   0  -7  -1   35.93    5.49
   0  -7  -2   23.30    4.63
   0  -7   2   23.49    4.26
   0  -7   3  102.45    8.19
   0  -7  -3  109.62    9.08
   0  -7   4   73.37    6.59
   0  -7  -4   74.75    7.40
   0  -7  -5    6.40    2.52
   0  -7   5    2.92    1.44
   0  -7  -6  176.64   10.15
   0  -7  -7   37.14    4.52
   1   0 -31   25.88    3.02
   1   0 -30    3.02    1.71
   1   0 -29  262.01   11.78
  -1   0  28    3.29    1.85
   1   0 -28    0.92    2.15
  -1   0  27 1376.53   28.13
   1   0 -27 1323.94   30.88
  -1   0  26    4.34    2.48
   1   0 -26    0.49    1.80
   1   0 -25 1515.15   27.65
  -1   0  25 1710.23   34.15
  -1   0  24    5.73    3.11
   1   0 -24    4.25    2.33
   1   0 -23 1791.75   32.60
  -1   0  23 1952.34   37.68
  -1   0  22    2.31    2.41
  -1   0  22    3.55    2.38
   1   0 -22    4.32    2.46
  -1   0  21  829.11   25.05
   1   0 -21  749.03   21.80
  -1   0  21  822.70   25.07
   1   0 -21  754.68   21.57
  -1   0  20    0.06    2.28
   1   0 -20    0.08    2.93
   1   0 -20    5.88    2.30
  -1   0  20    2.47    2.39
   1   0 -19  194.50   11.24
   1   0 -19  212.31   11.43
  -1   0  19  206.14   12.49
   1   0 -18    1.18    1.72
  -1   0  18    1.34    2.37
   1   0 -18    2.52    1.96
  -1   0  17 1573.29   32.90
   1   0 -17 1565.40   30.56
   1   0 -16    3.35    2.45
   1   0 -15 4539.18   51.71
   1   0 -14    1.28    2.03
   1   0 -13 1357.76   25.72
   1   0 -12    3.45    2.24
   1   0 -11 8402.64   53.26
   1   0 -10    2.71    1.58
   1   0  -9  368.60    9.31
   1   0  -9  362.60    4.63
   1   0  -8    2.29    0.50
   1   0  -8    2.99    1.20
   1   0  -7  410.96    8.66
   1   0  -7  370.73    4.33
   1   0  -6    1.37    0.37
   1   0  -6    0.94    0.87
   1   0  -5 6401.59   21.10
   1   0  -4    3.86    1.37
  -1   0   2   26.97    2.26
  -1   0   0    5.16    1.14
  -1   0  -1  889.23   11.24
  -1   0  -1  632.82    5.62
  -1   0  -2    3.97    0.66
  -1   0  -2    8.64    1.32
  -1   0  -3  983.82   10.52
  -1   0  -3  920.93   13.22
  -1   0  -4    5.88    1.19
  -1   0  -4    0.93    0.95
  -1   0  -5 2472.31   24.18
  -1   0  -5 2453.19   21.58
  -1   0  -6   12.63    1.93
  -1   0  -6    2.29    1.43
  -1   0  -7 5582.27   42.28
  -1   0  -7 5640.23   38.77
  -1   0  -8    3.56    2.10
  -1   0  -9 6998.30   55.00
  -1   0 -10    3.00    2.19
  -1   0 -11 4069.61   47.09
  -1   0 -12    0.64    1.97
  -1   0 -13  544.40   19.49
  -1   0 -14    0.01    1.72
  -1   0 -15  129.86   10.23
  -1   0 -16    2.03    2.23
  -1   0 -17 1762.65   29.67
   1   0  17 1639.39   28.31
   1   0  18    5.54    1.95
  -1   0 -18    2.15    2.09
   1   0  19 6877.10   59.67
  -1   0 -19 6916.10   62.45
  -1   0 -20   12.32    4.54
   1   0  20    5.60    2.51
  -1   0 -20    7.25    3.45
   1   0  21 1244.59   26.18
  -1   0 -21 1291.51   27.74
   1   0  22    1.90    1.52
  -1   0 -22    2.58    2.06
  -1   0 -23  691.44   22.63
   1   0  23  605.45   18.35
  -1   0 -24    6.51    3.22
   1   0  24    1.45    1.57
  -1   0 -25   77.06    7.30
  -1   0 -26    1.97    2.39
  -1   0 -27  194.10    9.99
  -1   0 -28    1.87    1.99
  -1   0 -29 1398.08   23.05
  -1   0 -30    2.42    1.57
  -1   0 -31  692.79   12.86
   1   1 -31  253.35    9.11
   1  -1 -30  486.24   10.06
   1  -1 -30  423.95   11.57
   1   1 -29  402.75   14.52
  -1  -1  29  443.51   13.87
   1  -1 -29  323.88   11.85
   1  -1 -29  336.30    9.99
   1  -1 -28  261.89    9.92
   1  -1 -28  273.23   12.00
   1  -1 -27  288.93   11.50
   1  -1 -27  322.01   14.25
  -1  -1  27  334.67   13.90
  -1  -1  26   31.04    4.68
   1  -1 -26   35.12    5.59
  -1  -1  26   24.56    4.36
   1  -1 -26   32.85    4.38
   1  -1 -25   -0.63    2.10
   1  -1 -25    4.34    2.66
  -1  -1  25    8.43    2.99
  -1  -1  25    7.26    2.75
  -1  -1  24    4.62    2.77
  -1  -1  24    1.58    2.12
   1  -1 -24    3.69    2.48
   1  -1 -24    0.78    2.48
  -1  -1  23   91.81    8.57
  -1  -1  23   95.57    8.72
   1  -1 -23  117.89   11.29
   1  -1 -23  104.26    8.88
  -1  -1  22 1001.81   27.27
   1  -1 -22  997.84   27.08
  -1  -1  21  861.22   25.08
   1  -1 -21  915.65   25.92
  -1  -1  20 2705.60   44.36
   1   1 -20 2761.56   41.38
  -1   1  20 2809.86   46.07
   1  -1 -20 2824.02   45.32
  -1   1  19 1925.13   37.86
   1  -1 -19 1906.64   37.25
   1  -1 -19 1861.65   31.61
  -1  -1  19 1889.78   36.77
   1   1 -19 1901.29   34.00
  -1  -1  18 1016.02   26.81
   1  -1 -18  994.73   26.87
   1   1 -18 1109.54   26.07
   1  -1 -18 1025.99   23.63
  -1   1  18 1028.99   27.05
   1   1 -17 1000.87   24.28
  -1  -1  17 1009.05   26.26
   1  -1 -17  953.13   22.57
  -1  -1  16  587.59   19.84
   1   1 -16  596.76   19.00
   1  -1 -16  579.57   17.73
   1   1 -15  708.82   20.51
   1  -1 -15  700.93   19.37
   1   1 -14    2.43    2.15
   1  -1 -14    5.15    2.31
   1   1 -13  205.59   10.74
   1  -1 -13  209.81   10.13
   1   1 -12  275.85   11.72
   1  -1 -12  266.54   10.61
   1  -1 -11 1696.92   24.14
   1   1 -11 1622.50   26.19
   1  -1 -10 4053.44   28.47
   1   1 -10 4086.10   42.25
   1  -1 -10 4025.92   33.15
   1   1  -9 2620.75   32.48
   1  -1  -9 2551.28   24.36
   1   1  -9 2580.07   26.66
   1  -1  -8 3251.48   23.16
   1  -1  -8 3246.86   25.61
   1   1  -8 3247.57   34.01
   1   1  -8 3339.70   28.02
   1   1  -7 1516.51   17.90
   1  -1  -7 1506.94   16.26
   1   1  -7 1532.87   22.47
   1  -1  -7 1481.34   15.42
   1  -1  -6 2265.03   18.89
   1   1  -6 2227.88   20.28
   1  -1  -6 2293.12   19.21
   1  -1  -5 1942.14   17.05
   1   1  -5 1946.29   17.61
   1  -1  -5 1998.77   18.17
   1   1  -5 1950.83   22.20
   1  -1  -4 1392.16   15.64
   1  -1  -4 1299.70   13.56
   1   1  -4 1274.42   13.66
   1   1  -4 1354.87   17.11
   1   1  -3    3.73    1.14
   1  -1  -3    2.17    0.94
   1   1  -3    1.80    0.75
  -1  -1   2 1094.23   13.62
   1   1  -2 1042.08   11.81
  -1   1   1 1438.63   15.04
   1   1  -1 1468.06   11.80
  -1  -1  -1 7250.72   47.95
  -1  -1  -2 4705.87   25.71
  -1   1  -2 4845.23   27.77
  -1  -1  -3 5202.70   45.41
  -1   1  -4 2984.29   25.66
  -1  -1  -4 3037.80   35.91
  -1  -1  -5 3962.66   29.72
  -1   1  -5 4052.41   31.93
  -1  -1  -5 3963.64   42.71
  -1  -1  -6 1246.70   24.24
  -1  -1  -6 1199.69   17.63
  -1   1  -6 1232.84   18.83
  -1  -1  -7 1619.20   28.28
  -1   1  -7 1571.71   23.05
  -1  -1  -7 1598.59   21.96
  -1   1  -8 1289.23   22.42
  -1   1  -8 1208.41   19.31
  -1  -1  -8 1239.56   25.52
  -1  -1  -8 1249.64   20.95
  -1  -1  -9  512.26   14.38
  -1   1  -9  534.19   13.94
  -1   1  -9  531.69   15.42
  -1  -1  -9  561.05   17.32
  -1   1 -10  752.45   19.71
  -1   1 -10  798.03   18.10
  -1  -1 -10  733.05   18.64
  -1  -1 -11 1706.74   30.34
  -1   1 -11 1769.91   32.60
  -1  -1 -12 1056.25   25.25
  -1   1 -12 1129.05   26.84
  -1   1 -13  877.52   24.73
  -1  -1 -13  816.08   23.40
  -1  -1 -14 2804.00   45.35
  -1   1 -14 3143.92   48.23
  -1  -1 -15 1556.72   34.84
  -1   1 -15 1648.35   36.02
  -1   1 -16 1854.62   40.14
  -1  -1 -16 1743.48   30.60
  -1  -1 -16 1822.37   38.77
   1  -1  16 1690.51   30.12
  -1   1 -17  695.12   18.58
   1  -1  17  643.54   18.69
  -1  -1 -17  657.27   18.96
  -1  -1 -17  711.10   24.87
  -1   1 -17  757.01   26.22
  -1  -1 -18  937.89   29.21
  -1   1 -18  925.86   29.57
  -1  -1 -18  803.62   21.24
  -1   1 -18  847.72   20.95
   1  -1  18  800.94   21.33
  -1  -1 -19   24.31    5.12
  -1   1 -19   32.30    5.85
  -1  -1 -19   26.01    4.87
  -1   1 -19   28.85    4.23
   1  -1  19   22.24    3.91
  -1  -1 -19   29.43    4.45
  -1  -1 -20  293.47   16.88
  -1  -1 -20  297.96   15.08
  -1   1 -20  230.61   11.38
  -1   1 -20  283.16   16.94
  -1  -1 -20  252.49   12.39
   1  -1  20  231.45   11.75
  -1  -1 -21   10.29    2.96
   1  -1  21    9.11    2.72
  -1  -1 -21   11.98    3.79
  -1  -1 -22  210.70   12.41
  -1  -1 -22  191.64   10.98
   1  -1  22  171.37   10.24
  -1  -1 -23 1197.36   26.95
   1  -1  23 1233.65   27.80
   1  -1  24  939.78   24.00
  -1  -1 -24 1011.56   25.31
  -1  -1 -25  864.99   22.77
  -1   1 -25  943.26   24.39
  -1  -1 -26 1053.54   24.17
  -1   1 -26 1097.93   24.76
  -1  -1 -27  850.26   20.60
  -1   1 -27  861.24   20.25
  -1   1 -28  751.16   17.43
  -1  -1 -28  789.19   18.70
  -1   1 -29  119.70    6.47
  -1  -1 -29  123.70    6.91
  -1  -1 -30   34.82    3.39
  -1   1 -30   27.36    2.96
  -1  -1 -31   14.43    1.98
   1   2 -30    7.07    1.90
   1  -2 -30    7.68    1.54
  -1  -2  30    8.03    1.76
   1  -2 -29   40.57    3.51
  -1  -2  29   51.97    4.64
   1  -2 -28  544.61   13.79
  -1  -2  28  640.55   17.37
   1  -2 -27   16.90    3.16
  -1  -2  27   18.34    3.42
   1  -2 -27   12.04    2.72
  -1  -2  27   19.81    3.55
  -1  -2  26 1353.82   27.59
  -1  -2  26 1319.98   26.84
   1  -2 -26 1305.60   25.74
   1  -2 -25    3.46    2.90
  -1  -2  25    2.91    2.19
   1  -2 -25   -0.42    1.94
  -1  -2  25    5.36    2.76
  -1  -2  24 1485.27   31.97
   1  -2 -24 1401.62   31.89
  -1  -2  24 1363.74   29.60
   1  -2 -24 1473.74   31.29
   1  -2 -23   22.20    4.98
  -1  -2  23   20.22    4.37
   1  -2 -23   27.79    5.12
  -1  -2  23   19.24    4.34
  -1  -2  22  297.01   14.58
   1  -2 -22  301.49   17.07
   1  -2 -22  338.51   16.69
  -1  -2  21   48.73    6.12
   1  -2 -21   55.55    7.43
   1  -2 -21   51.60    7.78
  -1  -2  20  467.46   18.44
   1  -2 -20  513.78   21.49
   1  -2 -19  206.69   14.59
   1   2 -19  164.53    9.87
  -1  -2  19  168.93   11.38
   1  -2 -19  171.34   12.83
   1  -2 -18  566.77   24.44
   1  -2 -18  571.65   22.16
  -1  -2  18  544.41   19.99
   1   2 -18  525.43   17.49
   1  -2 -17  405.74   18.75
   1  -2 -17  429.26   22.00
   1   2 -17  456.57   16.21
  -1  -2  17  449.25   18.19
   1  -2 -16 1468.17   39.65
   1  -2 -16 1459.93   25.37
   1   2 -16 1449.07   28.36
  -1  -2  16 1443.11   32.08
   1  -2 -15   25.67    5.65
   1  -2 -15   23.78    4.91
   1   2 -15   56.60    5.79
   1  -2 -15   55.28    5.10
  -1  -2  15   64.70    6.92
   1  -2 -14 4355.94   47.20
   1  -2 -14 4167.07   42.99
   1  -2 -14 3590.80   50.39
   1   2 -14 4090.58   47.79
   1   2 -14 3633.56   47.12
   1   2 -13   43.69    5.16
   1  -2 -13   38.32    4.28
   1   2 -13   43.55    5.18
   1   2 -12 3877.53   46.22
   1  -2 -12 3806.11   40.79
   1  -2 -11   66.56    5.34
   1   2 -11   67.18    6.25
   1   2 -11   64.31    5.96
   1  -2 -10 1391.48   22.00
   1  -2 -10 1460.90   21.16
   1   2 -10 1440.15   25.91
   1  -2  -9   31.24    3.13
   1  -2  -9   27.86    2.98
   1   2  -9   31.73    4.01
   1   2  -9   30.79    3.86
   1   2  -8  242.10    9.60
   1  -2  -8  230.77    8.19
   1  -2  -8  248.93    7.46
   1   2  -8  244.43    9.87
   1  -2  -7    3.24    1.33
   1   2  -7    3.49    1.70
   1  -2  -6  993.61   12.68
   1   2  -6 1007.04   17.55
   1   2  -6 1034.12   16.20
   1  -2  -5    7.47    1.80
   1   2  -5   11.21    2.06
  -1  -2   5    6.57    1.61
   1  -2  -5    6.79    1.24
   1   2  -5    5.04    1.57
   1   2  -4 8963.98   45.67
  -1  -2   4 8534.06   52.22
   1   2  -3  182.14    5.45
   1  -2  -3  172.18    7.01
   1  -2  -3  173.76    4.74
   1   2  -2 3357.97   21.26
   1  -2  -2 3344.72   21.13
   1  -2  -1  694.39   14.32
   1   2  -1  636.97    8.96
  -1  -2   0 2529.41   34.99
   1   2   0 2589.99   17.53
  -1   2  -1   32.62    2.43
   1   2   1   32.77    2.13
  -1  -2  -1   36.82    4.86
  -1  -2  -2 1168.87   12.41
  -1   2  -2 1169.64   14.75
  -1  -2  -3   47.69    2.70
  -1  -2  -3   40.34    5.23
  -1  -2  -4  131.34    4.66
  -1   2  -4  134.17    5.26
  -1  -2  -5   44.07    5.47
  -1  -2  -5   43.33    2.79
  -1   2  -5   50.15    3.72
  -1  -2  -6 4213.58   31.08
  -1   2  -6 4233.57   35.63
  -1  -2  -7   37.95    5.41
  -1   2  -7   33.15    3.59
  -1  -2  -7   33.89    3.24
  -1   2  -8 7379.13   55.09
  -1   2  -8 7278.12   53.51
  -1  -2  -9 1355.57   30.19
  -1  -2  -9 1336.53   22.41
  -1   2  -9 1315.35   24.48
  -1  -2 -10 5019.11   47.00
  -1   2 -10 4806.89   48.32
  -1  -2 -10 5121.92   59.93
  -1   2 -10 4836.89   49.81
  -1  -2 -11  395.03   14.05
  -1   2 -11  368.36   14.84
  -1   2 -11  403.82   14.83
  -1   2 -12  796.52   22.95
  -1   2 -12  901.89   23.28
  -1  -2 -12  903.12   26.34
  -1  -2 -12  828.65   21.71
  -1   2 -13  137.22   10.03
  -1  -2 -13  134.19   10.19
  -1   2 -13  145.26    9.90
  -1  -2 -13  123.32    8.94
  -1  -2 -14   27.17    4.77
  -1  -2 -14   12.68    3.28
  -1  -2 -14   25.21    4.74
   1  -2  14   29.12    4.33
  -1   2 -14   35.80    5.14
  -1   2 -14   12.60    3.71
   1  -2  15   14.01    3.10
  -1   2 -15    8.10    3.13
  -1  -2 -15    4.99    2.55
  -1  -2 -15    5.07    2.45
  -1  -2 -15    4.80    2.73
  -1   2 -15   10.06    3.32
   1  -2  15    5.61    2.21
  -1  -2 -15   10.79    3.81
  -1   2 -16  490.23   20.87
  -1  -2 -16  474.54   19.77
  -1  -2 -16  492.34   19.63
  -1   2 -16  512.97   19.61
   1  -2  16  509.48   17.56
   1  -2  16  544.05   20.02
  -1   2 -17   -0.25    2.63
   1  -2  17    1.35    1.89
  -1  -2 -17   -1.44    2.38
  -1  -2 -17    4.02    2.89
  -1  -2 -17   -0.01    2.77
  -1   2 -17    7.48    2.88
   1  -2  17    3.52    2.05
  -1   2 -18 2113.66   45.09
  -1  -2 -18 2128.39   35.84
   1  -2  18 2138.01   39.25
   1  -2  18 2058.89   35.47
  -1   2 -18 2058.76   40.46
  -1  -2 -19  146.76    9.76
   1  -2  19  137.84   10.06
  -1   2 -19  128.57   11.25
   1  -2  19  134.81    9.25
  -1  -2 -19  143.32   10.57
   1  -2  20 2580.36   42.12
  -1  -2 -20 2523.56   39.87
   1  -2  20 2477.81   39.49
   1  -2  21    6.45    2.62
  -1  -2 -21    3.54    3.36
  -1  -2 -21    3.42    3.44
   1  -2  21    1.13    1.91
  -1  -2 -22 1744.21   32.71
   1  -2  22 1772.89   32.90
   1  -2  22 1702.65   32.42
   1  -2  23   46.12    5.45
  -1  -2 -23   36.07    5.67
   1  -2  23   43.68    5.62
  -1  -2 -24  139.66    9.57
   1  -2  24  142.06    9.26
  -1  -2 -25   55.39    6.04
   1  -2  25   55.99    5.94
  -1   2 -26   20.22    3.63
  -1  -2 -26   19.54    3.48
   1  -2  26   19.33    3.47
  -1   2 -27   15.11    2.92
  -1  -2 -27   17.26    3.19
  -1   2 -28  656.02   13.91
  -1  -2 -28  628.42   15.40
  -1   2 -29   17.05    2.19
  -1  -2 -29   15.94    2.42
   1  -3 -28  242.06    7.95
  -1  -3  28  265.55    9.42
  -1  -3  27    1.42    1.32
   1  -3 -27    5.75    1.95
  -1  -3  27    6.41    1.98
   1  -3 -26  137.14    7.72
  -1  -3  26  144.44    8.33
  -1  -3  26  137.07    7.69
   1  -3 -25    9.03    2.83
  -1  -3  25   10.30    2.70
  -1  -3  25   11.55    2.90
  -1  -3  24   18.36    3.87
  -1  -3  24   18.22    3.63
   1  -3 -24   18.89    3.99
  -1  -3  23  763.05   21.14
   1  -3 -23  787.08   22.70
  -1  -3  23  802.08   22.71
  -1  -3  22  191.95   11.06
   1  -3 -22  213.06   12.79
  -1  -3  22  212.63   12.55
   1  -3 -21  300.38   14.57
  -1  -3  21  316.32   14.60
   1  -3 -21  334.58   16.23
   1  -3 -20  228.21   13.47
   1  -3 -20  263.87   14.92
   1  -3 -20  248.73   13.03
  -1  -3  20  221.94   12.74
   1  -3 -19 1002.95   29.25
  -1  -3  19  974.24   26.56
   1  -3 -19 1037.54   27.25
   1  -3 -19 1003.79   29.44
   1  -3 -18  626.73   23.32
   1  -3 -18  667.84   22.56
   1  -3 -18  607.18   22.87
  -1  -3  18  611.41   21.35
   1  -3 -17  326.06   16.98
   1  -3 -17  269.45   15.43
  -1  -3  17  282.44   14.63
   1  -3 -17  318.67   16.12
   1  -3 -16  929.73   28.27
   1  -3 -16  834.43   26.33
  -1  -3  16  972.85   26.88
   1  -3 -16 1071.69   30.38
   1   3 -16  818.44   24.78
   1  -3 -15  517.35   21.43
   1   3 -15  489.33   18.95
   1  -3 -15  680.08   24.12
   1  -3 -15  640.44   22.44
   1  -3 -15  572.97   21.35
  -1  -3  15  578.43   20.79
   1   3 -14    0.62    1.34
   1  -3 -14    0.32    2.46
   1  -3 -14    2.98    2.42
   1  -3 -14    6.03    2.15
   1  -3 -14    3.16    2.88
   1  -3 -13   91.13    9.16
   1   3 -13   77.78    7.21
   1  -3 -13   88.69    8.05
   1  -3 -13   78.11    8.44
   1  -3 -13   99.39    8.13
  -1  -3  13   95.43    8.56
   1  -3 -12  203.37   10.71
   1  -3 -12  215.14   13.23
   1  -3 -12  189.33   11.47
   1   3 -12  157.33    9.95
   1  -3 -12  174.70   11.72
  -1  -3  12  172.23   11.25
   1  -3 -11 1472.41   27.44
   1  -3 -11 1542.09   33.33
   1   3 -11 1388.90   28.92
   1  -3 -11 1449.77   32.67
   1  -3 -11 1403.27   29.37
  -1  -3  11 1289.80   30.27
   1  -3 -10  117.66    7.52
   1  -3 -10  122.76    8.55
   1   3 -10   99.46    7.64
   1  -3  -9 3595.56   39.83
   1   3  -9 3670.61   43.33
   1   3  -8 1576.59   27.08
   1  -3  -8 1580.75   25.54
   1  -3  -7 1774.00   26.95
   1   3  -7 1726.71   27.21
   1   3  -6  913.58   18.81
   1  -3  -6  925.95   19.26
   1   3  -5  290.51   10.38
   1  -3  -5  300.26   10.85
   1  -3  -4  138.34    7.35
   1   3  -4  116.05    6.33
   1  -3  -3    3.22    1.47
  -1  -3   3    0.12    1.38
  -1  -3   2   37.70    5.52
   1  -3  -2   77.44    5.70
  -1  -3   1  132.65    9.72
   1  -3  -1  152.80    8.10
   1  -3   0  243.21   10.29
  -1  -3   0  223.86   12.97
  -1  -3  -1 2535.34   42.79
   1  -3   1 2528.37   33.30
   1  -3   2 1506.38   26.62
  -1  -3  -2 1611.66   34.55
   1  -3   3 3264.24   40.33
  -1  -3  -3 3626.87   54.08
   1  -3   4 2285.48   34.77
  -1  -3  -4 2560.35   45.75
  -1  -3  -5 1388.58   34.26
   1  -3   5 1345.70   27.50
  -1  -3  -6  702.34   24.63
   1  -3   6  679.05   20.14
   1  -3   7  848.35   23.43
  -1  -3  -7  824.60   27.19
  -1   3  -8   12.92    3.02
   1  -3   8    9.01    3.05
  -1  -3  -8    7.08    3.18
  -1  -3  -9    1.56    2.30
  -1   3  -9   11.10    2.99
   1  -3  10  107.91    7.99
  -1  -3 -10  108.98   10.27
  -1   3 -10  134.61    9.54
   1  -3  11  800.24   22.82
   1  -3  11  801.83   23.35
   1  -3  12  593.87   20.66
  -1  -3 -12  656.65   24.65
   1  -3  12  681.64   22.14
   1  -3  12  606.26   20.36
   1  -3  13 1246.99   31.90
  -1  -3 -13 1443.07   29.09
   1  -3  13 1483.07   33.55
  -1  -3 -13 1375.97   36.22
  -1   3 -13 1623.02   36.87
   1  -3  13 1350.75   30.29
  -1  -3 -14  947.73   29.69
  -1  -3 -14 1101.56   25.73
  -1   3 -14 1144.21   32.11
   1  -3  14 1048.25   29.32
   1  -3  14  772.44   25.14
  -1  -3 -14  952.79   25.64
   1  -3  14  958.70   25.18
   1  -3  15 1967.19   40.99
  -1  -3 -15 1635.82   38.44
  -1   3 -15 2049.52   43.73
  -1  -3 -15 2087.70   35.65
  -1  -3 -15 1780.71   35.83
   1  -3  15 1812.90   34.56
  -1   3 -16  284.96   16.42
  -1  -3 -16  232.06   14.73
  -1  -3 -16  298.28   14.01
  -1  -3 -16  282.66   14.57
   1  -3  16  288.25   16.04
   1  -3  16  273.19   13.53
  -1  -3 -17  676.50   20.67
  -1  -3 -17  625.01   21.96
  -1   3 -17  598.74   23.87
   1  -3  17  616.42   20.17
   1  -3  17  638.95   23.92
  -1  -3 -18  120.71    9.29
  -1  -3 -18  111.86    9.56
   1  -3  18  111.01   10.00
   1  -3  18  125.43    9.26
  -1  -3 -19  178.60   11.05
  -1  -3 -19  191.15   12.08
   1  -3  19  189.93   12.61
   1  -3  19  180.11   10.92
   1  -3  20    3.81    2.80
  -1  -3 -20    1.45    2.87
   1  -3  20    4.28    2.18
  -1  -3 -21   30.56    5.00
   1  -3  21   31.35    4.97
   1  -3  21   24.75    4.28
  -1  -3 -22  188.79   10.88
   1  -3  22  183.57   10.88
   1  -3  22  172.39   10.29
  -1  -3 -23  697.40   19.96
   1  -3  23  627.27   18.59
   1  -3  23  669.11   19.77
   1  -3  24  616.40   16.91
  -1  -3 -24  651.04   18.15
   1  -3  24  616.08   18.20
  -1  -3 -25 1059.07   23.77
   1  -3  25  941.46   18.69
  -1  -3 -25 1000.82   20.37
  -1   3 -25  876.78   17.43
   1  -3  25 1049.02   22.57
  -1  -3 -26  275.73    9.73
  -1  -3 -26  270.19   10.73
  -1  -3 -27  455.06   10.89
  -1  -3 -27  445.29   12.01
  -1  -3 -28   22.56    2.58
   1  -4 -26   19.22    2.31
  -1  -4  26   18.14    2.26
  -1  -4  25  596.81   13.93
  -1  -4  25  616.32   13.53
  -1  -4  24    8.89    1.66
  -1  -4  24    7.01    1.95
   1  -4 -24   11.89    2.82
  -1  -4  24    7.26    2.23
  -1  -4  23  672.13   16.84
  -1  -4  23  716.66   18.43
  -1  -4  22   21.78    3.84
   1  -4 -22   26.85    4.38
  -1  -4  22   22.27    3.70
   1  -4 -22   13.63    2.60
   1  -4 -21  108.29    7.35
  -1  -4  21  112.23    7.81
   1  -4 -21  128.01    8.99
  -1  -4  21  114.22    8.35
  -1  -4  20    3.88    2.14
   1  -4 -20    8.14    3.16
  -1  -4  20    5.59    2.32
   1  -4 -20    0.98    1.61
  -1  -4  19    7.20    3.18
   1  -4 -19   12.10    3.77
   1  -4 -19    8.12    2.87
  -1  -4  19    6.11    2.91
  -1  -4  18   79.39    7.92
   1  -4 -18   90.28    8.31
   1  -4 -18   82.85    8.51
  -1  -4  18   81.67    7.70
  -1  -4  17  482.30   19.37
   1  -4 -17  512.26   20.15
  -1  -4  17  502.19   18.70
   1  -4 -17  558.19   20.93
   1  -4 -16  158.11   11.72
  -1  -4  16  127.76   10.52
   1  -4 -16  147.38   11.49
  -1  -4  16  149.63   10.60
   1  -4 -15 1398.48   33.44
   1  -4 -15 1310.04   33.98
  -1  -4  15 1336.27   31.38
   1  -4 -14  341.41   16.63
   1  -4 -14  308.39   16.66
  -1  -4  14  331.22   15.79
   1  -4 -13  877.42   24.44
  -1  -4  13  866.77   26.19
   1  -4 -13  811.58   26.84
  -1  -4  13  837.51   25.54
   1  -4 -12    5.68    2.97
   1  -4 -12   15.31    4.55
  -1  -4  12   11.03    3.33
  -1  -4  12    7.07    3.39
   1  -4 -12    7.64    3.05
   1  -4 -12    8.80    3.66
   1   4 -12    4.83    2.14
  -1  -4  11  416.49   18.63
   1   4 -11  381.92   16.78
   1  -4 -11  453.04   17.89
   1  -4 -11  437.50   16.94
   1  -4 -11  445.32   17.78
   1  -4 -11  422.97   18.94
  -1  -4  11  403.53   18.02
   1  -4 -10   11.31    3.35
   1   4 -10    5.72    2.22
   1  -4 -10    9.22    2.93
  -1  -4  10   13.40    4.07
  -1  -4  10    7.56    2.85
   1  -4 -10   11.18    3.49
   1  -4 -10    9.74    3.47
  -1  -4   9  297.17   15.56
   1  -4  -9  335.56   14.61
   1  -4  -9  341.47   14.77
   1  -4  -9  333.82   14.69
  -1  -4   9  290.81   15.23
   1  -4  -9  335.34   16.15
   1   4  -9  302.41   14.21
  -1  -4   8  102.85    9.09
   1  -4  -8  109.72    8.19
   1  -4  -8  115.41    8.58
   1  -4  -8  104.60    8.30
   1   4  -8   97.34    7.85
   1  -4  -8  104.96    9.02
   1  -4  -7  108.16    7.94
   1  -4  -7  119.79    8.72
  -1  -4   7  110.01    9.21
  -1  -4   7  110.43    9.64
   1  -4  -7  107.72    8.04
   1  -4  -7  103.17    8.77
   1   4  -7  103.40    7.79
   1  -4  -6   93.09    7.27
   1   4  -6   87.69    6.99
   1  -4  -6  101.47    7.82
  -1  -4   6   95.01    7.91
  -1  -4   6   97.96    9.12
   1  -4  -6  100.54    7.73
   1  -4  -6  114.14    8.99
   1  -4  -5  918.41   22.88
  -1  -4   5  892.31   22.44
  -1  -4   5  943.39   28.21
   1  -4  -5  970.81   23.30
   1  -4  -5  941.56   22.69
   1  -4  -5  993.21   25.55
   1   4  -5  865.66   21.61
   1  -4  -4  119.58    8.14
  -1  -4   4  105.88    9.74
   1  -4  -4  107.61    7.81
   1  -4  -4  118.21    8.84
  -1  -4   4   99.48    7.70
   1  -4  -4  114.12    8.09
   1  -4  -3 2187.19   33.97
  -1  -4   3 2229.81   44.56
   1  -4  -3 2145.88   33.22
   1  -4  -3 2172.32   35.06
   1  -4  -3 2264.39   37.25
   1  -4  -2   10.12    2.61
   1  -4  -2   13.13    3.48
  -1  -4   2    9.81    5.20
   1  -4  -2   12.92    2.81
  -1  -4   2   11.72    4.01
   1  -4  -2   10.21    3.21
  -1  -4   1 1480.92   38.81
  -1  -4   1 1742.05   41.08
   1  -4  -1 1655.03   30.98
   1  -4  -1 1620.90   28.99
   1  -4  -1 1571.34   28.16
  -1  -4   1 1459.70   28.03
   1  -4  -1 1576.69   30.79
   1  -4   0   84.57    7.24
  -1  -4   0   78.31   10.40
  -1  -4   0   61.64    8.81
   1  -4   0   74.57    6.24
  -1  -4   0   73.73    8.95
   1  -4   0   73.39    6.24
   1  -4   0   77.36    7.01
  -1  -4  -1  376.63   20.01
   1  -4   1  372.20   15.19
   1  -4   1  378.72   14.02
  -1  -4  -1  345.12   14.38
   1  -4   1  376.20   14.97
  -1  -4  -1  422.22   21.89
   1  -4   2   89.51    7.45
   1  -4   2   78.60    7.17
   1  -4   2   71.26    6.10
  -1  -4  -2   80.29    9.63
  -1  -4  -2   82.38    8.83
  -1  -4  -2   86.40   10.07
   1  -4   3  504.52   18.44
   1  -4   3  463.35   15.55
  -1  -4  -3  439.15   22.40
  -1  -4  -3  542.18   25.18
  -1  -4  -3  476.14   17.85
   1  -4   3  485.59   16.97
  -1  -4  -3  498.27   16.68
   1  -4   4   37.20    4.75
   1  -4   4   34.25    5.04
  -1  -4  -4   48.11    8.06
  -1  -4  -4   29.86    6.42
  -1  -4  -4   38.47    6.15
   1  -4   4   35.22    5.02
  -1  -4  -4   40.17    5.27
   1  -4   5 1774.82   36.35
   1  -4   5 1641.21   29.52
  -1  -4  -5 1807.83   46.22
  -1  -4  -5 1532.54   41.89
  -1  -4  -5 1706.01   35.66
  -1  -4  -5 1828.98   34.19
   1  -4   6  391.66   17.47
  -1  -4  -6  393.67   21.18
   1  -4   6  357.26   14.02
  -1  -4  -6  376.90   20.76
  -1  -4  -6  426.58   17.31
   1  -4   7 1207.53   26.53
   1  -4   7 1282.35   32.48
  -1  -4  -7 1214.50   37.18
  -1  -4  -7 1362.73   38.34
  -1  -4  -7 1431.18   32.39
   1  -4   8  354.57   14.72
  -1  -4  -8  378.01   20.67
  -1  -4  -8  425.07   20.88
  -1   4  -8  424.73   18.24
  -1  -4  -8  447.40   19.12
   1  -4   8  401.03   18.43
  -1   4  -9 1632.87   36.09
   1  -4   9 1353.22   34.23
  -1  -4  -9 1598.69   38.82
  -1  -4  -9 1384.31   39.63
  -1  -4  -9 1643.58   37.49
   1  -4   9 1633.11   35.53
   1  -4   9 1424.89   30.65
   1  -4  10   28.57    5.10
   1  -4  10   21.98    4.72
  -1  -4 -10   32.62    6.16
  -1  -4 -10   35.58    6.02
  -1   4 -10   39.00    6.10
  -1  -4 -10   37.66    6.60
   1  -4  10   30.69    5.05
  -1   4 -11 1355.96   34.64
  -1  -4 -11 1329.18   36.37
   1  -4  11 1361.37   32.17
   1  -4  12   20.10    4.77
  -1  -4 -12   10.77    4.57
  -1   4 -12   11.65    3.92
   1  -4  12   22.07    4.95
   1  -4  12   12.40    3.43
   1  -4  13  266.42   15.44
  -1  -4 -13  259.35   17.11
   1  -4  13  290.39   14.61
   1  -4  14   16.19    4.33
  -1  -4 -14   10.41    5.04
   1  -4  14   22.68    4.54
   1  -4  15  441.38   20.06
  -1  -4 -15  418.05   22.42
   1  -4  15  462.08   18.08
   1  -4  16   20.39    4.90
  -1  -4 -16   19.28    5.83
   1  -4  16   21.10    4.13
  -1  -4 -17  204.67   14.25
   1  -4  17  167.35   10.52
   1  -4  17  179.59   12.81
  -1  -4 -18    4.71    3.77
   1  -4  18    0.47    1.82
  -1  -4 -19 1346.81   34.89
   1  -4  19 1321.89   31.55
   1  -4  19 1235.09   27.32
   1  -4  20  101.95    8.46
  -1  -4 -20  107.18    9.50
   1  -4  20  105.48    7.96
   1  -4  21  667.94   19.90
  -1  -4 -21  684.84   21.68
   1  -4  21  623.16   18.51
   1  -4  22  151.95    8.80
  -1  -4 -22  171.24   10.01
   1  -4  22  160.78    9.02
   1  -4  23  326.74   11.42
  -1  -4 -23  333.21   12.60
   1  -4  24   65.65    4.57
  -1  -4 -24   61.66    5.06
  -1  -4 -25    3.26    1.46
   1  -5 -22  429.33   10.28
  -1  -5  22  423.00   10.06
   1  -5 -21   15.36    2.54
  -1  -5  21   12.31    2.20
  -1  -5  21   14.06    2.26
   1  -5 -21    6.99    1.63
  -1  -5  20  230.78    9.07
   1  -5 -20  251.14    9.91
   1  -5 -20  243.10    9.14
  -1  -5  19  196.30    8.94
   1  -5 -19  213.85    9.83
   1  -5 -19  224.73    9.80
  -1  -5  18  151.70    8.51
   1  -5 -18  163.54    9.27
   1  -5 -18  160.82    9.12
   1  -5 -17  107.17    8.09
   1  -5 -17  105.50    7.79
  -1  -5  17  111.28    7.75
   1  -5 -16  139.21    9.27
   1  -5 -16  153.30    8.63
  -1  -5  16  141.50    9.12
   1  -5 -16  151.85   10.16
   1  -5 -15  140.88   10.06
   1  -5 -15  132.13    9.23
  -1  -5  15  132.25    9.17
   1  -5 -14   20.02    4.39
   1  -5 -14   31.13    4.89
  -1  -5  14   19.91    4.07
  -1  -5  13    9.55    2.99
  -1  -5  13   16.97    3.86
   1  -5 -13   14.81    3.81
   1  -5 -13   13.47    3.78
  -1  -5  12  129.47   10.14
   1  -5 -12  117.57    9.07
   1  -5 -12  107.88    9.63
  -1  -5  12  108.08    9.24
  -1  -5  11   22.80    4.77
  -1  -5  11   14.95    3.82
   1  -5 -11   22.48    4.51
   1  -5 -11   17.34    4.60
   1  -5 -10  376.57   15.89
   1  -5 -10  373.78   17.77
  -1  -5  10  391.86   18.99
  -1  -5  10  376.15   17.57
  -1  -5   9   10.08    4.00
  -1  -5   9   10.65    4.05
   1  -5  -9   15.99    4.88
   1  -5  -9   21.94    5.27
  -1  -5   8  883.27   27.48
   1  -5  -8  898.29   23.90
   1  -5  -8  861.55   26.71
  -1  -5   8  858.72   28.89
  -1  -5   7  755.03   27.72
   1  -5  -7  772.71   22.18
   1  -5  -7  757.98   24.96
  -1  -5   6  733.88   27.81
   1  -5  -6  810.15   22.92
   1  -5  -6  762.96   21.74
   1  -5  -6  760.29   24.72
   1  -5  -5  263.59   13.16
  -1  -5   5  277.93   17.37
   1  -5  -5  265.68   12.72
   1  -5  -5  259.45   14.48
   1  -5  -4    4.49    2.33
  -1  -5   4    5.03    4.06
   1  -5  -4    7.83    3.73
   1  -5  -3   11.40    3.08
  -1  -5   3   11.38    4.55
   1  -5  -3    9.60    3.57
   1  -5  -2   30.40    4.61
  -1  -5   2   25.82    6.11
  -1  -5   2   32.95    4.94
   1  -5  -2   22.77    4.33
   1  -5  -1   35.25    5.58
  -1  -5   1   36.64    7.47
  -1  -5   1   26.99    4.01
   1  -5  -1   34.84    5.25
   1  -5   0  714.55   21.61
  -1  -5   0  716.97   30.74
   1  -5   0  667.72   21.77
  -1  -5   0  679.56   19.74
   1  -5   1  208.77   11.69
  -1  -5  -1  225.76   17.59
   1  -5   1  204.92   12.28
  -1  -5  -2  641.26   19.20
  -1  -5  -2  640.99   29.61
   1  -5   2  620.57   21.02
   1  -5   2  637.47   20.35
   1  -5   3  225.38   12.36
  -1  -5  -3  213.94   17.19
  -1  -5  -3  212.15   11.59
   1  -5   4  773.53   23.03
  -1  -5  -4  730.08   31.69
   1  -5   4  762.96   23.53
  -1  -5  -4  760.79   22.39
  -1  -5  -4  698.77   21.22
  -1  -5  -5   12.33    5.02
   1  -5   5    9.04    2.81
   1  -5   5    7.00    3.02
  -1  -5  -5    6.03    3.03
   1  -5   6   18.72    4.11
   1  -5   6   16.17    3.50
  -1  -5  -6   18.94    4.03
  -1  -5  -6   13.87    5.10
  -1  -5  -6   14.22    4.01
   1  -5   7  313.97   15.60
  -1  -5  -7  341.88   20.35
  -1  -5  -7  287.59   14.57
   1  -5   7  307.05   14.04
  -1  -5  -7  311.12   15.67
   1  -5   8  199.65   12.68
  -1  -5  -8  211.58   15.42
  -1  -5  -8  187.63   12.05
  -1  -5  -8  199.68   13.28
   1  -5   9   26.57    5.01
  -1  -5  -9   28.50    5.70
  -1  -5  -9   30.52    5.08
  -1  -5  -9   27.68    5.40
  -1  -5 -10    4.47    2.60
  -1  -5 -10    5.37    2.62
  -1  -5 -10    0.98    2.22
   1  -5  10    2.49    2.54
  -1  -5 -11   56.27    6.78
  -1  -5 -11   64.01    7.47
   1  -5  11   62.94    7.57
  -1  -5 -11   65.24    7.80
   1  -5  12  340.92   16.89
  -1  -5 -12  339.63   16.96
   1  -5  13   24.20    5.43
  -1  -5 -13   20.79    4.49
  -1  -5 -13   18.92    4.96
  -1  -5 -14 1312.04   32.57
   1  -5  14 1316.01   32.46
   1  -5  15  523.92   19.93
  -1  -5 -15  548.17   20.59
  -1  -5 -16  345.20   15.82
   1  -5  16  332.75   15.42
  -1  -5 -17   21.98    3.66
  -1  -5 -17   38.64    5.47
   1  -5  17   37.94    5.25
  -1  -5 -18  111.14    8.16
   1  -5  18  108.69    7.86
   1  -5  19    8.74    2.42
  -1  -5 -19    8.08    2.50
   1  -5  20    9.04    2.26
  -1  -5 -20    7.82    2.14
   1  -5  21   66.14    4.61
  -1  -5 -21   61.31    4.69
  -1  -5 -22   21.30    2.55
  -1  -6  17   62.07    4.48
  -1  -6  16  166.77    7.87
   1  -6 -16  147.34    6.92
  -1  -6  15  171.44    8.57
   1  -6 -15  178.75    8.33
  -1  -6  14  171.54    9.08
   1  -6 -14  184.53    8.24
   1  -6 -14  179.87    9.05
   1  -6 -13    1.52    2.01
   1  -6 -13    4.94    2.09
  -1  -6  13   -0.16    1.79
  -1  -6  12  250.45   11.79
   1  -6 -12  250.81   11.77
  -1  -6  11   30.55    4.37
  -1  -6  11   26.65    4.21
   1  -6 -11   38.50    5.05
   1  -6 -11   30.74    4.57
  -1  -6  10   36.08    4.80
   1  -6 -10   49.66    5.88
   1  -6 -10   39.07    5.19
  -1  -6  10   34.23    5.10
   1  -6  -9    2.97    2.56
   1  -6  -9    2.16    2.38
  -1  -6   9    5.36    2.49
  -1  -6   9    1.41    1.35
  -1  -6   8   -0.48    1.74
   1  -6  -8    1.45    1.97
  -1  -6   8    0.09    2.11
   1  -6  -8    1.01    1.99
  -1  -6   7   27.09    4.05
  -1  -6   7   30.97    5.66
   1  -6  -7   33.57    5.71
   1  -6  -7   32.10    4.92
  -1  -6   6    3.28    2.73
   1  -6  -6    9.59    3.74
   1  -6  -6    9.89    3.49
  -1  -6   6    2.58    1.88
  -1  -6   5  691.05   27.31
   1  -6  -5  679.94   24.95
   1  -6  -5  629.06   20.73
  -1  -6   4  358.81   20.41
   1  -6  -4  349.97   18.21
   1  -6  -4  321.50   15.11
  -1  -6   3   26.64    6.41
   1  -6  -3   31.86    5.91
   1  -6  -3   38.36    5.46
  -1  -6   2  432.41   23.38
   1  -6  -2  399.73   19.29
   1  -6  -2  366.99   15.75
  -1  -6   1    3.06    4.73
   1  -6  -1    0.82    3.08
  -1  -6   0  416.23   23.41
   1  -6   0  393.11   18.55
  -1  -6  -1    5.14    4.37
   1  -6   1    0.69    2.31
   1  -6   2   94.84    8.57
  -1  -6  -2   92.66   11.73
   1  -6   2   96.09    8.80
   1  -6   3    8.94    3.02
  -1  -6  -3   14.74    5.45
  -1  -6  -4   58.01    9.16
   1  -6   4   57.89    6.58
   1  -6   5   21.95    4.16
  -1  -6  -5   16.20    3.15
   1  -6   6  245.60   11.94
   1  -6   6  254.04   13.58
  -1  -6  -6  228.76   11.03
   1  -6   7    5.20    1.96
  -1  -6  -7    4.85    2.91
  -1  -6  -7    1.44    2.05
   1  -6   7    7.75    3.37
   1  -6   8  315.87   14.88
  -1  -6  -8  294.09   12.66
   1  -6   9   26.67    4.73
  -1  -6  -9   23.77    4.39
  -1  -6  -9   17.22    3.48
  -1  -6 -10  282.51   13.45
   1  -6  10  258.34   12.98
   1  -6  11    7.86    3.00
  -1  -6 -11    7.09    2.38
   1  -6  12   67.54    6.42
  -1  -6 -12   57.72    5.42
  -1  -6 -13  120.75    7.39
   1  -6  13  136.05    8.52
   1  -6  14    1.78    1.92
  -1  -6 -14   -0.60    1.80
   1  -6  15    5.30    2.03
  -1  -6 -15    0.75    1.26
  -1  -6 -16   54.03    4.06
   1  -6  16   60.61    4.52
   1  -7  -6   11.25    2.40
   1  -7  -5   60.28    5.26
  -1  -7   4   20.17    3.79
   1  -7  -4   21.79    3.36
   1  -7  -3    1.89    1.51
  -1  -7   3    2.60    1.91
   1  -7  -2    1.61    1.46
  -1  -7   2    2.94    2.16
   1  -7  -1    7.99    2.24
  -1  -7   1    8.57    2.96
  -1  -7   0   18.13    4.20
   1  -7   0   22.38    3.96
   1  -7   0   15.09    2.83
   1  -7   1  127.91    7.58
   1  -7   1  148.70    8.05
  -1  -7  -1  147.14   10.37
   1  -7   2   11.10    3.64
  -1  -7  -2   -1.17    2.44
  -1  -7  -3   94.35    7.90
   1  -7   3   82.70    5.98
  -1  -7  -4    2.20    1.94
   2   0 -30  270.95    8.21
   2   0 -29    1.02    1.32
   2   0 -28  637.55   16.67
   2   0 -27    2.93    2.31
   2   0 -26  916.87   24.19
   2   0 -25    2.22    2.64
   2   0 -24  912.87   28.52
  -2   0  23    2.80    1.91
   2   0 -23    1.20    3.01
   2   0 -22   11.58    4.37
   2   0 -21    2.92    3.53
  -2   0  20 1046.89   33.48
   2   0 -20  941.51   35.03
   2   0 -19    3.20    4.14
  -2   0  19    1.21    4.03
  -2   0  18 1863.82   46.03
   2   0 -18 1973.83   48.54
  -2   0  17    0.95    3.47
   2   0 -17    3.58    2.91
   2   0 -17    6.31    4.60
   2   0 -16 1751.91   38.69
   2   0 -16 1826.79   46.72
   2   0 -15    4.84    4.30
  -2   0  15    5.52    3.91
   2   0 -15    7.66    3.95
  -2   0  14 2515.89   50.02
   2   0 -14 2438.10   51.31
   2   0 -13    3.74    2.53
   2   0 -13    7.46    3.76
  -2   0  13    1.27    2.96
  -2   0  12 1415.95   35.18
   2   0 -12 1514.09   27.37
   2   0 -11    1.72    1.92
   2   0 -10  705.83   17.16
   2   0  -9    5.13    2.45
   2   0  -8 3339.13   34.46
   2   0  -7    7.23    2.45
   2   0  -6 3451.98   33.36
   2   0  -5   11.00    2.85
   2   0  -4 5061.08   39.05
   2   0  -3   11.21    3.08
  -2   0   2 1547.92   22.07
   2   0  -2 1540.12   21.66
  -2   0   1    1.43    1.48
  -2   0   0  243.01    8.76
  -2   0  -1    4.55    1.63
  -2   0  -2  646.58   14.72
  -2   0  -3    2.41    1.87
  -2   0  -4 3503.27   36.08
  -2   0  -5    5.43    2.48
  -2   0  -6 3226.13   35.91
  -2   0  -7    8.12    3.22
  -2   0  -8 7021.49   59.15
  -2   0  -9   11.74    4.11
  -2   0 -10 1156.28   28.19
  -2   0 -11   -0.01    1.72
  -2   0 -12   43.26    6.46
  -2   0 -12   49.85    5.15
  -2   0 -13   -2.87    2.46
  -2   0 -13    2.65    1.56
  -2   0 -13    2.02    1.87
  -2   0 -14 1705.19   33.25
  -2   0 -14 1745.79   31.57
   2   0  14 1662.44   32.81
   2   0  15    7.84    3.23
  -2   0 -15    1.89    1.80
  -2   0 -15   -1.85    2.06
  -2   0 -15    3.42    3.77
  -2   0 -16 2800.24   44.70
  -2   0 -16 2880.14   43.16
   2   0  16 2752.69   43.42
   2   0  17    6.60    3.09
  -2   0 -17    3.64    3.66
  -2   0 -17    6.19    5.46
  -2   0 -18 3759.06   52.35
   2   0  18 3803.97   48.87
  -2   0 -19    4.73    4.45
   2   0  19    4.31    2.90
  -2   0 -20   93.35    8.10
   2   0  20   87.87    7.06
  -2   0 -21   -0.58    2.22
   2   0  21   -0.96    1.84
  -2   0 -22  773.53   21.37
  -2   0 -23    6.71    3.01
  -2   0 -24  149.04    9.00
  -2   0 -24  147.88    9.67
  -2   0 -25    2.94    1.98
  -2   0 -26  768.22   17.65
  -2   0 -27    4.47    1.88
  -2   0 -28 1535.35   20.52
   2  -1 -29   34.86    3.28
   2   1 -29   33.10    3.27
   2  -1 -28   19.90    3.06
   2   1 -28   21.53    3.26
  -2  -1  27   20.64    2.62
   2  -1 -27   19.81    3.60
   2   1 -27   18.23    3.37
  -2  -1  26   60.89    5.09
   2   1 -26   69.98    6.69
   2  -1 -26   67.70    6.67
   2  -1 -25  267.40   13.87
   2   1 -25  253.21   13.63
   2  -1 -24  504.21   20.40
   2   1 -24  410.57   18.80
  -2  -1  23 1486.12   36.28
   2  -1 -23 1463.62   37.07
  -2  -1  22  633.47   25.08
   2  -1 -22  656.28   25.32
   2  -1 -21 1064.02   33.47
  -2  -1  21 1005.74   32.65
  -2  -1  20  950.57   27.15
   2  -1 -20  984.61   34.17
  -2  -1  20 1039.39   34.06
  -2  -1  19  346.68   16.86
  -2  -1  19  370.73   21.00
   2  -1 -19  366.71   21.87
  -2  -1  18  105.13   11.62
  -2  -1  18  103.73    9.27
   2  -1 -18  107.78   12.01
   2  -1 -17    1.72    2.08
   2   1 -17    6.14    3.36
  -2  -1  17    2.41    2.58
   2  -1 -17    3.14    2.94
  -2  -1  17    0.66    2.67
  -2  -1  16   24.76    6.05
   2  -1 -16   28.69    5.37
   2   1 -16   30.04    5.30
  -2  -1  16   36.66    5.98
   2  -1 -16   29.14    6.48
   2  -1 -15  242.48   13.48
   2   1 -15  247.47   14.31
  -2  -1  15  243.07   14.17
   2  -1 -15  220.60   16.92
   2  -1 -14  953.22   25.08
  -2  -1  14  822.27   25.59
   2  -1 -14  829.64   31.72
   2   1 -14  927.46   26.23
   2  -1 -13  729.61   19.97
   2   1 -13  698.81   20.80
   2  -1 -13  676.35   26.96
   2  -1 -12  505.40   15.82
  -2  -1  12  461.81   20.98
   2   1 -12  489.09   16.11
   2  -1 -12  503.24   21.64
   2   1 -11 2601.27   35.03
   2  -1 -11 2698.93   34.52
   2   1 -10 2259.36   31.38
   2  -1 -10 2288.20   30.72
   2   1  -9 1971.28   28.04
   2  -1  -9 2011.69   27.62
   2   1  -8 1086.07   20.04
   2  -1  -8 1116.15   19.97
   2  -1  -7  737.82   15.86
   2   1  -7  700.45   15.53
   2  -1  -6  642.69   14.49
   2   1  -6  638.59   14.47
   2  -1  -5  145.55    6.81
   2   1  -5  136.01    6.67
   2  -1  -5  126.75    6.48
   2   1  -4  141.82    6.65
   2  -1  -4  147.29    6.80
   2   1  -3 2431.05   26.84
   2  -1  -3 2531.33   27.96
  -2   1   2 1586.11   22.65
   2   1  -2 1479.97   21.44
  -2   1   1 5339.50   42.20
   2   1  -1 5189.31   40.04
  -2  -1   0 4308.77   36.71
  -2   1   0 4283.51   37.37
  -2  -1  -1  380.64   11.11
  -2   1  -1  373.04   11.34
  -2   1  -2 1078.03   19.42
  -2  -1  -2 1082.06   18.83
  -2  -1  -3 1664.73   23.92
  -2   1  -3 1667.78   25.08
  -2   1  -4  764.54   17.32
  -2  -1  -4  768.34   16.83
  -2   1  -5  527.81   14.67
  -2  -1  -5  546.30   14.62
  -2   1  -6    1.04    1.14
  -2  -1  -6    3.97    1.61
  -2  -1  -7   18.46    3.14
  -2   1  -7   19.27    3.24
  -2   1  -8 1204.12   24.96
  -2  -1  -8 1206.90   24.02
  -2  -1  -9 2303.87   35.12
  -2   1  -9 2411.58   38.23
  -2   1 -10  590.64   19.94
  -2  -1 -10  564.42   18.43
  -2   1 -11 2033.69   39.88
  -2  -1 -11 1936.55   36.75
  -2   1 -11 2081.80   32.29
  -2  -1 -11 1882.30   30.61
  -2   1 -12 1531.94   29.17
  -2  -1 -12 1541.66   35.58
  -2  -1 -12 1591.78   29.78
  -2   1 -13 1972.74   43.87
  -2  -1 -13 1839.67   40.41
  -2  -1 -13 1976.69   35.55
  -2   1 -13 1903.12   34.16
  -2   1 -14  946.02   31.68
  -2  -1 -14  819.25   27.99
  -2   1 -14  869.89   23.28
  -2  -1 -14 1001.09   26.46
  -2   1 -14 1038.73   27.13
   2  -1  14 1008.89   27.50
  -2   1 -15  473.56   23.08
  -2   1 -15  526.05   18.20
  -2  -1 -15  537.11   20.65
  -2   1 -15  546.57   19.78
   2  -1  15  524.12   20.49
  -2   1 -16  154.45   13.89
  -2  -1 -16  131.04   12.22
  -2   1 -16  175.68   10.76
  -2  -1 -16  178.54   12.55
  -2   1 -16  161.49   10.98
   2  -1  16  156.45   11.54
  -2   1 -17   58.69    6.38
  -2  -1 -17   65.08    9.04
   2  -1  17   56.82    6.97
   2  -1  18    9.58    3.21
  -2   1 -18    8.43    2.73
  -2  -1 -18    2.67    5.31
  -2   1 -19  892.43   22.88
  -2  -1 -19  956.79   26.82
   2  -1  19  939.21   25.75
  -2  -1 -20  880.54   25.10
  -2   1 -20  833.63   21.55
   2  -1  20  842.97   23.75
  -2  -1 -21  519.72   18.91
  -2   1 -21  474.97   15.93
  -2  -1 -21  507.01   17.61
   2  -1  21  496.28   17.67
  -2   1 -22 1301.55   25.09
  -2  -1 -22 1287.44   26.82
   2  -1  22 1367.91   28.12
  -2  -1 -23 1051.15   22.95
   2  -1  23 1076.14   23.89
  -2  -1 -24  608.50   18.32
  -2  -1 -24  547.03   15.73
   2  -1  24  593.14   17.03
  -2  -1 -25  628.58   16.04
   2  -1  25  702.60   17.03
  -2  -1 -26  226.88    8.88
   2  -1  26  230.63    8.91
  -2  -1 -27  244.91    8.41
  -2   1 -27  281.69    9.73
  -2  -1 -28    2.38    1.15
  -2   1 -28    0.32    1.19
   2   2 -28   29.56    3.14
   2  -2 -28   28.99    2.64
   2   2 -27  459.96   12.88
   2  -2 -27  456.81   11.91
   2   2 -26    1.59    1.70
   2  -2 -26    5.17    1.70
   2  -2 -26    3.21    1.70
   2  -2 -25  402.05   14.76
   2   2 -25  364.34   14.27
   2  -2 -25  362.83   11.34
   2  -2 -24   23.19    4.32
   2   2 -24   14.76    3.60
   2  -2 -24   15.57    3.11
  -2  -2  24   19.13    4.31
  -2  -2  23  161.61   11.61
  -2  -2  23  134.63    8.78
   2  -2 -23  149.21   10.85
   2  -2 -23  128.43    8.32
  -2  -2  22  112.85   10.25
  -2  -2  22  115.16    8.65
   2  -2 -22  122.71   10.59
   2  -2 -22  100.77    8.09
  -2  -2  21    1.24    3.04
  -2  -2  21    1.75    2.41
   2  -2 -21   -0.17    2.89
   2  -2 -21    4.12    3.03
  -2  -2  20  410.63   21.25
  -2  -2  20  330.95   15.43
   2  -2 -20  322.35   15.71
   2  -2 -20  438.04   21.08
  -2  -2  19 1287.59   38.14
  -2  -2  19 1232.16   30.37
  -2  -2  18   41.15    7.68
   2  -2 -18   35.87    7.52
  -2  -2  18   43.75    6.22
   2  -2 -18   33.23    6.16
  -2  -2  17  801.40   31.08
  -2  -2  17 1098.88   27.61
  -2  -2  17 1090.72   29.23
   2  -2 -17  784.57   25.61
   2  -2 -17 1024.47   34.75
   2  -2 -16   64.29    9.30
   2   2 -16   45.99    6.60
  -2  -2  16   65.20    7.15
  -2  -2  16   56.25    7.23
   2  -2 -16   64.81    8.26
  -2  -2  16   39.51    7.90
   2   2 -15 2589.75   46.78
   2  -2 -15 3118.63   58.54
  -2  -2  15 2963.68   48.78
   2  -2 -15 2700.28   46.42
  -2  -2  15 2965.85   46.81
  -2  -2  14    0.08    2.92
   2   2 -14    1.85    3.02
   2  -2 -14    3.84    3.65
  -2  -2  14    0.29    2.73
   2  -2 -14   -1.89    2.65
   2  -2 -14    3.56    3.27
  -2  -2  13  838.61   30.33
   2  -2 -13  919.35   23.71
   2   2 -13  792.10   24.76
  -2  -2  13  992.71   32.12
  -2  -2  13  845.43   25.90
   2  -2 -13  899.97   25.71
   2  -2 -12   21.70    3.58
   2   2 -12   16.12    3.47
  -2  -2  12   28.52    5.81
  -2  -2  12   28.19    5.95
   2  -2 -12   29.31    5.04
   2  -2 -12   27.44    5.78
   2  -2 -11    1.12    2.39
  -2  -2  11    4.92    2.73
   2  -2 -11    2.74    1.95
  -2  -2  11    7.87    3.49
   2  -2 -11    1.80    2.02
   2   2 -11    3.52    2.09
   2  -2 -10   70.43    5.40
   2   2 -10   79.87    6.49
  -2  -2  10   84.67    9.57
   2  -2 -10   71.02    7.99
   2  -2 -10   70.84    6.55
  -2  -2  10   82.24    8.67
   2  -2  -9  974.79   19.20
   2   2  -9  934.62   20.70
   2  -2  -9 1026.69   28.09
   2  -2  -9  911.84   22.30
  -2  -2   9 1040.39   33.12
   2  -2  -9  984.82   19.10
   2  -2  -8   27.53    4.79
   2  -2  -8   24.01    3.35
   2   2  -8   24.12    3.56
   2  -2  -8   23.54    3.22
  -2  -2   8   23.80    5.55
   2  -2  -7 2404.84   28.16
   2   2  -7 2369.95   30.14
   2  -2  -7 2338.38   29.67
   2   2  -6  222.60    9.13
   2  -2  -6  225.26    9.76
   2  -2  -6  205.38    8.44
   2   2  -5 3382.22   33.49
   2  -2  -5 3286.50   36.85
   2  -2  -5 3386.73   32.65
   2   2  -4   76.27    5.39
   2  -2  -4   76.84    5.82
   2  -2  -4   71.84    5.13
   2  -2  -3  786.39   15.58
   2   2  -3  804.02   15.74
   2  -2  -2  314.93   10.49
   2  -2  -2  324.42   12.87
   2   2  -1 3535.74   32.32
  -2   2   0  716.10   15.96
   2   2   0  873.06   17.73
   2   2   1  160.07    7.73
  -2   2  -1   81.29    5.48
  -2  -2  -2   94.62    5.87
  -2   2  -2   88.58    5.85
   2   2   2  106.04    6.63
  -2  -2  -3 2306.61   27.92
  -2   2  -3 2222.01   29.29
  -2   2  -4   45.68    4.71
  -2  -2  -4   50.65    4.72
  -2  -2  -5 3978.67   39.28
  -2   2  -5 4099.83   38.69
  -2   2  -6   10.76    2.57
  -2   2  -6    6.45    3.06
  -2  -2  -6   11.39    2.92
  -2  -2  -7 3834.26   41.73
  -2   2  -7 3807.99   40.34
  -2   2  -8   26.11    3.76
   2  -2   8   26.86    4.01
  -2   2  -8   25.70    4.26
  -2  -2  -8   22.42    3.74
  -2  -2  -8   23.36    3.41
  -2   2  -9 1694.49   30.49
   2  -2   9 1581.84   29.06
  -2   2  -9 1459.94   29.20
  -2  -2  -9 1683.57   30.60
  -2  -2  -9 1518.46   26.91
  -2   2 -10    5.75    2.34
  -2   2 -10    4.83    2.20
  -2  -2 -10    5.94    2.26
   2  -2  10   11.19    3.11
  -2  -2 -10    6.47    2.13
   2  -2  11   20.96    3.86
  -2   2 -11   13.32    3.35
  -2  -2 -11   12.86    3.14
  -2   2 -11   10.46    2.88
  -2  -2 -11   12.84    3.16
   2  -2  12   55.68    6.61
  -2   2 -12   62.05    7.15
  -2  -2 -12   61.56    6.72
  -2  -2 -12   67.97    6.76
  -2   2 -12   61.04    7.03
   2  -2  13   80.82    8.63
  -2   2 -13   75.81    8.17
  -2  -2 -13   94.01    8.64
  -2  -2 -13   73.35    7.44
  -2   2 -13   88.43    8.42
   2  -2  13   86.49    8.33
   2  -2  14   12.32    3.67
  -2   2 -14    6.17    2.82
  -2   2 -14    8.34    3.17
  -2  -2 -14   10.17    5.13
  -2   2 -15 1605.94   39.86
   2  -2  15 1641.43   37.30
  -2  -2 -16  110.34   10.82
   2  -2  16   87.07    8.79
  -2  -2 -17 2080.25   39.71
   2  -2  17 1935.51   39.29
  -2  -2 -18   69.71    9.05
  -2  -2 -18   51.00    6.13
   2  -2  18   60.09    7.20
  -2  -2 -19 1952.11   36.55
   2  -2  19 1937.37   36.99
  -2  -2 -20    6.61    2.96
  -2  -2 -20    7.24    5.34
   2  -2  20    6.86    3.03
  -2  -2 -21  602.94   19.39
   2  -2  21  593.47   19.08
  -2  -2 -22   -0.02    1.86
  -2  -2 -22    5.96    4.81
   2  -2  22    1.37    1.77
  -2  -2 -23   -2.25    2.16
  -2  -2 -23    3.72    4.53
   2  -2  23    4.90    2.11
  -2  -2 -24   16.64    2.82
   2  -2  24   22.35    3.52
  -2  -2 -25  361.85   10.32
   2  -2  25  526.34   14.72
  -2   2 -26   16.43    2.83
   2  -2  26   15.43    2.60
  -2   2 -27  938.45   15.37
  -2  -2 -27  821.46   15.60
  -2  -3  26  130.70    5.95
   2  -3 -25   26.28    2.92
   2   3 -25   18.69    2.85
   2  -3 -24  263.07    9.80
   2   3 -24  226.14    9.86
  -2  -3  23  236.75   10.02
   2  -3 -23  255.16   10.72
  -2  -3  22  208.73    9.93
   2  -3 -22  228.01   11.02
  -2  -3  21  106.98    9.72
  -2  -3  21  108.85    7.05
   2  -3 -21  106.40    8.29
  -2  -3  21   92.04    7.23
   2  -3 -21  113.58    8.63
  -2  -3  20  803.19   26.81
  -2  -3  20  783.22   20.25
   2  -3 -20  739.91   22.70
  -2  -3  20  705.94   20.17
   2  -3 -20  721.52   22.21
  -2  -3  19  587.46   23.82
  -2  -3  19  629.30   19.03
   2  -3 -19  608.56   21.87
   2  -3 -19  565.85   20.54
  -2  -3  18  202.06   14.75
  -2  -3  18  240.65   12.77
  -2  -3  18  208.52   11.87
   2  -3 -18  207.04   12.97
   2  -3 -18  225.82   14.09
   2  -3 -17  113.83   10.10
  -2  -3  17  116.68    9.44
  -2  -3  17   97.59    8.28
   2  -3 -17   98.51    9.23
  -2  -3  17   79.47    9.38
  -2  -3  16   16.67    5.18
  -2  -3  16   34.50    5.64
  -2  -3  16   15.54    4.09
   2  -3 -16   20.77    4.81
   2  -3 -16   27.25    5.48
   2  -3 -15   76.42    8.70
  -2  -3  15   81.15    9.11
  -2  -3  15   73.41    7.86
   2  -3 -15   69.49    8.26
  -2  -3  15   49.27    7.97
   2  -3 -14 1105.02   32.41
  -2  -3  14 1137.32   34.06
   2  -3 -14 1105.78   30.13
  -2  -3  13   43.79    7.13
  -2  -3  13   23.86    5.55
   2  -3 -13   49.91    7.59
   2  -3 -13   43.63    7.37
  -2  -3  12 1490.95   37.64
  -2  -3  12 1501.59   39.95
   2  -3 -12 1572.19   34.63
  -2  -3  11  404.00   19.05
   2  -3 -11  415.70   18.23
  -2  -3  11  412.82   20.91
   2  -3 -11  407.25   17.45
  -2  -3  10  951.53   31.86
   2  -3 -10  967.14   25.99
   2  -3  -9 1312.91   26.33
   2  -3  -9 1302.02   30.58
  -2  -3   9 1312.98   37.69
   2  -3  -9 1279.17   28.96
   2  -3  -8  199.03   10.20
   2  -3  -8  221.75   12.35
  -2  -3   8  195.32   14.94
   2  -3  -8  200.64   11.54
   2  -3  -8  188.07   11.78
   2  -3  -7  227.03   10.84
   2  -3  -7  247.73   12.77
  -2  -3   7  196.41   12.74
  -2  -3   7  246.60   16.86
  -2  -3   7  218.79   11.63
   2  -3  -7  216.59   11.51
   2  -3  -7  212.88   12.42
   2  -3  -6   70.89    6.24
   2  -3  -6   86.87    7.51
  -2  -3   6   68.54    7.52
  -2  -3   6   68.19    6.34
   2  -3  -6   77.47    6.82
   2  -3  -6   87.56    7.97
   2  -3  -5  108.63    7.62
  -2  -3   5   91.93    8.37
   2  -3  -5  108.45    8.16
  -2  -3   5  114.80   12.23
  -2  -3   5   93.39    7.16
   2  -3  -5  104.15    7.77
   2  -3  -5  106.15    8.39
   2  -3  -4  312.14   13.40
  -2  -3   4  314.70   14.65
   2  -3  -4  326.44   13.64
  -2  -3   4  279.88   11.90
   2  -3  -4  303.08   12.78
   2  -3  -4  334.14   14.70
  -2  -3   4  355.10   21.41
   2  -3  -3  227.24   11.66
  -2  -3   3  223.41   12.24
   2  -3  -3  226.58   11.45
  -2  -3   3  260.73   18.80
  -2  -3   3  215.15   11.28
   2  -3  -3  210.74   10.73
   2  -3  -3  239.07   12.38
   2  -3  -2  569.03   17.33
   2  -3  -2  608.68   18.78
  -2  -3   2  573.17   19.41
   2  -3  -2  599.78   18.16
  -2  -3   2  590.05   18.18
   2  -3  -2  612.30   19.60
  -2  -3   1  668.94   31.69
   2  -3  -1  720.46   20.80
  -2  -3   1  697.11   21.07
   2  -3  -1  674.49   19.07
   2  -3  -1  707.52   20.95
   2  -3   0 2357.30   38.44
   2  -3   0 2265.18   34.80
  -2  -3   0 2310.15   36.58
   2  -3   1  915.60   24.59
  -2  -3  -1  855.62   22.96
   2  -3   1  852.95   21.28
  -2  -3  -2  837.80   22.73
   2  -3   2  868.94   21.52
   2  -3   2  906.12   25.19
  -2  -3  -3 1088.55   25.65
   2  -3   3 1118.96   24.56
  -2  -3  -3 1120.32   27.87
   2  -3   3 1166.06   29.29
  -2   3  -4 1803.11   34.33
   2  -3   4 1750.44   37.38
  -2  -3  -4 1531.87   30.03
   2  -3   4 1687.75   30.55
  -2  -3  -4 1634.49   48.68
  -2   3  -5   10.81    3.36
   2  -3   5    3.11    2.91
   2  -3   5    6.17    2.64
  -2  -3  -5    7.84    3.93
   2  -3   6   27.20    4.10
  -2   3  -6   25.93    3.99
  -2  -3  -6   29.63    6.54
  -2  -3  -6   20.97    3.35
  -2  -3  -6   25.81    3.80
  -2   3  -6   30.02    4.93
   2  -3   7   61.20    6.29
  -2  -3  -7   57.07    5.56
  -2  -3  -7   66.87    6.14
  -2   3  -7   62.32    6.20
  -2   3  -7   65.76    7.36
  -2   3  -8  637.68   19.89
  -2   3  -8  603.18   22.55
   2  -3   9   50.65    6.04
  -2   3  -9   46.47    5.76
  -2  -3  -9   45.23    5.65
  -2   3  -9   44.81    6.32
  -2  -3 -10 1764.80   34.88
  -2   3 -10 1824.37   38.92
   2  -3  11 1045.84   27.79
   2  -3  11 1014.70   26.23
  -2  -3 -11  819.17   24.28
  -2   3 -11  999.07   28.82
   2  -3  11  870.49   26.72
  -2  -3 -12  613.67   21.07
   2  -3  12  592.78   22.63
   2  -3  13  767.12   26.02
  -2  -3 -13  737.77   23.18
  -2  -3 -14  999.41   26.66
   2  -3  14  905.31   27.58
  -2  -3 -15   65.31    8.33
   2  -3  15   75.16    7.95
  -2  -3 -16   75.87    8.51
   2  -3  16   73.30    7.62
  -2  -3 -17   44.59    7.11
   2  -3  17   43.61    5.79
  -2  -3 -18   13.01    5.31
   2  -3  18    7.90    3.17
  -2  -3 -19  108.93    8.72
   2  -3  19  116.60    8.69
  -2  -3 -20  580.29   17.37
   2  -3  20  612.22   19.01
  -2  -3 -21  418.18   13.92
  -2  -3 -21  478.08   18.29
   2  -3  21  457.69   15.50
  -2  -3 -22  999.74   23.96
   2  -3  22  980.38   21.30
  -2  -3 -23  458.22   14.92
   2  -3  23  497.39   14.52
  -2  -3 -24  470.84   13.75
   2  -3  24  549.45   14.20
  -2   3 -25   92.59    5.01
   2  -3  25   97.20    5.47
  -2  -4  23   85.17    5.20
   2  -4 -23   89.72    5.08
  -2  -4  22   31.11    3.62
  -2  -4  22   27.04    2.71
   2  -4 -22   32.74    3.60
  -2  -4  21   86.37    5.57
   2  -4 -21   56.34    4.33
  -2  -4  21   64.65    4.42
   2  -4 -21   84.27    6.15
  -2  -4  20   28.25    3.38
  -2  -4  20   33.54    3.97
   2  -4 -20   24.84    3.38
   2  -4 -19  133.68    7.97
  -2  -4  19  126.41    7.28
   2  -4 -19  135.70    9.07
   2  -4 -18  469.53   15.69
   2  -4 -18  494.98   17.60
  -2  -4  17   49.63    6.01
   2  -4 -17   52.62    5.78
   2  -4 -17   47.33    6.38
  -2  -4  16  673.38   22.81
   2  -4 -16  651.19   20.38
  -2  -4  15    7.64    3.39
   2  -4 -15    2.59    2.63
  -2  -4  15    6.09    3.29
   2  -4 -15   10.15    4.13
   2  -4 -14  388.87   16.59
  -2  -4  14  396.73   18.76
  -2  -4  14  432.77   20.14
   2  -4 -14  389.37   17.33
   2  -4 -13   30.40    5.23
  -2  -4  13   30.08    5.92
   2  -4 -13   34.64    5.89
   2  -4 -13   29.75    5.29
  -2  -4  13   25.46    5.41
   2  -4 -12  226.67   13.02
  -2  -4  12  217.68   14.84
   2  -4 -12  226.11   13.22
   2  -4 -12  190.98   12.59
  -2  -4  11    8.90    3.50
   2  -4 -11    9.57    3.20
  -2  -4  11   10.53    3.57
   2  -4 -11   11.34    3.87
   2  -4 -11    9.46    3.78
  -2  -4  10    7.31    3.74
   2  -4 -10   15.57    4.13
  -2  -4  10   10.13    4.02
   2  -4 -10   19.45    4.55
   2  -4 -10   12.57    3.54
   2  -4  -9  472.91   18.68
  -2  -4   9  392.39   19.73
  -2  -4   9  456.18   22.77
   2  -4  -9  444.90   18.04
   2  -4  -9  444.23   19.47
   2  -4  -8  467.03   18.35
  -2  -4   8  396.68   19.61
  -2  -4   8  469.55   23.71
   2  -4  -8  433.91   17.56
   2  -4  -8  473.78   19.97
   2  -4  -7   50.28    6.62
  -2  -4   7   39.54    6.57
  -2  -4   7   42.19    7.85
   2  -4  -7   52.20    7.03
   2  -4  -7   48.51    7.06
   2  -4  -6 1892.66   36.25
  -2  -4   6 1746.15   38.59
  -2  -4   6 1741.14   34.17
  -2  -4   6 1950.13   50.36
   2  -4  -6 1790.64   34.54
   2  -4  -6 1919.83   39.41
   2  -4  -5   42.48    6.24
  -2  -4   5   35.67    5.98
  -2  -4   5   64.09    7.76
  -2  -4   5   40.00    8.45
   2  -4  -5   47.44    7.14
   2  -4  -5   45.51    7.46
   2  -4  -4 1061.06   26.06
   2  -4  -4 1070.34   26.45
  -2  -4   4 1047.70   28.74
  -2  -4   4  937.45   23.93
  -2  -4   4 1185.73   42.10
   2  -4  -4 1126.98   29.80
  -2  -4   3    9.24    3.64
   2  -4  -3    9.61    3.74
  -2  -4   3    5.07    5.05
   2  -4  -3    9.64    5.25
  -2  -4   2  619.27   21.61
   2  -4  -2  668.04   20.60
  -2  -4   2  720.19   34.98
   2  -4  -2  674.46   22.76
  -2  -4   1   62.92    7.18
   2  -4  -1   58.08    6.31
  -2  -4   1   55.60   11.25
  -2  -4   0  101.53    8.75
   2  -4   0  123.88    9.07
  -2  -4   0   97.47   13.70
  -2  -4  -1   90.07    8.11
   2  -4   1  106.79    8.39
  -2  -4  -2  185.00   11.18
   2  -4   2  187.49   11.08
  -2  -4  -2  216.32   13.11
  -2  -4  -3  187.20   10.95
   2  -4   3  193.52   11.18
  -2  -4  -3  166.49   17.40
   2  -4   4 2024.78   36.07
  -2  -4  -4 2114.99   59.96
  -2  -4  -4 2046.94   40.76
   2  -4   5  422.89   16.75
  -2  -4  -5  487.37   28.17
  -2  -4  -5  489.20   21.30
  -2   4  -5  394.88   16.81
   2  -4   6  452.77   17.29
  -2  -4  -6  524.68   27.87
  -2  -4  -6  464.97   20.68
   2  -4   6  469.34   20.79
   2  -4   7   21.84    5.00
   2  -4   7   38.88    5.64
  -2  -4  -7   26.81    6.66
  -2  -4  -7   41.77    7.58
  -2  -4  -8 1169.53   36.35
  -2  -4  -8 1151.87   34.03
   2  -4   8 1085.87   27.77
   2  -4   9    5.20    2.83
   2  -4   9    5.84    3.20
  -2  -4  -9   12.92    5.82
  -2  -4  -9    5.56    3.46
  -2  -4 -10  559.79   24.57
   2  -4  10  569.14   20.79
   2  -4  10  563.14   22.17
   2  -4  11    7.10    3.41
   2  -4  11    9.53    3.63
  -2  -4 -11   -0.41    2.94
   2  -4  11   14.78    3.92
   2  -4  12   25.22    4.98
   2  -4  12   24.73    4.65
  -2  -4 -12   13.68    4.43
   2  -4  12   24.99    4.89
   2  -4  13    1.27    2.25
  -2  -4 -13   -1.95    2.93
   2  -4  13    2.34    1.92
   2  -4  14  317.04   14.90
   2  -4  14  336.05   15.04
   2  -4  15   10.69    3.05
  -2  -4 -15   10.52    3.64
   2  -4  15   11.79    3.33
  -2  -4 -16  747.71   24.33
   2  -4  16  747.66   20.65
  -2  -4 -17   51.92    6.47
   2  -4  17   66.32    6.12
  -2  -4 -18  828.80   22.72
   2  -4  18  904.53   20.97
  -2  -4 -19  104.94    7.74
   2  -4  19  125.12    7.51
  -2  -4 -20  308.29   13.21
  -2  -4 -20  308.02   11.96
  -2  -4 -21   19.30    3.26
  -2  -4 -21   18.74    3.07
   2  -4  21   23.84    3.10
  -2  -4 -22   89.60    5.76
  -2  -4 -22   87.17    5.23
  -2  -5  19  179.52    7.49
  -2  -5  18  140.36    7.57
   2  -5 -18  127.41    6.83
  -2  -5  17    2.53    1.82
   2  -5 -17    2.54    1.74
  -2  -5  16   28.85    4.23
   2  -5 -16   30.83    4.16
   2  -5 -15  237.05    9.54
   2  -5 -15  245.18   11.18
   2  -5 -14   22.45    3.42
  -2  -5  14   24.85    4.52
  -2  -5  14   12.91    3.38
   2  -5 -14   22.85    4.06
   2  -5 -13  274.95   11.55
  -2  -5  13  268.13   14.74
  -2  -5  13  293.60   14.83
   2  -5 -13  280.13   12.85
   2  -5 -13  317.49   13.53
   2  -5 -12   74.65    6.38
  -2  -5  12   63.45    7.50
  -2  -5  12   67.72    7.70
   2  -5 -12   78.00    7.25
   2  -5 -12   79.25    7.23
   2  -5 -11  295.57   12.90
  -2  -5  11  253.67   14.75
  -2  -5  11  300.82   16.34
   2  -5 -11  302.92   13.76
   2  -5 -11  270.11   13.75
   2  -5 -10  172.70   10.22
  -2  -5  10  155.59   11.83
  -2  -5  10  165.48   12.63
   2  -5 -10  161.49   11.01
   2  -5  -9  393.60   15.67
  -2  -5   9  335.77   17.47
  -2  -5   9  389.54   20.03
   2  -5  -9  354.06   16.49
   2  -5  -8  365.95   15.35
  -2  -5   8  350.24   17.39
  -2  -5   8  375.01   20.46
   2  -5  -8  347.66   16.60
   2  -5  -7  126.50    9.25
  -2  -5   7   97.30    9.36
  -2  -5   7   95.93   10.86
   2  -5  -7  118.41    9.89
  -2  -5   6    9.82    3.63
   2  -5  -6    7.88    3.09
  -2  -5   6   14.20    5.22
   2  -5  -6   14.03    4.07
   2  -5  -5   96.99    8.19
  -2  -5   5  111.00    9.73
  -2  -5   5  109.21   12.51
   2  -5  -4   40.84    5.99
  -2  -5   4   27.81    5.20
  -2  -5   4   41.51    8.60
   2  -5  -3  338.60   14.91
  -2  -5   3  314.11   15.46
  -2  -5   3  328.29   15.15
  -2  -5   3  366.63   23.75
   2  -5  -2   33.75    5.77
  -2  -5   2   25.36    4.74
  -2  -5   2   21.64    7.26
   2  -5  -1  399.86   16.23
  -2  -5   1  444.26   17.06
  -2  -5   1  417.67   26.16
   2  -5   0  230.91   12.68
  -2  -5   0  205.27   11.49
  -2  -5   0  233.69   20.22
   2  -5   1  291.92   14.06
  -2  -5  -1  270.53   21.71
  -2  -5  -1  333.73   14.69
   2  -5   2   69.31    7.12
  -2  -5  -2   53.54   10.46
   2  -5   3  460.56   17.20
  -2  -5  -3  497.20   28.57
  -2  -5  -3  456.18   17.27
   2  -5   4  206.75   11.72
  -2  -5  -4  216.61   18.52
  -2  -5  -4  245.10   13.24
   2  -5   5   50.84    6.13
   2  -5   5   44.52    4.97
   2  -5   6   30.59    4.77
  -2  -5  -6   22.75    4.54
  -2  -5  -6   25.91    6.53
   2  -5   7    5.43    2.97
  -2  -5  -7   11.72    4.45
  -2  -5  -7    2.82    2.28
   2  -5   8   14.49    3.96
  -2  -5  -8    7.76    2.82
  -2  -5  -8   13.92    4.19
   2  -5   9  348.09   15.74
   2  -5   9  330.32   14.86
  -2  -5  -9  314.60   15.52
   2  -5  10   52.30    6.43
   2  -5  10   45.78    5.94
  -2  -5 -10   57.39    6.95
   2  -5  11  689.22   20.61
  -2  -5 -11  649.02   21.66
   2  -5  12  345.60   14.36
  -2  -5 -12  327.20   15.05
   2  -5  13  490.39   16.39
  -2  -5 -13  456.37   17.11
  -2  -5 -14  177.52   10.27
   2  -5  14  204.83   10.02
  -2  -5 -15   14.84    3.21
   2  -5  15   15.48    2.76
  -2  -5 -16   30.40    3.78
   2  -5  16   31.02    3.31
  -2  -5 -17    0.47    1.09
  -2  -5 -17    1.93    1.20
  -2  -5 -18    3.65    1.36
  -2  -6  12   31.79    3.66
   2  -6 -12   26.41    3.07
  -2  -6  11   11.85    2.54
   2  -6 -11   16.01    2.67
  -2  -6  10    3.32    1.76
  -2  -6  10    2.28    1.99
   2  -6 -10    2.56    1.44
  -2  -6   9    4.89    2.08
  -2  -6   9    4.37    2.75
   2  -6  -9   10.93    2.68
  -2  -6   8  249.21   13.82
   2  -6  -8  265.26   11.91
   2  -6  -7  144.29    7.30
  -2  -6   7  170.38   12.18
   2  -6  -7  157.83    9.51
   2  -6  -6  102.40    6.59
  -2  -6   6  116.82   10.59
   2  -6  -6  112.29    8.30
   2  -6  -5  552.09   15.44
   2  -6  -5  590.90   18.94
   2  -6  -4   15.88    3.87
  -2  -6   4   14.34    5.70
   2  -6  -4   12.79    3.23
   2  -6  -3  161.64    8.91
  -2  -6   3  176.09   14.22
   2  -6  -3  168.91   10.11
   2  -6  -2   12.01    3.99
  -2  -6   2    9.57    4.42
   2  -6  -2    5.08    2.44
   2  -6  -1  163.28    9.37
  -2  -6   1  172.04   14.50
   2  -6  -1  151.59    9.21
   2  -6   0    8.75    3.35
  -2  -6   0   11.13    5.14
   2  -6   0    8.15    2.40
   2  -6   1   48.65    5.52
  -2  -6  -1   52.65    8.24
   2  -6   1   48.27    4.98
   2  -6   2   70.71    6.68
  -2  -6  -2   63.71    8.69
   2  -6   2   63.11    5.45
   2  -6   3  116.81    8.32
  -2  -6  -3  126.87   11.59
   2  -6   3  107.38    6.69
   2  -6   4   58.49    6.12
  -2  -6  -4   52.06    7.30
   2  -6   5  119.26    7.79
  -2  -6  -5  122.79   10.01
  -2  -6  -6    0.19    1.94
   2  -6   6    2.45    1.74
   2  -6   7  222.23   10.23
  -2  -6  -7  188.87   10.07
   2  -6   8    5.61    2.09
   2  -6   9  144.98    7.77
   2  -6  10   55.05    4.64
   2  -6  11   11.90    2.21
   3   0 -25   50.98    4.05
   3   0 -24    0.42    1.63
   3   0 -23  366.32   13.55
  -3   0  22    3.25    1.91
   3   0 -22    2.85    2.32
  -3   0  21  635.63   16.99
   3   0 -21  588.47   20.59
  -3   0  20    2.02    2.29
   3   0 -20    3.48    3.31
  -3   0  19 1360.32   29.24
   3   0 -19 1128.96   32.37
  -3   0  18   -2.16    3.48
   3   0 -18    1.09    3.26
  -3   0  17  576.15   21.44
   3   0 -17  442.24   21.84
  -3   0  16    4.29    3.60
   3   0 -16    4.42    3.30
  -3   0  15  513.94   21.51
   3   0 -15  551.64   23.87
  -3   0  14   -0.97    3.12
   3   0 -14   -0.61    2.78
  -3   0  13   50.33    7.22
   3   0 -13   43.47    7.57
  -3   0  12   -0.14    2.93
   3   0 -12   -1.58    2.79
  -3   0  11  626.31   23.46
   3   0 -11  553.75   22.74
  -3   0  10   10.02    4.66
   3   0 -10    3.07    2.77
   3   0 -10    9.01    3.32
  -3   0   9 1775.77   37.63
   3   0  -9 1763.84   31.05
  -3   0   8   15.31    5.39
   3   0  -8   10.66    3.64
  -3   0   7 1875.01   37.01
   3   0  -7 1774.62   29.92
   3   0  -6   29.09    5.35
  -3   0   6   20.13    5.85
  -3   0   6   31.25    7.19
  -3   0   5 2722.77   46.69
   3   0  -5 2600.54   35.66
   3   0  -4   83.59    9.04
  -3   0   4   93.84    9.59
   3   0  -3  174.34    9.13
  -3   0   3  184.31   12.26
  -3   0   3  208.43   11.78
  -3   0   2    9.82    4.86
  -3   0   2    4.04    3.29
  -3   0   2   13.52    4.14
   3   0  -1  636.41   17.79
  -3   0   1  743.04   23.33
  -3   0   1  684.41   19.12
  -3   0   1  777.87   21.94
  -3   0   0   80.13    7.82
  -3   0   0   11.78    4.31
   3   0   1 1156.49   24.69
  -3   0  -1 1209.23   24.91
  -3   0  -2   27.61    9.71
  -3   0  -2    9.56    4.34
  -3   0  -3 2233.27   36.39
  -3   0  -3 2180.26   32.89
  -3   0  -4   25.17    7.10
  -3   0  -4   22.66    5.12
  -3   0  -5 2994.76   43.68
  -3   0  -5 2793.38   36.70
  -3   0  -6   14.58    5.37
  -3   0  -6   15.47    4.55
  -3   0  -7 2053.41   38.93
  -3   0  -7 1876.83   31.44
  -3   0  -8    2.57    2.95
  -3   0  -8    4.38    2.94
  -3   0  -9  284.30   13.02
  -3   0  -9  246.55   14.55
  -3   0  -9  252.35   12.28
  -3   0 -10    1.83    1.84
  -3   0 -10    4.56    2.67
  -3   0 -11  645.04   20.51
  -3   0 -11  583.55   19.46
  -3   0 -12    5.41    2.78
  -3   0 -12    7.49    3.45
  -3   0 -13 1782.98   36.17
  -3   0 -13 1721.10   34.10
   3   0  14   12.01    3.93
  -3   0 -14    3.43    2.79
  -3   0 -14    3.05    4.53
  -3   0 -15 1846.44   37.85
   3   0  15 1796.60   35.41
   3   0  16    1.32    2.02
  -3   0 -16    0.96    2.02
  -3   0 -16    2.08    5.42
  -3   0 -17 1015.50   26.68
   3   0  17 1071.98   23.82
  -3   0 -18    3.34    4.42
  -3   0 -19  149.52    9.59
  -3   0 -20    1.62    3.15
  -3   0 -21   13.92    2.48
  -3   0 -21   16.28    3.80
  -3   0 -22   -1.00    1.61
  -3   0 -22    3.94    2.92
  -3   0 -23  451.63    9.78
   3  -1 -25  138.30    6.17
  -3  -1  24  525.77   11.58
   3  -1 -24  466.81   13.16
  -3  -1  23  223.90    8.87
   3  -1 -23  225.37   10.30
  -3  -1  22  162.98    8.66
   3  -1 -22  160.82    9.63
  -3  -1  21  276.11   12.47
   3  -1 -21  249.72   13.00
  -3  -1  20    3.09    2.46
   3  -1 -20    0.60    2.31
   3   1 -20    2.83    2.19
  -3  -1  19    5.63    3.18
   3  -1 -19    6.02    3.52
   3   1 -19   -1.95    2.64
  -3  -1  18  156.48   11.79
   3  -1 -18  116.94   10.70
  -3  -1  17   18.55    5.10
   3  -1 -17   15.80    4.89
  -3  -1  16   62.89    8.44
   3  -1 -16   54.76    8.07
  -3   1  16   78.55    7.48
  -3  -1  15  359.46   19.64
   3  -1 -15  405.82   20.97
   3  -1 -14  781.27   28.61
  -3   1  14  801.56   24.18
  -3  -1  13  721.51   27.73
  -3   1  13  773.94   24.14
  -3  -1  12 1526.69   39.77
   3  -1 -12 1645.85   38.41
  -3  -1  12 1633.70   36.03
  -3   1  12 1531.10   34.04
  -3  -1  11  812.60   28.48
   3  -1 -11  860.24   27.42
  -3  -1  11  802.71   26.14
  -3   1  11  836.35   25.49
  -3  -1  10  344.36   18.05
   3  -1 -10  345.96   16.82
  -3  -1  10  298.52   16.19
  -3   1  10  352.11   16.59
   3  -1  -9  208.92   10.74
   3   1  -9  221.16   11.23
   3  -1  -9  195.22   12.26
  -3  -1   9  189.71   12.99
  -3  -1   9  213.50   14.05
  -3   1   9  215.49   12.81
  -3   1   8    7.88    3.19
   3  -1  -8    6.30    2.33
   3   1  -8   11.56    2.96
  -3  -1   8    1.42    2.47
   3  -1  -8    0.83    2.29
  -3  -1   8    5.65    2.72
  -3  -1   7   63.41    7.65
   3  -1  -7   73.00    6.20
   3   1  -7   73.27    6.27
   3  -1  -7   60.41    6.73
  -3  -1   7   61.86    7.84
  -3   1   7   84.00    7.97
  -3  -1   6  375.22   16.56
   3  -1  -6  347.56   13.11
   3   1  -6  356.76   13.34
   3  -1  -6  316.57   14.05
  -3  -1   6  368.80   17.96
  -3   1   6  414.75   16.88
  -3  -1   5  517.69   19.27
   3  -1  -5  530.60   16.39
   3  -1  -5  489.48   16.67
   3   1  -5  502.15   15.84
  -3  -1   5  532.24   21.33
  -3  -1   4 1779.58   34.26
   3  -1  -4 1830.10   29.89
   3   1  -4 1799.75   29.37
   3  -1  -4 1728.15   29.83
  -3  -1   4 1869.20   32.94
   3  -1  -3 1120.70   23.38
   3   1  -3 1100.80   23.18
  -3  -1   3 1004.53   28.80
  -3  -1   3 1189.78   26.72
  -3   1   3  941.52   22.61
  -3  -1   3 1016.67   25.77
   3  -1  -2 1035.50   22.58
   3   1  -2 1011.11   22.31
  -3  -1   2  860.54   26.45
  -3  -1   2  948.07   23.15
  -3   1   2  826.07   20.95
  -3  -1   2  824.42   23.22
   3  -1  -1 1194.58   24.65
   3   1  -1 1157.96   23.77
  -3  -1   1 1113.27   29.28
  -3  -1   1 1095.83   24.43
  -3   1   1  992.72   22.59
  -3  -1   1 1051.05   25.48
   3  -1   0  952.47   22.42
   3   1   0  991.20   22.34
  -3  -1   0  813.67   24.82
  -3  -1   0  843.63   21.08
  -3   1   0  792.27   20.01
  -3  -1   0  744.62   21.26
   3  -1   1  728.18   20.17
   3   1   1  784.34   20.67
  -3  -1  -1  626.15   21.80
  -3  -1  -1  662.62   18.85
  -3   1  -1  623.09   17.61
  -3   1  -2  510.82   17.57
  -3  -1  -2  560.77   20.49
  -3  -1  -2  516.02   16.21
  -3   1  -2  512.30   15.86
  -3   1  -3   94.69    8.00
  -3  -1  -3   84.75    7.79
  -3  -1  -3   99.13    8.52
  -3   1  -3  104.14    7.08
  -3  -1  -3  102.60    7.28
  -3   1  -4   32.42    4.64
  -3  -1  -4   30.19    4.53
  -3  -1  -4   39.09    5.32
  -3   1  -4   31.91    3.84
  -3   1  -5  236.99   12.52
  -3  -1  -5  249.25   12.68
  -3  -1  -5  231.18   12.46
  -3   1  -5  210.86    9.76
  -3  -1  -5  231.93   10.77
  -3   1  -6  460.16   18.12
  -3  -1  -6  437.18   17.03
  -3  -1  -6  455.93   16.89
  -3   1  -6  439.47   14.42
  -3  -1  -6  422.05   14.81
  -3   1  -7  373.58   16.84
  -3  -1  -7  362.71   16.08
  -3   1  -7  362.06   13.44
  -3  -1  -7  379.02   14.48
  -3   1  -8 1708.38   37.32
  -3  -1  -8 1676.54   35.84
  -3   1  -8 1656.29   29.17
  -3  -1  -8 1739.69   31.67
  -3  -1  -9 1063.78   23.97
  -3   1  -9 1013.98   23.51
  -3  -1 -10 1271.98   26.41
  -3   1 -10 1208.15   26.46
  -3  -1 -10 1290.27   28.74
  -3   1 -11  974.23   25.53
  -3  -1 -11  977.92   23.18
  -3  -1 -11 1007.96   25.90
  -3   1 -12  599.39   20.70
  -3  -1 -12  544.91   17.21
  -3   1 -12  557.56   19.26
  -3  -1 -12  592.84   20.89
  -3   1 -13  388.94   16.79
  -3  -1 -13  395.87   17.76
  -3   1 -13  413.30   18.14
  -3  -1 -13  367.40   14.52
  -3   1 -14   76.56    7.59
  -3  -1 -14   98.11    9.60
  -3   1 -14   82.87    8.52
   3  -1  14   73.16    8.29
   3  -1  15   15.62    4.45
  -3   1 -15   17.72    4.20
  -3   1 -15   22.68    4.89
  -3  -1 -15   21.46    6.66
  -3   1 -16  242.24   11.97
  -3  -1 -16  256.68   14.83
  -3   1 -16  275.39   14.31
   3  -1  16  227.23   13.31
  -3   1 -17  195.72   10.14
  -3  -1 -17  209.58   13.65
   3  -1  17  187.49   11.55
  -3  -1 -18  944.90   24.94
   3  -1  18  935.16   23.62
  -3  -1 -19 1290.91   27.27
   3  -1  19 1255.97   24.82
  -3  -1 -20  296.49   12.68
   3  -1  20  274.46   10.67
  -3  -1 -21  309.04   11.92
   3  -1  21  301.18   10.10
  -3  -1 -22  815.86   17.66
   3  -1  22  780.22   14.16
  -3  -1 -23  297.13    9.52
  -3   1 -23  297.62    8.71
  -3  -2  24    4.73    1.27
   3  -2 -24    2.62    1.19
  -3  -2  23   85.46    5.33
   3  -2 -23   74.28    5.12
  -3  -2  22  234.46    9.93
   3  -2 -22  203.81    9.50
  -3  -2  21   42.17    5.16
   3  -2 -21   40.42    5.02
  -3  -2  20  837.77   23.17
   3  -2 -20  749.09   21.09
  -3  -2  19   26.84    5.46
   3  -2 -19   28.26    5.02
  -3  -2  18  909.18   27.40
   3  -2 -18  947.98   26.30
  -3  -2  17    1.45    3.63
   3  -2 -17    2.20    3.25
  -3  -2  16  609.41   24.28
   3  -2 -16  800.13   25.60
  -3  -2  15    4.42    3.40
   3  -2 -15   10.44    4.05
  -3  -2  14   19.12    4.90
   3  -2 -14   24.65    5.24
  -3  -2  13    6.39    4.10
   3  -2 -13    3.57    3.08
  -3  -2  12  128.03   11.91
  -3  -2  12  141.68   12.29
   3  -2 -12  133.88   11.21
  -3  -2  11  236.60   16.01
  -3  -2  11  220.56   15.60
   3  -2 -11  245.38   14.59
  -3  -2  10  672.13   25.81
   3  -2 -10  663.62   22.89
  -3  -2   9   63.79    8.63
  -3  -2   9   53.71    8.38
   3  -2  -9   56.80    7.51
  -3  -2   8 1381.70   34.59
   3  -2  -8 1378.98   30.97
  -3  -2   8 1411.70   30.41
  -3  -2   7   50.97    7.56
   3  -2  -7   38.96    6.31
   3  -2  -6 1401.25   29.72
  -3  -2   6 1416.24   29.32
  -3  -2   5   39.08    6.76
   3  -2  -5   48.07    6.32
   3   2  -5   51.58    6.35
   3  -2  -5   24.80    4.89
  -3  -2   5   67.98    8.04
  -3   2   5   22.62    4.69
  -3  -2   4 1019.03   25.76
   3  -2  -4  984.53   21.80
   3   2  -4 1009.64   22.87
   3  -2  -4 1048.14   24.60
  -3  -2   4 1121.43   49.06
  -3  -2   4  910.87   21.49
  -3  -2   4 1067.30   24.69
  -3   2   4  988.60   22.13
   3  -2  -3  296.54   13.21
   3   2  -3  273.74   12.27
   3  -2  -3  149.02    9.48
  -3  -2   3  195.72   21.26
  -3  -2   3  312.39   13.77
  -3  -2   3  401.74   15.17
  -3  -2   3  214.06   12.12
   3  -2  -2  180.65    9.85
   3   2  -2  196.96   10.23
   3  -2  -2  131.99    8.74
  -3  -2   2   97.66   14.90
  -3  -2   2  197.87    9.84
  -3  -2   2  169.82    9.98
  -3  -2   2  132.26   10.99
  -3  -2   2  137.73    9.32
   3  -2  -1  449.24   16.15
   3   2  -1  703.15   19.68
   3  -2  -1  214.82   12.21
   3  -2  -1  317.32   13.19
  -3  -2   1  271.16   23.59
  -3  -2   1  662.88   18.07
  -3  -2   1  381.44   14.33
  -3  -2   1  338.08   16.60
  -3  -2   1  324.85   13.98
   3  -2   0 2018.47   32.62
   3   2   0 2009.10   32.11
   3  -2   0 1624.69   34.38
   3  -2   0 2002.65   32.37
  -3  -2   0 2117.77   63.99
  -3  -2   0 1875.11   31.03
  -3  -2   0 1873.65   30.98
  -3  -2   0 2337.84   41.76
  -3  -2   0 2051.92   34.09
   3  -2   1  467.66   18.40
   3   2   1  487.06   18.67
  -3  -2  -1   66.58   12.16
  -3  -2  -1  475.25   17.39
  -3  -2  -1  255.82   12.70
  -3  -2  -1   75.61    8.96
   3  -2   2  922.72   22.55
  -3  -2  -2  953.55   23.28
  -3  -2  -2  923.13   21.00
   3  -2   3  119.89    9.44
   3  -2   3   61.67    6.15
  -3  -2  -3  128.47    8.79
  -3  -2  -3   79.53    8.57
   3  -2   4 2656.96   36.93
  -3   2  -4 2537.97   39.44
  -3  -2  -4 2535.74   40.41
  -3  -2  -4 2453.16   34.88
  -3  -2  -4 2716.08   44.31
  -3   2  -5  147.57   10.17
   3  -2   5  124.96    8.31
  -3  -2  -5  145.20    9.26
  -3  -2  -5  138.70   10.07
   3  -2   6 1152.83   24.29
  -3  -2  -6 1172.24   29.27
  -3  -2  -6 1158.29   25.05
  -3  -2  -6 1180.66   27.57
  -3   2  -7   34.68    5.29
   3  -2   7   32.87    4.50
  -3  -2  -7   37.57    6.25
  -3  -2  -7   33.56    5.05
  -3  -2  -7   40.73    5.40
  -3   2  -8   91.18    8.02
  -3  -2  -8   86.51    8.62
  -3  -2  -8   74.06    6.83
  -3  -2  -8   83.82    7.20
  -3   2  -9    9.33    3.04
  -3  -2  -9    3.44    2.32
  -3  -2 -10   87.52    7.77
  -3   2 -10   97.81    8.74
  -3  -2 -11   46.79    6.09
  -3   2 -11   57.91    6.85
  -3  -2 -12  485.54   18.92
  -3   2 -12  510.73   20.52
  -3  -2 -13   32.29    6.52
  -3   2 -13   30.65    5.42
   3  -2  13   34.67    6.04
  -3  -2 -14 1800.52   36.34
   3  -2  14 1786.86   38.60
  -3  -2 -15   61.32    8.78
   3  -2  15   69.40    7.70
  -3  -2 -16  888.25   24.52
   3  -2  16  917.95   25.60
   3  -2  17   13.07    3.76
  -3  -2 -17   14.12    6.32
  -3  -2 -18 1182.69   25.17
   3  -2  18 1234.82   25.74
  -3  -2 -19   30.64    5.62
   3  -2  19   28.58    4.13
  -3  -2 -20   -0.38    3.85
   3  -2  20    0.66    1.21
  -3  -2 -21    7.77    3.65
   3  -2  21    4.98    1.54
  -3  -2 -22  299.82    9.42
  -3  -2 -22  187.74    7.34
  -3  -2 -22  207.69    7.91
   3  -2  22  344.09    9.41
  -3   2 -23    2.69    1.33
  -3  -3  22   67.00    4.26
   3  -3 -22   61.90    3.97
  -3  -3  21  147.63    7.20
   3  -3 -21  138.34    6.66
  -3  -3  20  348.07   12.34
   3  -3 -20  327.43   11.20
  -3  -3  19   72.88    6.40
   3  -3 -19   74.63    6.17
  -3  -3  18    2.51    2.19
   3  -3 -18    1.85    2.08
  -3  -3  18    1.87    1.30
  -3  -3  17  259.63   13.47
   3  -3 -17  284.59   12.80
  -3  -3  16   14.90    4.07
   3  -3 -16   22.49    4.47
  -3  -3  15  481.28   20.26
   3  -3 -15  630.27   20.78
  -3  -3  14  169.25   12.11
   3  -3 -14  170.63   11.10
  -3  -3  13  318.52   17.62
   3  -3 -13  297.57   14.66
  -3  -3  12  453.11   19.68
  -3  -3  12  440.17   21.64
  -3  -3  11  269.28   15.31
   3  -3 -11  294.25   14.85
  -3  -3  10  297.93   15.73
   3  -3 -10  312.74   15.16
  -3  -3   9   -0.14    2.79
  -3  -3   9    7.53    4.09
   3  -3  -9    8.17    3.67
  -3  -3   9    2.33    1.66
  -3  -3   8   79.48    7.84
  -3  -3   8   80.99   10.13
   3  -3  -8   89.46    8.11
  -3  -3   8   87.57    6.95
  -3  -3   7    8.07    3.00
  -3  -3   7    8.17    3.99
   3  -3  -7    7.07    3.04
  -3  -3   7    3.62    4.44
  -3  -3   7    5.57    2.10
  -3  -3   6   26.14    4.63
  -3  -3   6   38.71    7.61
   3  -3  -6   39.22    5.69
  -3  -3   6   37.68   10.28
  -3  -3   6   38.96    4.99
  -3  -3   5  542.56   18.11
  -3  -3   5  644.41   26.68
   3  -3  -5  610.94   19.97
  -3  -3   5  686.11   37.94
  -3  -3   5  602.74   17.00
   3  -3  -4  372.83   15.61
  -3  -3   4  434.99   16.07
  -3  -3   4  399.79   29.75
  -3  -3   4  447.46   14.59
  -3  -3   4  352.00   14.37
   3  -3  -3  376.58   15.30
  -3  -3   3  356.50   28.64
  -3  -3   3  402.20   15.12
  -3  -3   3  422.35   14.15
  -3  -3   3  346.61   13.87
  -3   3   2  115.35    9.14
   3  -3  -2  151.57   11.60
  -3  -3   2  125.29   17.86
  -3  -3   2  125.60    8.42
  -3   3   1 2034.20   37.52
   3  -3  -1 1961.58   34.10
  -3  -3   1 1951.61   30.31
  -3  -3   1 2006.77   39.88
  -3   3   0  792.79   23.85
   3  -3   0  782.88   21.71
  -3  -3   0  721.50   39.61
  -3   3  -1  512.90   19.40
   3  -3   1  478.88   16.97
  -3  -3  -1  448.13   30.52
  -3  -3  -1  575.66   17.05
  -3  -3  -1  521.65   19.49
  -3   3  -2  356.29   15.87
   3  -3   2  329.63   13.90
  -3  -3  -2  327.15   25.49
  -3  -3  -2  398.95   15.83
  -3  -3  -2  374.32   13.85
  -3  -3  -2  361.42   16.27
   3  -3   3   20.66    3.87
  -3   3  -3   16.54    3.76
  -3  -3  -3   10.85    5.70
  -3  -3  -3   19.25    4.83
  -3   3  -4   78.56    7.96
   3  -3   4   66.17    6.39
  -3  -3  -4   52.54    9.98
  -3  -3  -4   66.51    6.22
  -3  -3  -4   56.86    6.56
   3  -3   5 1025.35   24.29
  -3  -3  -5 1065.98   37.35
  -3  -3  -5  952.94   26.37
  -3  -3  -5  993.33   23.35
  -3  -3  -5 1004.95   25.30
  -3   3  -5 1044.99   28.41
  -3   3  -6    6.64    3.34
   3  -3   6    7.90    2.83
  -3  -3  -6    7.95    3.32
  -3  -3  -6    6.09    3.47
   3  -3   7  516.38   17.12
  -3  -3  -7  507.47   20.50
  -3  -3  -7  495.17   17.18
  -3  -3  -7  454.21   15.81
  -3   3  -7  537.57   20.87
   3  -3   8  337.87   14.10
  -3  -3  -8  349.59   17.49
  -3  -3  -8  317.01   14.12
  -3   3  -8  316.82   16.33
  -3  -3  -9  620.39   23.52
  -3  -3  -9  579.50   19.63
  -3   3  -9  567.79   21.34
   3  -3  10  977.94   24.62
  -3  -3 -10  936.26   29.18
  -3   3 -10  914.86   26.62
   3  -3  10  978.58   27.93
  -3  -3 -11  345.42   17.80
  -3  -3 -11  336.61   15.38
   3  -3  11  360.67   16.89
  -3  -3 -12   80.97    8.93
  -3  -3 -12   88.85    8.73
   3  -3  12   79.80    8.13
  -3  -3 -13  281.70   13.41
  -3  -3 -13  237.68   14.64
   3  -3  13  257.43   13.81
  -3  -3 -14   46.05    6.71
  -3  -3 -14   28.61    5.35
   3  -3  14   40.65    5.58
   3  -3  15    1.63    1.90
  -3  -3 -15    1.44    1.94
  -3  -3 -15    1.43    4.45
  -3  -3 -16   18.04    3.95
  -3  -3 -16   15.65    4.42
   3  -3  16   16.99    3.26
  -3  -3 -17  166.10    8.55
  -3  -3 -17  139.52    9.47
  -3  -3 -18  176.99    8.05
  -3  -3 -18  165.25    9.38
  -3  -3 -19  646.96   13.50
  -3  -3 -19  601.82   16.01
  -3  -3 -20  174.04    7.60
   3  -3  20  267.22    8.53
   3  -3  21  491.83   10.37
   3  -4 -18    9.93    2.08
  -3  -4  17  338.39   10.44
  -3  -4  17  386.83   10.58
  -3  -4  16   -0.33    1.64
   3  -4 -16    1.40    1.50
  -3  -4  15   47.86    4.70
   3  -4 -15   83.56    6.15
  -3  -4  14   60.06    5.44
   3  -4 -14   86.96    6.68
  -3  -4  13   10.34    2.64
   3  -4 -13   17.27    3.38
  -3  -4  12  168.53   11.98
   3  -4 -12  176.23    9.89
  -3  -4  11   65.02    5.74
  -3  -4  11   80.87    8.64
  -3  -4  10  138.91   11.64
  -3  -4  10  111.32    7.51
  -3  -4   9  735.57   26.85
   3  -4  -9  826.18   22.09
  -3  -4   8   25.60    6.66
   3  -4  -8   26.41    5.73
  -3  -4   8   16.14    7.56
  -3  -4   7  853.74   29.09
   3  -4  -7  853.97   22.77
   3  -4  -6   99.24    9.21
  -3  -4   6   86.51   13.21
   3  -4  -5  365.09   14.91
  -3  -4   5  438.58   27.95
   3  -4  -4   34.55    5.83
  -3  -4   4   26.91    9.44
   3  -4  -3   26.18    4.73
  -3  -4   3   17.47    7.03
   3  -4  -2   62.41    6.31
  -3  -4   2   57.86    6.76
  -3  -4   2   37.51    9.92
  -3  -4   2   50.86    6.52
   3  -4  -1   10.23    3.86
  -3  -4   1    6.69    5.97
  -3  -4   1    9.06    3.39
   3  -4   0  162.29    9.83
  -3  -4   0  140.16    9.73
   3  -4   1  535.05   17.52
  -3  -4  -1  528.39   31.49
  -3  -4  -1  528.36   17.49
  -3  -4  -1  527.30   18.58
   3  -4   2   66.99    6.82
  -3  -4  -2   56.87   11.15
  -3  -4  -2   78.54    7.37
   3  -4   3  539.64   17.40
  -3  -4  -3  568.63   29.93
  -3  -4  -3  471.77   16.79
  -3  -4  -3  473.90   16.43
   3  -4   4   20.25    3.96
  -3  -4  -4    8.69    5.51
  -3  -4  -4   20.88    4.02
   3  -4   5  619.80   18.35
  -3  -4  -5  611.61   26.43
  -3  -4  -5  527.15   18.28
  -3  -4  -5  489.99   15.20
   3  -4   5  643.93   22.19
   3  -4   6    8.42    3.86
   3  -4   6    7.36    2.82
  -3  -4  -6    4.72    1.97
   3  -4   7  449.88   15.90
  -3  -4  -7  409.68   17.03
   3  -4   7  415.06   17.64
   3  -4   8   17.12    3.96
   3  -4   8   19.77    3.80
  -3  -4  -8   21.28    4.39
   3  -4   9   51.99    5.58
  -3  -4  -9   46.33    6.05
   3  -4   9   53.10    6.16
   3  -4  10   82.70    7.16
  -3  -4 -10   80.67    7.65
   3  -4  10   96.62    7.82
  -3  -4 -11  223.16   12.25
   3  -4  11  286.64   12.59
   3  -4  12   15.45    3.13
  -3  -4 -12   10.04    3.06
  -3  -4 -13  442.67   16.15
   3  -4  13  601.00   16.11
  -3  -4 -14   19.26    3.68
   3  -4  14   26.66    3.53
  -3  -4 -15  519.70   15.34
   3  -4  15  678.10   14.92
  -3  -4 -16   45.29    4.38
   3  -4  16   69.64    4.54
  -3  -4 -17  187.68    7.51
   3  -4  17  274.00    7.94
  -3  -5  13   90.14    5.37
   3  -5 -12   95.29    5.23
  -3  -5  12   87.64    5.92
   3  -5 -11   95.28    5.60
  -3  -5  11   86.74    6.29
   3  -5 -10  166.02    7.76
  -3  -5  10  143.64    8.52
   3  -5  -9  146.84    7.58
  -3  -5   9  133.02    8.39
   3  -5  -8   29.41    3.65
  -3  -5   8   28.20    4.24
   3  -5  -7   77.11    5.85
  -3  -5   7   64.35    6.13
   3  -5  -6  190.41    9.21
  -3  -5   6  193.39   10.29
  -3  -5   5    7.90    4.66
  -3  -5   5   13.47    3.18
   3  -5  -4  252.92   10.79
  -3  -5   4  273.22   18.93
  -3  -5   4  221.45   10.68
   3  -5  -3  111.76    7.45
  -3  -5   3  103.75   12.45
  -3  -5   3   99.46    7.32
   3  -5  -2  154.74    8.71
  -3  -5   2  137.56   13.80
  -3  -5   2  125.60    7.87
  -3  -5   1  134.84   13.62
  -3  -5   1  122.67    7.53
   3  -5   0  474.72   14.73
  -3  -5   0  459.46   24.36
   3  -5   1   94.97    6.81
  -3  -5  -1  103.78   11.54
  -3  -5  -1   99.14    6.12
   3  -5   2   70.93    5.91
  -3  -5  -2   63.79    8.98
   3  -5   3  128.10    7.85
  -3  -5  -3  162.29    9.87
   3  -5   4  119.97    7.52
  -3  -5  -4  128.06    8.46
  -3  -5  -5   20.66    4.22
   3  -5   5   10.12    2.69
   3  -5   6  169.98    8.89
  -3  -5  -6  140.26    8.26
   3  -5   7   46.04    4.71
  -3  -5  -7   39.24    4.53
  -3  -5  -8  177.97    8.77
  -3  -5  -9  124.20    7.12
  -3  -5 -10  275.10    9.93
  -3  -5 -11  133.62    6.53
  -4   0  19    1.76    1.02
  -4   0  18   38.17    3.73
  -4   0  17    3.51    1.55
  -4   0  16   72.82    5.94
  -4   0  15   -0.66    1.47
  -4   0  14   50.92    5.38
  -4   0  13    2.83    2.35
  -4   0  12  723.98   20.92
  -4   0  11   32.84    5.31
  -4   0  10 1092.40   25.98
  -4   0   9   53.41    6.70
  -4   0   8  945.55   24.01
  -4   0   7  112.84    9.20
  -4   0   6  235.24   11.83
  -4   0   5   85.71    7.69
  -4   0   4  300.26   12.86
  -4   0   3  187.58   10.30
  -4   0   2  403.12   14.12
  -4   0   1  329.81   12.74
  -4   0   0  712.85   18.18
  -4   0  -1  407.49   14.26
  -4   0  -2 1381.97   25.27
  -4   0  -3  240.16   11.12
  -4   0  -4  894.59   20.53
  -4   0  -5    1.93    2.13
  -4   0  -5   21.14    4.19
  -4   0  -6    1.66    1.56
  -4   0  -6    6.45    2.11
  -4   0  -7   -0.06    1.52
  -4   0  -7    3.10    1.89
  -4   0  -8  218.03   10.54
  -4   0  -8  242.82   10.74
  -4   0  -9    1.70    2.00
  -4   0  -9    4.17    2.52
  -4   0 -10  554.93   16.77
  -4   0 -10  507.15   15.43
   4   0  11    1.95    1.85
  -4   0 -11    2.99    2.24
  -4   0 -11    3.46    3.45
  -4   0 -12  807.76   19.41
  -4   0 -12  758.46   18.38
  -4   0 -13    3.13    1.96
  -4   0 -13    7.68    4.25
  -4   0 -14  993.77   19.12
  -4   0 -15    3.24    2.96
  -4   0 -16  100.60    5.14
  -4  -1  18  193.62    7.14
  -4   1  18  191.07    6.98
  -4  -1  17  119.43    6.37
  -4   1  17  129.45    6.52
  -4  -1  16  364.04   12.01
  -4   1  16  341.61   11.41
  -4  -1  15  610.01   16.51
  -4   1  15  590.00   15.85
  -4  -1  14  172.52    9.34
  -4   1  14  166.77    8.96
  -4  -1  13  152.85    9.12
  -4   1  13  144.49    8.58
  -4  -1  12   36.36    4.77
  -4   1  12   28.39    4.10
  -4  -1  12   22.79    4.64
  -4  -1  11    8.29    2.65
  -4   1  11   10.35    2.81
  -4  -1  10    3.20    2.17
  -4   1  10    3.71    1.86
  -4  -1   9  113.11    8.27
  -4   1   9   90.33    7.13
  -4  -1   8  114.64    8.37
  -4   1   8   99.99    7.49
  -4  -1   7  335.22   14.04
  -4   1   7  306.06   12.78
  -4  -1   6  181.31   12.07
  -4   1   6  279.12   12.30
  -4  -1   5  901.79   22.14
  -4   1   5  825.74   20.45
  -4  -1   4  780.67   20.01
  -4   1   4  681.75   18.23
  -4   1   3  581.29   16.43
  -4  -1   3  711.20   19.07
  -4   1   2  740.46   18.00
  -4  -1   2  848.58   20.37
  -4   1   1  362.79   12.62
  -4  -1   1  428.89   14.53
  -4   1   0   63.63    5.50
  -4  -1   0   98.06    7.14
  -4  -1  -1   23.39    3.70
  -4   1  -1    8.87    2.27
  -4   1  -2    7.26    2.22
  -4  -1  -2    9.93    2.74
  -4   1  -3   59.18    6.07
  -4   1  -3   66.91    5.80
  -4  -1  -3   78.41    6.61
  -4   1  -4  378.08   14.78
  -4   1  -4  337.85   12.20
  -4  -1  -4  361.56   13.35
  -4   1  -5  790.95   21.18
  -4  -1  -5  744.38   18.89
  -4   1  -6  483.24   16.52
  -4  -1  -6  370.11   13.01
  -4   1  -6  397.16   13.08
  -4  -1  -6  499.07   15.52
  -4   1  -7 1228.98   25.45
  -4  -1  -7 1179.09   23.74
  -4   1  -8  656.19   18.47
  -4   1  -8  646.28   17.13
  -4  -1  -9  228.07   10.87
  -4   1  -9  247.96   11.60
  -4   1 -10  103.30    6.98
  -4  -1 -10  117.25    8.01
  -4   1 -10  113.63    7.92
  -4  -1 -10   92.27    5.87
   4  -1  11    9.56    2.60
  -4  -1 -11    8.79    2.11
  -4   1 -11   13.44    3.01
  -4   1 -11    9.94    2.91
   4  -1  12    6.70    2.18
  -4   1 -12    8.63    2.28
  -4   1 -12    7.50    2.61
  -4  -1 -12    9.07    4.09
  -4  -1 -13   21.96    4.83
   4  -1  13   13.71    2.70
  -4  -1 -14  129.67    7.66
   4  -1  14  135.38    6.67
  -4  -1 -15  398.33   11.46
   4  -1  15  426.48    9.95
  -4  -1 -16  206.18    7.61
   4  -2 -15   14.03    2.18
  -4  -2  15   37.35    3.12
   4  -2 -14   53.67    4.38
  -4  -2  14   91.33    5.25
   4  -2 -13   37.26    3.90
  -4  -2  13   42.23    4.95
   4  -2 -12   43.64    4.42
  -4  -2  12   55.78    4.73
  -4  -2  12   56.88    4.97
  -4   2  12   50.29    3.93
  -4  -2  12   50.29    5.62
  -4  -2  11  575.95   15.68
  -4   2  11  535.18   13.08
   4  -2 -10   12.84    3.01
  -4  -2  10   11.85    3.62
  -4   2  10    6.87    2.04
   4  -2  -9  627.80   16.27
  -4  -2   9  642.72   16.80
  -4   2   9  601.18   14.35
   4  -2  -8   28.97    4.20
  -4  -2   8   38.52    5.89
  -4   2   8   29.66    3.60
   4  -2  -7  429.66   13.55
  -4  -2   7  393.72   17.63
  -4  -2   7  429.19   13.83
   4  -2  -6   12.10    2.91
  -4  -2   6   36.54    5.88
  -4   2   5   20.39    3.66
  -4  -2   5   34.52    5.93
  -4   2   4   81.15    7.01
  -4  -2   4  117.65    9.97
  -4  -2   3  311.06   15.82
  -4  -2   3  298.45   11.69
  -4   2   2   21.79    4.31
  -4  -2   2   81.60    8.65
  -4   2   1  760.88   21.14
  -4  -2   1  804.36   24.18
  -4  -2   1  782.32   18.82
  -4   2   0   40.21    5.62
  -4  -2   0  191.01   12.27
  -4   2  -1  790.89   21.66
  -4  -2  -1  713.85   18.06
  -4   2  -2   51.72    6.44
  -4  -2  -2  340.29   13.05
  -4   2  -3 1265.39   26.60
  -4  -2  -3 1242.04   23.71
  -4   2  -4  105.39    7.89
  -4  -2  -4   72.21    5.23
  -4   2  -5    7.43    2.50
  -4  -2  -5   10.22    2.60
  -4  -2  -6   31.65    4.01
  -4   2  -6   26.80    4.11
  -4   2  -7    0.48    1.69
  -4  -2  -7    4.21    2.25
  -4  -2  -8  105.12    7.20
  -4   2  -8  109.49    8.02
  -4  -2  -9  125.04    8.23
  -4   2  -9  120.21    8.05
   4  -2   9  132.90    8.61
   4  -2  10   11.41    3.08
  -4   2 -10    8.76    2.42
  -4  -2 -10    9.77    3.99
  -4  -2 -11  696.38   17.09
   4  -2  11  688.93   18.03
  -4  -2 -12   19.61    4.61
   4  -2  12   22.07    3.39
  -4  -2 -13  824.80   16.59
   4  -2  13  937.41   18.19
  -4  -2 -14    4.82    3.12
   4  -2  14    5.99    1.81
  -4  -2 -15  367.96    9.10
   4  -3 -12   14.12    2.34
   4  -3 -11   63.07    4.65
  -4  -3  11   80.76    5.44
   4  -3 -10    6.66    1.79
  -4  -3  10   13.92    2.83
   4  -3  -9    8.67    2.04
  -4  -3   9    8.36    2.37
   4  -3  -8   76.48    5.38
  -4  -3   8   60.96    6.08
   4  -3  -7  125.36    7.05
  -4  -3   7   98.23    8.01
  -4  -3   6  379.86   11.23
  -4  -3   6  390.63   16.01
   4  -3  -5  107.91    6.82
  -4  -3   5  106.37    8.99
  -4  -3   4  650.67   15.48
  -4  -3   4  640.93   20.32
   4  -3  -3  252.31   10.05
  -4  -3   3  298.02   13.92
   4  -3  -2  506.22   13.66
  -4  -3   2  498.40   14.20
   4  -3  -1  651.84   15.11
  -4  -3   1  677.28   19.78
   4  -3   0   77.91    5.59
  -4   3   0   16.11    3.56
  -4   3  -1    2.13    2.07
  -4  -3  -1   44.26    4.95
  -4  -3  -2  185.49    8.95
  -4   3  -2   61.29    6.16
  -4   3  -3    4.59    2.14
  -4  -3  -3   42.66    4.98
  -4  -3  -4  221.62    9.97
  -4   3  -4  134.08    8.44
  -4  -3  -5   70.74    6.06
  -4   3  -5   41.02    4.73
  -4  -3  -6  176.70    8.94
   4  -3   6  196.56   10.24
  -4  -3  -7  362.15   11.88
   4  -3   7  374.80   13.65
  -4  -3  -8  307.26   10.56
   4  -3   8  326.33   12.32
  -4  -3  -9  146.05    7.12
   4  -3   9  160.68    8.16
   4  -3  10  162.74    7.71
   4  -3  11   23.10    2.89
  -4  -4   6   41.05    3.89
  -4  -4   5   75.55    5.44
  -4  -4   4   10.87    2.49
   0   0   0    0.00    0.00
TITL SS2 in P2(1)/n
REM P2(1)/n (#14 in standard setting)
CELL 1.54184   3.893841   5.822313  25.864528  90.0000  92.0437  90.0000
ZERR    2.00   0.000226   0.000296   0.001560   0.0000   0.0053   0.0000
LATT  1
SYMM -x+1/2, y+1/2,-z+1/2
SFAC C H N O Br
UNIT 24.00 16.00 4.00 2.00 4.00
TREF
HKLF 4
END
_computing_structure_solution     'SHELXT 2014/5 (Sheldrick, 2014)'
;
_shelx_hkl_checksum              6879
_shelx_res_file
;
TITL SS2 in P2(1)/n
    ss2n.res
    created by SHELXL-2018/1 at 14:24:41 on 17-Oct-2018
REM TITL shelxt_a.res in P2(1)/n
REM  yellow plate
REM SHELXT solution in P2(1)/n
REM R1 0.181,  Rweak 0.432,  Alpha 0.101,  Orientation as input
REM Formula found by SHELXT:  C8 Br
CELL  1.54184   3.8938   5.8223  25.8645   90.000   92.044   90.000
ZERR    2.000   0.0002   0.0003   0.0016    0.000    0.005    0.000
LATT  1
SYMM 1/2-X, 1/2+Y, 1/2-Z
SFAC C H N O Br
UNIT 24.00 16.00 4.00 2.00 4.00
TEMP -183
SIZE 0.38 0.19 0.08
L.S. 12
BOND $H
CONF
ACTA
LIST 4
FMAP 2
PLAN 5
EQIV $1 -x,-y,1-z
EQIV $2 1/2-x, -1/2+y,1.5-z
EQIV $3 -x+1, -y+1, -z+1
HTAB C6 O1_$1
HTAB C4 Br3_$2
MPLA 6 C1 C2 C3 C4 C5 C6 Br3 N1 O1
MPLA C1 C2 C3 C4 C5 C6 Br3
MPLA C1 N1 O1
WGHT    0.093900    2.357400
FVAR       0.93031
O1    4    0.224158    0.254591    0.478543    10.50000    0.04898    0.03027 =
         0.02017   -0.00255   -0.00780   -0.02123
N1    3    0.413600    0.411693    0.506083    11.00000    0.03595    0.03272 =
         0.02405   -0.01126   -0.00804    0.01379
C1    1    0.395483    0.355018    0.560127    11.00000    0.02531    0.02768 =
         0.02874   -0.01175   -0.00937    0.01145
C2    1    0.514369    0.498968    0.600396    11.00000    0.01990    0.01333 =
         0.02170   -0.00096   -0.00230    0.00073
AFIX  43
H2    2    0.618227    0.642861    0.593489    11.00000   -1.20000
AFIX   0
C3    1    0.475020    0.424129    0.650159    11.00000    0.01793    0.02454 =
         0.02105   -0.00203    0.00231    0.00516
BR3   5    0.636661    0.615746    0.705332    11.00000    0.02869    0.05199 =
         0.01921   -0.01095   -0.00564    0.01212
C4    1    0.322825    0.216232    0.661777    11.00000    0.02553    0.02402 =
         0.04738    0.01941    0.01190    0.01056
AFIX  43
H4    2    0.298842    0.170406    0.696715    11.00000   -1.20000
AFIX   0
C5    1    0.207122    0.077434    0.621832    11.00000    0.02080    0.01473 =
         0.08709    0.00608    0.00824   -0.00044
AFIX  43
H5    2    0.102440   -0.065852    0.629059    11.00000   -1.20000
AFIX   0
C6    1    0.243471    0.147108    0.570537    11.00000    0.02236    0.02467 =
         0.06917   -0.02239   -0.01259    0.00572
AFIX  43
H6    2    0.163488    0.051244    0.542931    11.00000   -1.20000
REM  SS2 in P2(1)/n
REM R1 =  0.0537 for    1128 Fo > 4sig(Fo)  and  0.0559 for all    1171 data
REM     82 parameters refined using     42 restraints
REM Highest difference peak  1.434,  deepest hole -0.983,  1-sigma level  0.188
AFIX   0
HKLF 4
REM  SS2 in P2(1)/n
REM R1 =  0.0494 for    1128 Fo > 4sig(Fo)  and  0.0516 for all    1171 data
REM     82 parameters refined using      0 restraints
END
WGHT      0.0884      1.4347
REM Highest difference peak  0.849,  deepest hole -0.992,  1-sigma level  0.179
Q1    1   0.6641  0.6094  0.7433  11.00000  0.05    0.85
Q2    1   0.8622  0.4961  0.7225  11.00000  0.05    0.75
Q3    1   0.6350  0.6106  0.6659  11.00000  0.05    0.72
Q4    1  -0.1992  0.1467  0.6954  11.00000  0.05    0.63
Q5    1   0.4916  0.1516  0.7027  11.00000  0.05    0.63
;
_shelx_res_checksum              91843
loop_
_space_group_symop_operation_xyz
'x, y, z'
'-x+1/2, y+1/2, -z+1/2'
'-x, -y, -z'
'x-1/2, -y-1/2, z-1/2'
loop_
_atom_site_type_symbol
_atom_site_label
_atom_site_fract_x
_atom_site_fract_y
_atom_site_fract_z
_atom_site_U_iso_or_equiv
_atom_site_adp_type
_atom_site_calc_flag
_atom_site_occupancy
O O1 0.224(2) 0.2546(11) 0.4785(2) 0.0334(16) Uani d 0.5
N N1 0.4136(12) 0.4117(7) 0.50608(16) 0.0311(9) Uani d 1
C C1 0.3955(13) 0.3550(8) 0.56013(19) 0.0275(10) Uani d 1
C C2 0.5144(10) 0.4990(6) 0.60040(15) 0.0184(8) Uani d 1
H H2 0.618227 0.642861 0.593489 0.022 Uiso calc 1
C C3 0.4750(11) 0.4241(7) 0.65016(17) 0.0211(8) Uani d 1
Br Br3 0.63666(13) 0.61575(9) 0.70533(2) 0.0335(3) Uani d 1
C C4 0.3228(12) 0.2162(8) 0.6618(2) 0.0321(11) Uani d 1
H H4 0.298842 0.170406 0.696715 0.038 Uiso calc 1
C C5 0.2071(14) 0.0774(8) 0.6218(3) 0.0407(14) Uani d 1
H H5 0.102440 -0.065852 0.629059 0.049 Uiso calc 1
C C6 0.2435(14) 0.1471(8) 0.5705(3) 0.0391(14) Uani d 1
H H6 0.163488 0.051244 0.542931 0.047 Uiso calc 1
loop_
_atom_site_aniso_label
_atom_site_aniso_U_11
_atom_site_aniso_U_22
_atom_site_aniso_U_33
_atom_site_aniso_U_12
_atom_site_aniso_U_13
_atom_site_aniso_U_23
O1 0.049(4) 0.030(3) 0.020(3) -0.021(3) -0.008(3) -0.003(2)
N1 0.036(2) 0.0327(19) 0.024(2) 0.0138(16) -0.0080(17) -0.0113(15)
C1 0.025(2) 0.028(2) 0.029(2) 0.0114(18) -0.0094(18) -0.0117(17)
C2 0.020(2) 0.0133(17) 0.0217(19) 0.0007(14) -0.0023(15) -0.0010(14)
C3 0.018(2) 0.0245(19) 0.021(2) 0.0052(16) 0.0023(15) -0.0020(15)
Br3 0.0287(4) 0.0520(4) 0.0192(4) 0.0121(2) -0.0056(2) -0.01095(18)
C4 0.026(2) 0.024(2) 0.047(3) 0.0106(18) 0.0119(19) 0.019(2)
C5 0.021(3) 0.0147(19) 0.087(5) -0.0004(17) 0.008(3) 0.006(2)
C6 0.022(2) 0.025(2) 0.069(4) 0.0057(18) -0.013(2) -0.022(2)
loop_
_atom_type_symbol
_atom_type_description
_atom_type_scat_dispersion_real
_atom_type_scat_dispersion_imag
_atom_type_scat_source
C C 0.0181 0.0091 'International Tables Vol C Tables 4.2.6.8 and 6.1.1.4'
H H 0.0000 0.0000 'International Tables Vol C Tables 4.2.6.8 and 6.1.1.4'
N N 0.0311 0.0180 'International Tables Vol C Tables 4.2.6.8 and 6.1.1.4'
O O 0.0492 0.0322 'International Tables Vol C Tables 4.2.6.8 and 6.1.1.4'
Br Br -0.6763 1.2805 'International Tables Vol C Tables 4.2.6.8 and 6.1.1.4'
loop_
_geom_angle_atom_site_label_1
_geom_angle_atom_site_label_2
_geom_angle_atom_site_label_3
_geom_angle_site_symmetry_1
_geom_angle
N1 N1 O1 3_666 134.0(6)
N1 N1 C1 3_666 118.0(5)
O1 N1 C1 . 108.0(5)
C6 C1 C2 . 120.8(5)
C6 C1 N1 . 115.3(4)
C2 C1 N1 . 123.9(4)
C3 C2 C1 . 117.5(4)
C3 C2 H2 . 121.3
C1 C2 H2 . 121.3
C2 C3 C4 . 122.9(4)
C2 C3 Br3 . 118.2(3)
C4 C3 Br3 . 118.9(4)
C5 C4 C3 . 118.8(5)
C5 C4 H4 . 120.6
C3 C4 H4 . 120.6
C4 C5 C6 . 120.0(4)
C4 C5 H5 . 120.0
C6 C5 H5 . 120.0
C1 C6 C5 . 119.9(5)
C1 C6 H6 . 120.0
C5 C6 H6 . 120.0
loop_
_geom_bond_atom_site_label_1
_geom_bond_atom_site_label_2
_geom_bond_site_symmetry_2
_geom_bond_distance
O1 N1 . 1.360(7)
N1 N1 3_666 1.274(9)
N1 C1 . 1.440(7)
C1 C6 . 1.378(8)
C1 C2 . 1.403(6)
C2 C3 . 1.373(6)
C2 H2 . 0.9500
C3 C4 . 1.385(6)
C3 Br3 . 1.901(4)
C4 C5 . 1.375(9)
C4 H4 . 0.9500
C5 C6 . 1.399(10)
C5 H5 . 0.9500
C6 H6 . 0.9500
loop_
_geom_hbond_atom_site_label_D
_geom_hbond_atom_site_label_H
_geom_hbond_atom_site_label_A
_geom_hbond_site_symmetry_A
_geom_hbond_distance_DH
_geom_hbond_distance_HA
_geom_hbond_distance_DA
_geom_hbond_angle_DHA
_geom_hbond_publ_flag
C2 H2 O1 3_666 0.95 2.07 2.722(7) 124 yes
C6 H6 O1 3_556 0.95 2.39 3.199(8) 143.2 yes
C4 H4 Br3 2_546 0.95 3.11 3.974(5) 151.3 yes
loop_
_geom_torsion_atom_site_label_1
_geom_torsion_atom_site_label_2
_geom_torsion_atom_site_label_3
_geom_torsion_atom_site_label_4
_geom_torsion_site_symmetry_1
_geom_torsion
N1 N1 C1 C6 3_666 -172.0(5)
O1 N1 C1 C6 . 9.0(6)
N1 N1 C1 C2 3_666 9.4(8)
O1 N1 C1 C2 . -169.6(5)
C6 C1 C2 C3 . 0.4(6)
N1 C1 C2 C3 . 178.9(4)
C1 C2 C3 C4 . -0.5(6)
C1 C2 C3 Br3 . 179.7(3)
C2 C3 C4 C5 . 0.3(7)
Br3 C3 C4 C5 . -179.8(4)
C3 C4 C5 C6 . -0.1(7)
C2 C1 C6 C5 . -0.1(7)
N1 C1 C6 C5 . -178.8(4)
C4 C5 C6 C1 . 0.0(7)

_cod_database_fobs_code 1550129
