#------------------------------------------------------------------------------
#$Date: 2018-11-10 05:51:21 +0200 (Sat, 10 Nov 2018) $
#$Revision: 211897 $
#$URL: file:///home/coder/svn-repositories/cod/cif/1/55/02/1550217.cif $
#------------------------------------------------------------------------------
#
# This file is available in the Crystallography Open Database (COD),
# http://www.crystallography.net/. The original data for this entry
# were provided by IUCr Journals, http://journals.iucr.org/.
#
# The file may be used within the scientific community so long as
# proper attribution is given to the journal article from which the
# data were obtained.
#
data_1550217
loop_
_publ_author_name
'Detert, Heiner'
'Schollmeyer, Dieter'
_publ_section_title
;
 The <i>rel-R</i>,<i>R</i>-enantiomer of
 7-[7-hydroxybicyclo[4.2.0]octa-1(6),2,4-trien-7-yl]bicyclo[4.2.0]octa-1(6),2,4-trien-7-ol
;
_journal_coeditor_code           BT4076
_journal_issue                   11
_journal_name_full               IUCrData
_journal_page_first              x181550
_journal_paper_doi               10.1107/S241431461801550X
_journal_volume                  3
_journal_year                    2018
_chemical_absolute_configuration unk
_chemical_formula_iupac          'C16 H14 O2'
_chemical_formula_moiety         'C16 H14 O2'
_chemical_formula_sum            'C16 H14 O2'
_chemical_formula_weight         238.27
_chemical_name_systematic
7-[7-Hydroxybicyclo[4.2.0]octa-1(6),2,4-trien-7-yl]bicyclo[4.2.0]octa-1(6),2,4-trien-7-ol
_space_group_crystal_system      monoclinic
_space_group_IT_number           4
_space_group_name_Hall           'P 2yb'
_space_group_name_H-M_alt        'P 1 21 1'
_symmetry_space_group_name_Hall  'P 2yb'
_symmetry_space_group_name_H-M   'P 1 21 1'
_atom_sites_solution_hydrogens   mixed
_audit_creation_method           SHELXL-2017/1
_cell_angle_alpha                90
_cell_angle_beta                 99.541(10)
_cell_angle_gamma                90
_cell_formula_units_Z            2
_cell_length_a                   10.1497(12)
_cell_length_b                   5.1276(4)
_cell_length_c                   11.6896(16)
_cell_measurement_reflns_used    4652
_cell_measurement_temperature    193(2)
_cell_measurement_theta_max      28.47
_cell_measurement_theta_min      2.03
_cell_volume                     599.95(12)
_computing_cell_refinement
;
X-AREA (Stoe & Cie, 1996)
;
_computing_data_collection
;
X-AREA (Stoe & Cie, 1996)
;
_computing_data_reduction
;
X-RED (Stoe & Cie, 1996)
;
_computing_molecular_graphics    'PLATON (Spek, 2009)'
_computing_publication_material
;
SHELXL2017 (Sheldrick, 2015b)
;
_computing_structure_refinement
;
SHELXL2017 (Sheldrick, 2015b)
;
_computing_structure_solution
;
SHELXT2014 (Sheldrick, 2015a)
;
_diffrn_ambient_temperature      193(2)
_diffrn_detector                 'image plate (34 cm diameter)'
_diffrn_detector_area_resol_mean 6.67
_diffrn_measured_fraction_theta_full 0.999
_diffrn_measured_fraction_theta_max 0.998
_diffrn_measurement_device       '2-circle goniometer'
_diffrn_measurement_device_type  'Stoe IPDS 2T'
_diffrn_measurement_method       'rotation method'
_diffrn_radiation_type           MoK\a
_diffrn_radiation_wavelength     0.71073
_diffrn_reflns_av_R_equivalents  0.0323
_diffrn_reflns_av_unetI/netI     0.0422
_diffrn_reflns_limit_h_max       13
_diffrn_reflns_limit_h_min       -13
_diffrn_reflns_limit_k_max       6
_diffrn_reflns_limit_k_min       -6
_diffrn_reflns_limit_l_max       15
_diffrn_reflns_limit_l_min       -14
_diffrn_reflns_number            4954
_diffrn_reflns_theta_full        25.242
_diffrn_reflns_theta_max         28.357
_diffrn_reflns_theta_min         2.035
_diffrn_source
'sealed X-ray tube, 12 x 0.4 mm long-fine focus'
_exptl_absorpt_coefficient_mu    0.086
_exptl_absorpt_correction_type   none
_exptl_crystal_colour            colourless
_exptl_crystal_density_diffrn    1.319
_exptl_crystal_description       needle
_exptl_crystal_F_000             252
_exptl_crystal_size_max          0.500
_exptl_crystal_size_mid          0.130
_exptl_crystal_size_min          0.070
_refine_diff_density_max         0.243
_refine_diff_density_min         -0.175
_refine_ls_abs_structure_details
;
Flack <i>x</i> determined using 875 quotients
[(<i>I</i>^+^)-(<i>I</i>^-^)]/[(<i>I</i>^+^)+(<i>I</i>^-^)]
(Parsons <i>et al.</i>,  2013)
;
_refine_ls_abs_structure_Flack   1.6(10)
_refine_ls_extinction_method     none
_refine_ls_goodness_of_fit_ref   1.046
_refine_ls_hydrogen_treatment    mixed
_refine_ls_matrix_type           full
_refine_ls_number_parameters     171
_refine_ls_number_reflns         2964
_refine_ls_number_restraints     1
_refine_ls_restrained_S_all      1.045
_refine_ls_R_factor_all          0.0642
_refine_ls_R_factor_gt           0.0433
_refine_ls_shift/su_max          0.000
_refine_ls_shift/su_mean         0.000
_refine_ls_structure_factor_coef Fsqd
_refine_ls_weighting_details
'w=1/[\s^2^(Fo^2^)+(0.0310P)^2^+0.2519P] where P=(Fo^2^+2Fc^2^)/3'
_refine_ls_weighting_scheme      calc
_refine_ls_wR_factor_gt          0.0867
_refine_ls_wR_factor_ref         0.0970
_reflns_number_gt                2371
_reflns_number_total             2964
_reflns_threshold_expression     'I > 2\s(I)'
_cod_data_source_file            bt4076sup1.cif
_cod_data_source_block           I
_cod_database_code               1550217
_shelx_space_group_comment
;
The symmetry employed for this shelxl refinement is uniquely defined
by the following loop, which should always be used as a source of
symmetry information in preference to the above space-group names.
They are only intended as comments.
;
_shelx_estimated_absorpt_t_min   0.958
_shelx_estimated_absorpt_t_max   0.994
_shelx_hkl_file
;
  -2  -5   4   86.27    4.89   0
  -2  -4   5  434.17    6.58   0
  -2  -3   4  142.93    3.39   0
  -1  -4   8   43.94    6.19   0
  -1  -1   3  174.52    2.88   0
   0  -2  -7    7.81    2.23   0
   1  -4  11   16.01    6.47   0
   1  -3  11   -1.11    6.87   0
   1  -2  10   66.56    4.64   0
   1   0   6    1.52    1.99   0
   2  -3 -11   61.38    5.75   0
   2  -3  12   34.75    8.04   0
   2  -1  10   32.82    5.07   0
   2   0  -7  291.76    4.76   0
   2   0   8  135.75    4.27   0
   2   1  -3  910.28    4.98   0
   2   1   4  721.30    3.70   0
   3  -1  11   72.19    5.73   0
   4   0 -10  405.39    7.12   0
   4   2  -1 2623.21    7.32   0
   4   2   1   88.42    1.24   0
   5   0  11   33.22    6.31   0
   5   1  -9  128.23    4.63   0
   6   0 -12    3.73    6.78   0
   6   1 -10   87.57    6.05   0
   7   1 -11    7.69    5.01   0
   9   1 -12    9.50    7.76   0
   9   3  -3   81.12    4.25   0
  10   2 -10   -6.05    6.17   0
  10   3   2   -2.34    2.06   0
  11   3  -5    3.95    5.89   0
  -2  -5   5   51.09    5.20   0
  -2  -3   5   16.34    3.81   0
  -1  -6   7   37.28    7.84   0
  -1  -5   8   14.54    6.80   0
  -1  -3   8  191.78    6.28   0
   0  -5  10   37.51    9.24   0
   0  -4  -8    6.65    3.09   0
   0  -4  10   -1.94    5.43   0
   0  -3  10  -10.74    6.07   0
   0  -2   9   40.16    5.00   0
   0  -1  -5 1517.87    5.99   0
   0  -1   7   78.09    3.17   0
   0   0   2 3968.58    6.60   0
   1  -1   9  874.63    8.41   0
   2  -4 -11    9.81    5.38   0
   2  -1  -9  561.15    6.66   0
   3  -3 -12   15.41    6.65   0
   4  -3 -13    6.06    8.14   0
   4  -2  13   14.13    8.18   0
   4  -1  12   18.81    6.80   0
   5   0 -11    2.75    5.36   0
   6   2  -6  233.42    5.39   0
   6   2   6   41.19    2.14   0
   7  -1 -14    0.13    9.23   0
   7   1  10   58.60    5.60   0
   9   2  -9   25.38    6.73   0
   9   3  -2   22.64    3.49   0
  10   3  -4   65.31    4.94   0
  -2  -6   0   26.63    3.41   0
  -2  -6   1   29.97    3.74   0
  -2  -6   3   30.92    5.08   0
  -2  -5   6   46.28    5.61   0
  -1  -4   9    6.53    6.34   0
  -1  -2   7  164.38    4.11   0
  -1  -1   4  118.17    3.15   0
   0  -5  -8   -0.80    1.09   0
   1  -1  -7    4.75    2.77   0
   2  -2 -10   52.09    4.33   0
   4   1  -7  141.66    4.48   0
   4   1   8   -0.12    2.85   0
   5   1   9   28.89    4.24   0
   5   2  -4  240.28    3.73   0
   6  -2 -14   38.79    8.76   0
   6  -1 -13   18.34    7.30   0
   7   2  -7  244.99    6.00   0
   8   0 -13   16.58    8.57   0
   8   1 -11    6.04    7.16   0
   8   2  -8    4.35    4.18   0
   9   3  -1   16.71    2.96   0
  10   1 -12   27.54    9.29   0
  10   2  -9   37.19    7.01   0
  10   3  -3   11.77    4.54   0
  10   3   1   63.46    3.22   0
  11   3  -4    2.51    4.82   0
  11   3   2   46.55    2.56   0
  12   3  -4    0.29    5.87   0
  -2  -6  -1   21.95    3.28   0
  -2  -6   4   40.29    5.41   0
  -2  -3   6   64.03    4.50   0
  -2  -2   3  372.07    3.89   0
  -1  -5   9   34.30    8.43   0
  -1  -3   9  167.54    6.50   0
   0  -4  11   46.41    8.57   0
   0   0   3 1561.64    5.23   0
   1  -4  12   42.94    7.21   0
   1  -2  11   98.72    6.68   0
   1   0   7   -4.29    2.89   0
   2  -2  12    3.71    6.48   0
   2   1  -2 1234.24    4.95   0
   3  -4 -12   15.69    5.68   0
   3  -2 -11   18.56    4.86   0
   3  -2  13   23.79    8.60   0
   3  -1 -10  238.16    4.93   0
   3   0  -8  244.01    5.18   0
   3   0  10   65.44    4.88   0
   3   1  -5  300.95    3.84   0
   4  -1 -11   77.93    5.84   0
   5  -2 -13    7.08    7.13   0
   5  -1 -12   70.50    6.69   0
   5  -1  13   32.95    7.76   0
   5   1  -8   25.27    4.50   0
   6   0  12   13.94    6.74   0
   6   1  -9    4.35    4.98   0
   7   0 -12   47.34    7.49   0
   7   1 -10  104.83    6.31   0
   7   2   7   25.11    2.55   0
  10   3  -2   14.05    3.91   0
  10   3  -1   58.98    3.94   0
  11   2  -9   11.57    8.15   0
  11   3  -3    0.16    4.86   0
  11   3   1    4.72    3.46   0
  12   3  -3   11.42    5.29   0
  -2  -6   5   22.38    5.72   0
  -2  -2   4  608.41    5.31   0
  -1  -2  -4  129.52    1.71   0
  -1  -2   8   51.11    4.81   0
  -1  -1   5 1392.34    7.37   0
   0  -3  11   14.69    6.96   0
   0  -2  10  141.36    6.55   0
   0  -1   8   70.59    4.30   0
   1  -3  -9  143.80    4.41   0
   1  -3  12   53.10    6.22   0
   1   0  -4  831.18    4.78   0
   2  -3  13    0.09    6.50   0
   2  -1  11   98.80    5.92   0
   2   0   9  163.78    4.93   0
   3  -1  12   38.44    6.72   0
   3   1   7    9.59    2.39   0
   4  -2 -12   87.53    5.15   0
   4   0  -9  434.08    6.67   0
   4   0  11   66.18    5.75   0
   5   2  -3  500.70    4.82   0
   6   0 -11  176.54    6.94   0
   6   2  -5   25.57    3.59   0
   8   2  -7   40.38    5.23   0
   9   0 -13    0.44    6.87   0
   9   1 -11   13.40    6.04   0
   9   2  -8    3.98    4.33   0
   9   2   8   27.12    3.33   0
  11   3  -2    1.60    4.41   0
  11   3  -1  101.71    4.84   0
  12   3  -2   -2.59    5.00   0
  -2  -6   6   50.74    7.10   0
  -2  -4   8    2.04    5.53   0
  -2  -3   7   33.39    4.61   0
  -1  -4  10    7.69    5.49   0
   0   0   4   31.12    2.17   0
   1  -2  -8   43.62    3.09   0
   1  -1  10  115.99    4.55   0
   2   0  -6  299.08    4.17   0
   4  -1  13   12.93    7.48   0
   4   1  -6   62.18    3.70   0
   5   0 -10  461.43    6.96   0
   5   0  12    4.65    6.47   0
   7  -1 -13   10.25    7.84   0
   7   2  -6  317.36    5.28   0
   8   0 -12   39.53    7.70   0
   8   1 -10   73.21    7.05   0
  10   1 -11    7.51    8.45   0
  10   2  -8   27.93    6.94   0
  -2  -6   7    5.85    7.38   0
  -2  -2   5 1404.73    7.88   0
  -1  -3  10    5.79    5.87   0
  -1  -1   6  203.14    4.25   0
   0  -4  12   30.29    9.01   0
   1  -5  -9   30.84    3.77   0
   1  -3  13   46.14    8.62   0
   1  -2  12   23.95    7.26   0
   2  -3 -10   33.50    4.04   0
   2  -2  13   62.81    8.47   0
   2  -1  -8  162.74    4.37   0
   2   1   5  119.22    2.22   0
   3   1  -4   84.34    2.97   0
   5  -3 -13   12.41    7.33   0
   5   2   5   14.20    1.28   0
   6  -2 -13   28.80    7.39   0
   6  -1 -12   22.09    6.95   0
   7   1  -9   12.34    5.56   0
   9   2  -7   15.91    5.71   0
  11   2  -8    3.41    6.74   0
  -3  -4   2  240.43    3.99   0
  -3  -4   4   48.79    3.92   0
  -2  -6  -2   77.23    2.84   0
  -2  -4   9   31.59    6.84   0
  -2  -3   8   87.86    4.33   0
  -2  -2   6   61.90    4.09   0
  -1  -4  11  108.39    8.91   0
  -1  -2   9  486.23    6.64   0
   0  -3  -7   86.01    2.85   0
   0  -3  12   52.57    8.09   0
   0  -2  -6   65.35    2.68   0
   0  -2  11  402.65    8.35   0
   0  -1   9   -2.37    3.00   0
   0   0   5  290.07    3.61   0
   1  -4  -9    3.09    3.01   0
   1   0   8   27.63    2.76   0
   2  -1  12   34.72    6.49   0
   3  -3 -11   59.04    5.46   0
   3  -1  -9  227.31    5.36   0
   3  -1  13  119.71    7.54   0
   3   0  11  227.80    6.65   0
   4  -3 -12   48.26    6.02   0
   4   1   9   31.05    3.50   0
   5  -1 -11   29.52    5.77   0
   5   1  -7   34.99    3.20   0
   5   1  10   55.44    4.30   0
   5   2  -2  547.06    4.51   0
   6   1  -8  360.96    5.77   0
   6   2  -4   84.54    3.02   0
   7   0 -11   72.45    6.74   0
   7   1  11   80.04    5.55   0
   7   2  -5   29.41    4.09   0
   8  -1 -13    2.70    8.84   0
   8   2  -6   53.23    5.01   0
   9   0 -12   -7.50    8.45   0
   9   1 -10   31.90    6.86   0
  -3  -4   1  115.14    3.14   0
  -3  -4   5  404.50    6.20   0
  -2  -5   9   61.69    6.31   0
  -1  -3  11    7.80    6.88   0
  -1  -1   7    1.40    3.56   0
   1  -1  -6  221.47    3.43   0
   1  -1  11   63.11    4.64   0
   2  -4 -10   45.28    4.71   0
   2  -2  -9   18.55    3.53   0
   2   0  10   89.81    4.54   0
   2   1  -1  862.23    3.51   0
   3  -2 -10   34.56    4.36   0
   3   0  -7 1016.73    7.13   0
   3   1   8  153.43    3.70   0
   4  -2 -11   -0.69    5.45   0
   4  -1 -10   14.47    3.67   0
   4   0  12  107.80    6.57   0
   5  -2 -12   97.10    5.37   0
   6   0 -10   36.56    5.84   0
   8   1  -9  118.46    6.44   0
  10   0 -12    9.16    8.73   0
  10   1 -10   41.33    8.09   0
  10   2  -7    6.52    4.55   0
  11   2  -7    3.07    6.85   0
  -3  -5   1   79.37    3.21   0
  -3  -3   3  129.39    3.32   0
  -3  -3   4    5.88    3.20   0
  -2  -5  10   25.03    8.21   0
  -2  -4  10   52.51    7.77   0
  -2  -2   7  163.16    4.15   0
  -1  -4  12    1.84    8.55   0
  -1  -2  10   -2.28    5.59   0
   0  -1  -4  867.79    4.09   0
   0  -1  10   69.41    5.34   0
   0   0   6  149.66    3.32   0
   1  -2  13    6.15    7.75   0
   2  -2  14   17.81    9.39   0
   2   1   6   70.41    2.35   0
   3  -4 -11    2.24    5.06   0
   4   0  -8  292.77    4.98   0
   4   1  -5   18.38    3.17   0
   5   0  -9  216.30    4.96   0
   5   0  13   71.51    7.14   0
   5   2  -1   88.53    2.62   0
   6  -3 -13   -1.86    8.06   0
   6   1  11    0.63    4.71   0
   6   2  -3  178.85    3.78   0
   7  -2 -13   21.22    8.75   0
   7  -1 -12   95.24    7.52   0
   8   0 -11    8.14    7.07   0
   9  -1 -13    3.91    7.34   0
   9   2  -6   21.28    5.38   0
  11   1 -10    2.68    8.72   0
  12   2  -7    7.48    7.32   0
  -3  -6   4   91.14    5.87   0
  -3  -6   5   19.59    6.14   0
  -3  -4   7  103.85    5.86   0
  -3  -3   2   33.57    2.48   0
  -2  -2   8   56.43    4.68   0
  -1  -1   8   -0.16    4.14   0
   0  -3  13   23.91    6.62   0
   0  -2  12   43.92    5.24   0
   1   0   9  198.77    4.26   0
   2  -1  13   35.76    6.87   0
   2   0  -5   20.91    2.62   0
   5   1  -6   87.18    4.08   0
   6  -1 -11   41.21    5.99   0
   6   1  -7  120.95    4.97   0
   7   1  -8   90.20    4.31   0
   7   2  -4  208.78    4.73   0
   7   2   8   49.32    3.01   0
   8   2  -5   27.78    4.23   0
   9   1  -9   29.13    6.64   0
  10   2  -6   32.93    5.90   0
  -3  -6   6    9.24    6.75   0
  -3  -5   0  279.85    3.88   0
  -3  -4   0   38.27    2.28   0
  -3  -4   8   29.39    6.24   0
  -3  -3   6  265.75    4.83   0
  -2  -4  11    6.42    8.12   0
  -1  -3  12   32.56    5.92   0
  -1  -2  11   85.60    6.63   0
   0  -5  -7   24.81    2.52   0
   0   0   7  251.12    4.52   0
   1  -3  -8  174.01    3.92   0
   1  -1  12  124.57    5.40   0
   1   0  -3    1.84    1.32   0
   2  -1  -7  307.45    4.67   0
   2   0  11  200.80    6.14   0
   3  -1  14   38.88    8.85   0
   3   0  12  311.76    7.63   0
   3   1  -3  920.60    5.21   0
   4   1  10  193.04    4.97   0
   5  -3 -12   29.29    6.48   0
   6  -2 -12   -6.87    6.67   0
   7   0 -10   61.66    4.99   0
   8  -2 -13   22.74    9.49   0
   8  -1 -12   -1.26    7.55   0
   9   0 -11   24.99    5.88   0
  10   1  -9   86.63    7.55   0
  11   2  -6   31.86    6.52   0
  12   2  -6    1.82    7.34   0
  -3  -6   1   18.79    4.06   0
  -3  -6   7   52.25    7.26   0
  -3  -3   7   10.91    3.52   0
  -2  -2   9   19.82    4.94   0
  -1  -1   9  283.38    6.00   0
   0  -2  13    1.88    7.18   0
   0  -1  11   96.67    6.15   0
   1  -2  -7  164.43    3.50   0
   1  -2  14   19.30    9.18   0
   2   1   7    5.62    2.42   0
   3  -1  -8  148.87    4.44   0
   3   1   9  297.74    4.87   0
   4  -1  -9  107.99    5.04   0
   4   0  13   -2.44    6.40   0
   5  -4 -12   69.99    7.08   0
   5  -2 -11   38.00    6.10   0
   5  -1 -10   32.66    4.02   0
   5   1  11   11.72    4.68   0
   5   2   6  123.97    2.00   0
   6   0  -9    4.81    4.94   0
   6   2  -2   87.34    3.32   0
   8   1  -8  333.93    7.32   0
   9  -1 -12    8.49    8.28   0
   9   2  -5   31.13    4.64   0
  10   0 -11    7.43    7.86   0
  11   0 -11   -3.95    8.92   0
  11   1  -9   43.39    8.54   0
  12   1  -9   53.48    9.60   0
  -3  -5   9   58.40    6.25   0
  -2  -4  12   14.04    9.01   0
  -2  -3  11   64.36    5.87   0
  -1  -3  13   14.51    8.69   0
   0   0   8  322.22    5.27   0
   1   0  10   30.36    3.33   0
   2  -3  -9  219.60    4.82   0
   3  -3 -10  120.14    5.09   0
   3   0  -6   13.77    2.24   0
   4  -2 -10   64.89    5.33   0
   4   0  -7   47.54    4.01   0
   5   0  -8   31.39    4.57   0
   6   1  12   28.87    5.92   0
   7  -2 -12   99.71    8.43   0
   7  -1 -11   16.33    6.99   0
   7   1  -7  805.92    8.59   0
   7   2  -3    1.64    3.20   0
   8   0 -10    4.50    4.64   0
   8   2  -4   41.35    4.02   0
   9   1  -8   86.97    6.16   0
  10   2  -5   12.84    5.45   0
  11   2  -5   17.30    5.54   0
  12   2  -5   -0.74    6.29   0
  -3  -5  10   29.12    9.19   0
  -3  -4  10   28.07    7.25   0
  -3  -3   9   89.30    6.36   0
  -2  -2  10   53.30    5.95   0
  -2  -1   5  144.22    3.59   0
  -1  -2  12    1.29    5.16   0
  -1  -1  10  387.28    7.13   0
   1  -1  13   53.56    5.60   0
   2  -2  -8   76.47    3.01   0
   2  -1  14   -3.18    6.02   0
   2   0  12   52.04    6.06   0
   3  -2  -9   17.98    4.08   0
   3   0  13   35.72    6.74   0
   4  -4 -11   16.28    5.97   0
   4   1  -4  393.11    4.09   0
   6  -3 -12   68.89    7.69   0
   6   1  -6   -0.61    4.03   0
   8   2   9   13.60    3.34   0
   9   0 -10   -1.39    7.06   0
  10  -1 -12   31.92    7.38   0
  10   1  -8   -2.87    6.27   0
  -3  -2   4  551.22    5.28   0
  -3  -2   5  807.85    6.73   0
  -3  -2   6   61.55    4.17   0
  -2  -3  12    2.21    5.76   0
  -2  -1   4  501.90    4.28   0
  -2  -1   6  524.92    5.52   0
   0  -2  14   -1.48    8.69   0
   0  -1  12  129.73    5.47   0
   0   0   9  308.17    5.54   0
   1  -1  -5 1519.21    6.49   0
   1   0  11   56.54    5.43   0
   2  -4  -9   29.87    3.86   0
   2   1   8  285.02    4.24   0
   3   1  10    5.23    3.92   0
   4   1  11   40.70    4.51   0
   5   1  -5  146.82    3.48   0
   6  -2 -11   -1.09    6.73   0
   6  -1 -10   89.93    5.05   0
   7   0  -9  247.12    6.02   0
   8  -2 -12   11.21    8.73   0
   8  -1 -11   -5.54    6.91   0
   8   1  -7   26.16    5.26   0
   9   2  -4  145.80    5.03   0
  10   0 -10  -13.08    8.19   0
  12   1  -8   -5.65    8.57   0
  -4  -5   4   36.23    4.37   0
  -4  -5   5   76.49    5.44   0
  -4  -5   6  107.88    6.38   0
  -4  -5   7    7.56    6.42   0
  -4  -4   5   13.04    4.12   0
  -3  -5  -1    9.79    2.13   0
  -3  -3  10  115.96    5.60   0
  -3  -2   7   56.95    4.56   0
  -2  -2  11   94.90    6.80   0
  -2  -1   3  974.30    5.00   0
  -2  -1   7  374.48    4.95   0
  -1  -4  -5    9.02    1.42   0
  -1  -2  13    8.91    7.66   0
   0  -3  -6   53.79    2.33   0
   0  -2  -5 1380.65    5.65   0
   1  -1  14    2.37    7.45   0
   2   0  -4 1522.68    6.58   0
   3   1  -2  343.75    3.19   0
   5  -3 -11   24.14    5.72   0
   5  -1  -9  123.30    5.53   0
   5   1  12   12.30    5.23   0
   6   0  -8   -0.14    4.65   0
   6   2  -1  110.07    2.77   0
   7  -3 -12   60.38    7.88   0
   7   2   9    4.34    3.04   0
   8   2  -3  207.04    4.70   0
   9  -1 -11    9.01    8.26   0
  10   2  -4    3.07    4.63   0
  11   0 -10   32.66    8.20   0
  11   2  -4   33.52    5.88   0
  12   2  -4   81.90    6.87   0
  -4  -6   6    4.89    7.29   0
  -4  -5   3    6.72    3.61   0
  -4  -5   8   28.64    7.37   0
  -4  -4   3   45.90    3.75   0
  -4  -4   8   52.54    6.50   0
  -3  -3   0   99.76    2.04   0
  -3  -2   3  929.66    5.46   0
  -3  -2   8   13.38    4.48   0
  -2  -3  13   25.17    8.34   0
  -2  -1   8  148.63    4.88   0
  -1  -5  -5  120.09    1.84   0
  -1  -1  11   23.14    4.37   0
   0  -6  -6   33.73    3.00   0
   0  -1  13   28.71    6.83   0
   0   0  10   44.43    4.52   0
   2   0  13    3.94    6.37   0
   2   1   9  118.51    3.92   0
   4  -3 -10   39.80    5.25   0
   4  -1  -8  129.39    4.64   0
   5  -2 -10  104.43    6.34   0
   5   2   7  142.87    2.38   0
   7  -1 -10   81.08    6.70   0
   7   1  -6  103.42    4.88   0
   7   2  -2   93.16    3.26   0
   8   0  -9   49.94    4.83   0
   9  -2 -12    8.65    7.27   0
   9   1  -7   24.25    5.60   0
   9   2  -3  274.39    5.35   0
  10  -1 -11   -2.83    9.15   0
  -4  -6   4    9.76    5.21   0
  -4  -6   5    5.37    5.64   0
  -4  -5   9    1.58    7.32   0
  -4  -3   6   -3.66    3.97   0
  -3  -4  -1  104.45    1.93   0
  -3  -2   9   31.49    5.12   0
  -2  -2  12    6.42    6.51   0
  -2  -1   2 1251.61    5.02   0
  -2  -1   9  617.62    7.69   0
  -1  -2  14   40.61    8.26   0
  -1   0   5  228.83    3.59   0
  -1   0   6  226.39    3.87   0
   1   0  12   -6.42    5.66   0
   2  -1  -6  489.50    4.52   0
   3  -1  -7  125.91    4.18   0
   3   0  -5 1208.42    6.90   0
   3   0  14   97.13    6.17   0
   3   1  11   72.23    4.52   0
   4   0  -6  192.26    4.27   0
   4   1  12   17.70    4.88   0
   5  -4 -11   42.70    6.31   0
   5   0  -7  355.64    5.17   0
   6   1  -5   28.53    3.56   0
   7  -2 -11   -1.36    5.16   0
   9   0  -9   28.69    6.95   0
  10   1  -7   67.19    6.10   0
  10   2  -3   18.85    4.49   0
  11   1  -7   61.34    7.32   0
  11   2  -3   22.21    5.84   0
  12   1  -7   -3.82    8.09   0
  12   2  -3    2.05    5.88   0
  -4  -6   3    2.63    5.19   0
  -4  -5   2   73.86    3.93   0
  -4  -5  10    3.13    8.76   0
  -4  -4  10   -4.04    7.20   0
  -4  -3   5  215.95    4.16   0
  -4  -3   7  154.72    4.64   0
  -4  -3   8   22.47    5.59   0
  -3  -2   2  418.82    3.62   0
  -3  -2  10   39.96    5.94   0
  -1  -1  12   36.65    4.77   0
  -1   0   4  865.97    4.92   0
  -1   0   7   90.34    3.82   0
   1  -3  -7   19.04    2.70   0
   1   1   4  483.03    2.93   0
   1   1   5  185.52    2.49   0
   1   1   6   58.99    2.40   0
   3  -3  -9   85.36    4.47   0
   4  -2  -9   34.73    3.51   0
   4   1  -3  428.34    4.22   0
   5   1  -4  234.00    4.28   0
   6  -3 -11    3.54    6.48   0
   6  -1  -9   -4.11    4.94   0
   7   0  -8   63.41    4.38   0
   8  -2 -11   63.97    7.82   0
   8  -1 -10   83.49    7.50   0
   8   1  -6   -2.69    4.90   0
   8   2  -2   41.05    3.50   0
  10   0  -9   42.60    7.39   0
  11   0  -9   29.43    8.13   0
  12   0  -9   16.72    9.53   0
  -4  -4   2  280.77    4.09   0
  -4  -3   4   39.93    2.66   0
  -4  -3   9   37.96    6.18   0
  -2  -2  13    4.38    7.32   0
  -2  -1  10  138.71    4.66   0
  -1   0   8  130.46    4.36   0
   0  -1  -3 2276.41    5.40   0
   0  -1  14   54.90    6.16   0
   0   0  11   96.02    4.48   0
   1  -6  -7   43.70    4.27   0
   1  -2  -6   86.12    2.77   0
   1   0  -2 9999.99   11.19   0
   1   0  13   19.61    6.11   0
   1   1   7  157.31    3.29   0
   2  -2  -7  162.67    4.05   0
   2   0  14  166.75    8.58   0
   2   1  10   29.55    3.97   0
   3  -2  -8   28.39    3.95   0
   4  -5 -10    1.19    6.21   0
   4  -4 -10    1.61    5.06   0
   5   2   8  167.50    3.19   0
   6  -2 -10   91.90    6.70   0
   6   2   0  128.32    2.48   0
   6   2   9   24.84    2.83   0
   7   2  -1   11.86    2.49   0
   9  -1 -10   32.97    7.76   0
   9   1  -6  102.88    5.66   0
  12   2  -2  107.42    6.56   0
  13   1  -6    4.27    7.87   0
  -4  -3   3  234.25    3.97   0
  -4  -3  10   31.82    6.78   0
  -3  -3  13    8.82    8.17   0
  -3  -2  11   19.48    4.83   0
  -2  -1  11  108.40    6.36   0
  -1  -1  13   85.90    7.18   0
  -1   0   9   40.78    4.32   0
   1   1   8   33.70    3.12   0
   3  -4  -9   13.60    4.27   0
   3   1  12   40.57    5.09   0
   5  -3 -10   26.47    5.94   0
   5  -1  -8   49.47    4.63   0
   5   2   2  902.91    3.30   0
   6  -4 -11    1.06    6.71   0
   6   0  -7  155.20    4.33   0
   7  -3 -11   49.19    7.62   0
   7   1  -5  140.02    4.75   0
   7   2  10   30.97    3.63   0
   8   0  -8   21.18    4.32   0
   9  -2 -11   30.18    6.74   0
   9   2  -2  132.11    4.24   0
  10  -1 -10   35.17    8.40   0
  10   1  -6   70.74    6.27   0
  10   2  -2   82.06    4.74   0
  11  -1 -10    3.77    8.58   0
  11   1  -6   10.81    6.74   0
  11   2  -2   19.09    4.81   0
  12   1  -6   35.48    7.33   0
  -4  -4  12   48.84    9.39   0
  -4  -3  11   51.22    7.69   0
  -3  -6  -1   17.73    2.49   0
  -3  -2  12   38.03    7.21   0
  -2  -2  14   96.80    8.82   0
  -1  -2  -3  978.88    2.88   0
  -1   0   3    5.44    1.42   0
   0  -4  -6  276.62    3.44   0
   0  -1  15   -7.63    8.85   0
   0   0  12  189.49    6.48   0
   2  -4  -8    1.85    3.89   0
   2   1  11  114.43    5.01   0
   3  -5  -9   55.36    5.38   0
   4   1  13   15.93    5.84   0
   5  -2  -9  128.02    5.64   0
   7  -2 -10    3.96    6.60   0
   7  -1  -9   23.83    4.46   0
   8   2  -1   76.00    3.71   0
   9   0  -8   17.92    4.77   0
  10  -2 -11   37.83    7.52   0
  10   0  -8   39.90    6.73   0
  -5  -5   6   35.67    6.14   0
  -5  -5   7   16.70    6.53   0
  -5  -5   9    7.82    7.73   0
  -5  -4   7   75.91    6.16   0
  -4  -3  12   48.08    8.15   0
  -4  -2   7  266.89    5.78   0
  -4  -2   8   22.27    4.58   0
  -3  -1   7  144.79    4.79   0
  -2  -1  12  119.97    6.77   0
  -1  -1  14   11.58    8.02   0
  -1   0  10   38.59    3.64   0
   0  -5  -6   57.86    2.83   0
   1  -4  -7    3.33    2.77   0
   1   0  14  108.66    7.92   0
   1   1   3  585.32    2.56   0
   1   1   9  799.97    6.85   0
   2  -5  -8   19.22    4.03   0
   4  -3  -9   41.10    5.03   0
   4  -1  -7  154.22    4.66   0
   5  -4 -10   74.88    6.55   0
   5   0  -6  461.28    5.42   0
   6   1  -4  223.04    4.58   0
   7   0  -7   48.86    4.99   0
   8  -3 -11   21.25    6.61   0
   8  -1  -9  133.62    7.07   0
   8   1  -5  128.30    5.18   0
  11   0  -8  286.29    7.78   0
  12   0  -8   -1.99    6.30   0
  12   2  -1    6.90    5.34   0
  13   1  -5   31.62    8.15   0
  -5  -5   5   29.34    5.02   0
  -5  -4   5   22.31    4.01   0
  -5  -4   6   20.30    4.62   0
  -5  -4   9   68.74    6.80   0
  -5  -4  10   71.97    7.70   0
  -4  -4   1   32.47    2.48   0
  -4  -2   5  111.57    3.97   0
  -4  -2   6  386.39    5.19   0
  -4  -2   9   35.73    5.43   0
  -3  -2   1   11.81    1.76   0
  -3  -2  13    6.01    7.49   0
  -3  -1   5  319.15    4.48   0
  -3  -1   6  503.45    5.16   0
  -3  -1   8  147.26    4.15   0
  -3  -1   9  264.94    6.22   0
  -1  -3  -4  925.37    3.61   0
  -1   0  11  150.05    6.06   0
   0   0  13   64.39    6.90   0
   1  -5  -7   28.75    3.08   0
   1  -1  -4  114.62    2.38   0
   1   1  10  119.04    4.31   0
   3  -1  -6  576.25    5.60   0
   3   1  -1 1729.33    5.40   0
   3   1  13  110.74    6.02   0
   4   0  -5  224.20    4.08   0
   4   2   6  251.38    2.25   0
   5   1  -3  257.11    3.93   0
   5   2   9  162.48    3.45   0
   6  -3 -10   57.15    6.17   0
   6  -1  -8  370.56    7.01   0
   6   2  10   58.49    3.42   0
   7   2   0   51.13    2.40   0
   8  -2 -10   21.97    7.01   0
   9  -3 -11   13.39    9.23   0
   9  -1  -9   54.30    7.62   0
   9   1  -5  110.72    5.69   0
   9   2  -1   92.30    3.96   0
  10   2  -1   23.35    4.01   0
  12   1  -5    5.65    6.85   0
  -5  -6   5   32.31    6.36   0
  -5  -5   4   42.62    4.11   0
  -5  -4  11   47.52    9.25   0
  -4  -3  13   12.66    8.59   0
  -4  -2  10   90.85    5.10   0
  -3  -1  10  242.14    6.83   0
  -2  -1   1  866.85    3.53   0
  -2  -1  13   21.26    5.33   0
  -1  -1  15   21.37    9.15   0
   2  -1  -5  148.03    3.21   0
   2   0  -3   -0.73    1.41   0
   2   1  12   32.07    4.81   0
   3  -3  -8   44.66    4.12   0
   3   0  -4    4.90    2.50   0
   4  -2  -8   28.48    3.22   0
   4   1  -2  398.32    3.65   0
   4   2   7   85.66    2.14   0
   6  -2  -9  283.12    7.38   0
   8   0  -7  538.23    7.22   0
   9  -2 -10    8.50    7.60   0
  10  -2 -10    3.72    8.49   0
  10  -1  -9   76.24    7.79   0
  10   1  -5    5.53    3.87   0
  11  -1  -9   51.95    9.09   0
  11   1  -5   29.45    4.45   0
  12  -1  -9   61.20    9.42   0
  -5  -4   4  261.42    5.08   0
  -5  -3   6   96.16    4.64   0
  -5  -3   7  107.00    5.27   0
  -5  -3   8   -2.33    4.06   0
  -5  -3   9    3.84    5.77   0
  -5  -3  10   17.74    6.36   0
  -4  -6   1   16.33    3.41   0
  -4  -2   4  181.59    3.89   0
  -4  -2  11    9.04    4.76   0
  -3  -2  14    5.14    6.04   0
  -3  -1   4   93.97    3.04   0
  -3  -1  11    3.69    5.84   0
  -1   0  12   13.62    5.44   0
   0   0  14   53.87    7.38   0
   1   0  15    6.74    7.89   0
   1   1  11   44.74    4.72   0
   3  -2  -7   51.66    3.71   0
   4  -5  -9    5.67    5.43   0
   4  -4  -9   31.81    5.17   0
   4   2   8  145.49    2.87   0
   6  -4 -10   26.02    7.15   0
   6   0  -6   88.68    3.65   0
   7  -3 -10   45.13    6.91   0
   7  -1  -8   97.36    6.19   0
   7   1  -4   87.79    3.37   0
   8   2   0  328.28    4.38   0
   9   0  -7  302.12    6.45   0
  10   0  -7  200.34    7.78   0
  11   0  -7   14.22    7.22   0
  11   2   0   42.02    4.55   0
  12   0  -7    7.77    7.78   0
  13   1  -4   19.82    7.70   0
  -5  -6   4   10.29    4.98   0
  -5  -3  11    8.05    7.81   0
  -4  -2  12   83.38    6.19   0
  -3  -1  12   65.38    6.65   0
  -2  -1  14   20.40    5.95   0
  -2   0   6  338.73    4.57   0
  -2   0   7  318.32    4.42   0
  -2   0   8   72.92    3.24   0
  -2   0   9   12.95    4.29   0
   2  -3  -7   32.21    3.32   0
   2   1  13   22.75    5.99   0
   3   1  14   26.45    6.84   0
   5  -3  -9    3.16    3.68   0
   5  -1  -7   37.74    4.32   0
   5   2  10   97.78    3.70   0
   7  -2  -9   72.60    6.88   0
   8  -3 -10   30.68    8.40   0
   8   1  -4   27.73    4.27   0
   9   2   0  108.05    3.80   0
  10   2   0   32.10    3.93   0
  12   1  -4    5.58    6.78   0
  12   2   1   83.98    5.17   0
  -5  -3   5  580.27    6.10   0
  -5  -3  12   38.90    8.88   0
  -4  -2  13   20.78    8.16   0
  -2  -1  15   10.32    8.54   0
  -2   0  10   39.52    4.81   0
  -1   0   2 9739.03   11.16   0
  -1   0  13    1.12    4.50   0
   0   0  15   10.95    7.86   0
   0   1   6  185.41    3.08   0
   0   1   7  125.48    2.82   0
   0   1   8   69.15    3.36   0
   0   1   9   -3.08    3.55   0
   1  -3  -6  452.90    4.49   0
   1   1  12  129.96    5.96   0
   2  -2  -6   66.33    3.32   0
   4   2   9    2.39    2.89   0
   5  -2  -8    7.98    4.74   0
   5   0  -5   -3.24    3.25   0
   6   1  -3  233.75    4.27   0
   6   2  11    5.90    3.66   0
   7  -4 -10   48.66    7.89   0
   7   0  -6   -5.09    4.21   0
   8  -2  -9  136.95    7.56   0
   8  -1  -8  327.42    6.83   0
   9  -3 -10   37.32    9.12   0
   9   1  -4  293.65    6.10   0
  10   1  -4  232.63    6.55   0
  11   1  -4   15.72    5.55   0
  12  -1  -8   27.96    8.77   0
  13   0  -6   11.53    9.00   0
  -6  -5   8    9.36    7.43   0
  -6  -5   9    2.36    8.28   0
  -5  -4   3  111.04    3.75   0
  -5  -3  13   13.53    9.28   0
  -4  -2   3  186.67    3.51   0
  -4  -2  14   33.50    8.64   0
  -3  -1  13   24.54    5.61   0
  -2   0   5   26.07    2.03   0
  -2   0  11   55.52    5.66   0
   0  -2  -4  752.10    3.82   0
   0   1  10   70.84    4.30   0
   1  -2  -5  377.68    3.78   0
   2  -6  -7    8.04    5.05   0
   3  -5  -8    3.33    4.56   0
   4  -3  -8   36.55    4.29   0
   4  -1  -6   55.33    3.91   0
   5  -4  -9   71.71    6.34   0
   6  -3  -9    8.20    6.16   0
   6  -1  -7  104.65    5.09   0
   8  -4 -10   -1.48    8.72   0
   8   0  -6  209.72    6.12   0
   9  -2  -9   27.82    7.92   0
   9  -1  -8   97.99    5.62   0
  10  -1  -8   17.04    7.15   0
  11  -1  -8  121.07    8.48   0
  11   2   1    8.01    4.04   0
  12   0  -6   -6.54    7.68   0
  12   2   2    4.54    4.56   0
  13   1  -3   22.68    6.85   0
  -6  -5   7   99.41    6.76   0
  -6  -4   9    2.01    5.12   0
  -6  -4  10   35.89    7.73   0
  -6  -4  11    9.76    9.14   0
  -5  -6   3   18.43    4.26   0
  -5  -3   4   51.09    3.45   0
  -5  -2   8   15.74    5.28   0
  -5  -2   9  132.74    6.14   0
  -5  -2  10  146.64    7.09   0
  -4  -5   0   50.52    2.24   0
  -4  -3   1  264.49    3.19   0
  -4  -1   8  147.48    5.40   0
  -4  -1   9  146.34    5.81   0
  -4  -1  10   32.19    5.45   0
  -3  -1   3  900.33    5.07   0
  -3  -1  14   76.37    8.61   0
  -2  -4  -3  128.56    1.17   0
  -2   0  12   41.79    6.12   0
  -1   0  14    1.88    5.34   0
   0   1   5 1544.91    6.10   0
   1   1  13   72.44    6.21   0
   2   1  14    8.91    6.41   0
   4   2  10   95.51    3.84   0
   5  -5  -9   11.43    6.50   0
   5   2   3   23.29    1.06   0
   5   2  11    9.73    3.75   0
   6  -2  -8   40.88    5.40   0
   6   2   2  108.27    2.11   0
   7   1  -3   27.62    3.53   0
   8   2   1   50.91    3.06   0
   9   0  -6   54.19    5.69   0
   9   2   1   91.28    3.91   0
  10  -2  -9   42.51    6.69   0
  10   0  -6  133.06    6.82   0
  10   2   1  148.60    4.38   0
  11  -2  -9   13.46    7.00   0
  11   0  -6   -4.16    6.21   0
  12   1  -3   49.76    6.56   0
  -6  -5   6   17.95    5.30   0
  -6  -4   6   95.74    5.59   0
  -5  -2   7  405.17    5.81   0
  -5  -2  11   41.65    5.23   0
  -5  -2  12  101.27    7.78   0
  -4  -1   7  151.45    4.06   0
  -4  -1  11   86.16    6.55   0
  -3  -3  -1  118.43    1.43   0
  -2   0  13   -2.52    5.94   0
   0   1  11   86.63    3.87   0
   1  -6  -6   34.89    4.13   0
   2  -4  -7   19.08    3.57   0
   4  -2  -7  279.48    5.52   0
   4   0  -4   17.99    2.19   0
   5   1  -2   41.83    1.92   0
   6  -4  -9   -4.18    6.10   0
   6   0  -5   64.60    4.24   0
   7  -3  -9   19.46    6.21   0
   7  -1  -7  878.28    9.26   0
  11   1  -3   14.92    5.68   0
  11   2   2   60.64    4.60   0
  12   2   3   24.15    4.41   0
  13   0  -5   -5.82    7.69   0
  13   1  -2    0.96    6.42   0
  -6  -3   8    7.51    5.82   0
  -6  -3   9    3.79    5.81   0
  -6  -3  10   57.88    7.07   0
  -6  -3  11    2.85    7.83   0
  -5  -2   6  308.60    4.98   0
  -5  -2  13   15.36    8.09   0
  -4  -4   0   59.73    1.99   0
  -4  -1   6   50.77    3.01   0
  -4  -1  12   -2.09    6.38   0
  -3  -1  15   38.77    9.06   0
  -2   0   4 1593.74    6.62   0
  -1  -6  -4    9.55    2.28   0
  -1   0  15    3.39    6.17   0
   0  -6  -5   74.59    3.59   0
   0   1  12  167.70    6.02   0
   1   1  14    6.12    6.25   0
   3  -3  -7   12.07    3.46   0
   3  -1  -5  317.60    4.27   0
   3   2   7  147.86    2.52   0
   3   2   8   85.96    2.76   0
   4  -4  -8   48.89    5.19   0
   4   2  11   -0.48    3.80   0
   6  -5  -9   -0.26    7.75   0
   7  -2  -8   30.60    5.80   0
   8  -3  -9   14.21    7.48   0
   8  -1  -7   35.25    5.89   0
   8   1  -3   39.33    3.09   0
   9   1  -3   29.94    4.29   0
  10   1  -3   17.91    4.88   0
  12  -1  -7   21.62    8.51   0
  -6  -4   5   45.00    4.50   0
  -6  -3   7   40.89    5.37   0
  -6  -3  12   76.96    8.68   0
  -5  -4   2  383.22    4.48   0
  -5  -3   3  654.28    5.69   0
  -5  -2   5  202.19    4.78   0
  -5  -2  14   38.44    9.15   0
  -4  -1  13   45.20    7.66   0
  -3   0   8  263.69    5.55   0
  -3   0   9  704.85    7.77   0
  -3   0  10  254.09    6.39   0
  -2   0  14   18.23    7.50   0
   1  -4  -6   37.24    2.86   0
   3   0  -3  306.29    3.55   0
   3   2   9    9.45    2.38   0
   4  -5  -8   23.83    5.85   0
   4   1  -1  828.21    4.44   0
   5  -3  -8   -3.30    3.45   0
   5  -1  -6   93.04    3.50   0
   5   2  12   30.24    4.46   0
   7  -4  -9    9.48    7.25   0
   7   0  -5  234.58    5.40   0
   8  -2  -8   22.98    6.57   0
   9  -3  -9   11.25    6.34   0
   9  -1  -7   34.47    6.19   0
  10  -3  -9   -4.89    8.38   0
  10  -1  -7   68.74    7.50   0
  10   2   2   43.33    3.44   0
  11  -2  -8   -0.96    8.47   0
  11  -1  -7   73.61    6.47   0
  11   0  -5   77.50    6.60   0
  11   2   3   25.73    4.25   0
  12   0  -5   13.27    5.54   0
  12   1  -2   35.86    6.32   0
  -6  -3   6   36.82    4.60   0
  -6  -3  13   -4.91    7.13   0
  -5  -6   2    3.22    3.77   0
  -4  -6   0   55.14    2.65   0
  -4  -2   2  101.55    2.58   0
  -4  -1   5   20.69    2.45   0
  -4  -1  14  134.28    9.40   0
  -3   0   7 1031.35    7.77   0
  -3   0  11   21.89    4.11   0
  -3   0  12   31.55    5.97   0
  -1   1   8    3.60    3.32   0
  -1   1   9  293.04    5.40   0
  -1   1  10  447.70    6.52   0
   0   1   4  890.48    4.16   0
   0   1  13   36.22    5.86   0
   1  -5  -6    1.65    3.10   0
   3  -2  -6   60.02    3.66   0
   3   2   6  134.82    1.99   0
   3   2  10  105.35    3.58   0
   5  -2  -7  402.86    6.66   0
   6   1  -2   63.16    3.08   0
   8  -4  -9   53.38    8.85   0
   8   0  -5    5.99    4.45   0
   9  -2  -8   -1.79    5.61   0
   9   0  -5  179.22    6.26   0
  10  -2  -8   27.24    6.18   0
  10   0  -5   92.35    6.31   0
  13  -1  -6   17.37    9.92   0
  13   0  -4   48.89    7.89   0
  13   1  -1   22.79    7.11   0
  -7  -4  10   55.03    8.28   0
  -6  -5   4   45.99    4.43   0
  -4  -1  15   47.29    9.00   0
  -3   0   6   18.80    3.12   0
  -3   0  13  130.25    7.17   0
  -2   0  15  -14.00    8.05   0
  -1   1   7    4.90    2.83   0
  -1   1  11   22.61    4.70   0
   0  -4  -5  125.23    2.55   0
   0   1  14   81.47    6.83   0
   2  -1  -4  474.61    3.78   0
   3  -6  -7   39.97    5.81   0
   3   2  11   17.77    4.10   0
   4   2  12   12.72    3.94   0
   5  -4  -8    1.98    5.54   0
   5   0  -4   41.54    2.52   0
   6  -3  -8   25.62    4.41   0
   6  -1  -6    9.16    4.52   0
  11   1  -2    3.08    3.95   0
  12  -1  -6   46.57    8.18   0
  -7  -5   8   44.77    7.53   0
  -7  -4   8   26.01    6.82   0
  -7  -4   9    2.71    5.46   0
  -6  -3   5  116.62    4.59   0
  -6  -2   8   56.67    5.41   0
  -6  -2   9  291.53    7.47   0
  -6  -2  10   61.29    5.20   0
  -6  -2  11   64.38    5.69   0
  -6  -2  12   15.38    7.66   0
  -5  -2   4  223.83    4.37   0
  -5  -1   9  116.91    5.79   0
  -5  -1  10   21.81    4.40   0
  -5  -1  11   26.67    6.51   0
  -5  -1  12   89.65    7.29   0
  -3  -2   0  791.12    3.26   0
  -3  -1   2  343.06    2.97   0
  -1  -4  -4  129.50    2.02   0
  -1   1  12   42.77    5.72   0
   0  -5  -5  180.94    3.61   0
   2   0  -2  212.00    2.26   0
   3  -5  -7    4.95    5.37   0
   3  -4  -7   99.62    4.65   0
   4  -3  -7  154.98    5.12   0
   4  -1  -5   16.29    3.08   0
   5  -5  -8   68.44    6.46   0
   6  -2  -7   24.34    5.13   0
   7  -3  -8   -0.05    6.20   0
   7  -1  -6  115.48    5.33   0
   7   1  -2  679.18    5.75   0
   8   1  -2   53.34    3.95   0
   9   1  -2  192.38    5.06   0
  10   1  -2   53.52    3.66   0
  10   2   3   21.96    3.65   0
  11  -1  -6    6.10    7.11   0
  12  -2  -7    0.61    9.25   0
  12   0  -4   51.74    7.57   0
  12   1  -1   29.61    6.19   0
  -7  -5   7   79.90    6.61   0
  -7  -3  10   54.51    7.15   0
  -7  -3  11   60.40    8.35   0
  -6  -2  13   20.68    8.39   0
  -5  -1   8   48.54    3.73   0
  -5  -1  13  -20.59    7.81   0
  -4  -1   4  380.93    4.20   0
  -3   0  14   15.59    5.67   0
  -2  -5  -3  203.34    1.86   0
  -2   0   3    1.31    1.52   0
  -1   1   6  224.01    3.64   0
  -1   1  13   72.52    6.41   0
   0   1  15   -0.84    6.97   0
   1  -1  -3  165.85    2.34   0
   2  -2  -5 1398.09    7.25   0
   2   1   1 1264.33    2.30   0
   2   2   9   31.99    3.24   0
   3   2  12  117.08    5.06   0
   6  -4  -8    4.17    6.15   0
   6   0  -4   28.73    3.84   0
   7  -2  -7  256.52    6.98   0
   8  -3  -8   93.21    7.18   0
   8  -1  -6   -0.05    5.19   0
   9  -3  -8   -5.87    7.96   0
   9  -1  -6   88.07    6.53   0
  10  -3  -8   31.90    8.96   0
  10  -1  -6   60.70    7.29   0
  11  -3  -8   15.73    7.74   0
  11  -2  -7    4.78    8.48   0
  11   0  -4   58.19    6.54   0
  13   1   0   52.71    7.07   0
  -7  -3   9   16.66    6.25   0
  -7  -3  12   52.11    7.30   0
  -6  -5   3   58.43    4.31   0
  -6  -2   7   33.33    3.74   0
  -6  -2  14   46.79    7.74   0
  -5  -3   2  893.42    5.74   0
  -5  -1   7   52.69    3.47   0
  -5  -1  14   93.91    9.31   0
  -4   0  10  458.12    7.69   0
  -4   0  11  148.58    6.60   0
  -3   0   5 1263.64    7.23   0
  -3   0  15   10.58    9.09   0
  -1  -5  -4   64.35    2.31   0
  -1   1  14   -4.47    6.35   0
   2   2   8   85.61    2.57   0
   2   2  10    1.26    3.18   0
   4  -2  -6  350.86    5.58   0
   5   1  -1  709.47    4.75   0
   6   2   3  154.12    2.01   0
   7  -4  -8   21.88    7.19   0
   7   0  -4  235.66    5.32   0
   8  -2  -7   38.95    6.20   0
   9  -2  -7   20.34    7.05   0
  10  -2  -7    1.16    7.30   0
  10   0  -4   35.03    5.80   0
  13  -1  -5   10.33    7.03   0
  13   0  -3    4.94    5.55   0
  -7  -4   6   24.11    5.30   0
  -7  -3   8    1.88    4.38   0
  -6  -4   3  107.07    4.31   0
  -6  -3   4   21.08    3.50   0
  -6  -2   6  226.69    5.60   0
  -5  -1   6   90.72    4.49   0
  -5  -1  15   14.32   10.07   0
  -4   0   8  334.49    6.11   0
  -4   0   9  460.40    6.32   0
  -4   0  12   -2.84    6.02   0
  -4   0  13   24.37    6.86   0
  -2   1   9  594.21    6.83   0
  -2   1  10  137.33    5.17   0
  -2   1  11   96.08    5.43   0
   1  -3  -5  168.42    3.18   0
   2  -4  -6  164.62    4.59   0
   2   2   7  161.46    2.70   0
   2   2  11   46.84    3.93   0
   3   2  13   36.66    5.25   0
   4  -4  -7    9.04    4.51   0
   4   0  -3   70.33    2.46   0
   5  -3  -7   91.14    4.96   0
   5  -1  -5  164.54    4.66   0
   7   2   3   37.57    1.99   0
   8  -4  -8   48.78    7.83   0
   8   0  -4  150.55    4.28   0
   9  -4  -8    0.91    9.07   0
   9   0  -4   57.87    4.13   0
  10   1  -1   25.03    4.28   0
  12  -1  -5   -3.56    8.18   0
  12   0  -3   -2.39    6.92   0
  12   1   0   12.57    5.98   0
  13   1   1   24.24    6.87   0
  -7  -3   7   93.52    5.85   0
  -5  -2   3  513.38    4.98   0
  -4   0  14   31.08    7.70   0
  -2   1   8  147.16    4.44   0
  -2   1  12  111.02    6.04   0
  -1   1   5 1595.02    6.71   0
  -1   1  15   12.76    7.93   0
   0  -1  -2 1754.49    4.00   0
   1   1   2 4724.27    4.46   0
   2  -5  -6   51.08    4.22   0
   2   2  12    0.85    4.16   0
   4  -5  -7    2.72    5.54   0
   5  -2  -6  336.93    5.91   0
   6  -3  -7   37.93    5.64   0
   6   1  -1  365.85    4.27   0
  11  -3  -7   -7.65    9.18   0
  11  -1  -5   21.99    7.43   0
  12  -2  -6    8.20    9.46   0
  -8  -4  10   12.70    9.05   0
  -7  -4   5    6.25    4.27   0
  -7  -2  10    7.65    6.89   0
  -7  -2  11   -6.09    7.21   0
  -7  -2  12  108.87    8.71   0
  -7  -2  13    7.03    9.50   0
  -6  -6   3   13.36    4.57   0
  -6  -1  10  109.16    6.85   0
  -6  -1  11   32.94    6.44   0
  -6  -1  12   24.58    7.70   0
  -6  -1  13    4.12    7.97   0
  -4  -3   0  125.11    2.04   0
  -4  -1   3  447.99    4.43   0
  -4   0   7   40.73    3.19   0
  -4   0  15    5.41    8.64   0
  -2   1  13   15.29    4.60   0
   1  -2  -4 1093.51    5.41   0
   2   2  13   57.68    5.92   0
   3  -1  -4   78.95    2.37   0
   3   2   5   12.65    0.99   0
   5  -4  -7   77.97    5.65   0
   6  -1  -5   19.30    4.34   0
   7  -3  -7   81.73    6.47   0
   7   1  -1  147.18    3.84   0
   8   1  -1  146.17    4.26   0
   9   1  -1   82.30    3.35   0
  10  -3  -7    8.70    8.62   0
  10  -1  -5   -2.39    6.29   0
  10   2   5    6.05    3.19   0
  11  -2  -6   18.11    8.39   0
  11   0  -3   17.10    6.12   0
  11   1   0   -0.53    4.67   0
  13  -1  -4   16.66    8.39   0
  13   0  -2    2.64    5.91   0
  -8  -4   9   57.00    6.37   0
  -7  -3   6  187.63    5.71   0
  -7  -2   9   78.23    5.21   0
  -6  -2   5   26.12    3.88   0
  -6  -1   9    2.18    4.18   0
  -6  -1  14   13.71    9.41   0
  -5  -6   1   15.23    3.15   0
  -5  -1   5  152.54    4.39   0
  -4  -2   1 2581.70    7.61   0
  -3   0   4    5.01    2.64   0
  -2  -1   0 8994.40    8.58   0
  -2   1   7  343.08    4.32   0
  -2   1  14   35.59    6.85   0
   1  -6  -5   91.71    4.28   0
   1   2   9  273.84    4.31   0
   1   2  10   96.79    4.04   0
   1   2  11  112.47    4.49   0
   3  -6  -6    5.92    5.59   0
   3  -2  -5  760.10    6.31   0
   5  -5  -7   15.02    6.68   0
   5   0  -3  156.74    3.16   0
   6  -2  -6  231.10    6.09   0
   7  -1  -5  154.15    5.56   0
   8  -3  -7   45.92    5.28   0
   8  -1  -5  149.49    5.82   0
   9  -3  -7   41.19    5.73   0
   9  -1  -5  128.76    6.28   0
  10  -2  -6   42.62    7.55   0
  10   0  -3   82.38    6.00   0
  -8  -4   8   55.87    6.91   0
  -8  -3  10   25.72    8.09   0
  -8  -3  11   -5.75    6.90   0
  -7  -2   8   24.23    4.48   0
  -6  -1   8  353.93    6.04   0
  -5   0  10  455.76    8.22   0
  -5   0  11   -3.67    5.97   0
  -5   0  12    2.39    6.81   0
  -5   0  13   21.73    7.23   0
  -4   0   6  196.48    4.36   0
  -2   1  15   -0.58    8.20   0
  -1   0   1  801.95    2.88   0
   0  -3  -4   39.71    1.90   0
   0   1   3 2456.42    5.61   0
   1   2   8  462.83    4.42   0
   1   2  12   23.39    4.60   0
   2   2   6  105.96    2.05   0
   2   2  14   16.97    6.16   0
   4  -3  -6    8.23    3.84   0
   4   1   0  982.90    4.41   0
   6  -4  -7   45.07    5.90   0
   6   0  -3   90.85    3.96   0
   7  -4  -7    2.04    6.70   0
   7  -2  -6  318.56    6.07   0
   8  -2  -6   71.50    6.43   0
   9  -2  -6    9.38    4.91   0
   9   0  -3   28.25    4.94   0
  10  -4  -7    0.30   10.05   0
  12  -1  -4    4.71    5.69   0
  12   0  -2   -8.04    5.00   0
  13   0  -1   -0.88    7.12   0
  -8  -4   7   39.53    6.51   0
  -8  -3   9    7.50    4.96   0
  -7  -3   5   44.30    4.21   0
  -7  -2   7  238.93    6.48   0
  -6  -5   2   34.61    3.37   0
  -6  -1   7  115.80    5.21   0
  -5   0   9  194.77    6.10   0
  -5   0  14   14.01    8.53   0
  -3   1   9  221.08    5.33   0
  -3   1  10  221.74    5.79   0
  -3   1  11    7.02    3.93   0
  -3   1  12   36.40    5.55   0
  -3   1  13   20.12    6.59   0
  -2   1   6  493.57    4.99   0
   1  -5  -5  116.41    4.34   0
   1   2  13   -1.76    4.94   0
   3  -5  -6   62.53    5.05   0
   3   0  -2  313.06    2.98   0
   4  -1  -4  432.57    5.01   0
   7  -5  -7   96.95    8.52   0
   7   0  -3  184.96    4.68   0
   8  -4  -7   41.01    6.15   0
   8   0  -3  106.97    4.71   0
   8   2   4   88.21    2.73   0
  10   2   6   29.42    3.40   0
  11  -3  -6   11.91    8.70   0
  11  -1  -4   14.97    7.06   0
  13  -1  -3   22.46    8.96   0
  -8  -3   8   81.72    6.39   0
  -7  -4   4    3.07    3.90   0
  -6  -4   2    9.31    3.15   0
  -6  -2   4   84.45    3.97   0
  -5   0   8   14.12    4.82   0
  -5   0  15   -6.23    9.65   0
  -3   1  14   71.47    7.81   0
   0   2  11  394.37    6.63   0
   1   2   7   97.29    2.77   0
   1   2  14   20.54    6.47   0
   2  -3  -5   18.67    3.00   0
   4  -6  -6    6.25    6.62   0
   4  -2  -5   99.13    4.08   0
   5  -3  -6   95.48    5.36   0
   9   1   0  202.86    4.84   0
   9   2   5   29.92    2.88   0
  10  -3  -6   28.86    7.96   0
  10  -1  -4  244.96    7.43   0
  11  -2  -5   19.96    8.02   0
  11   0  -2    1.25    4.28   0
  12   1   2    7.41    5.76   0
  -8  -5   6    2.82    6.12   0
  -8  -2  10   10.49    6.84   0
  -8  -2  11   76.74    7.97   0
  -8  -2  12   30.82    6.83   0
  -8  -2  13   12.79    7.71   0
  -7  -2   6  301.64    6.14   0
  -7  -1  10   87.42    6.88   0
  -7  -1  11   11.84    5.57   0
  -7  -1  12   98.30    6.71   0
  -7  -1  13    5.23    6.66   0
  -7  -1  14   -1.94   10.04   0
  -5  -3   1  377.08    3.51   0
  -5  -1   4  243.56    4.48   0
  -4   0   5  250.38    4.35   0
  -3  -1   1 1785.70    5.58   0
  -3   1   8  149.29    3.88   0
  -3   1  15   12.10    8.46   0
  -2   0   2  219.70    2.35   0
  -1   1   4  117.57    2.03   0
   0  -6  -4   97.60    4.01   0
   0  -2  -3   32.09    1.74   0
   0   2   9   46.42    3.20   0
   0   2  10  148.96    4.47   0
   0   2  12   51.07    4.90   0
   2  -1  -3  954.07    5.10   0
   4  -4  -6  179.78    5.63   0
   5  -1  -4  235.39    4.51   0
   5   1   0  128.44    2.61   0
   6  -3  -6   26.52    5.42   0
   7   2   4   15.85    1.84   0
   8   1   0  105.04    3.68   0
   9  -3  -6   43.66    7.91   0
  10  -2  -5   10.79    6.71   0
  10   0  -2   13.13    5.38   0
  10   2   7   24.64    3.68   0
  12  -1  -3   35.88    7.79   0
  12   0  -1   12.13    6.84   0
  13   0   0    0.07    7.48   0
  -8  -3   7   40.68    4.71   0
  -8  -2   9  130.83    7.40   0
  -7  -1   9   16.58    5.73   0
  -6  -6   2   -2.11    3.80   0
  -6  -1   6   13.57    3.04   0
  -6   0  12    8.68    7.05   0
  -6   0  13   53.59    7.76   0
  -5  -2   2  552.97    4.62   0
  -5   0   7  402.63    6.40   0
   0   2  13   14.09    5.18   0
   2  -6  -5   24.94    4.96   0
   5  -2  -5  199.88    5.29   0
   6  -1  -4  246.86    5.28   0
   6   1   0  105.01    2.86   0
   6   2   4  400.54    2.77   0
   7  -3  -6  194.75    5.85   0
   7   1   0   17.18    2.90   0
   8  -3  -6  146.88    5.97   0
   8  -1  -4   20.21    5.05   0
   9  -2  -5   38.02    6.73   0
   9  -1  -4  264.61    5.87   0
  10  -4  -6    9.49    9.45   0
  10   1   1   10.50    4.32   0
  12  -2  -4   57.86    9.39   0
  12   1   3   19.27    6.16   0
  13  -1  -2    5.29    8.78   0
  -9  -3  10   32.05    8.14   0
  -7  -3   4   64.98    4.12   0
  -6   0  10   31.02    6.14   0
  -6   0  11  134.64    5.90   0
  -6   0  14   98.83    8.97   0
  -4   1  10   25.45    5.14   0
  -4   1  11   82.05    5.80   0
  -4   1  12    2.72    4.30   0
  -4   1  13   83.48    7.00   0
  -4   1  14  123.57    7.93   0
  -3   0   3  324.60    3.74   0
  -3   1   7  132.26    3.46   0
  -2   1   5  156.30    3.17   0
  -1  -3  -3    6.47    1.43   0
   0   2   8   14.79    2.77   0
   0   2  14   25.45    6.01   0
   2  -2  -4  563.08    4.77   0
   4   0  -2 1701.38    7.01   0
   5  -4  -6   14.24    4.90   0
   6  -2  -5   25.00    4.79   0
   7  -2  -5   13.91    5.05   0
   7  -1  -4   87.93    3.89   0
   8  -2  -5   28.66    5.94   0
   9   0  -2   16.80    4.41   0
  11  -3  -5  -13.03    9.04   0
  11  -1  -3   13.46    6.75   0
  11   0  -1    6.47    5.84   0
  11   1   2   88.62    5.39   0
  -9  -4   8   -2.92    7.36   0
  -9  -3   9   12.60    7.13   0
  -8  -3   6  139.17    6.05   0
  -8  -2   8   14.43    4.48   0
  -7  -5   3   22.63    4.14   0
  -7  -2   5   21.30    4.01   0
  -7  -1   8  100.82    4.59   0
  -6   0   9    2.78    5.42   0
  -4  -1   2  411.49    3.55   0
  -4   1   9  157.01    5.38   0
  -4   1  15   48.86    8.95   0
  -1   2  10    6.15    3.64   0
  -1   2  11   95.42    5.06   0
  -1   2  12    3.30    5.06   0
  -1   2  13   24.22    5.60   0
   0  -5  -4   54.93    3.28   0
   0  -4  -4  184.04    2.94   0
   3  -3  -5  120.72    3.90   0
   6  -5  -6   20.19    6.59   0
   7  -5  -6   48.67    7.99   0
   7  -4  -6   24.72    6.16   0
   8  -4  -6   13.21    5.24   0
   8   0  -2   16.26    4.18   0
   8   2   5  167.71    3.08   0
   9   2   6   48.74    3.05   0
  11  -2  -4   36.69    8.06   0
  12  -1  -2   40.89    7.24   0
  12   0   0    7.77    6.70   0
  13   0   1   45.57    7.62   0
  -9  -2  12   21.57    9.00   0
  -8  -1  12    4.69    8.71   0
  -8  -1  13    7.97    9.42   0
  -7  -4   3  109.88    4.05   0
  -7  -1   7  869.30    9.07   0
  -6  -3   2  357.69    4.31   0
  -6  -2   3  170.49    4.06   0
  -6  -1   5   36.25    2.99   0
  -5   0   6  459.86    5.55   0
  -1  -6  -3   41.27    3.25   0
  -1   2  14   56.56    6.84   0
   1   2   6  829.40    4.59   0
   5   0  -2  157.27    3.07   0
   6   0  -2  362.31    5.01   0
   7   0  -2   23.11    3.57   0
   9   1   1   35.30    3.62   0
  10  -3  -5   -1.08    5.75   0
  10  -1  -3   14.42    4.56   0
  10   0  -1  179.82    5.83   0
  12  -3  -4   -3.91    9.88   0
  12   1   4   26.64    5.63   0
  13  -1  -1   17.09    8.70   0
  -9  -4   7   17.33    6.54   0
  -9  -3   8   -3.10    6.87   0
  -9  -2  11   35.45    8.40   0
  -8  -2   7   43.37    4.44   0
  -8  -1  10   87.14    7.78   0
  -8  -1  11    2.04    5.66   0
  -7   0  13   38.53    8.40   0
  -6   0   8    3.04    3.46   0
  -5  -1   3  242.48    3.96   0
  -5   1  12   76.18    6.43   0
  -5   1  13   -2.27    6.76   0
  -4   0   4   18.14    2.06   0
  -4   1   8  136.92    4.69   0
  -3   1   6  508.14    5.01   0
  -1   2   9  447.91    5.57   0
   0   2   7   22.05    2.40   0
   1  -3  -4   57.63    2.57   0
   3  -1  -3  939.95    5.84   0
   4  -3  -5  216.21    5.30   0
   9  -3  -5    8.66    5.17   0
   9  -1  -3   38.81    5.55   0
  10  -4  -5    9.73    9.11   0
  10   1   2   41.97    4.47   0
  11   1   3   41.91    5.19   0
  12  -2  -3   -1.70    6.46   0
  -9  -2  10   28.46    5.84   0
  -8  -3   5    4.29    4.50   0
  -8  -1   9  159.09    7.06   0
  -7   0  11   76.48    7.80   0
  -7   0  12   30.78    5.93   0
  -7   0  14   30.47    7.14   0
  -5  -5   0    1.29    1.58   0
  -5   1  11   23.38    5.83   0
  -5   1  14   81.90    8.27   0
  -5   1  15    8.15    9.45   0
  -2   2  11  112.41    5.51   0
  -2   2  12    0.23    5.38   0
  -2   2  13    4.77    6.07   0
  -1   2   8   52.91    3.20   0
   1  -6  -4    1.54    3.93   0
   2   0  -1 3425.05    6.94   0
   2   2   5  950.69    3.42   0
   3  -5  -5   18.06    4.68   0
   3  -4  -5  404.33    5.80   0
   3  -2  -4  543.58    5.02   0
   5  -6  -5   39.11    7.58   0
   5  -3  -5  625.27    7.75   0
   6  -3  -5  135.78    5.76   0
   7  -3  -5   34.69    6.03   0
   8   1   1  288.71    4.65   0
   9  -4  -5   18.73    7.60   0
   9  -2  -4  158.58    7.38   0
   9   2   7   10.00    3.07   0
  11  -1  -2    4.92    4.71   0
  12   0   1    2.07    6.47   0
  -9  -3   7   34.41    6.49   0
  -9  -2   9   48.87    6.96   0
  -8  -2   6   60.24    5.45   0
  -7  -3   3   42.94    3.57   0
  -7  -1   6  118.79    5.22   0
  -7   0  10   75.12    6.81   0
  -6   0   7  168.74    5.50   0
  -5  -4   0    8.45    1.52   0
  -5   0   5   -3.58    3.40   0
  -5   1  10   24.19    4.30   0
  -4   1   7  138.46    4.70   0
  -2   2  10   70.58    4.59   0
  -2   2  14   78.64    7.01   0
   4  -5  -5   70.44    5.65   0
   4  -1  -3  448.39    4.92   0
   7   2   5    9.74    1.92   0
   8  -4  -5   26.03    7.24   0
   8  -2  -4   20.49    5.52   0
   8  -1  -3   33.69    3.66   0
   9   0  -1  129.48    4.25   0
  11  -2  -3   31.30    5.95   0
  12  -3  -3   11.03    9.20   0
  12  -1  -1   30.97    7.17   0
  13  -1   0   51.67    8.91   0
  -9  -4   6   -2.81    5.97   0
  -9  -2   8    4.68    5.99   0
  -9  -1  13   12.91   10.43   0
  -8  -5   4   21.63    4.50   0
  -8  -4   4   47.23    4.51   0
  -8  -1   8  332.41    7.84   0
  -7  -2   4  183.51    3.99   0
  -7   0   9  257.12    7.49   0
  -6  -5   1   11.56    2.67   0
  -6  -4   1   76.77    2.93   0
  -6  -1   4  251.59    4.86   0
  -5   1   9  124.02    5.67   0
  -2   1   4  484.88    4.16   0
  -2   2   9   17.30    3.66   0
   4  -2  -4  179.83    3.73   0
   5  -5  -5   30.86    6.27   0
   5  -2  -4  220.85    5.26   0
   5  -1  -3  253.88    4.63   0
   6  -5  -5   50.47    7.18   0
   6  -2  -4   88.95    4.85   0
   6  -1  -3  234.23    5.17   0
   7  -5  -5   -1.19    7.51   0
   7  -4  -5    7.06    6.22   0
   7  -2  -4  210.42    6.22   0
   7  -1  -3   38.95    3.47   0
   7   1   1  328.65    4.27   0
   8   0  -1   24.66    3.96   0
   8   2   6   82.25    2.92   0
   9   1   2  119.67    4.29   0
  10  -3  -4   64.30    6.30   0
  10  -1  -2   54.78    6.08   0
  11   1   4   29.95    5.19   0
 -10  -3   9    8.08    8.62   0
  -9  -1  11    5.05    8.57   0
  -9  -1  12    1.14    6.68   0
  -8   0  13   27.29    8.59   0
  -6   1  12   21.72    7.28   0
  -6   1  13   -2.12    7.57   0
  -6   1  14    7.17    8.73   0
  -3   1   5  301.52    4.23   0
  -3   2  12   18.93    5.95   0
  -3   2  13    2.84    6.66   0
  -3   2  14   -9.04    6.85   0
  -1   1   3  155.57    2.34   0
  -1   2   7  161.44    3.89   0
   0   2   6   59.08    2.66   0
   1  -5  -4  388.70    5.39   0
   1  -4  -4  500.91    4.98   0
   1  -1  -2 1320.66    4.67   0
   6   1   1  201.48    3.34   0
   9  -3  -4   50.98    7.41   0
  10  -4  -4   28.50    8.99   0
  10  -2  -3   18.82    5.11   0
  10   0   0    9.15    3.82   0
  10   1   3   25.79    4.34   0
  11  -1  -1   11.26    6.05   0
  12   0   2   65.04    7.20   0
 -10  -2  11   46.97    7.65   0
  -9  -3   6   31.76    5.79   0
  -9  -1  10   38.35    7.92   0
  -8  -3   4   80.10    4.66   0
  -8  -1   7   36.19    5.75   0
  -8   0  11   24.34    7.48   0
  -8   0  12   52.28    8.15   0
  -7  -1   5  161.77    4.94   0
  -7   0   8   61.82    5.64   0
  -6   0   6   96.03    3.82   0
  -6   1  11   29.87    6.10   0
  -5  -2   1   94.42    2.55   0
  -5   1   8   39.85    3.42   0
  -4   1   6   51.36    3.94   0
  -3   2  11   23.10    5.05   0
  -1  -5  -3  205.10    3.43   0
  -1  -4  -3   11.87    1.82   0
   1  -2  -3  136.04    2.44   0
   5   1   1  255.65    3.21   0
   7   0  -1  106.35    4.12   0
   9  -1  -2  200.58    6.37   0
  11  -3  -3    5.59    6.35   0
  12  -1   0   16.96    7.56   0
  13  -1   1   18.15    6.60   0
 -10  -3   8   47.55    7.69   0
 -10  -2  10    7.51    8.45   0
  -9  -4   5   13.05    4.87   0
  -9  -2   7   20.76    5.78   0
  -8  -2   5   26.18    3.32   0
  -7  -5   2  150.22    4.09   0
  -7  -4   2  119.21    3.85   0
  -6  -2   2   81.46    3.18   0
  -6   1  10   76.72    6.16   0
  -4  -2   0  345.53    2.61   0
  -4   0   3   81.22    3.05   0
  -3   0   2  323.85    3.39   0
  -3   2  10   47.05    4.57   0
  -2   2   8   69.17    3.72   0
   0  -6  -3   49.53    4.29   0
   3  -6  -4  103.49    6.17   0
   3   0  -1   -1.34    1.38   0
   6   0  -1   88.31    3.52   0
   9  -5  -4    7.08    7.40   0
   9  -4  -4   19.66    5.89   0
   9   0   0   13.11    4.32   0
  11   1   5   56.50    5.41   0
  12  -3  -2    6.05    7.19   0
  12  -2  -1   21.14    8.55   0
 -10  -4   7    7.67    6.86   0
 -10  -2   9   37.76    8.08   0
  -9  -1   9   35.69    5.34   0
  -8   0  10   19.08    5.43   0
  -7   0   7   67.06    5.34   0
  -7   1  14    8.58    8.99   0
  -6   1   9    6.99    5.18   0
  -5   0   4   45.31    2.63   0
  -5   1   7   51.04    4.52   0
  -4   2  12   79.97    6.65   0
  -4   2  13   29.97    7.03   0
  -4   2  14   27.74    7.95   0
  -3   2   9   29.24    4.29   0
  -1  -2  -2  186.22    1.49   0
   1   2   5  178.07    2.28   0
   2  -5  -4   86.48    4.57   0
   2  -4  -4   64.82    3.64   0
   3  -3  -4    3.13    2.51   0
   4  -6  -4    9.65    6.31   0
   4   0  -1 1590.63    6.70   0
   5  -6  -4   10.71    7.25   0
   5   0  -1   38.04    2.81   0
   6  -6  -4    2.80    7.86   0
   6  -3  -4   19.78    4.87   0
   6   2   5   13.10    1.53   0
   7  -3  -4   68.92    4.74   0
   8  -2  -3  225.60    6.65   0
   8  -1  -2   50.98    4.73   0
  10  -1  -1   10.94    5.87   0
  10   1   4   37.73    4.84   0
  12   0   3   19.37    6.79   0
 -10  -3   7   12.14    6.46   0
 -10  -1  12   29.91    9.75   0
  -9  -3   5    4.93    4.92   0
  -9  -1   8   86.34    6.51   0
  -9   0  13   -8.38    9.28   0
  -8  -4   3  179.29    5.23   0
  -8  -1   6   -4.82    5.16   0
  -8   0   9   52.29    6.74   0
  -7  -2   3    6.76    3.46   0
  -7   1  12  109.01    8.47   0
  -7   1  13   10.87    6.36   0
  -6  -3   1  254.08    3.61   0
  -6  -1   3  226.70    4.24   0
  -6   0   5   65.04    4.33   0
  -5  -1   2   40.68    2.01   0
  -4  -1   1  860.63    4.62   0
  -4   2  11   -2.65    5.64   0
   3  -5  -4   76.66    5.00   0
   4  -3  -4   41.42    3.16   0
   5  -3  -4   48.80    4.53   0
   7  -5  -4   -0.45    7.33   0
   8   2   7   13.50    2.86   0
   9   1   3   36.95    3.83   0
  10  -4  -3   40.42    9.03   0
  10  -2  -2   52.42    6.64   0
  11  -3  -2   12.03    8.60   0
  11  -1   0   -4.33    6.54   0
  11   0   2    0.57    5.37   0
  11   1   6   17.13    5.62   0
  12  -1   1  213.26    8.76   0
 -10  -2   8   42.75    7.57   0
 -10  -1  11    2.40    6.74   0
  -9  -2   6   21.18    4.31   0
  -9   0  12   -6.80    8.59   0
  -7  -3   2   45.17    3.27   0
  -7   1  11   20.00    6.94   0
  -6   1   8  355.09    6.92   0
  -5  -3   0   54.01    1.85   0
  -4   2  10   65.25    5.44   0
  -3   2   8   14.20    3.73   0
  -2   2   7  162.65    3.90   0
  -1   2   6   84.83    2.87   0
   0  -3  -3   24.22    1.85   0
   2  -2  -3  368.84    3.97   0
   4  -5  -4   41.48    5.73   0
   5  -5  -4   50.15    6.38   0
   6  -5  -4   39.81    6.50   0
   6  -4  -4   95.81    6.41   0
   7  -2  -3    8.05    3.45   0
   7  -1  -2  695.93    6.87   0
   7   1   2   53.45    3.13   0
   7   2   6   94.56    2.52   0
   9  -3  -3   75.00    5.53   0
  12  -3  -1   45.47    9.46   0
  12  -2   0    3.81    7.98   0
  12   0   4   13.00    6.60   0
 -10  -4   6   10.45    6.50   0
 -10  -1  10   28.23    7.85   0
  -9   0  11   28.76    6.27   0
  -8  -2   4   33.76    4.22   0
  -8   0   8   35.15    5.95   0
  -7  -1   4   90.08    4.45   0
  -7   0   6    1.81    4.66   0
  -7   1  10  103.63    7.11   0
  -5   1   6   95.25    4.39   0
  -5   2  12   98.01    7.03   0
  -5   2  13    3.87    7.39   0
  -5   2  14   34.22    8.58   0
  -4   1   5   18.23    2.40   0
  -3   1   4   85.95    2.59   0
  -2   0   1 3489.51    7.07   0
   1  -6  -3  133.47    5.10   0
   2  -1  -2 1213.34    5.21   0
   4  -4  -4   77.18    3.66   0
   5  -4  -4  258.51    5.51   0
   6  -2  -3  168.75    5.15   0
   6  -1  -2   85.81    4.24   0
   9  -5  -3    8.22    7.37   0
   9  -4  -3   72.30    7.84   0
   9  -1  -1   74.25    4.41   0
 -10  -3   6   26.87    5.86   0
 -10  -2   7   -7.48    6.27   0
 -10  -1   9   86.58    7.60   0
  -9  -1   7   34.47    5.93   0
  -9   0  10   -7.07    7.20   0
  -8  -3   3   46.18    4.02   0
  -8   1  13    3.67    9.30   0
  -6  -6   1   11.04    1.90   0
  -5   2  11   28.42    6.11   0
  -4   2   9   32.61    4.50   0
  -2  -3  -2  108.50    1.27   0
   0  -5  -3  233.11    4.49   0
   0   1   2 1783.22    4.08   0
   1   3  13   64.31    5.32   0
   2   3  12   28.44    3.89   0
   2   3  13   -1.63    4.31   0
   3  -2  -3  942.15    6.19   0
   3  -1  -2  330.46    3.88   0
   4  -2  -3  219.42    4.64   0
   5  -2  -3  506.05    5.72   0
   5  -1  -2   56.32    3.46   0
   7   0   0  250.63    4.84   0
   8  -5  -3   -3.47    8.52   0
   9   0   1  725.25    7.77   0
  10   1   5  186.48    5.42   0
  11   0   3    3.62    5.71   0
  12  -1   2   -0.61    6.96   0
 -11  -2   9   15.61    8.07   0
  -9  -5   4    7.79    4.91   0
  -9  -2   5   37.73    5.22   0
  -8  -1   5  135.13    4.51   0
  -8   0   7  559.52    8.61   0
  -8   1  12    9.26    6.19   0
  -7   1   9   18.28    4.60   0
  -6   1   7  115.96    5.09   0
  -2   1   3  938.37    4.83   0
   0  -4  -3   10.30    2.56   0
   0   2   5 1385.69    5.63   0
   0   3  13   18.02    5.53   0
   1   3  12   41.15    4.08   0
   2  -6  -3   25.71    5.16   0
   2   3  11   29.19    3.38   0
   3   3  12   12.29    3.43   0
   4  -1  -2  398.02    4.14   0
   6  -6  -3   15.89    7.80   0
   7  -3  -3   40.22    5.58   0
   8  -4  -3  191.11    6.64   0
   8   1   3   61.25    3.44   0
   8   2   8  128.11    3.45   0
   9   1   4    4.03    3.69   0
  10  -2  -1   14.08    4.81   0
  11  -2   0   23.69    7.27   0
  12  -3   0  136.26   10.15   0
  12  -2   1   94.74    9.40   0
 -10  -1   8   13.84    6.74   0
 -10   0  12   42.37    9.53   0
  -9   0   9   27.20    5.64   0
  -8   1  11    5.11    5.36   0
  -6   0   4   29.96    3.95   0
  -6   2  13   33.61    8.30   0
  -6   2  14   66.51    8.60   0
  -5   0   3  189.55    3.88   0
  -5   2  10  121.72    5.06   0
  -4   2   8   35.06    4.50   0
  -3  -1   0 2808.19    6.10   0
  -3   2   7   51.79    2.96   0
  -2   2   6   52.68    3.03   0
  -1   3  13   13.71    6.15   0
   0   3  12   42.98    4.48   0
   1  -3  -3   21.71    2.51   0
   1   3  11    2.62    3.23   0
   3  -6  -3    5.48    5.49   0
   3   3  11    7.71    2.84   0
   4  -6  -3    6.90    6.65   0
   5   2   5   16.14    1.31   0
   6  -3  -3  962.86    9.45   0
   7  -5  -3   22.32    5.74   0
   7  -4  -3  111.23    7.05   0
   9  -3  -2   15.06    6.45   0
  12  -1   3   16.24    7.52   0
 -11  -3   7   -7.95    6.82   0
 -11  -2   8    6.16    7.26   0
 -10  -4   5    9.36    5.68   0
 -10  -2   6   31.83    5.98   0
 -10   0  11   -1.01    8.43   0
  -9  -1   6   88.91    4.66   0
  -8   1  10   87.10    7.37   0
  -7   0   5  250.02    5.77   0
  -7   1   8  115.31    5.16   0
  -6   2  11   74.00    6.53   0
  -6   2  12    2.10    5.32   0
  -5   2   9  106.77    5.89   0
  -4   0   2 1738.59    7.42   0
  -2  -5  -2   88.49    2.62   0
  -1  -6  -2   43.98    3.83   0
  -1   3  12   28.51    5.02   0
   0   3  11   -1.97    3.87   0
   1  -5  -3   38.23    3.80   0
   1   3  10   15.03    3.40   0
   2   3  10  100.86    3.41   0
   6  -5  -3   63.71    7.25   0
   6   0   0  379.52    4.76   0
   7  -2  -2   89.42    5.41   0
   8   0   1  135.10    4.78   0
   9  -4  -2   -1.47    7.33   0
   9  -1   0  203.10    6.43   0
  10  -3  -1   61.71    8.15   0
  10   1   6    5.66    4.56   0
  11   0   4    1.01    6.14   0
 -11  -1  10   -4.94    6.91   0
 -10  -3   5   -4.28    5.72   0
 -10   0  10   54.88    8.61   0
  -9   0   8   30.64    5.01   0
  -9   1  12    4.34    8.51   0
  -9   1  13    0.98    7.66   0
  -8  -2   3  192.42    4.85   0
  -8   0   6  194.28    6.22   0
  -7  -1   3   22.47    3.71   0
  -6   1   6   10.66    4.51   0
  -5   1   5  153.90    3.76   0
  -4   1   4  411.82    4.90   0
  -3  -6  -1   20.83    2.64   0
  -3  -2  -1  592.96    1.98   0
  -2   3  13   15.98    6.18   0
  -2   3  14   87.64    7.54   0
  -1   2   5  379.66    3.82   0
  -1   3  11    6.64    4.24   0
   0   3  10   -1.60    3.75   0
   1  -4  -3  237.09    4.32   0
   2  -5  -3   79.13    4.52   0
   4   3  12    9.85    2.69   0
   5  -5  -3   46.83    6.28   0
   5  -3  -3  668.92    6.92   0
   6  -4  -3  114.26    5.15   0
   7  -1  -1  154.25    4.12   0
   8  -5  -2   74.31    8.84   0
   8  -3  -2   12.89    5.87   0
  10  -4  -1   41.04    9.14   0
  10  -1   1   14.89    5.54   0
  10   0   3    7.73    5.05   0
  11  -3   0   43.14    8.54   0
  11  -1   2   88.37    5.66   0
  12  -2   2   -4.73    8.95   0
 -11  -1   9   75.64    9.19   0
 -10  -1   7   66.90    7.01   0
  -9   1  11    3.82    8.17   0
  -8  -4   2   63.66    3.89   0
  -8  -1   4   24.31    4.48   0
  -8   1   9  135.00    5.81   0
  -7   1   7  841.55    9.31   0
  -7   2  13   25.15    9.19   0
  -6  -1   2   83.50    2.77   0
  -6   2  10   58.75    6.11   0
  -4  -3  -1   12.92    0.88   0
  -4   2   7  258.83    5.38   0
  -2   3  12   43.26    5.65   0
   3  -5  -3   69.47    5.18   0
   3   3  10   48.87    2.52   0
   5  -4  -3  118.10    5.42   0
   5   0   0  287.75    3.98   0
   6  -6  -2   -3.72    7.88   0
   6  -2  -2   84.22    4.89   0
   7   1   3  484.70    4.84   0
   7   2   7   28.97    2.59   0
   8  -4  -2   64.21    7.49   0
   8   2   9   13.91    3.10   0
   9   1   5   19.53    4.06   0
  10   1   7   33.13    5.37   0
  11   0   5    2.88    5.89   0
  12  -1   4   24.91    8.45   0
 -11  -2   7    2.33    7.27   0
 -10   0   9   72.54    7.92   0
  -9  -2   4  137.54    4.39   0
  -9  -1   5  121.90    5.95   0
  -9   0   7  309.06    7.90   0
  -7  -4   1  138.69    3.14   0
  -7   2  12   96.79    6.47   0
  -5   2   8    8.02    3.45   0
  -3   1   3  914.37    5.66   0
  -3   2   6   63.85    2.90   0
  -3   3  12    5.49    6.59   0
  -3   3  13    2.28    6.51   0
  -2   3  11   79.09    5.14   0
  -1   3  10    8.18    3.77   0
   0  -6  -2   96.41    4.97   0
   2  -4  -3  117.19    4.09   0
   3  -4  -3   59.45    4.26   0
   5  -6  -2    4.58    6.95   0
   6  -1  -1  370.90    5.47   0
   6   2   6   40.24    1.93   0
   8  -2  -1   77.94    5.62   0
   8  -1   0  118.34    5.27   0
   8   1   4   39.56    3.51   0
   9  -5  -1   31.55    9.28   0
   9  -3  -1    9.67    7.13   0
  12  -2   3   16.75    8.57   0
 -11  -1   8  109.38    8.21   0
 -11   0  11   10.09   10.08   0
 -10  -2   5   24.39    5.93   0
  -9   1  10   30.77    6.02   0
  -8  -5   2   76.02    3.84   0
  -8  -3   2   19.33    3.36   0
  -8   1   8  325.84    7.08   0
  -7   2  11   -0.02    5.30   0
  -6   2   9  283.51    6.30   0
  -5  -1   1  693.82    4.91   0
  -2  -4  -2   82.76    1.97   0
  -2   3  10   27.52    4.19   0
   0  -2  -2  308.45    2.64   0
   0   3   9   27.46    3.52   0
   1   3   9  121.29    3.07   0
   2   3   9    0.67    2.36   0
   4  -6  -2   16.15    6.68   0
   4   3  11    6.58    1.88   0
   5  -2  -2  544.37    6.43   0
   8   2  10   56.42    3.75   0
   9  -4  -1   15.21    6.03   0
   9  -1   1   14.95    5.44   0
  10  -4   0   96.53    9.11   0
  10  -3   0    3.96    7.31   0
  10  -1   2   41.18    5.70   0
  10   0   4   23.41    5.17   0
  10   1   8   12.59    6.02   0
  11  -3   1   24.89    8.44   0
  11  -1   3   49.04    5.45   0
 -11   0  10   19.03    8.68   0
 -10  -1   6   82.98    6.47   0
 -10   0   8   78.11    7.93   0
  -9  -5   3   12.10    4.39   0
  -9  -3   3   69.81    4.43   0
  -9   1   9   30.31    7.14   0
  -8   0   5   -1.27    4.80   0
  -8   2  13   14.73    9.93   0
  -7   0   4  238.66    4.59   0
  -7   1   6  115.88    5.24   0
  -7   2  10   13.86    6.56   0
  -6   0   3   87.20    3.84   0
  -6   1   5   27.54    4.38   0
  -5  -2   0  403.65    3.49   0
  -4   3  12   40.68    6.34   0
  -4   3  13    9.25    7.23   0
  -3   0   1    1.09    2.04   0
  -3   3  11   57.21    5.39   0
  -2   2   5 1288.25    6.72   0
  -1   1   2 1269.80    4.42   0
  -1   3   9  150.54    4.30   0
   1  -6  -2   86.35    5.09   0
   2  -6  -2  104.94    6.05   0
   3  -6  -2   89.27    6.61   0
   4   0   0  179.39    2.98   0
   5  -1  -1  747.46    6.25   0
   6  -3  -2  355.19    6.90   0
   9  -2   0   97.22    5.17   0
   9   0   3   20.96    4.33   0
   9   1   6   57.43    4.76   0
  10  -2   1  161.24    7.55   0
  11  -2   2   61.36    6.00   0
  11   0   6   -1.55    6.70   0
 -11  -2   6   22.35    6.98   0
 -10  -3   4   70.41    5.66   0
 -10   1  11   37.47    9.60   0
  -9   0   6   48.63    6.12   0
  -8   1   7   35.06    5.98   0
  -8   2  12   25.26    6.61   0
  -7  -5   1   64.68    2.74   0
  -6  -4   0   30.24    1.80   0
  -6   2   8   43.19    5.65   0
  -5   1   4  225.41    3.91   0
  -5   2   7  396.78    5.78   0
  -4   2   6  353.95    5.55   0
  -3   3  10  120.60    5.58   0
  -1  -5  -2   38.62    3.17   0
   4  -2  -2   99.99    3.10   0
   5  -5  -2   57.08    6.18   0
   7  -2  -1   18.16    4.56   0
   8  -4  -1  144.21    8.10   0
   8  -3  -1   38.32    4.93   0
   9  -5   0   38.98    9.80   0
  11  -1   4   43.49    7.28   0
 -12  -1   9   74.32    9.82   0
 -11  -1   7   77.83    8.03   0
 -11   0   9   39.17    8.89   0
 -10   1  10   51.41    8.57   0
  -8  -1   3   38.63    4.10   0
  -8   2  11   60.78    7.80   0
  -7   2   9   72.11    6.56   0
  -5   0   2  147.35    3.01   0
  -5   3  13   16.76    7.83   0
  -4   3  11   45.82    5.86   0
  -2   3   9  245.72    5.25   0
   1   2   4  163.05    1.90   0
   3  -2  -2  454.89    4.82   0
   3   0   0  474.02    3.47   0
   5  -3  -2  912.13    8.48   0
   6   1   3  719.27    4.99   0
   7   2   8   47.60    2.90   0
   8   1   5   45.36    4.15   0
  10  -4   1    9.86    8.76   0
  10  -3   1   57.22    8.38   0
  10   0   5   -1.73    5.20   0
  11  -3   2   69.96    7.26   0
  11  -2   3   37.78    8.17   0
 -12  -2   7    2.99    8.32   0
 -10   0   7  161.89    6.26   0
  -9  -2   3  261.43    5.80   0
  -9  -1   4  277.97    6.18   0
  -9   1   8  107.67    5.69   0
  -8  -2   2   40.04    3.74   0
  -8   2  10   13.40    7.45   0
  -7  -1   2  699.93    6.53   0
  -5   3  12   51.68    6.93   0
  -4   1   3  430.42    4.87   0
  -4   3  10   39.28    5.55   0
  -3   2   5  716.98    6.06   0
  -2  -6  -1   22.83    3.41   0
   0   2   4  762.63    4.04   0
   0   3   8    6.33    2.91   0
   1   3   8  267.66    3.45   0
   2  -2  -2 1068.67    5.71   0
   3   3   9    7.00    1.64   0
   4  -1  -1  872.23    5.68   0
   5  -6  -1   15.10    7.78   0
   5  -4  -2  380.35    7.07   0
   7  -3  -1  507.93    8.42   0
   7   1   4  237.19    4.32   0
   8  -2   0  335.32    7.01   0
   8  -1   1  299.31    6.35   0
   9  -1   2  119.68    6.14   0
   9   1   7  192.56    5.87   0
  10  -2   2   37.67    7.06   0
  10  -1   3   24.63    5.74   0
 -12  -1   8   20.53    9.23   0
 -11   0   8  312.20    9.96   0
 -10  -2   4   -0.63    5.01   0
 -10  -1   5    9.66    4.19   0
 -10   1   9   94.31    8.70   0
  -9   2  12   10.25    9.09   0
  -8   0   4  146.99    5.20   0
  -8   1   6    1.30    4.94   0
  -7   1   5  150.21    5.53   0
  -7   2   8   19.54    5.98   0
  -6   2   7   35.04    5.17   0
  -6   3  13    3.59    8.34   0
  -5   2   6  334.18    5.94   0
  -5   3  11   11.94    6.37   0
  -3   3   9   76.50    3.67   0
  -2   1   2 1231.38    5.40   0
  -1  -3  -2  101.22    1.92   0
  -1   3   8  216.18    4.22   0
   0  -5  -2  140.70    3.99   0
   1  -5  -2  109.26    4.81   0
   2  -5  -2   90.48    4.65   0
   3  -5  -2   12.47    4.52   0
   4  -3  -2  464.27    6.13   0
   6  -5  -1   12.50    6.42   0
   6  -2  -1  119.73    4.00   0
   7  -4  -1  132.73    5.71   0
   8  -5   0   22.42    8.09   0
   9  -2   1   99.58    5.22   0
   9   0   4   19.89    4.75   0
  11  -3   3   30.13    9.81   0
  11  -1   5   69.79    6.00   0
 -11  -2   5   12.88    6.45   0
 -11  -1   6   10.58    7.26   0
  -9   0   5  145.69    5.26   0
  -9   1   7   31.25    6.52   0
  -9   2  11   32.08    8.67   0
  -8   2   9  123.23    7.71   0
  -7  -2   1   14.52    2.68   0
  -7   0   3  193.56    4.95   0
  -6   1   4  221.20    5.35   0
  -6   3  12   78.03    8.05   0
  -5   3  10   19.98    5.77   0
  -4   3   9   40.42    4.80   0
  -2   3   8   65.73    3.86   0
  -1  -4  -2   59.64    2.52   0
  -1   2   4 1078.33    5.39   0
   2   0   0  192.82    1.83   0
   3  -1  -1 1725.15    6.95   0
   4  -6  -1   16.15    6.72   0
   6  -1   0  102.03    3.44   0
   7   0   2  343.66    4.62   0
   8  -3   0    2.83    6.00   0
   8   0   3   82.03    4.36   0
   9  -3   1   50.51    7.05   0
  10  -4   2   11.13    9.56   0
  10  -3   2   33.78    8.30   0
  10   0   6    2.70    5.73   0
  11  -2   4    7.69    7.93   0
 -12  -2   6   -3.67    7.07   0
 -12   0   9    7.88    9.90   0
 -11   1  10    4.85    9.53   0
 -10  -4   3   40.59    5.32   0
 -10   0   6  124.63    5.75   0
 -10   1   8    1.40    7.31   0
  -9   2  10   19.71    7.59   0
  -6  -1   1  371.54    4.46   0
  -6   3  11    8.70    7.15   0
  -4   0   1 1592.42    6.81   0
  -4   2   5  121.70    3.42   0
  -3   3   8   42.60    3.92   0
  -1  -6  -1   72.23    4.54   0
   2   3   8  338.73    3.01   0
   3  -4  -2  248.87    5.38   0
   3  -3  -2   35.43    2.75   0
   4   2   5   13.45    1.02   0
   6  -6   0   13.55    8.18   0
   6  -4  -1   78.93    6.28   0
   7  -5   0   37.32    7.91   0
   7  -2   0   55.42    5.03   0
   9  -4   1   77.09    6.73   0
   9   1   8   33.40    5.46   0
  10  -2   3   15.30    6.95   0
  10  -1   4   27.08    6.06   0
  11  -1   6   14.82    7.42   0
 -12  -1   7   20.03    6.49   0
 -11  -3   4    3.93    5.57   0
 -11   0   7   19.52    6.99   0
 -10  -3   3    5.24    4.75   0
  -8   2   8   -3.96    6.25   0
  -7   2   7  239.70    6.81   0
  -7   3  12   40.99    8.67   0
  -6   0   2  361.86    5.03   0
  -6   2   6  215.06    5.92   0
  -5   1   3  231.56    4.52   0
  -2   2   4  566.42    4.73   0
   0  -6  -1   98.90    5.45   0
   0  -4  -2   42.77    2.59   0
   0  -3  -2   12.34    1.94   0
   1  -6  -1   26.86    4.89   0
   1  -4  -2    9.45    2.78   0
   1  -3  -2  115.60    2.96   0
   2  -6  -1   24.43    5.83   0
   2  -4  -2   30.09    3.72   0
   2  -3  -2   26.10    2.97   0
   2  -1  -1  864.68    4.41   0
   5  -5  -1   15.56    4.52   0
   6   2   7  250.24    2.94   0
   7   2   9    3.38    2.82   0
   8  -5   1   26.85    8.98   0
   8  -2   1   44.01    5.62   0
   8   1   6   10.18    3.38   0
   9  -2   2   68.84    6.92   0
   9  -1   3   24.27    5.47   0
  10   0   7   57.91    6.00   0
  11  -2   5   85.29    9.28   0
 -12   0   8    4.08    8.32   0
 -11   1   9   30.97    9.08   0
 -10  -1   4  248.78    7.17   0
 -10   2  11   46.92    9.94   0
  -9  -1   3   42.90    4.66   0
  -9   1   6   84.70    6.72   0
  -9   2   9   37.49    7.93   0
  -8   1   5  168.40    5.98   0
  -7   3  11   28.19    7.30   0
  -6   3  10   38.07    4.99   0
  -5   2   5  192.41    4.94   0
  -5   3   9    2.26    3.84   0
  -4  -6   0   53.44    3.03   0
  -4   3   8   33.76    4.52   0
  -3   1   2  359.82    3.97   0
  -1   3   7   17.63    2.71   0
   0   3   7   88.99    2.93   0
   1  -1  -1 2528.64    6.10   0
   4  -5  -1   92.35    6.00   0
   5  -6   0   17.36    7.29   0
   5  -4  -1  182.84    6.05   0
   5  -1   0  165.84    3.97   0
   7  -4   0   18.44    6.38   0
   7  -3   0   25.25    5.51   0
   9   0   5   35.38    4.72   0
   9   1   9    6.17    5.67   0
  10  -4   3  106.76   10.02   0
  10  -3   3    1.57    7.78   0
  10  -1   5  177.26    7.26   0
 -11  -2   4   29.35    6.02   0
 -11  -1   5   23.52    4.90   0
 -10  -2   3   20.38    4.96   0
 -10   0   5  106.30    6.99   0
 -10   1   7   54.69    7.67   0
  -9   0   4   56.55    5.57   0
  -8  -3   1   42.57    3.00   0
  -8  -1   2   65.40    4.29   0
  -7   1   4   91.26    3.94   0
  -6  -2   0  126.78    2.95   0
  -3   2   4  533.20    5.28   0
  -2   3   7   34.59    3.37   0
   0  -1  -1 5181.25    6.31   0
   4  -2  -1 2486.30   10.60   0
   5   2   6  125.75    1.99   0
   6  -6   1   31.42    8.68   0
   6  -5   0   52.82    6.66   0
   7   1   5   78.41    3.40   0
   8  -4   1   84.16    6.23   0
   8  -3   1   51.24    6.31   0
   8   0   4   -3.25    3.68   0
   9  -4   2   14.21    6.52   0
   9  -3   2    5.19    5.62   0
  10  -2   4   13.69    7.51   0
  10   0   8    2.75    6.59   0
 -12  -2   5    0.17    7.30   0
 -12  -1   6   25.26    7.42   0
 -11   0   6   -1.71    6.54   0
 -11   1   8  129.63    9.44   0
 -10   2  10    7.59    6.70   0
  -9  -2   2  134.83    4.50   0
  -9   2   8    4.68    6.73   0
  -8   0   3  118.91    4.09   0
  -8   2   7   46.32    6.29   0
  -7   2   6  320.68    7.13   0
  -7   3  10   33.13    7.56   0
  -6   3   9    3.93    4.41   0
  -5   3   8    2.13    5.02   0
  -3   3   7   20.20    3.84   0
   1   3   7  980.05    4.96   0
   6   0   2 1803.48    8.53   0
   7  -5   1    6.32    8.10   0
   7   0   3    4.98    3.56   0
   7   2  10   38.03    3.63   0
   8  -5   2   17.29    9.51   0
   8   1   7   37.12    4.37   0
   9  -2   3   26.63    6.12   0
   9  -1   4    0.89    5.26   0
  10  -3   4   32.64    9.02   0
 -12   0   7   16.62    8.79   0
 -10   2   9   31.29    8.00   0
  -9  -5   2  126.01    3.92   0
  -8   3  11   27.18    8.31   0
  -7  -1   1  144.63    4.02   0
  -7   0   2   25.79    3.92   0
  -6  -6   1    9.89    1.94   0
  -6   1   3  223.32    4.28   0
  -6   2   5   27.58    4.63   0
  -5  -1   0  149.71    3.12   0
  -5   0   1   40.10    2.75   0
  -4   1   2  417.55    4.60   0
  -4   2   4  186.45    4.47   0
   3  -6   0   27.67    6.83   0
   4  -4  -1   34.41    4.53   0
   4  -3  -1  249.27    5.29   0
   6  -4   0   28.71    5.80   0
   6  -3   0   97.51    5.54   0
   6  -1   1  205.17    4.96   0
   8  -2   2   63.43    5.82   0
   9  -4   3   65.89    9.36   0
   9   0   6   -1.67    4.77   0
  10  -2   5   25.81    7.49   0
  10  -1   6   13.75    6.39   0
 -12   1   9   63.51    7.86   0
 -10   1   6   70.37    7.37   0
  -9   1   5  121.11    6.49   0
  -8  -2   1   76.22    3.57   0
  -8   1   4   31.98    4.99   0
  -8   3  10   10.13    8.04   0
  -7   3   9   23.97    6.70   0
  -6   3   8   17.00    5.74   0
  -4  -4  -1  160.64    1.49   0
  -4   3   7  143.55    4.10   0
  -1   0   0 3193.15    4.55   0
   2  -5  -1  102.86    4.91   0
   3  -2  -1   14.04    3.02   0
   4  -1   0 1024.71    6.39   0
   5  -6   1   20.32    6.17   0
   7  -4   1   -1.84    6.19   0
   7  -3   1  103.24    6.51   0
   8  -4   2   19.05    7.95   0
   8  -3   2  199.05    7.46   0
   8  -1   3   61.01    3.93   0
   9  -3   3   -7.05    5.72   0
  10  -3   5   42.93    9.25   0
 -12  -3   4    3.14    6.83   0
 -12  -1   5   -4.18    7.23   0
 -11  -3   3    7.18    5.10   0
 -11  -1   4    5.91    5.91   0
 -11   0   5   71.96    7.43   0
 -11   1   7   74.07    6.45   0
 -10  -1   3   18.74    5.30   0
 -10   0   4    6.74    6.09   0
  -9   2   7   16.70    6.98   0
  -9   3  11   16.93    9.95   0
  -8   2   6   58.98    5.96   0
  -7  -3   0   28.27    2.54   0
  -5   3   7  105.30    5.40   0
  -3  -6   0   27.06    3.40   0
  -3   4  12    5.96    6.66   0
  -2  -5  -1   20.72    2.69   0
  -2   4  12   16.36    6.01   0
   1  -5  -1   23.62    4.20   0
   3  -4  -1  113.85    4.80   0
   6  -5   1   40.54    6.96   0
   6   2   8  104.42    3.00   0
   7  -5   2   80.19    8.80   0
   8  -5   3  121.26    9.63   0
   8   0   5  643.83    7.39   0
   8   1   8   31.24    4.58   0
   9  -2   4   38.71    6.30   0
   9  -1   5   12.27    5.90   0
   9   0   7   45.24    5.60   0
  10  -2   6   37.83    8.25   0
  10  -1   7   30.46    6.90   0
 -13  -1   6   25.99    9.20   0
 -12   0   6    4.05    8.15   0
 -12   1   8   50.24    7.54   0
 -11  -2   3   31.13    6.18   0
 -11   2   9   19.20    8.78   0
 -10  -3   2   15.18    4.16   0
 -10   2   8   37.95    6.04   0
  -9  -1   2  197.07    5.36   0
  -9   0   3   28.48    4.88   0
  -8   3   9    7.90    7.21   0
  -7   1   3   31.31    4.57   0
  -7   2   5   22.19    5.04   0
  -7   3   8   -2.03    6.03   0
  -5   1   2   48.62    3.56   0
  -5   2   4  218.31    4.27   0
  -4  -2  -1  159.13    1.59   0
  -4   4  12   40.42    7.06   0
  -3   3   6  284.06    4.96   0
  -2   0   0  192.07    2.17   0
  -2   3   6   71.34    3.44   0
  -1  -5  -1    3.68    2.80   0
  -1   3   6  436.89    4.45   0
  -1   4  12   -2.69    4.88   0
   0  -5  -1  100.10    4.02   0
   1  -6   0  145.11    6.27   0
   3  -3  -1  121.07    4.10   0
   4  -6   1   -1.90    7.49   0
   5  -4   0    9.98    4.05   0
   7   1   6  182.55    4.08   0
   9  -4   4    2.49    6.81   0
   9  -3   4  -13.78    7.37   0
  10  -1   8    6.92    7.63   0
 -11   1   6   11.63    7.31   0
 -10  -4   2    1.10    4.24   0
 -10  -2   2   80.59    4.95   0
 -10   1   5   15.53    6.35   0
  -9   3  10   39.05    8.72   0
  -8   0   2   25.78    4.20   0
  -6   0   1   86.84    3.63   0
  -6   3   7   42.83    5.83   0
  -5   4  12   92.08    8.15   0
  -4   3   6   -2.43    3.86   0
  -4   4  11   21.67    6.89   0
  -3   4  11    3.81    5.54   0
  -2  -6   0   29.61    4.16   0
  -2   4  11    8.57    4.77   0
  -1  -6   0  162.15    5.33   0
   0  -6   0  393.40    6.78   0
   2  -4  -1   15.23    3.77   0
   2  -2  -1  529.19    4.48   0
   5  -6   2   39.34    9.00   0
   5   0   2  262.68    3.88   0
   6  -4   1   13.50    6.10   0
   6  -2   1  189.92    5.46   0
   7  -4   2   17.27    6.69   0
   7  -2   2  435.35    7.17   0
   7   0   4  103.43    4.22   0
   8  -4   3    3.22    7.47   0
   8  -2   3   85.89    6.17   0
   8  -1   4   43.86    4.84   0
   9   0   8   26.47    6.09   0
  10  -2   7   25.44    9.17   0
 -12   1   7   -2.16    9.08   0
 -10   2   7    2.23    7.67   0
  -9   1   4  286.00    6.90   0
  -9   2   6    9.02    6.35   0
  -8  -1   1  133.61    4.41   0
  -8   3   8   66.17    6.97   0
  -7  -4   0   20.46    1.91   0
  -7  -2   0   45.51    2.50   0
  -6   2   4   81.76    4.67   0
  -5   4  11   42.84    6.68   0
  -3   2   3  944.64    6.34   0
  -2   2   3  360.77    3.92   0
  -1   2   3  130.97    2.42   0
  -1   4  11  119.94    5.23   0
   0   3   6   55.41    2.14   0
   0   4  12   36.43    4.41   0
   3  -5   0  275.88    6.92   0
   5  -5   1    2.10    4.60   0
   6  -5   2   33.63    7.67   0
   6  -3   1   77.37    5.52   0
   6   0   3   35.24    3.38   0
   6   1   5  197.72    3.72   0
   7  -5   3   70.55    9.42   0
   7  -3   2   16.73    5.90   0
   8  -3   3   16.04    5.03   0
   8   1   9   55.13    4.73   0
   9  -4   5   43.47    9.49   0
   9  -2   5   19.63    6.98   0
   9  -1   6   51.43    6.26   0
 -12  -1   4    1.11    7.28   0
 -12   0   5    0.63    7.97   0
 -11  -1   3   17.72    5.84   0
 -11   0   4   55.24    6.87   0
 -11   2   8   13.13    6.67   0
  -9  -2   1   78.55    4.49   0
  -9   3   9    9.48    6.16   0
  -8  -5   1    2.40    1.83   0
  -8   1   3   51.68    5.10   0
  -8   2   5   20.77    4.34   0
  -7   3   7   91.85    6.67   0
  -6  -1   0  101.35    2.95   0
  -6   1   2   79.40    4.30   0
  -6   4  11    4.57    7.15   0
  -5   3   6   74.57    4.87   0
  -4   4  10    6.12    5.56   0
  -3   0   0  502.47    3.62   0
  -3   4  10   32.81    5.29   0
  -2   4  10   47.71    5.08   0
   1  -4  -1   27.76    3.30   0
   2  -3  -1  579.19    5.44   0
   2   3   7  488.36    2.74   0
   3  -1   0 2884.22    8.99   0
   4  -4   0   61.37    3.90   0
   4  -2   0  343.30    4.98   0
   6  -1   2  357.88    5.57   0
   7  -1   3  462.68    5.94   0
   8   0   6  161.65    5.22   0
   8   1  10   89.45    5.71   0
   9  -3   5    6.04    6.04   0
   9   0   9   13.08    6.62   0
 -13  -1   5   23.20    8.06   0
 -13   0   6   17.73    9.43   0
 -10   0   3   84.20    5.95   0
  -9  -4   1   12.95    3.43   0
  -7   2   4  204.85    6.09   0
  -6   3   6   10.80    5.00   0
  -5   4  10   66.31    7.02   0
  -4   2   3  203.74    3.78   0
  -1   4  10    4.15    4.21   0
   0   2   3   34.50    1.72   0
   0   4  11   47.85    4.05   0
   2  -5   0   13.55    4.70   0
   3   0   1    1.89    1.80   0
   4  -6   2   -6.21    7.22   0
   4  -5   1    5.67    5.77   0
   4  -3   0  117.68    4.73   0
   5  -6   3   35.73    8.64   0
   5  -4   1  103.40    6.05   0
   6   2   9   24.91    3.09   0
   8  -4   4   50.17    6.54   0
   8  -2   4   96.65    6.66   0
   9  -2   6   41.89    7.80   0
   9  -1   7  188.18    7.64   0
 -12   1   6   44.52    8.98   0
 -11   1   5   33.92    5.70   0
 -11   2   7    5.66    8.62   0
 -10   1   4  255.06    8.03   0
 -10   2   6   37.38    7.18   0
 -10   3   9    7.53    9.11   0
  -9   0   2   29.83    5.03   0
  -9   2   5   37.29    6.36   0
  -9   3   8    9.11    7.28   0
  -8   3   7   66.67    7.13   0
  -7   0   1   94.00    3.32   0
  -6   4  10   40.60    7.61   0
  -5  -3  -1  260.11    1.71   0
  -5   2   3  471.23    6.14   0
  -4   0   0  166.23    2.98   0
  -3   1   1 1786.78    7.23   0
  -3   4   9   14.40    5.24   0
  -2   1   1  861.00    4.38   0
   0  -4  -1  333.58    4.23   0
   1  -2  -1  612.78    4.10   0
   5  -5   2   36.69    6.71   0
   5   2   7  144.70    2.57   0
   6  -5   3   12.24    7.43   0
   6  -4   2   48.12    6.32   0
   7  -5   4   14.50    6.81   0
   7  -4   3    6.03    5.51   0
   7  -2   3   30.43    5.12   0
   8  -3   4   -3.06    5.02   0
   8  -1   5   37.61    3.82   0
   8   0   7   45.73    4.85   0
   9  -3   6   25.81    6.65   0
 -11  -3   2    3.95    4.70   0
 -11  -2   2   12.96    5.60   0
  -9   1   3   30.28    5.66   0
  -7   1   2  705.97    7.57   0
  -7   3   6  201.14    7.10   0
  -7   4  10   20.91    7.71   0
  -5   4   9   75.96    6.43   0
  -4   3   5  216.81    5.22   0
  -4   4   9   37.76    5.26   0
  -3   3   5  113.57    3.35   0
  -2   3   5   12.25    2.99   0
  -2   4   9   24.39    4.10   0
  -1  -4  -1   45.20    2.59   0
  -1   1   1 2713.56    6.28   0
   1  -6   1   89.68    6.39   0
   1  -5   0    6.20    4.14   0
   1  -3  -1   61.44    2.79   0
   1   3   6  363.91    3.01   0
   3  -6   2   -8.99    7.22   0
   3  -4   0   42.60    3.35   0
   5  -3   1  258.74    5.88   0
   6  -3   2  189.05    6.27   0
   6  -2   2  132.66    5.34   0
   7  -3   3   23.88    6.02   0
   7   0   5  782.82    7.16   0
   8  -4   5  110.44    9.19   0
   9  -3   7    1.21    9.15   0
   9  -2   7    2.78    8.27   0
   9  -1   8   27.21    6.92   0
 -13   0   5   16.53    9.07   0
 -12   0   4   33.44    7.76   0
 -10   3   8    6.59    8.91   0
  -9  -1   1   64.74    4.44   0
  -9   3   7   30.48    7.79   0
  -8  -3   0    4.18    2.64   0
  -8   2   4   27.86    4.36   0
  -7  -1   0   14.83    2.99   0
  -6   2   3  172.98    5.35   0
  -6   4   9    4.86    6.75   0
  -5  -2  -1  169.79    2.23   0
  -5   3   5  584.87    7.43   0
  -4   1   1  855.62    5.64   0
  -2  -4  -1    7.19    1.99   0
  -1   3   5  192.90    3.29   0
   0   4  10    5.70    3.36   0
   1   4  12   58.15    3.59   0
   3  -5   1   10.25    5.55   0
   4  -6   3   -0.89    8.51   0
   4  -1   1  144.31    3.58   0
   7  -5   5   51.89   10.40   0
   7  -4   4   -1.19    7.38   0
   7  -1   4  282.29    5.99   0
   7   1   8    7.35    4.30   0
   8  -3   5    1.13    7.48   0
   8  -2   5  155.68    6.99   0
   8  -1   6   18.81    5.38   0
   9  -1   9   15.06    7.86   0
 -13   1   6   -8.26    9.26   0
 -12  -1   3   34.72    6.86   0
 -12   1   5    6.48    8.33   0
 -12   2   7    6.67    9.76   0
 -11   0   3    5.10    4.60   0
 -11   1   4   19.56    6.87   0
 -11   2   6   25.93    6.04   0
 -10  -3   1   53.74    4.59   0
 -10   2   5   11.64    7.21   0
  -8   0   1   25.98    4.33   0
  -8   3   6  152.23    7.46   0
  -8   4  10   -0.47    9.15   0
  -7   4   9   11.28    7.02   0
  -6   3   5  116.44    5.70   0
  -5  -6   1   16.93    3.36   0
  -5  -5   0    1.27    1.91   0
  -5   0   0  300.79    4.11   0
  -5   1   1  748.78    6.28   0
  -4   4   8   52.89    5.17   0
  -3   4   8   38.51    5.14   0
  -1   4   9    2.67    3.32   0
   0  -6   1   89.24    5.59   0
   0  -5   0   -0.03    3.77   0
   3  -2   0  771.06    5.55   0
   4  -5   2   46.70    6.09   0
   4  -4   1  159.63    5.68   0
   6  -5   4  107.71    9.29   0
   6  -4   3   87.00    6.84   0
   6  -1   3  718.61    7.14   0
   6   0   4  111.03    3.86   0
   6   1   6  109.16    3.34   0
   8  -4   6   27.71    7.14   0
   8   0   8    3.83    5.18   0
   9  -2   8   24.69    6.85   0
 -11  -1   2    0.24    5.69   0
 -10   0   2    6.57    5.67   0
 -10   1   3   13.60    5.98   0
  -9   2   4  142.48    7.47   0
  -8   1   2   50.06    3.78   0
  -7   2   3   17.01    4.93   0
  -5   4   8    2.37    5.41   0
  -2   4   8    5.17    4.15   0
  -1  -6   1   33.59    4.90   0
   0  -3  -1  201.04    2.94   0
   0  -2  -1  773.98    3.73   0
   1   4  11   18.78    3.29   0
   2  -6   2   79.07    6.60   0
   2  -4   0   50.04    3.14   0
   2  -1   0 8912.87   13.45   0
   4   0   2   35.71    1.71   0
   5  -5   3  100.98    7.48   0
   5  -4   2  156.45    5.47   0
   5  -1   2   63.49    2.85   0
   5   0   3  390.95    4.37   0
   7  -3   4   81.52    6.77   0
   7  -2   4   16.76    5.38   0
   7   0   6    3.66    3.97   0
   8  -3   6    9.29    7.98   0
   8  -2   6   87.40    7.20   0
   8   0   9   50.05    5.68   0
 -11   3   8    6.95    7.53   0
 -10   3   7   10.86    6.07   0
  -9   3   6   28.17    7.34   0
  -8   4   9   56.68    8.27   0
  -7   3   5   45.28    4.57   0
  -6   0   0  415.40    5.09   0
  -6   1   1  366.47    5.61   0
  -6   4   8   10.81    4.66   0
  -4  -6   1   19.22    3.64   0
  -3  -6   1   20.17    4.24   0
  -2  -1  -1 1311.17    2.43   0
  -1  -5   0    3.04    3.28   0
   0   3   5  205.86    2.96   0
   2  -5   1   22.89    5.07   0
   2   1   2 1328.77    2.68   0
   3  -6   3   35.70    7.72   0
   4  -6   4   13.45    9.00   0
   4  -2   1  154.00    4.21   0
   6  -3   3   41.40    5.54   0
   6  -2   3  150.68    5.40   0
   7  -4   5   12.49    7.56   0
   7  -1   5   92.54    5.04   0
   7   1   9   15.79    4.18   0
   8  -1   7   47.76    6.08   0
 -13   0   4   48.10    8.41   0
 -13   1   5    6.90    9.17   0
 -12  -2   2   75.60    6.66   0
 -12   0   3    7.95    7.39   0
 -12   2   6   10.95    6.92   0
 -11   2   5   25.79    7.54   0
 -10  -1   1   15.15    4.68   0
  -9   0   1  152.13    5.59   0
  -9   1   2  191.41    6.80   0
  -8  -1   0  108.42    3.97   0
  -8   2   3  201.14    6.65   0
  -8   3   5   18.75    5.99   0
  -7   4   8   30.64    5.36   0
  -4   2   2   97.34    3.66   0
  -4   3   4   47.78    4.07   0
  -3   2   2  415.03    4.18   0
  -3   3   4    5.41    3.40   0
  -2  -5   0   11.47    3.29   0
   0   4   9   25.39    3.18   0
   1  -6   2   39.97    6.51   0
   3  -4   1  100.20    5.10   0
   5  -3   2  193.80    4.86   0
   5  -2   2  940.83    8.15   0
   6  -5   5   32.51    6.81   0
   6  -4   4   51.37    6.97   0
   7   1  10   74.75    5.60   0
   8  -3   7  150.38    9.34   0
   8  -2   7    6.66    7.19   0
   8   0  10  -11.37    6.37   0
 -13  -1   3   15.42    7.83   0
 -12  -3   2    8.37    5.68   0
 -12   1   4   16.32    5.95   0
 -11   0   2    4.44    5.89   0
 -11   1   3   13.43    6.38   0
 -11   3   7    2.68    9.06   0
 -10   2   4    6.39    5.08   0
 -10   3   6   41.23    8.28   0
  -9  -2   0  100.25    4.48   0
  -8   4   8   54.29    8.49   0
  -7   1   1  134.05    5.01   0
  -6  -2  -1  192.31    2.80   0
  -6   3   4   26.25    4.83   0
  -6   4   7   42.19    6.32   0
  -5   2   2  535.50    5.73   0
  -5   3   4   59.91    3.66   0
  -5   4   7   68.83    5.81   0
  -4  -5   0   55.01    2.47   0
  -4   4   7   17.52    4.67   0
  -3  -5   0  278.09    4.08   0
  -3   4   7   93.83    4.78   0
  -2   2   2 1107.84    5.73   0
  -2   3   4  144.66    3.49   0
  -1  -3  -1  274.11    2.77   0
  -1   4   8   49.95    3.34   0
   1  -4   0  200.33    4.58   0
   2  -3   0  555.52    5.56   0
   3  -5   2  279.83    6.24   0
   4  -5   3  192.65    7.78   0
   4  -4   2    8.55    5.11   0
   4   2   6  253.52    2.33   0
   5  -5   4   11.36    5.66   0
   5  -4   3   37.29    6.18   0
   5   2   8  156.66    3.08   0
   7  -4   6  128.16    8.83   0
   7  -3   5   12.02    4.90   0
   7  -2   5   12.69    5.84   0
   7   0   7  428.48    6.63   0
   8  -3   8   37.65    8.90   0
   8  -1   8   27.11    4.87   0
 -11  -2   1    7.73    5.40   0
 -10  -4   1   44.47    3.50   0
  -9  -3   0   86.72    3.67   0
  -9   2   3  265.69    7.75   0
  -9   3   5   20.17    7.21   0
  -9   4   8   12.50    8.40   0
  -7   0   0  248.92    4.86   0
  -7   4   7    8.31    7.04   0
  -6   2   2   90.90    3.81   0
  -5  -1  -1  257.87    3.10   0
  -2   4   7   17.45    4.07   0
   0  -6   2   81.90    6.36   0
   0   1   1 5204.46    6.33   0
   1  -5   1   10.34    4.19   0
   1   2   3 1017.36    3.02   0
   2  -6   3   13.65    6.82   0
   2  -2   0  963.42    5.83   0
   3  -6   4    5.29    8.61   0
   4  -6   5    8.46    9.12   0
   6  -5   6   25.50    7.29   0
   6  -3   4   59.28    6.05   0
   6  -1   4    9.40    3.91   0
   6   0   5    9.16    3.22   0
   6   1   7   49.74    3.47   0
   7  -1   6  179.39    6.22   0
   7   1  11   74.97    5.47   0
   8  -2   8  120.31    8.13   0
   8  -1   9   54.05    7.49   0
 -12   2   5   -1.51    6.65   0
 -11  -3   1  105.83    5.26   0
 -11   2   4   32.75    7.95   0
 -11   3   6    7.11    8.48   0
 -10   1   2   41.47    6.36   0
  -9  -1   0  208.18    4.83   0
  -8  -4   0   52.68    2.00   0
  -8   1   1  134.76    5.48   0
  -8   4   7   36.89    7.30   0
  -7   2   2  113.88    5.46   0
  -7   3   4   74.92    4.37   0
  -6  -3  -1   79.37    1.61   0
   1   4  10  154.57    3.11   0
   3  -1   1  153.42    3.33   0
   4   3  12    9.86    2.43   0
   5  -5   5   15.22    8.11   0
   6  -4   5    9.06    7.04   0
   6  -2   4  410.95    7.23   0
   7  -4   7   27.62    6.97   0
   7  -3   6  115.64    7.50   0
   7  -2   6   82.94    6.53   0
   8  -2   9   15.35    8.80   0
   8  -1  10   91.02    8.54   0
 -13   0   3    3.60    7.59   0
 -13   1   4   -0.35    8.90   0
 -12   1   3   33.87    7.56   0
 -10   3   5    6.39    7.82   0
  -8   0   0   42.18    4.27   0
  -8   3   4   93.04    6.61   0
  -6  -1  -1  214.23    3.51   0
  -6   4   6   99.61    6.22   0
  -5   4   6   16.14    5.32   0
  -4   4   6  173.12    5.74   0
  -1  -6   2   74.50    5.72   0
  -1  -2  -1  156.85    1.65   0
  -1   2   2   55.70    2.08   0
  -1   3   4   50.56    2.60   0
   0  -5   1   94.09    4.42   0
   0  -4   0  437.91    4.97   0
   1  -6   3   42.33    6.81   0
   2  -5   2   82.42    5.74   0
   2  -4   1    1.86    4.15   0
   2   0   1   52.82    1.68   0
   3  -3   1  115.34    3.54   0
   4  -5   4    5.41    7.14   0
   4  -3   2  102.09    5.00   0
   4  -1   2 1537.76    7.90   0
   5  -4   4   -1.03    5.83   0
   5  -3   3  396.62    6.19   0
   5  -1   3  133.63    3.50   0
   7  -4   8    7.19    9.11   0
   7   0   8   14.00    4.47   0
   8  -2  10   76.86   10.20   0
 -12   0   2   -1.44    6.76   0
 -10   2   3   20.84    5.20   0
  -9   4   7   18.26    8.07   0
  -8   2   2   46.36    5.23   0
  -7  -2  -1  348.25    3.72   0
  -7   4   6   39.21    6.76   0
  -3   4   6  228.79    5.37   0
  -2  -3  -1   32.50    1.53   0
  -1   4   7    7.17    3.41   0
   0   4   8    0.56    2.79   0
   1  -3   0   59.65    2.81   0
   2  -6   4   78.56    8.16   0
   3  -6   5   10.02    8.20   0
   3  -5   3   38.21    4.69   0
   3  -4   2  127.40    5.51   0
   3  -2   1  592.13    5.54   0
   4  -4   3  302.33    7.17   0
   5  -5   6   75.38    9.23   0
   5  -2   3   17.72    4.18   0
   5   0   4  528.39    5.10   0
   6  -4   6    5.26    8.06   0
   6  -3   5    9.52    6.15   0
   6   1   8   96.79    3.88   0
   7  -3   7    9.48    5.57   0
   7  -1   7   44.00    5.42   0
   7   0   9   -0.59    4.94   0
 -13  -1   2   -0.53    7.20   0
 -12   2   4   87.94    8.82   0
 -11   1   2    6.47    6.28   0
 -11   3   5    2.81    8.88   0
 -10  -2   0   19.74    4.19   0
 -10   4   7   18.00    9.23   0
  -9   1   1   83.30    4.55   0
  -9   3   4   33.90    5.62   0
  -8   4   6   24.64    7.42   0
  -6   3   3  988.24    9.46   0
  -5   1   0  150.33    3.93   0
  -5   3   3  638.62    6.76   0
  -4   1   0 1029.20    6.22   0
  -4   3   3  251.93    4.50   0
  -2  -6   2  120.67    5.44   0
   4  -2   2  149.07    3.57   0
   6  -2   5   11.50    4.92   0
   6  -1   5  172.45    4.46   0
   6   0   6   12.20    3.36   0
   7  -3   8   20.93    8.48   0
   7  -2   7   14.84    4.87   0
 -13   1   3   24.65    8.70   0
 -12  -2   1   17.38    5.68   0
 -12  -1   1   38.91    6.94   0
 -11   0   1    3.35    4.66   0
 -11   2   3   41.45    7.36   0
 -10  -1   0   89.88    5.10   0
 -10   3   4   48.26    7.73   0
  -9   2   2  113.48    5.42   0
  -9   4   6   13.78    7.72   0
  -7  -1  -1  330.26    4.36   0
  -7   3   3   54.60    5.43   0
  -6   1   0  109.44    3.49   0
  -5   2   1  100.13    4.36   0
  -4   2   1 2540.07   10.72   0
  -4   5  10    4.23    6.34   0
  -3   1   0 2854.59    8.89   0
  -3   3   3  115.88    3.25   0
  -2   4   6  161.90    4.35   0
  -1  -5   1   36.32    3.91   0
  -1  -4   0  200.63    3.77   0
   0  -6   3   54.55    6.63   0
   1  -5   2   38.74    5.00   0
   1  -1   0 1276.89    4.43   0
   3  -6   6   63.85   10.25   0
   4  -5   5   21.92    7.34   0
   4   0   3    4.13    2.18   0
   5  -5   7   27.08    9.65   0
   5  -4   5   42.09    7.13   0
   5  -3   4   24.33    5.27   0
   5   1   6   13.56    2.31   0
   6  -4   7   45.48    8.26   0
   6   1   9   12.28    4.48   0
   7  -3   9   49.84    9.32   0
   7  -2   8   59.29    7.44   0
   7  -1   8   16.93    4.60   0
   7   0  10   25.73    5.70   0
   7   0  11   11.97    6.21   0
 -13   0   2   -0.26    8.17   0
 -10  -3   0    9.48    3.71   0
 -10   1   1    9.60    6.26   0
  -8   3   3   40.78    6.40   0
  -7   1   0    6.82    4.33   0
  -7   4   5    7.90    5.83   0
  -6   2   1  109.82    3.97   0
  -6   4   5   38.89    6.00   0
  -6   5   9    1.72    7.83   0
  -5   0  -1  164.09    3.28   0
  -5   4   5   16.17    4.96   0
  -5   5   9    4.01    7.07   0
  -4   4   5   -1.37    4.28   0
  -3  -6   2   90.22    4.87   0
  -3   5  10   33.01    5.97   0
   1  -6   4   13.50    7.27   0
   1  -4   1   35.66    3.90   0
   1  -2   0  331.83    3.41   0
   1   3   5  359.60    2.63   0
   1   4   9   43.53    2.35   0
   2  -6   5   51.19    7.84   0
   2  -5   3  186.69    6.77   0
   2  -3   1   31.69    3.37   0
   3  -5   4   28.08    6.09   0
   6  -4   8   -3.91    9.23   0
   6  -3   6   13.66    4.82   0
   7  -2   9    7.66    7.29   0
   7  -1   9   26.72    6.56   0
 -12  -3   1   42.15    5.23   0
 -12   1   2   39.07    6.20   0
 -12   2   3    7.38    8.81   0
 -11   3   4   -1.63    8.34   0
 -10   2   2   82.61    5.53   0
 -10   4   6   19.67    8.72   0
  -9   3   3   66.96    7.21   0
  -8   4   5   28.78    7.59   0
  -7   2   1   16.68    3.56   0
  -6   0  -1   32.67    3.17   0
  -5  -6   2    3.63    4.07   0
  -4  -6   2   15.54    4.67   0
  -4   0  -1   61.61    1.93   0
  -4   5   9   -3.29    5.96   0
  -3   2   1   11.84    2.02   0
  -2   3   3    2.84    2.73   0
  -1  -6   3  111.62    6.21   0
   3  -3   2   54.76    4.32   0
   3   2   5   11.46    1.00   0
   4  -5   6    6.04    8.13   0
   4  -4   4  121.32    5.35   0
   4  -3   3  167.96    4.57   0
   5  -4   6   65.12    7.48   0
   5  -2   4   31.26    4.63   0
   5  -1   4   60.84    3.13   0
   6  -4   9   -1.44   10.08   0
   6  -2   6   50.22    5.86   0
   6  -1   6  116.82    5.19   0
   6   0   7   34.42    4.09   0
   6   1  10   52.03    4.67   0
   7  -2  10   24.65    8.74   0
   7  -1  10   72.08    7.90   0
 -12   0   1   12.85    6.56   0
 -11  -2   0   29.13    4.90   0
 -11  -1   0   -1.29    5.12   0
 -11   1   1    8.15    6.25   0
  -9   4   5    2.21    8.17   0
  -8   1   0  105.08    4.22   0
  -8   2   1   82.76    5.86   0
  -7   0  -1   29.21    3.74   0
  -7   5   8   28.23    8.84   0
  -6   5   8   11.10    7.45   0
  -5   5   8   69.07    6.45   0
  -3  -3  -1  119.22    1.47   0
  -3   0  -1    4.63    1.81   0
  -3   4   5  378.09    5.65   0
  -3   5   9   57.82    6.03   0
  -2  -5   1   93.47    3.79   0
  -2   1   0 8919.96   13.52   0
   0  -5   2  143.65    4.96   0
   0  -3   0   -3.49    2.10   0
   0   3   4   35.80    1.91   0
   2  -6   6   26.68    9.37   0
   2  -4   2   72.65    3.69   0
   3  -4   3  289.62    5.77   0
   5  -3   5   40.51    6.00   0
   5   0   5   36.59    3.29   0
   6  -3   7    3.70    5.05   0
   6   1  11   -3.78    4.88   0
   7  -2  11   14.14    8.55   0
   7  -1  11   12.37    6.38   0
 -13  -1   1   23.98    7.35   0
 -13   1   2   -4.12    8.42   0
 -12   3   4    9.23    9.36   0
 -11   2   2   23.25    7.53   0
 -10   3   3   12.94    7.99   0
  -9   2   1   91.44    6.40   0
  -7   3   2   24.29    5.70   0
  -6   3   2  361.71    6.91   0
  -5   3   2  933.50    8.55   0
  -4   5   8   23.05    5.44   0
  -2  -4   0   49.86    2.62   0
  -2   2   1  532.63    4.51   0
  -2   5  10   21.17    5.16   0
  -1   4   6   47.49    3.07   0
   0  -6   4   77.38    6.71   0
   0   2   2  312.15    2.48   0
   0   4   7   51.73    2.75   0
   1  -6   5   10.60    7.29   0
   2  -5   4   57.71    6.01   0
   3  -5   5   54.61    5.50   0
   4  -5   7   18.28    8.33   0
   4  -2   3  121.10    4.31   0
   4  -1   3  216.60    4.12   0
   4   2   7   78.70    2.07   0
   5  -4   7  152.91    8.94   0
   6  -3   8   24.54    7.96   0
   6  -2   7  234.66    7.43   0
   6  -1   7   42.35    5.40   0
   6   0   8   41.42    4.53   0
   6   1  12   26.02    5.71   0
 -11   0   0  424.80    8.40   0
 -10   4   5    2.96    6.62   0
  -9  -4   0   16.35    2.07   0
  -9  -2  -1   94.40    3.78   0
  -8   0  -1  136.28    4.97   0
  -8   3   2   15.17    6.19   0
  -8   4   4   45.14    6.96   0
  -7   4   4    7.74    5.81   0
  -7   5   7   89.79    8.12   0
  -6   4   4  105.68    5.08   0
  -6   5   7   87.61    7.28   0
  -5   4   4  276.14    6.41   0
  -4   3   2  456.72    5.49   0
  -3  -5   1   76.76    3.81   0
  -2  -6   3   27.69    5.46   0
  -2   4   5  405.04    5.38   0
   0  -4   1  351.82    5.05   0
   1  -5   3  192.02    5.22   0
   2  -2   1   38.74    2.12   0
   2  -1   1 1283.20    5.48   0
   3  -2   2  163.05    3.93   0
   3  -1   2 1248.42    6.60   0
   4  -5   8   31.70    9.86   0
   4  -4   5    2.89    4.53   0
   4  -3   4  263.64    6.18   0
   5  -2   5   18.07    4.66   0
   5   1   7  125.02    3.38   0
   6  -3   9   -1.71    8.18   0
 -13   0   1    2.33    7.98   0
 -12   2   2   92.09    9.36   0
 -11  -3   0   52.32    4.43   0
 -11   3   3    1.66    6.28   0
 -10   1   0  102.32    6.74   0
 -10   2   1   25.13    7.02   0
  -9   3   2   19.85    6.97   0
  -9   4   4   39.47    7.62   0
  -5   5   7   15.23    6.40   0
  -4   4   4   70.17    4.42   0
  -3   3   2   31.21    3.54   0
  -3   5   8    3.59    4.88   0
  -2   5   9   64.99    5.21   0
  -1  -6   4    6.27    6.05   0
  -1   3   3   22.49    2.49   0
   1  -6   6   24.64    8.62   0
   3  -5   6   13.87    7.04   0
   3  -4   4  151.96    6.24   0
   4   1   5  165.26    2.70   0
   5  -4   8   32.18    6.40   0
   5  -3   6   34.70    4.81   0
   5  -1   5  233.06    4.55   0
   6  -3  10   13.36    8.18   0
   6  -2   8  107.16    5.53   0
   6  -1   8   90.26    6.07   0
   6   0   9   28.11    5.16   0
 -12  -1   0   10.29    5.75   0
 -10  -1  -1   14.66    4.22   0
  -8  -5   1    4.49    1.84   0
  -7   2   0   45.22    4.94   0
  -6   2   0  130.77    5.23   0
  -5   2   0  393.12    5.79   0
  -4   5   7    6.21    5.50   0
  -3  -6   3    4.75    5.09   0
  -3   4   4   55.19    3.90   0
  -1  -5   2  113.94    4.86   0
   0  -6   5   60.65    7.39   0
   1  -4   2   59.98    4.36   0
   1  -3   1  277.91    4.28   0
   2  -5   5   60.51    6.43   0
   2  -4   3  132.09    5.46   0
   3  -3   3  331.93    6.05   0
   4  -4   6   11.35    4.96   0
   4   0   4  301.13    3.88   0
   5  -4   9    7.02    6.78   0
   5  -4  10   71.85   10.53   0
   6  -2   9   29.19    7.13   0
   6  -1   9   18.00    6.17   0
   6   0  10  102.83    6.10   0
   6   0  11   13.30    5.94   0
 -12   0   0   -2.38    6.76   0
 -12   3   3    4.21    7.12   0
 -11   1   0    3.62    6.26   0
 -11   2   1    0.42    7.54   0
 -10  -2  -1  141.73    5.12   0
 -10   3   2    9.54    5.89   0
 -10   4   4   52.39    7.06   0
  -8   2   0  330.53    7.37   0
  -8   5   6    8.40    8.05   0
  -7   1  -1  336.37    6.09   0
  -7   5   6   51.88    8.22   0
  -6   1  -1  213.45    4.23   0
  -6   5   6   23.99    7.03   0
  -5   1  -1  262.41    4.53   0
  -4  -5   1   89.54    3.59   0
  -4   2   0  338.34    5.06   0
   0  -5   3  224.51    6.18   0
   1  -6   7    7.68    9.16   0
   1  -5   4   82.28    6.39   0
   1   4   8   71.71    2.15   0
   2  -3   2  106.48    3.37   0
   3  -5   7   42.85    6.25   0
   4  -3   5   59.73    5.22   0
   4  -2   4  -10.02    4.19   0
   5  -3   7   74.66    5.33   0
   5  -2   6  129.42    5.96   0
   5   1   8  483.23    5.49   0
   6  -2  10   59.05    6.40   0
   6  -2  11    3.91    8.90   0
   6  -1  10   59.05    7.06   0
 -13   1   1   29.40    6.83   0
 -11   3   2   12.48    9.04   0
 -10   0  -1  218.97    6.37   0
  -9   2   0  109.47    6.79   0
  -8   4   3  182.14    8.32   0
  -7   3   1  481.84    8.08   0
  -7   4   3  119.13    5.55   0
  -6   3   1  293.68    6.57   0
  -6   4   3  122.31    5.14   0
  -5   4   3  122.31    5.73   0
  -5   5   6   22.56    6.19   0
  -4  -6   3    1.32    4.71   0
  -4   1  -1  163.73    3.72   0
  -3   5   7    2.17    5.36   0
  -2  -6   4   37.69    6.34   0
  -2   3   2   18.00    2.95   0
  -2   5   8   15.27    4.66   0
  -1   4   5   50.70    3.39   0
  -1   5  10   44.10    4.30   0
   0  -6   6   31.10    8.24   0
   3  -5   8    4.13    9.11   0
   3  -4   5    7.68    5.85   0
   4  -4   7  123.03    6.59   0
   4  -1   4  283.95    4.86   0
   5  -3   8   52.33    7.74   0
   5  -1   6   15.50    3.25   0
   6  -1  11   -6.24    6.83   0
   6  -1  12   30.38    7.99   0
 -13  -1   0   49.52    7.40   0
 -12   2   1    4.78    8.98   0
 -11  -1  -1   56.13    5.45   0
  -9  -3  -1   58.27    3.04   0
  -9   3   1    7.39    6.80   0
  -9   4   3   86.78    6.48   0
  -8   3   1   42.97    5.00   0
  -5  -6   3   21.53    5.12   0
  -5  -5   1   16.86    3.01   0
  -5   3   1  380.86    5.62   0
  -4   4   3   50.42    4.63   0
  -4   5   6  102.38    5.72   0
  -2  -5   2   75.33    4.27   0
  -2  -2  -1   38.96    0.84   0
  -2   4   4   61.20    3.91   0
  -1  -6   5  102.45    7.37   0
  -1  -4   1   22.16    2.91   0
  -1  -3   0   59.18    2.10   0
  -1   1   0 1288.90    4.47   0
  -1   2   1  645.95    4.20   0
   0  -2   0 1519.94    5.48   0
   0   4   6  267.35    3.44   0
   2  -5   6   23.51    5.36   0
   3  -5   9   51.10    9.97   0
   4  -4   8   88.31    8.61   0
   5  -3   9    4.03    7.64   0
   5  -2   7  160.05    6.59   0
   5   0   7   57.03    4.10   0
 -13   0   0    7.59    7.73   0
 -12   1   0    6.65    5.73   0
 -12   3   2   -0.81    9.97   0
 -11   0  -1   65.16    6.26   0
 -10   2   0   38.28    5.24   0
 -10   4   3   41.53    6.93   0
  -8   5   5   10.96    8.78   0
  -7  -5   1   59.56    2.63   0
  -7  -1  -2   57.36    3.05   0
  -7   5   5   13.68    7.59   0
  -6  -1  -2  354.48    3.92   0
  -6   5   5   45.58    7.07   0
  -4   3   1  267.14    4.59   0
  -3   2   0  819.34    5.84   0
   0  -6   7   10.26    8.99   0
   1  -5   5  127.65    7.00   0
   2  -5   7    3.50    7.25   0
   2  -4   4  294.45    5.75   0
   3  -4   6    7.81    6.23   0
   3  -3   4  334.40    6.20   0
   3  -2   3  484.83    5.14   0
   3   3   9    5.03    1.61   0
   4  -4   9    2.12    8.78   0
   4  -3   6    7.63    5.21   0
   5  -3  10    4.62    6.31   0
   5  -3  11    1.80    9.34   0
   5  -1   7  124.12    5.47   0
   5   1  10   62.05    4.97   0
 -11  -2  -1    4.54    4.43   0
 -11   2   0   33.39    7.74   0
 -10   3   1    8.12    6.23   0
  -8  -1  -2  276.91    4.81   0
  -7   0  -2  345.63    5.32   0
  -7   4   2  116.23    6.69   0
  -6   0  -2 1804.40    8.93   0
  -5   5   5   10.43    6.11   0
  -4  -4   0   61.88    2.32   0
  -4  -3  -1   14.53    0.94   0
  -3   1  -1  153.28    2.74   0
  -3   4   3   55.31    3.98   0
  -1  -6   6   31.48    7.83   0
  -1  -5   3   38.37    4.83   0
  -1   5   9   27.46    3.81   0
   0  -5   4   67.28    5.75   0
   0  -4   2   33.49    3.56   0
   1  -4   3   19.06    4.10   0
   1  -2   1  159.56    3.00   0
   2  -2   2  701.83    5.61   0
   4  -4  10    6.56    6.97   0
   4  -2   5   11.83    3.30   0
   4   0   5    1.59    2.80   0
   4   1   6  173.85    3.06   0
   5  -2   8  185.43    5.96   0
   5   0   8  124.81    4.90   0
   5   1  11   11.79    5.01   0
   5   1  12    7.73    5.45   0
   5   1  13   14.18    6.08   0
 -13   1   0   58.87    9.47   0
 -12  -1  -1  206.69    7.38   0
 -10  -4   0   98.82    2.46   0
  -9  -1  -2  120.27    4.91   0
  -9   4   2   -5.84    7.72   0
  -8   0  -2  294.60    5.74   0
  -8   4   2   56.80    5.58   0
  -7   2  -1  329.39    6.80   0
  -6   2  -1  202.59    5.46   0
  -6   4   2    6.13    4.32   0
  -5   0  -2  266.53    3.91   0
  -3  -5   2    8.98    3.90   0
  -3   3   1  141.45    4.20   0
  -3   5   6   61.51    4.95   0
  -2   5   7   21.01    3.85   0
   0  -3   1  190.05    3.51   0
   2  -5   8   20.53    8.01   0
   2  -3   3  104.70    3.57   0
   3  -4   7  235.16    8.46   0
   3  -1   3  249.19    3.40   0
   4  -3   7   33.94    4.73   0
   4  -1   5  159.63    4.57   0
   5  -2   9  147.42    5.76   0
   5  -2  10  118.92    7.90   0
   5  -1   8  477.75    7.46   0
 -12   0  -1    1.12    4.80   0
 -12   2   0    8.65    9.01   0
 -11   1  -1   55.89    5.17   0
 -10  -3  -1   49.88    3.25   0
 -10   4   2   -2.64    8.66   0
  -9   0  -2   19.85    4.40   0
  -9   2  -1   88.54    6.57   0
  -9   5   4   18.01    9.99   0
  -8   2  -1   52.73    4.66   0
  -8   3   0   -5.64    6.44   0
  -8   5   4   22.37    8.69   0
  -7  -2  -2  440.70    3.91   0
  -7   3   0   29.07    5.74   0
  -7   5   4    1.61    7.38   0
  -6  -2  -2  109.56    2.13   0
  -6   3   0   86.70    5.47   0
  -6   5   4   34.67    6.51   0
  -5   2  -1  162.45    5.06   0
  -5   4   2  404.20    6.35   0
  -4   5   5   76.84    5.47   0
  -1  -6   7   38.18    8.17   0
  -1   3   2  114.00    3.29   0
   0   3   3   17.29    1.84   0
   1  -5   6    7.21    4.75   0
   1  -3   2   92.92    3.63   0
   2  -5   9   35.35    8.67   0
   2  -4   5  105.82    4.72   0
   3  -4   8  177.26    8.04   0
   3  -3   5  154.60    5.74   0
   4  -3   8   26.58    6.75   0
   4  -2   6  268.98    6.16   0
   5  -2  11    4.19    5.94   0
   5  -2  12   21.65    6.79   0
   5  -1   9   33.07    5.86   0
   5   0   9   54.55    4.66   0
   5   0  10   11.51    5.16   0
   5   0  13   77.75    7.32   0
 -12   1  -1  200.18    8.46   0
 -12   3   1   42.37    7.91   0
 -10  -1  -2   38.68    4.51   0
  -9   3   0   77.69    7.44   0
  -8  -2  -2   66.50    2.67   0
  -7   1  -2   50.57    4.63   0
  -5   3   0   61.40    4.84   0
  -5   5   4   43.30    5.91   0
  -4  -1  -2 1576.55    5.17   0
  -4   0  -2   39.13    2.25   0
  -4   4   2  307.60    6.10   0
  -3  -6   5   23.07    6.47   0
  -2  -6   6   46.86    7.64   0
  -2  -5   3   90.71    4.60   0
  -2  -4   1   14.06    2.49   0
  -2   2   0  945.24    5.54   0
  -1   5   8   20.80    3.90   0
   0  -5   5  160.96    6.94   0
   1  -5   7   55.85    7.09   0
   2  -1   2 1303.29    6.09   0
   3  -4   9   58.29    7.94   0
   3  -2   4  103.89    4.28   0
   3   3  10   55.74    2.56   0
   4  -3   9    7.73    7.31   0
   4   2  13   -2.78    5.54   0
   5  -1  10   66.16    6.49   0
   5  -1  11   13.99    6.90   0
   5  -1  12    2.78    7.61   0
   5  -1  13   35.01    6.47   0
   5   0  11   41.28    6.03   0
   5   0  12    0.37    6.10   0
 -13  -1  -1   23.29    7.12   0
 -10   0  -2  128.57    4.67   0
 -10   2  -1  145.55    6.31   0
 -10   3   0    9.08    5.97   0
  -9  -2  -2   67.98    3.67   0
  -8   1  -2  279.78    5.50   0
  -8   4   1  131.24    7.62   0
  -7   4   1  134.58    6.88   0
  -6   1  -2  371.35    5.04   0
  -4   2  -1  167.14    4.36   0
  -3   5   5   19.46    4.50   0
  -2   4   3  107.55    3.90   0
  -2   5   6   50.41    4.74   0
  -1  -5   4  437.42    7.42   0
  -1   4   4  515.85    5.01   0
   0  -1   0   -0.49    1.03   0
   1  -4   4  133.99    4.41   0
   1   3   4  911.17    3.55   0
   2  -4   6  115.24    6.62   0
   3  -4  10   53.05    9.43   0
   3  -4  11   30.43   10.06   0
   3  -3   6   63.65    5.49   0
   4  -3  10   -9.99    5.81   0
   4  -3  11    7.11    8.61   0
   4  -3  12   12.04    9.20   0
   4  -2   7   82.38    5.67   0
   4  -1   6  172.85    4.93   0
   4   0   6   63.90    3.58   0
   4   1   7   64.96    2.91   0
   4   2  12   11.96    3.94   0
 -11  -1  -2   88.27    6.40   0
 -11   0  -2    3.60    5.87   0
 -11   2  -1    4.05    7.25   0
 -11   3   0   28.15    8.61   0
 -10   1  -2   45.24    5.92   0
 -10   4   1    2.67    8.64   0
  -9   4   1   17.91    7.72   0
  -9   5   3    0.40    9.61   0
  -8   5   3   -1.16    8.65   0
  -7   5   3   20.93    7.27   0
  -6   4   1   86.31    6.30   0
  -5  -4   0   10.58    1.84   0
  -5   1  -2   65.58    2.93   0
  -4  -5   2   74.29    3.74   0
  -4   3   0  128.84    4.60   0
  -4   5   4   42.58    5.47   0
  -2  -3   0  541.79    3.75   0
  -2   1  -1 1281.10    5.70   0
  -2   3   1  574.52    5.44   0
  -1  -4   2    2.69    3.09   0
   0  -5   6   47.94    6.34   0
   0  -4   3   15.46    2.99   0
   0   4   5  128.12    2.82   0
   1  -5   8   76.31    6.56   0
   1  -1   1    3.84    1.87   0
   1   4   7   35.35    1.70   0
   2  -3   4  264.27    4.88   0
   3   2   6  129.21    2.00   0
   3   3  11    2.39    2.82   0
   3   3  12    6.97    3.29   0
 -12   3   0  105.79   10.96   0
 -11  -3  -1    3.91    3.55   0
 -10  -2  -2   49.62    4.24   0
  -6  -6   4    1.11    5.18   0
  -6   5   3   47.36    6.48   0
  -5  -2  -2  904.72    3.37   0
  -5   4   1  187.13    6.32   0
  -4  -6   5    0.06    6.15   0
  -3  -6   6    9.70    7.14   0
  -3   4   2  230.50    4.42   0
   1  -5   9   93.29    7.24   0
   1  -5  10   37.79   10.12   0
   1  -4   5   14.56    5.02   0
   2  -4   7   11.27    4.82   0
   2  -2   3  659.87    5.86   0
   3  -3   7   63.07    6.13   0
   3  -2   5   14.90    4.31   0
   3  -1   4  111.36    3.41   0
   4  -2   8  118.53    4.86   0
   4  -2   9   -2.85    5.93   0
   4  -2  13   11.92    8.61   0
   4  -1   7   69.26    4.58   0
 -12   0  -2   62.46    7.44   0
 -11   1  -2   80.51    7.05   0
  -9   3  -1   61.43    7.66   0
  -8   2  -2   83.85    6.04   0
  -8   3  -1   36.07    6.37   0
  -7   2  -2  465.20    7.50   0
  -7   3  -1  124.09    6.44   0
  -5   5   3   43.44    6.16   0
  -4   1  -2 1598.87    8.01   0
  -3  -5   3   63.37    4.39   0
  -3   2  -1  613.33    5.56   0
  -1  -5   5  130.60    6.66   0
  -1   5   7   27.28    3.64   0
   0  -5   7   36.05    7.25   0
   1  -3   3    4.80    3.69   0
   2  -4   8   84.20    7.65   0
   3  -3   8  112.73    6.78   0
   3   0   4   91.84    2.17   0
   4  -2  10   98.24    7.30   0
   4  -2  11   -3.93    7.17   0
   4  -2  12   13.58    8.31   0
   4   0   7  198.83    4.77   0
   4   1   8    3.68    3.03   0
 -12  -1  -2    2.66    6.01   0
 -12   1  -2    3.73    6.97   0
  -9   2  -2   64.37    5.21   0
  -9   5   2    4.01   10.05   0
  -8   4   0    9.52    7.44   0
  -8   5   2   36.38    8.98   0
  -7   5   2  143.84    8.05   0
  -6   3  -1   80.28    4.24   0
  -5  -5   2   53.70    3.45   0
  -4   4   1   30.55    4.91   0
  -3  -4   1  112.63    2.93   0
  -3   3   0   94.39    3.30   0
  -3   5   4   50.36    4.91   0
  -2  -5   4   84.50    4.90   0
  -2   5   5   60.65    4.57   0
   0  -5   8    4.09    7.20   0
   0  -4   4  174.96    5.23   0
   0  -3   2   23.63    2.90   0
   0   5  10   32.44    2.57   0
   2  -4   9   24.61    7.39   0
   2  -4  10    1.62    8.82   0
   2  -4  11   -4.37    8.89   0
   2  -3   5 1095.42    8.70   0
   3  -3   9    4.33    6.92   0
   4  -1   8   -9.72    4.68   0
   4  -1  13   -3.72    7.39   0
   4   1   9   29.41    3.74   0
   4   1  13    0.83    5.84   0
 -11  -2  -2   29.11    4.43   0
 -11   2  -2   51.61    7.88   0
 -11   3  -1    2.58    8.19   0
 -10   4   0   26.86    9.76   0
  -9   0  -3   18.87    4.78   0
  -9   4   0   -1.53    5.98   0
  -8   0  -3  100.42    4.55   0
  -7   0  -3    4.69    3.63   0
  -7   4   0   11.33    4.89   0
  -6   4   0   34.24    6.28   0
  -6   5   2   30.76    7.14   0
  -5   2  -2  908.70    8.15   0
  -5   3  -1  261.21    5.17   0
  -4   5   3    4.54    5.36   0
  -3   0  -2  387.81    3.06   0
  -1  -5   6    5.57    6.34   0
  -1  -3   1   70.25    2.54   0
   0  -5   9   30.29    8.33   0
   0   2   1  784.84    3.73   0
   1  -4   6  119.33    5.17   0
   1  -2   2  181.54    2.90   0
   3  -3  10   -5.42    5.48   0
   3  -3  11    9.82    7.67   0
   3  -3  12   -8.77    6.65   0
   3  -2   6  142.17    5.16   0
   3   1   5  195.88    2.88   0
   4  -1   9   23.88    5.43   0
   4  -1  10  182.37    6.84   0
   4  -1  11   38.26    6.48   0
   4  -1  12   10.87    7.15   0
   4   0   8   29.66    4.14   0
   4   0  13    2.06    6.99   0
   4   1  10  195.39    5.28   0
   4   1  11   45.73    4.87   0
   4   1  12    0.74    5.01   0
 -10   0  -3   19.92    5.56   0
  -9  -1  -3   39.81    4.49   0
  -9   1  -3   34.51    5.76   0
  -8  -1  -3   46.89    3.60   0
  -8   1  -3   70.67    5.26   0
  -7  -1  -3  501.74    5.25   0
  -7   1  -3  494.67    6.91   0
  -6  -5   2   36.70    3.53   0
  -6   0  -3   29.10    3.30   0
  -2  -4   2   39.79    3.20   0
  -2   4   2   27.37    3.42   0
  -1  -4   3  266.01    4.95   0
  -1  -2   0  321.11    2.44   0
  -1   2   0  319.39    3.09   0
  -1   4   3  242.52    3.95   0
   0  -5  10   30.38    9.14   0
   1  -4   7   39.45    6.31   0
   2  -3   6  259.25    6.35   0
   2  -2   4  781.23    6.61   0
   3  -1   5  181.09    4.24   0
   4   0   9  380.29    6.40   0
   4   0  10  117.95    5.71   0
   4   0  11   73.80    5.95   0
   4   0  12  112.51    6.82   0
 -12  -2  -2    0.72    5.57   0
 -12   2  -2    9.58    8.52   0
 -10  -1  -3   26.43    5.02   0
 -10   1  -3   40.64    6.50   0
  -9   5   1   19.86    8.94   0
  -8   5   1   12.85    8.05   0
  -6  -4   0   29.40    1.73   0
  -6   1  -3  747.11    7.19   0
  -5   4   0    7.53    3.86   0
  -5   5   2   41.74    4.97   0
  -5   6   5   28.99    7.25   0
  -4  -5   3    8.86    3.85   0
  -4   2  -2  144.20    4.13   0
  -4   3  -1   13.75    4.16   0
  -4   6   6   -1.68    6.48   0
  -3  -5   4   74.50    5.09   0
  -3   1  -2 1338.57    6.76   0
  -3   4   1  103.77    4.53   0
  -2  -5   5   51.71    5.36   0
  -1  -5   7   43.92    6.97   0
  -1   3   1   80.23    2.88   0
  -1   5   6    6.18    3.07   0
   0  -4   5  132.41    5.61   0
   0  -2   1  774.93    4.31   0
   0   5   9    6.05    2.62   0
   1  -4   8   82.66    6.90   0
   1  -3   4  909.12    7.84   0
   2  -1   3 2718.00    9.11   0
   3  -2   7  132.86    4.41   0
 -11   0  -3    8.92    5.79   0
 -11   1  -3   38.94    7.25   0
 -10   3  -2   35.13    8.38   0
  -9   3  -2    2.71    5.20   0
  -9   4  -1   89.92    8.46   0
  -8   3  -2  178.53    6.27   0
  -8   4  -1   94.36    7.84   0
  -7   3  -2   30.02    5.79   0
  -7   5   1   70.40    7.51   0
  -6  -1  -3  725.28    5.02   0
  -6   6   4    9.01    8.29   0
  -5   0  -3  406.32    4.39   0
  -3   5   3   53.28    4.99   0
  -3   6   7   42.15    5.79   0
  -2   3   0  583.07    5.66   0
  -2   5   4   81.35    4.34   0
  -1  -5   8   19.69    7.62   0
   0   3   2   20.06    1.94   0
   0   4   4  182.46    3.17   0
   1  -4   9   35.15    7.82   0
   1  -4  12   59.44    9.45   0
   2  -3   7  486.13    6.99   0
   3  -2   8   86.38    4.32   0
   3  -2   9    8.16    5.68   0
   3  -2  12  106.76    8.33   0
   3  -2  13   19.96    6.89   0
   3   0   5   -0.20    1.93   0
 -12   0  -3    9.98    7.09   0
 -11  -1  -3   46.83    5.33   0
 -11   3  -2   86.70    9.06   0
 -10   2  -3   32.81    7.51   0
 -10   4  -1    4.11    6.85   0
  -9   2  -3   34.13    6.32   0
  -8   2  -3  132.62    5.39   0
  -7  -5   2  155.09    4.22   0
  -7   2  -3   45.83    5.32   0
  -7   4  -1    2.94    4.77   0
  -6   3  -2  197.92    5.23   0
  -6   5   1   19.92    6.39   0
  -5   1  -3  154.23    4.36   0
  -4   4   0   59.31    4.93   0
  -4   5   2   49.34    5.62   0
  -4   6   5   -2.05    6.97   0
  -3  -1  -2 1258.09    3.65   0
  -2  -5   6   48.62    6.25   0
  -1  -5   9   24.34    8.68   0
  -1  -5  10   58.18    8.91   0
   0  -4   6  280.95    6.97   0
   1  -4  10  160.53    7.30   0
   1  -4  11   13.45    6.65   0
   1   2   2  178.33    1.45   0
   2  -3   8  317.13    6.68   0
   2  -3   9   -0.72    6.12   0
   2  -3  12   31.12    8.75   0
   2  -3  13   -0.15    7.08   0
   2   2   4  811.13    2.02   0
   3  -2  10   90.03    5.30   0
   3  -2  11   21.90    5.26   0
   3  -1   6   54.35    3.10   0
   3  -1  14   11.41    8.97   0
   3   2  13   47.71    5.77   0
 -12   1  -3    6.88    6.05   0
 -11   2  -3   16.59    8.50   0
  -6   2  -3  170.85    5.65   0
  -6   4  -1    8.40    4.56   0
  -5  -5   3   46.31    4.06   0
  -5   3  -2  194.28    6.01   0
  -5   5   1   21.05    6.05   0
  -5   6   4   12.82    6.70   0
  -3  -5   5   13.73    4.95   0
  -3   3  -1  122.53    4.47   0
  -3   6   6   20.08    5.84   0
  -1  -4   4  516.64    6.07   0
   0   5   8   -1.92    2.45   0
   1  -3   5  368.67    5.43   0
   1   4   6  112.91    1.85   0
   2  -3  10  105.75    5.92   0
   2  -3  11   37.18    5.90   0
   2  -2   5  955.11    7.30   0
   2   0   3  174.34    2.55   0
   3  -1   7    6.75    4.08   0
   3  -1  13  118.46    7.78   0
   3   1   6   61.40    2.87   0
   3   1  14   40.32    6.32   0
   3   2  12  115.91    5.41   0
 -12  -1  -3   20.80    5.93   0
 -12   2  -3   32.12    9.31   0
  -9   5   0   24.09    7.19   0
  -8  -5   2   71.61    3.57   0
  -8   5   0   43.52    8.07   0
  -7   5   0   39.89    7.34   0
  -6   6   3    5.25    7.65   0
  -5  -1  -3  143.29    2.85   0
  -5   4  -1  109.69    6.11   0
  -3  -3   0   98.62    2.17   0
  -3   2  -2  162.92    3.82   0
  -2  -5   7   12.11    4.92   0
  -2   4   1    5.05    3.63   0
  -1   0  -1  768.13    2.63   0
  -1   1  -1    5.02    1.94   0
  -1   4   2    3.60    3.13   0
  -1   5   5  130.89    3.82   0
   0  -4   7   60.56    6.37   0
   3  -1   8  158.38    5.24   0
   3  -1  12   42.28    7.31   0
   3   0   6  566.11    5.44   0
   3   0  14  128.80    7.64   0
   3   2  11   15.20    4.32   0
 -10   3  -3    6.40    7.90   0
 -10   4  -2   34.01    9.31   0
  -9  -5   2  123.41    3.84   0
  -9  -2  -3   29.94    3.29   0
  -9   0  -4   11.76    4.46   0
  -9   1  -4    6.55    5.26   0
  -9   3  -3   -6.44    7.46   0
  -9   4  -2    9.35    8.52   0
  -8   0  -4   -0.23    3.62   0
  -8   1  -4   34.11    4.77   0
  -8   3  -3   13.86    7.02   0
  -8   4  -2   35.76    7.63   0
  -6   5   0   66.74    6.72   0
  -5   2  -3   26.05    3.23   0
  -4   0  -3    2.65    2.17   0
  -4   1  -3  216.76    4.07   0
  -4   6   4    0.35    6.23   0
  -3   4   0   55.49    4.30   0
  -3   5   2   13.56    4.82   0
  -2   5   3   95.54    4.57   0
  -1  -4   5   37.53    4.86   0
  -1  -3   2  116.00    3.19   0
   0  -4   8    5.89    6.25   0
   0  -4  12   26.64   10.09   0
   0   1   0   -0.79    1.15   0
   1  -3   6  384.53    6.59   0
   1  -1   2 4579.12    9.84   0
   2  -2   6  124.34    4.84   0
   2  -2  14   18.49    9.11   0
   2  -1   4  971.15    6.23   0
   3  -1   9  322.83    6.75   0
   3  -1  10    3.99    5.69   0
   3  -1  11   83.72    6.00   0
   3   0  13   51.54    6.88   0
   3   1  13  118.45    6.40   0
   3   2  10   98.38    3.63   0
 -11   3  -3   10.24    9.96   0
 -10  -2  -3   15.93    3.76   0
 -10   0  -4   17.08    5.58   0
 -10   1  -4   38.79    6.13   0
  -9  -3  -2    4.40    1.97   0
  -8  -2  -3  100.36    2.63   0
  -7  -4   0   19.58    1.74   0
  -7   0  -4   99.61    4.20   0
  -7   1  -4  219.85    5.77   0
  -7   3  -3   12.74    4.63   0
  -7   4  -2    6.97    7.44   0
  -5   6   3   15.28    6.85   0
  -4   3  -2  105.04    3.95   0
  -4   5   1   76.45    4.66   0
  -3  -5   6   47.54    4.66   0
  -3   6   5   12.81    5.49   0
  -2  -5  10   22.45    8.37   0
  -2   6   7    3.50    5.14   0
   0  -4   9   20.66    5.27   0
   0  -4  10   11.94    5.80   0
   0  -4  11   57.92    6.99   0
   0  -3   4   42.31    3.80   0
   1  -3   7  924.31    9.50   0
   1  -3  13   43.06    9.59   0
   2  -2   7  159.56    5.49   0
   2  -2  13   56.79    8.45   0
   3   0   7  735.34    6.59   0
   3   0  12  308.75    7.75   0
   3   1   7    8.97    2.51   0
   3   1  12   32.33    5.02   0
 -11  -2  -3   19.59    4.50   0
 -11   0  -4    3.53    6.34   0
 -11   1  -4   38.73    5.61   0
 -10  -3  -2   35.86    2.59   0
 -10   2  -4   24.97    7.69   0
  -9   2  -4   42.71    6.85   0
  -8  -3  -2  189.34    1.97   0
  -8   2  -4   92.90    6.50   0
  -8   5  -1   12.71    8.90   0
  -7  -2  -3   32.78    2.33   0
  -6   1  -4    2.85    3.83   0
  -6   3  -3   47.97    5.47   0
  -6   4  -2   32.35    6.35   0
  -6   6   2    0.57    7.67   0
  -5  -5   4   43.59    5.00   0
  -5   5   0    2.25    6.26   0
  -4   2  -3  124.96    4.36   0
  -4   4  -1  147.24    4.73   0
  -2   1  -2 1329.44    5.90   0
  -1   3   0   64.55    2.77   0
   0   5   7   30.41    2.55   0
   1  -3   8  257.51    7.28   0
   1  -3  11    0.39    7.38   0
   1  -3  12   40.21    8.13   0
   1   3   3    5.59    1.36   0
   2  -2   8  100.60    5.42   0
   2  -2  11   33.04    6.95   0
   2  -2  12    1.22    5.01   0
   3   0   8  252.61    5.19   0
   3   0   9    5.54    3.84   0
   3   0  10   64.82    5.06   0
   3   0  11  241.17    6.74   0
   3   1   8  162.44    4.15   0
   3   1  11   84.61    4.90   0
 -12   0  -4    9.66    7.35   0
 -12   1  -4    8.84    7.90   0
 -11   2  -4   13.19    8.00   0
  -9  -1  -4    5.18    4.29   0
  -7   2  -4   14.02    3.87   0
  -7   5  -1    8.35    8.00   0
  -6   0  -4   88.08    3.79   0
  -5  -4   1  175.25    3.29   0
  -5  -3  -1  259.15    1.70   0
  -5   6   2   -7.45    6.73   0
  -4   6   3    3.04    6.47   0
  -3  -5   8   -1.10    7.07   0
  -2   0  -2  538.79    3.23   0
  -2   3  -1   36.93    2.69   0
  -1   5   4  361.23    4.96   0
   0   4   3   11.95    2.05   0
   1  -3   9  100.46    5.40   0
   1  -3  10   18.54    4.94   0
   1  -2   4  154.47    3.31   0
   2  -2   9   31.73    4.07   0
   2  -2  10    4.53    4.40   0
   2  -1   5  112.83    3.54   0
   2  -1  14    7.70    8.17   0
   3   1   9  303.08    5.06   0
   3   1  10    4.79    4.05   0
 -12  -2  -3   31.32    5.31   0
 -11  -3  -2   74.80    3.27   0
 -10  -1  -4   34.34    4.43   0
 -10   4  -3   89.37   10.53   0
  -9   4  -3   71.75    9.74   0
  -8  -1  -4   36.29    3.57   0
  -8   4  -3   -0.02    7.45   0
  -7  -5   3   21.64    4.36   0
  -6   2  -4  422.02    7.14   0
  -6   5  -1   34.12    7.42   0
  -5   3  -3  413.51    6.32   0
  -5   4  -2  182.27    5.61   0
  -4  -5   6  109.02    6.56   0
  -4   5   0   69.63    5.77   0
  -3  -5   9   51.56    7.59   0
  -3  -4   3   56.75    3.38   0
  -3   3  -2   55.01    4.28   0
  -3   5   1   82.09    5.52   0
  -3   6   4   82.73    5.96   0
  -2   4   0   59.10    4.09   0
  -2   5   2   76.52    4.68   0
  -2   6   6   41.78    4.54   0
  -1  -4   7    0.18    4.22   0
  -1  -4  12   -1.95    9.31   0
   0  -3   5  200.24    5.24   0
   2  -1  13   23.57    7.36   0
   2   2  14   30.61    6.47   0
 -11  -1  -4   35.90    5.30   0
 -10   3  -4   10.56    8.44   0
  -9   3  -4   15.51    5.90   0
  -8   3  -4   -7.99    7.14   0
  -7  -1  -4  220.00    3.88   0
  -7   4  -3    6.06    7.60   0
  -6  -5   4   38.18    5.10   0
  -6   6   1   13.48    7.95   0
  -5  -5   5   27.96    5.14   0
  -5   1  -4   52.97    3.00   0
  -4  -5   7   -1.40    5.71   0
  -3   1  -3  261.99    3.55   0
  -3   4  -1  100.17    4.94   0
  -2  -4   5  437.73    6.75   0
  -2   2  -2  699.25    5.30   0
  -1  -4   9    3.96    6.61   0
  -1  -4  10    5.40    7.04   0
  -1  -4  11  131.75    7.37   0
  -1  -3   3   22.84    3.19   0
  -1   4   1   22.20    3.18   0
   0  -3  13   35.41    8.53   0
   0   3   1  202.66    2.89   0
   0   5   6   62.33    2.94   0
   1  -2   5  175.51    4.42   0
   1  -2  14    9.31    6.90   0
   2  -1   6   60.74    3.90   0
   2  -1  12   35.33    6.64   0
   2   0   4 1101.37    5.46   0
   2   0  14  170.70    8.17   0
 -12  -1  -4   18.69    5.77   0
 -10   1  -5  195.64    7.41   0
  -9   1  -5   32.76    6.28   0
  -8  -5   3   -1.81    4.21   0
  -8   5  -2   15.68    6.86   0
  -7   3  -4   69.93    5.14   0
  -6   4  -3   69.56    6.58   0
  -5   2  -4   41.30    4.60   0
  -5   5  -1    0.82    5.94   0
  -4  -5   8   26.47    6.67   0
  -4  -1  -3  194.15    2.47   0
  -4   3  -3  143.25    5.40   0
  -4   4  -2   19.74    5.20   0
  -4   6   2   19.69    6.64   0
  -3   2  -3  502.29    5.54   0
  -2   6   5   20.16    5.02   0
   0  -3   6   52.98    4.51   0
   0  -3  12   37.98    8.23   0
   0   2   0 1592.69    5.64   0
   1  -2  13    2.01    7.27   0
   1   4   5   13.72    1.52   0
   2  -1  11  105.98    6.49   0
   2   1  14    1.76    6.31   0
 -11   1  -5   51.56    8.18   0
 -10   2  -5    6.41    7.67   0
  -9   0  -5   38.80    4.87   0
  -9   2  -5   33.84    6.89   0
  -8  -4   0   53.19    1.89   0
  -8   1  -5   40.53    4.07   0
  -8   2  -5  143.70    6.80   0
  -7   5  -2   98.87    6.68   0
  -6  -2  -3  148.53    2.21   0
  -6   3  -4   71.41    5.96   0
  -5  -5   6   31.29    5.79   0
  -5   6   1   14.73    5.87   0
  -4  -5  10    6.11    8.52   0
  -4  -2  -2  141.28    0.81   0
  -3   0  -3  674.52    4.30   0
  -3   6   3   -3.11    5.71   0
  -2  -4   6  159.84    5.92   0
  -1  -2   1  598.15    3.70   0
  -1   5   3   31.73    3.52   0
   0  -3   7   98.25    5.16   0
   0  -3   8    8.74    5.14   0
   0  -3  10    4.39    6.09   0
   0  -3  11   -1.49    7.40   0
   1  -2   6  810.18    7.62   0
   1  -2  12   17.58    6.73   0
   1  -1   3  544.05    4.33   0
   1  -1  15    7.05    6.92   0
   2  -1   7    4.57    2.66   0
   2  -1   8  284.36    5.80   0
   2  -1   9  123.73    5.44   0
   2  -1  10   35.92    5.49   0
   2   0  13    0.27    5.86   0
   2   2  13   46.10    5.22   0
 -11   0  -5    3.31    6.49   0
 -11   2  -5   91.45    7.21   0
 -10   0  -5    2.55    5.27   0
  -9  -5   3    9.67    4.28   0
  -9   4  -4   -2.50    9.44   0
  -8   0  -5  633.90    7.37   0
  -7  -5   4   -2.82    4.79   0
  -7   1  -5   87.43    3.98   0
  -7   2  -5   10.80    5.64   0
  -6  -1  -4   -0.00    2.16   0
  -6   5  -2   31.93    7.09   0
  -6   6   0   28.00    6.47   0
  -5   4  -3   40.61    6.10   0
  -4   1  -4  288.33    4.76   0
  -4   5  -1    3.92    5.65   0
  -3   5   0  258.70    6.38   0
  -2  -4   7   10.98    5.76   0
  -2  -4  11    9.07    7.89   0
  -2  -4  12    6.04    6.86   0
  -2  -3   2   26.19    2.42   0
  -2   5   1   94.91    4.73   0
  -1  -3   4   54.35    3.78   0
   0  -3   9   28.27    4.73   0
   0  -2   3   32.28    2.68   0
   0  -1   1 5285.31    8.34   0
   0   4   2   36.73    2.65   0
   1  -2   7   95.58    4.98   0
   1  -2  10  111.41    6.44   0
   1  -2  11  110.68    5.51   0
   1  -1  14   -1.54    7.87   0
   2   0   5  201.92    3.29   0
   2   0  12   54.33    6.16   0
   2   1  13   25.94    5.72   0
   2   3   7  477.39    2.66   0
   2   3  10   92.37    3.27   0
 -10   3  -5   68.12    9.90   0
  -9   3  -5    9.13    8.03   0
  -8   4  -4   49.48    6.51   0
  -8   5  -3  117.26   10.42   0
  -7   0  -5  755.35    7.19   0
  -7   4  -4    0.78    7.05   0
  -6  -4   1   78.59    2.83   0
  -5  -5   7    9.57    6.05   0
  -5  -5   8   56.67    6.91   0
  -5   3  -4   22.77    3.81   0
  -4   2  -4   -7.10    4.09   0
  -4   6   1   20.27    6.86   0
  -3   4  -2  103.83    5.11   0
  -2   3  -2   93.43    3.22   0
  -2   4  -1    1.89    3.96   0
  -2   6   4   33.61    4.94   0
   0  -2  14   19.49    8.53   0
   0   5   5  182.54    3.54   0
   1  -2   8  480.30    6.38   0
   1  -2   9  240.62    5.57   0
   1   0  15   -5.19    8.12   0
   1   4  12   58.87    3.65   0
   2   0  11  165.10    5.78   0
   2   2  12   -2.29    4.15   0
   2   3   8  336.66    3.12   0
   2   3   9    4.22    2.34   0
  -8   3  -5   11.36    5.39   0
  -7   3  -5   19.43    6.34   0
  -7   5  -3   53.44    8.99   0
  -6  -5   6   25.76    5.90   0
  -6   2  -5   11.75    3.62   0
  -5  -5   9    2.14    7.32   0
  -5  -4   2  385.98    4.96   0
  -5   5  -2   43.56    5.29   0
  -5   6   0   20.90    5.59   0
  -4  -4   3   44.62    3.39   0
  -3  -4   5  398.06    6.23   0
  -3   3  -3  291.98    4.93   0
  -3   6   2   73.74    5.84   0
  -1  -3   5  170.34    4.74   0
  -1  -3  13    7.46    6.63   0
  -1   5   2  106.48    4.50   0
  -1   6   7   34.76    3.99   0
   1  -1  13   72.86    7.46   0
   1   0   2 1527.65    4.39   0
   2   0   6    5.71    2.79   0
   2   0  10   85.27    4.54   0
   2   1  12   25.72    4.58   0
  -9  -4   0   12.34    1.99   0
  -8  -5   4   18.28    4.51   0
  -7  -5   5   -2.90    5.09   0
  -6  -5   7   97.29    6.72   0
  -6   0  -5    5.92    3.15   0
  -6   4  -4   68.47    5.55   0
  -6   5  -3   12.14    7.31   0
  -6   6  -1    4.02    8.49   0
  -4   0  -4  307.53    3.83   0
  -4   3  -4  239.88    5.97   0
  -4   4  -3  291.37    6.00   0
  -3  -4  12   12.20    8.79   0
  -3   5  -1   10.40    5.10   0
  -2  -2   0  954.63    3.63   0
  -1  -3  12   35.91    6.03   0
   0  -2   4  712.44    5.87   0
   0  -2  13    4.68    5.68   0
   1  -1   4  452.40    4.46   0
   1  -1  12  117.01    6.76   0
   1   0  14  120.35    7.75   0
   1   1  15    9.23    6.80   0
   2   0   7   29.71    3.31   0
   2   0   8  135.80    4.20   0
   2   0   9  144.60    4.93   0
   2   1  11   93.18    4.89   0
   2   2  11   39.55    3.79   0
 -11  -2  -4   11.32    4.06   0
 -11  -1  -5   63.81    5.56   0
 -11   1  -6   22.18    7.69   0
 -10  -2  -4   14.43    3.58   0
 -10  -1  -5  189.51    5.49   0
 -10   1  -6   14.99    6.97   0
 -10   2  -6   26.18    8.62   0
  -9  -2  -4   38.45    3.10   0
  -9  -1  -5   29.15    4.10   0
  -9   1  -6   42.54    6.27   0
  -9   2  -6   52.05    7.32   0
  -9   4  -5   25.79    9.76   0
  -6  -5   8   11.40    7.31   0
  -6  -5   9    5.11    7.31   0
  -6   3  -5    6.79    4.49   0
  -5   1  -5  260.81    5.28   0
  -5   2  -5   18.03    4.53   0
  -5   4  -4   -5.22    5.80   0
  -4   5  -2   56.59    6.31   0
  -4   6   0   48.04    7.16   0
  -3  -4   6  195.09    5.02   0
  -3  -4  11    3.41    7.92   0
  -2  -3   3    5.03    2.69   0
  -2  -3  14   99.37   10.69   0
  -2   1  -3 2683.48    8.73   0
  -2   2  -3  716.34    5.97   0
  -2   5   0    2.93    4.47   0
  -2   6   3   19.98    4.60   0
  -1  -3   6  467.15    6.50   0
  -1  -3  10   15.52    6.19   0
  -1  -3  11    7.65    5.32   0
  -1   1  -2 4540.68    9.71   0
  -1   2  -2  175.93    3.34   0
  -1   6   6   40.32    3.91   0
   0  -2  12   52.67    7.24   0
   0  -1  15    2.83    6.52   0
   0   3   0   -3.77    2.17   0
   0   5   4   53.99    3.08   0
   2   1   5  122.61    2.55   0
   2   2   5  978.78    3.57   0
  -8  -5   5   12.12    5.65   0
  -8  -1  -5   29.78    3.48   0
  -8   1  -6   -1.50    5.22   0
  -8   2  -6   77.61    5.20   0
  -8   4  -5  104.63    7.46   0
  -7  -5   6   51.80    6.05   0
  -7   4  -5   21.18    7.65   0
  -5  -1  -4   55.84    2.20   0
  -5   5  -3   95.12    7.72   0
  -5   6  -1   28.56    6.07   0
  -4  -4   4   81.72    4.04   0
  -3  -4   8   30.31    5.61   0
  -3  -4   9   12.59    5.82   0
  -3  -4  10   29.62    5.08   0
  -3   1  -4  102.66    3.35   0
  -3   2  -4  101.34    4.26   0
  -3   6   1   14.59    5.50   0
  -2  -3  13   13.78    8.33   0
  -1  -3   7   14.20    3.45   0
  -1  -3   8  208.95    5.36   0
  -1  -3   9  155.82    5.48   0
   0  -2  11  392.98    8.42   0
   1  -1  11   52.44    4.52   0
   1   0  13    7.33    6.21   0
   1   1  14   14.44    6.45   0
   1   2  14   19.73    5.63   0
   1   3   2   93.07    1.87   0
   1   4   4  133.39    2.11   0
   1   4  11   19.60    2.95   0
   2   1  10   38.72    3.99   0
   2   2  10    4.14    3.07   0
 -11   0  -6   -3.08    6.23   0
 -10   0  -6   -2.26    5.73   0
  -9   0  -6   -1.11    5.08   0
  -9   3  -6   27.80    6.54   0
  -8  -2  -4   83.43    2.75   0
  -8   3  -6    5.12    7.81   0
  -7  -5   7   96.53    7.07   0
  -7  -5   8   48.08    8.25   0
  -7   5  -4   23.35    6.95   0
  -5   3  -5   50.14    4.55   0
  -4  -4  12   56.66    8.82   0
  -3   4  -3  353.67    6.89   0
  -2   3  -3   89.88    4.33   0
  -2   4  -2   87.66    4.55   0
  -2   6   2  107.76    5.44   0
  -1  -2   2   58.97    2.18   0
  -1  -2  14   37.69    6.72   0
  -1   5   1   44.31    4.03   0
  -1   6   5   86.82    4.42   0
   0  -2   5 1322.54    7.83   0
   0  -2  10  143.65    6.58   0
   0  -1  14   74.03    6.37   0
   0   4   1  323.42    4.00   0
   1  -1   5  237.06    3.42   0
   1  -1   9  787.52    8.12   0
   1  -1  10  112.59    4.50   0
   1   3  13   54.28    4.67   0
   2   1   6   60.61    2.33   0
   2   1   9  108.04    3.89   0
   2   2   9   26.40    3.25   0
  -8  -5   6   13.83    6.03   0
  -8   0  -6  168.28    5.34   0
  -7  -1  -5   80.66    3.33   0
  -7   3  -6  105.26    7.77   0
  -6   4  -5    2.86    7.05   0
  -6   5  -4  106.64    9.21   0
  -5  -4   3  110.00    3.87   0
  -4  -4   5   11.25    4.00   0
  -4  -4  11   17.02    8.04   0
  -4   2  -5   14.12    4.35   0
  -4   4  -4  131.94    6.52   0
  -4   6  -1   10.08    7.04   0
  -3   3  -4  326.31    6.29   0
  -3   5  -2  251.05    7.09   0
  -3   6   0   18.81    5.89   0
  -2  -3  12   25.71    5.81   0
  -1  -2  13   22.48    7.62   0
  -1   3  -2   98.33    3.75   0
  -1   4  -1   40.42    3.75   0
   0  -2   6   58.00    3.19   0
   0  -2   7   14.95    4.23   0
   0  -2   8   13.79    4.60   0
   0  -2   9   45.74    3.83   0
   0  -1  13   15.38    6.41   0
   0   0  15   23.50    7.65   0
   1  -1   6   63.60    2.80   0
   1  -1   7  157.44    4.65   0
   1  -1   8   29.69    4.23   0
   1   0  12    2.99    5.77   0
   1   1  13   53.24    5.71   0
   2   1   7    4.99    2.46   0
   2   1   8  310.69    4.43   0
   2   2   8   91.30    2.91   0
  -6  -4   2   11.87    2.81   0
  -6   1  -6  125.98    4.95   0
  -6   3  -6   15.07    6.03   0
  -5   6  -2   51.04    8.03   0
  -4  -4   6  193.87    5.70   0
  -4  -4  10   -6.28    6.93   0
  -4   1  -5  158.99    3.61   0
  -4   3  -5   57.03    5.06   0
  -4   5  -3  188.88    6.04   0
  -3  -3   2   32.83    2.39   0
  -3  -3  14   28.91    7.85   0
  -3  -2  -1  585.89    1.95   0
  -2   5  -1   18.58    4.70   0
  -1  -1  15   24.16    8.86   0
  -1   6   4    6.63    4.22   0
   0   2  -1  749.59    4.27   0
   0   5   3  222.90    3.79   0
   1   2   1  160.82    1.68   0
   1   2  13    4.41    4.78   0
 -10   1  -7   31.43    7.15   0
 -10   2  -7   37.01    8.90   0
  -9   2  -7   11.69    7.64   0
  -8   4  -6   44.10    7.15   0
  -7   0  -6    7.71    3.70   0
  -7   4  -6  124.75    8.66   0
  -7   5  -5   69.30   10.11   0
  -5  -4  12   67.26    9.02   0
  -5   4  -5   40.24    5.05   0
  -5   5  -4    9.92    7.71   0
  -4  -4   7   13.87    3.91   0
  -4  -4   8   52.52    5.56   0
  -4  -4   9   33.27    4.83   0
  -3  -3  13   -8.54    8.86   0
  -2  -3   5   13.45    3.65   0
  -2  -3   9  245.24    7.01   0
  -2  -3  10   27.53    4.74   0
  -2   0  -3  165.57    2.43   0
  -2   6   1   46.52    5.57   0
  -1  -2  12   -1.95    6.40   0
   0  -1   2 1742.50    5.79   0
   0  -1  12  142.30    7.07   0
   0   0  14   32.24    7.26   0
   0   1  15    6.95    7.18   0
   1   0  11   66.88    5.08   0
   1   3  12   38.40    4.44   0
   1   4  10  150.69    3.09   0
  -9   1  -7  193.30    7.26   0
  -9   3  -7   19.48    9.65   0
  -8   1  -7   39.51    5.76   0
  -8   2  -7   14.04    4.87   0
  -7  -2  -4   16.35    2.04   0
  -5  -4   4  266.15    4.92   0
  -5   3  -6   35.08    5.83   0
  -4   6  -2   -1.17    7.33   0
  -3   0  -4   91.03    2.54   0
  -3   4  -4  138.21    5.91   0
  -3   6  -1   18.48    6.24   0
  -2  -3   6   55.41    3.47   0
  -2  -3   7   30.09    4.79   0
  -2  -3   8   87.29    5.60   0
  -2  -2  14   92.30    8.67   0
  -2   2  -4  782.81    6.54   0
  -2   4  -3  133.12    5.27   0
  -1  -2   3  117.52    3.01   0
  -1  -2  11   80.68    6.66   0
  -1  -1  14  -10.80    7.04   0
  -1   5   0   -5.27    3.78   0
  -1   6   3  117.63    4.94   0
   0   1  -1 5224.56    8.29   0
   0   3  -1  203.61    3.58   0
   0   4   0  408.13    4.56   0
   1   0   3   16.97    1.75   0
   1   0  10   38.74    4.14   0
   1   1  12  113.93    5.63   0
   1   4   3    9.18    1.76   0
 -10  -1  -6    5.53    5.19   0
  -8   3  -7  159.10    7.17   0
  -7   2  -7   25.48    5.73   0
  -6  -1  -5  184.19    3.36   0
  -6   0  -6   13.87    3.58   0
  -6   4  -6   10.32    7.34   0
  -6   5  -5   26.58    6.59   0
  -5  -4   5   23.76    4.13   0
  -5  -4  10   66.21    7.67   0
  -5   6  -3   42.49    8.37   0
  -4   4  -5   -2.30    6.10   0
  -4   5  -4    2.72    6.80   0
  -3  -3  12   17.12    5.81   0
  -3   5  -3   58.78    6.05   0
  -2   5  -2   80.99    5.45   0
  -1  -2  10    1.80    5.38   0
  -1   2  -3  931.03    6.15   0
   0  -1  11   82.45    4.80   0
   0   0  13   56.62    6.01   0
   0   5   2  136.51    3.64   0
   1   2  12   25.01    4.40   0
 -11  -1  -6   16.98    5.17   0
 -10   0  -7   57.56    5.87   0
  -9  -1  -6   57.61    4.33   0
  -8   4  -7    4.92    9.14   0
  -7   1  -7   31.85    5.18   0
  -7   3  -7   14.99    5.62   0
  -6  -4   3  114.52    3.92   0
  -6   2  -7  242.52    6.96   0
  -5  -4   6   15.18    4.67   0
  -5  -4   8   -1.41    5.69   0
  -5  -4   9   64.13    6.81   0
  -5  -2  -3   22.28    1.08   0
  -5   5  -5   12.14    7.37   0
  -3  -3   3  123.99    3.36   0
  -3  -3  11   50.44    7.20   0
  -3  -1  -3  241.66    2.13   0
  -3   1  -5  173.64    3.97   0
  -3   3  -5  157.38    5.35   0
  -2  -2  13   31.14    5.87   0
  -2   1  -4  938.24    6.03   0
  -2   3  -4  256.01    4.68   0
  -2   6   0   18.77    5.54   0
  -1   0  15    2.37    7.90   0
  -1   3  -3   14.22    3.42   0
   0  -1  10   69.37    5.23   0
   0   1  14   59.67    6.57   0
   1   0   9  210.57    5.06   0
   1   1  11   49.83    4.45   0
   1   3   1  282.98    3.02   0
  -9   0  -7   51.55    5.29   0
  -8  -1  -6   15.03    3.74   0
  -7  -4   2  109.14    3.48   0
  -7   4  -7   20.82    8.26   0
  -6  -4  11    7.94    8.66   0
  -6   3  -7    2.53    7.03   0
  -5   4  -6   55.01    5.75   0
  -4  -3  13   14.72    6.57   0
  -4  -1  -4  282.05    3.00   0
  -4   3  -6   14.10    5.17   0
  -4   6  -3   -4.31    8.01   0
  -3   6  -2    5.44    6.30   0
  -2  -2  12    3.50    6.41   0
  -2  -1  15   -4.21    8.09   0
  -1  -2   4 1074.29    6.43   0
  -1  -2   9  426.94    6.32   0
  -1  -1  13   70.04    5.60   0
  -1   5  -1    4.03    4.15   0
  -1   6   2   74.69    4.71   0
   0  -1   3 2370.35    7.58   0
   0   2  14   10.17    5.89   0
   1   0   4  323.32    3.26   0
   1   0   8   30.79    3.65   0
   1   3  11    0.94    3.10   0
 -11  -2  -5   85.78    4.26   0
  -9   2  -8   25.65    7.85   0
  -8   0  -7   56.13    4.84   0
  -6  -4   4   96.02    4.37   0
  -6  -4  10   29.83    7.78   0
  -6   5  -6   20.44    9.35   0
  -4  -3  12   47.17    8.21   0
  -4   1  -6  176.53    4.67   0
  -3  -3   4    7.24    3.17   0
  -3  -3   9   89.77    6.24   0
  -3  -2  14   -1.72    7.93   0
  -3   4  -5   16.20    5.53   0
  -3   5  -4   22.85    5.67   0
  -2   4  -4  271.92    6.36   0
  -1  -2   5  369.03    4.45   0
  -1  -2   6   83.37    4.25   0
  -1   0  -2 1605.47    4.43   0
  -1   1  -3  580.05    4.04   0
   0  -1   9   -3.22    2.97   0
   0   0  12  177.53    5.29   0
   0   1  13   32.81    5.56   0
   0   5   1   97.93    3.75   0
   1   0   5  207.95    3.18   0
   1   0   7   -4.99    3.05   0
   1   1  10  109.76    4.34   0
   1   2  11   99.06    4.19   0
   1   4   2   48.36    2.21   0
 -10   1  -8    7.03    7.78   0
  -9   1  -8   21.65    7.09   0
  -8   2  -8  123.15    6.39   0
  -8   3  -8   35.22    8.36   0
  -7   0  -7  413.60    6.24   0
  -6  -4   9    8.23    6.65   0
  -6   4  -7   44.67    7.93   0
  -5   0  -6   12.33    2.43   0
  -5   2  -7  141.68    5.00   0
  -5   3  -7   79.80    6.57   0
  -4   4  -6    5.71    6.16   0
  -4   5  -5    4.21    6.87   0
  -3  -3   5  118.56    4.33   0
  -3  -3   6  260.96    5.59   0
  -3  -3   7    8.88    4.70   0
  -3  -3   8   41.65    5.01   0
  -2  -2  11   98.53    6.91   0
  -2  -1  14   12.34    7.47   0
  -2   5  -3  199.46    6.22   0
  -2   6  -1   22.81    5.46   0
  -1  -1   0 1233.94    2.82   0
  -1  -1  12   37.82    4.65   0
  -1   0  14   -1.97    5.11   0
  -1   1  15   12.01    7.45   0
  -1   4  -3   16.43    3.91   0
  -1   6   1   21.19    4.70   0
   0  -1   4  823.83    5.37   0
   0  -1   8   72.44    3.41   0
   0   2  -2  289.36    3.49   0
   0   4  -1  322.61    4.62   0
   1   0   6    1.50    2.01   0
  -6  -4   8   10.14    4.45   0
  -4  -3  11   44.08    5.51   0
   0  -1   7  126.11    3.50   0
   0   3  -2   15.99    2.23   0
 -11  -1   3   22.13    7.11   0
 -11   0   2    4.61    6.39   0
 -11   2   1   -2.66    5.82   0
 -10  -2   4   -2.31    5.01   0
  -9   3   0   91.12    3.78   0
  -8  -4   8   50.82    8.04   0
  -8  -3   5    6.64    4.62   0
  -7   0   0  253.95    4.97   0
  -5  -4   7   70.75    5.55   0
  -5  -3   4   50.93    4.42   0
  -5   5   0    1.57    1.60   0
  -4  -4   7   11.99    4.43   0
  -4   6   1   18.15    3.36   0
  -3  -3   4    4.04    2.95   0
  -2  -2   2 1066.74    5.70   0
   0  -3   5  193.36    2.53   0
   1  -4  11   14.14    2.41   0
   1   4   0  214.13    4.51   0
   1   6   2   28.02    4.79   0
   2   3   0  538.93    5.32   0
   3   4   1  104.17    3.94   0
   3   5   2  270.26    7.34   0
   4   5   3  221.49    7.35   0
   5   4   3   39.74    5.91   0
   5   5   4    7.40    6.77   0
   6  -1   7   45.56    3.56   0
   7  -1  11   70.21    5.80   0
   7   0   7  422.84    6.71   0
   7   4   6  100.56    8.39   0
   8   1   9   36.20    7.13   0
   8   3   8   38.48    9.65   0
 -12  -2   5    1.34    8.53   0
 -11   3   1   97.23    5.67   0
  -9  -3   5    0.86    7.29   0
  -9  -2   3  261.19    7.72   0
  -7  -4   7    4.58    6.45   0
  -6  -4   7   46.54    4.66   0
  -3  -4   7  103.72    4.65   0
  -2  -3   4  144.64    3.48   0
  -2   5   0   14.71    2.84   0
  -1  -4   8   44.11    3.24   0
   0  -4   9   23.85    2.78   0
   1   5   1    4.98    4.41   0
   2   2   0  963.34    5.73   0
   2   6   3   22.61    7.17   0
   3   6   4    6.54    7.38   0
   4   4   2   14.55    3.86   0
   4   6   5   29.82    8.69   0
   6   1   4    0.57    2.96   0
   6   3   4   57.82    6.05   0
   6   5   6   20.26    6.93   0
   7   1   6  180.17    6.24   0
   7   4   7   22.49    8.49   0
   8   1  10   72.50    8.14   0
 -13  -1   4   15.20    9.16   0
 -13   0   3    5.84    8.36   0
 -11  -3   6    9.63    8.78   0
 -11   1   1    5.94    5.88   0
 -10  -1   2   62.65    5.14   0
 -10   0   1  179.42    6.69   0
  -9  -4   8   -7.11    6.70   0
  -9   1   0  204.13    5.38   0
  -8  -1   1  132.14    5.47   0
  -7  -3   4   65.79    4.37   0
  -7  -2   2   99.13    5.47   0
  -4   5   0   59.62    2.62   0
   0  -1   1 5161.78    6.03   0
   0   6   2  112.47    6.29   0
   2   0   1   47.23    1.69   0
   3   1   1  163.69    3.23   0
   5   1   3  160.34    4.49   0
   5   5   5   24.98    8.07   0
   6   2   4  412.65    7.22   0
   6   4   5    0.55    6.98   0
   7   0   8   -4.11    5.25   0
   7   2   6   96.57    6.95   0
   7   3   6   99.76    6.14   0
 -12  -1   3   34.64    8.43   0
  -8  -4   7   35.23    6.05   0
  -8  -3   4   85.45    6.96   0
  -8   0   0   42.18    4.28   0
  -7   2  -1  368.91    4.03   0
  -5  -4   6   20.66    4.85   0
  -1  -2   2   58.61    1.92   0
   2   4   1    0.46    3.88   0
   2   5   2   79.57    5.96   0
   3  -2   5   14.68    1.21   0
   4   1   2 1625.45    8.12   0
   4   3   2  106.29    5.08   0
   4   5   4   -0.81    6.31   0
   5  -2   9  169.81    3.93   0
   5   0   4  526.25    5.31   0
   5   3   3  426.51    6.46   0
   6  -1   8   99.96    4.30   0
   7   1   7   28.66    5.96   0
   7   3   7    2.66    7.41   0
   7   4   8    6.43    9.20   0
 -13   1   2   -1.01    8.02   0
  -9  -4   7   15.59    9.32   0
  -8  -2   2   43.23    4.14   0
  -7  -4   6   25.45    6.28   0
  -6  -4   6   98.96    6.25   0
  -4  -4   6  195.20    5.64   0
  -1   6   2  107.87    5.71   0
   0   4   0  446.05    5.10   0
   0   5   1  124.06    5.01   0
   1  -2   3  985.02    2.71   0
   1   6   3   17.21    6.11   0
   2   6   4   74.08    7.38   0
   3   2   1  604.26    5.62   0
   3   5   3   47.23    5.85   0
   3   6   5   -1.33    8.46   0
   4   4   3  328.16    7.35   0
   5   4   4   -2.87    4.50   0
   5   5   6   59.16    8.35   0
   6   0   6   14.19    3.94   0
   6   1   5  207.49    5.67   0
   6   3   5   17.24    6.57   0
   6   4   6   12.48    7.82   0
   7   0   9    3.30    5.25   0
 -12  -2   4   64.49    7.38   0
 -11  -3   5  -11.15    9.01   0
 -11   0   1   -0.76    6.51   0
 -10  -4   7    8.32    9.48   0
 -10   1   0  109.79    5.49   0
 -10   3   0   13.01    3.98   0
  -9  -3   4   45.17    5.87   0
  -9   0   0   12.02    4.81   0
  -8  -4   6    9.71    7.00   0
  -7   3  -1  120.35    2.59   0
  -6  -3   3 1013.13    9.62   0
  -4  -3   3  244.47    5.23   0
  -4  -1   0 1027.22    6.11   0
  -3  -4   6  201.82    5.01   0
   1  -4  10  137.89    2.58   0
   3   4   2  123.05    4.43   0
   4   0   3    1.84    2.26   0
   4   2   2  159.85    3.67   0
   5  -1   6   14.18    2.60   0
   6  -1   9   22.07    4.76   0
   6   2   5   10.60    5.25   0
   7   0  10   38.61    6.63   0
   7   0  11    2.03    7.56   0
   7   1   8   31.04    6.55   0
   7   3   8   13.30    8.13   0
 -13  -1   3   17.86    9.83   0
 -12   1   1   30.25    6.92   0
 -12   3   1   41.71    5.94   0
 -11  -2   3   32.09    6.07   0
 -10  -3   4   65.98    7.92   0
  -9  -2   2  134.11    5.64   0
  -5  -2   1   94.61    4.31   0
  -3  -3   3  123.06    3.92   0
  -3  -1   0 2958.73    8.94   0
  -2   3  -1   36.92    1.48   0
  -2   6   2  113.34    5.41   0
  -1  -4   7    2.46    2.82   0
   0  -4   8    4.19    2.48   0
   0   6   3   49.65    6.10   0
   1   1   0 1292.50    4.53   0
   3   0   2  389.29    3.11   0
   4   5   5   25.95    7.31   0
   5  -2  10  101.28    4.21   0
   5   3   4   36.47    5.39   0
   5   4   5   50.25    6.99   0
   5   5   7   -1.19    9.37   0
   6   3   6   18.74    6.39   0
   6   4   7   61.80    6.37   0
   7   1   9   28.42    6.55   0
   7   2   8   53.43    7.17   0
   7   3   9   54.66    9.73   0
 -12  -1   2   36.91    8.17   0
 -10  -2   2   23.51    7.02   0
 -10  -1   1   13.54    4.73   0
  -9  -4   6    2.94    6.52   0
  -9   4   0   11.69    2.80   0
  -8  -3   3   40.34    6.40   0
  -8   1  -1  291.23    5.05   0
  -7  -1   0   12.34    3.09   0
  -6  -5   9   -2.70    6.90   0
  -6  -4   5   45.74    6.03   0
  -6  -2   1  111.46    3.98   0
  -6   0  -1   30.83    3.20   0
  -5  -4   5   20.92    5.24   0
  -5   0  -1  169.16    3.51   0
  -4  -5  10    3.53    5.29   0
  -4  -2   1 2518.33   10.36   0
  -4   0  -1   58.06    2.45   0
  -1   4   0  222.88    3.95   0
  -1   5   1   21.11    3.96   0
   1   4   1   43.69    3.83   0
   1   5   2   29.75    3.73   0
   1   6   4   -2.22    7.25   0
   2   5   3  226.09    6.80   0
   2   6   5   33.55    8.51   0
   3   5   4    3.66    6.32   0
   4  -2   7   86.55    2.50   0
   5   1   4   54.62    4.13   0
   6  -1  10   58.81    5.02   0
   6   0   7   33.65    4.29   0
   6   1   6  142.62    5.66   0
   6   4   8   -5.23    9.00   0
   7   2   9    4.38    8.08   0
 -12  -2   3   -1.90    8.70   0
 -11  -3   4    7.29    9.01   0
 -11   1   0    0.46    5.24   0
 -10   0   0    5.93    5.27   0
  -8  -4   5   22.67    6.81   0
  -7  -2   1   15.72    3.52   0
  -5  -5   9   -0.93    6.62   0
  -3  -5  10   22.05    5.69   0
  -3   6   2   12.19    4.58   0
  -2  -3   3    6.02    2.59   0
   1   2   0  342.31    3.15   0
   3   3   2   45.46    4.20   0
   4   3   3  167.61    4.57   0
   4   4   4   94.16    6.16   0
   4   5   6   -1.26    7.74   0
   5  -2  11    7.63    4.16   0
   5  -2  12   33.29    4.69   0
   5   0   5   35.79    3.40   0
   5   2   4   39.83    3.56   0
   5   4   6   50.68    7.46   0
   6  -1  11    1.37    5.40   0
   6  -1  12   17.60    6.29   0
   6   2   6   42.82    4.36   0
   6   3   7   12.19    7.47   0
   6   4   9    9.38    9.57   0
   7   2  11   11.73    9.91   0
 -13   1   1   27.72    7.02   0
 -11  -1   1   10.12    6.76   0
  -9   2  -1   92.60    4.33   0
  -8   3  -1   37.09    2.77   0
  -7   0  -1   29.42    3.61   0
  -4  -5   9   -1.54    5.60   0
  -4   6   2   34.60    4.50   0
  -3  -4   5  400.60    5.75   0
  -2  -1   0 8729.36   13.14   0
  -1   6   3  154.73    6.61   0
   2   4   2   83.18    4.56   0
   2   6   6   34.90    8.03   0
   3  -3   9    7.02    1.55   0
   3   4   3  329.86    6.72   0
   5  -1   7  103.28    3.84   0
   5   3   5   41.70    5.59   0
   6   0   8   46.56    4.77   0
 -13  -1   2    2.42    9.23   0
 -12  -3   4   11.22   10.06   0
 -11  -2   2   15.32    5.52   0
 -11   3   0   41.01    4.70   0
 -10  -3   3    6.60    7.37   0
  -9  -2   1   85.21    6.25   0
  -9   1  -1   40.25    4.23   0
  -7  -5   8   48.83    7.73   0
  -7  -3   2   51.71    5.62   0
  -6  -5   8    6.55    6.54   0
  -6   6   2    4.84    3.60   0
  -2   5   1   87.39    3.90   0
   0   3   0   -0.21    2.18   0
   0   5   2  150.84    5.20   0
   0   6   4   75.94    7.11   0
   1  -3   5  370.57    2.40   0
   1   6   5   12.28    7.56   0
   3   5   5   49.90    6.60   0
   4  -1   5  185.51    3.20   0
   4   1   3  215.79    3.44   0
   4   2   3  118.34    3.64   0
   4   5   7    0.87    8.22   0
   5   4   7  132.40    8.31   0
   6   1   7   52.88    3.99   0
   6   3   8   28.36    5.47   0
 -13   0   1    1.32    8.25   0
 -11   0   0  442.82    7.66   0
  -8  -3   2    6.65    6.08   0
  -7  -4   4   -3.12    6.22   0
  -6  -4   4  105.17    6.41   0
  -4  -5   8   25.49    5.38   0
  -4  -3   2  481.87    6.08   0
  -3  -5   9   50.60    4.97   0
  -2  -2   1  519.14    4.02   0
  -1  -4   6   40.35    2.86   0
   0  -2   2  301.53    2.41   0
   1  -4   9   41.86    1.76   0
   1   5   3  183.09    6.25   0
   2   1   1 1253.01    5.36   0
   2   2   1   39.79    2.09   0
   2   5   4   43.89    5.67   0
   3   1   2 1307.02    6.64   0
   3   2   2  157.74    3.90   0
   4   3   4  265.75    6.19   0
   4   4   5   -0.00    4.25   0
   4   5   8   40.36    9.53   0
   5   1   5  258.48    5.38   0
   5   2   5   17.79    4.79   0
   5   3   6   39.33    5.80   0
   5   4   8   40.86    7.60   0
   6   0   9   26.73    5.24   0
   6   1   8   91.71    5.93   0
   6   2   8  106.11    7.06   0
   6   3   9    6.33    7.68   0
 -12  -2   2   72.98    7.07   0
 -12   2   0    6.43    5.37   0
 -10  -2   1   19.67    6.43   0
 -10  -1   0   83.32    6.31   0
 -10   1  -1   11.75    4.39   0
  -9  -4   4   15.12    7.36   0
  -9  -3   2    6.61    6.81   0
  -9   0  -1  786.75    8.36   0
  -8  -4   4   46.83    5.30   0
  -7  -5   7   79.52    8.38   0
  -6  -5   7   97.04    7.33   0
  -4  -4   4   78.58    4.53   0
  -2  -5  10   16.86    4.12   0
  -2   6   3   19.74    4.85   0
   0  -4   7   56.62    2.42   0
   3   4   4  136.94    5.95   0
   3   5   6   22.30    6.95   0
   5  -1   8  509.84    6.16   0
   5   0   6   15.54    3.52   0
   5   4   9   -1.52    8.07   0
   6   0  10  102.59    6.05   0
   6   0  11    5.94    6.69   0
   6   3  10   -0.16    6.54   0
 -12  -3   3   10.09    9.12   0
  -9   3  -1   67.32    3.44   0
  -7  -2   0   50.50    4.93   0
  -6  -2   0  120.59    4.76   0
  -6  -1  -1  223.13    4.85   0
  -5  -5   7   11.30    5.67   0
  -5  -2   0  400.44    5.64   0
  -5  -1  -1  254.74    4.28   0
  -3  -5   8    0.26    4.82   0
  -3   3  -1  118.22    1.38   0
  -3   5   1   87.24    3.26   0
  -1   5   2  117.71    5.13   0
  -1   6   4    4.42    6.11   0
   0   6   5   84.55    7.03   0
   1   3   1  276.52    4.18   0
   1   4   2   46.33    3.89   0
   1   6   6   15.09    5.85   0
   2   4   3  122.47    5.14   0
   3   3   3  325.52    5.91   0
   4  -2   8  155.27    3.05   0
   4   4   6   14.55    4.68   0
   5   3   7   77.50    6.45   0
   5   4  10   71.92    9.97   0
   6   0  12   17.05    6.63   0
   6   1   9   24.68    5.78   0
   6   2  10   56.19    8.21   0
 -13  -1   1   28.54    9.15   0
 -11  -2   1    4.58    5.59   0
 -11  -1   0   -3.75    5.92   0
 -10  -4   4   30.90    6.62   0
 -10  -3   2   19.17    5.82   0
 -10   0  -1  233.27    6.63   0
 -10   4   0  103.57    3.28   0
  -8  -2   0  324.39    7.02   0
  -8  -1  -1  304.89    6.10   0
  -7  -5   6   50.54    7.11   0
  -7  -1  -1  323.50    5.01   0
  -4  -5   7    4.18    5.13   0
  -3  -4   4   57.52    3.77   0
  -3   6   3   -3.10    4.71   0
  -2  -5   9   59.94    4.58   0
   2   3   2  111.49    4.07   0
   2   5   5   51.20    4.69   0
   3   5   7   33.56    7.26   0
   4   2   4   -2.21    3.84   0
   4   3   5   53.71    5.11   0
   5   1   6   15.41    4.19   0
   6   1  10   50.29    5.26   0
   6   2  11    7.81    6.53   0
 -11  -3   2    4.88    8.67   0
 -11   1  -1   51.89    5.59   0
  -9  -2   0   98.84    6.40   0
  -7  -4   3  108.86    5.27   0
  -7  -3   1  490.30    8.02   0
  -6  -5   6   20.91    6.10   0
  -6  -3   1  277.66    6.18   0
  -6   1  -2  367.00    4.02   0
  -5  -4   3  116.58    5.14   0
  -4  -1  -1  142.53    2.81   0
   0   5   3  223.46    5.65   0
   1   5   4   63.69    4.48   0
   1   6   7    2.31    6.33   0
   3   4   5   22.36    5.35   0
   3   5   8   13.89    8.51   0
   4   1   4  300.21    4.21   0
   4   4   7  119.21    5.82   0
   5  -1   9   33.58    3.86   0
   5   0   7   55.43    4.02   0
   5   3   8   50.60    5.19   0
 -13   0   0   15.03    8.05   0
 -11   0  -1   73.13    6.46   0
 -10  -2   0   16.04    6.62   0
  -9  -4   3   67.31    6.12   0
  -9  -3   1    5.98    6.71   0
  -9  -1  -1   17.77    4.02   0
  -5  -3   1  376.03    5.41   0
  -5   1  -2   65.23    2.19   0
  -4   6   3    4.29    5.09   0
  -3  -5   7   10.15    4.76   0
  -2  -3   2   25.68    2.64   0
  -2   6   4   45.42    6.00   0
  -1  -2   1  605.86    3.81   0
  -1  -1   0 1248.83    4.38   0
  -1   6   5  101.77    6.76   0
   0   2   0 1479.69    5.30   0
   0   6   6   33.37    7.27   0
   2   5   6    8.91    6.48   0
   3  -3  10   57.86    2.40   0
   3   0   3  681.50    4.34   0
   3   2   3  520.24    5.58   0
   3   5   9   45.12    9.34   0
   4  -1   6  189.60    3.45   0
   4   4   8   71.77    7.38   0
   5  -1  10   58.58    4.53   0
   5  -1  11   13.84    5.41   0
   5   1   7  113.89    5.03   0
   5   2   7  138.22    5.18   0
   5   3   9    5.03    5.46   0
   5   3  10    0.92    7.47   0
 -12  -3   2    9.50    9.05   0
 -10  -4   3   41.45    6.69   0
 -10  -3   1   45.61    7.48   0
 -10   3  -1   64.42    3.77   0
  -8  -5   5   17.84    7.78   0
  -8   1  -2  273.25    4.72   0
  -7  -5   5    2.83    7.06   0
  -7   0  -2  345.64    5.32   0
  -7   2  -2  474.95    4.27   0
  -6   2  -2  109.54    2.25   0
  -4  -5   6  114.21    5.55   0
  -4  -4   3   46.27    4.04   0
  -3  -2   0  770.03    5.38   0
  -2  -5   8   24.12    4.20   0
  -2  -4   4   68.54    3.66   0
  -2   5   2   89.37    4.19   0
  -1  -5  10   46.88    3.77   0
  -1  -4   5   37.08    2.60   0
  -1   3   0   63.72    2.19   0
  -1   4   1   22.78    2.92   0
   2   4   4  266.66    6.27   0
   3  -1   4  105.83    1.93   0
   3   3   4  303.48    5.74   0
   3   4   6   16.86    5.54   0
   4  -2   9    9.19    2.84   0
   4   0   5    0.79    2.74   0
   4   3   6   15.24    3.64   0
   4   4   9    3.31    7.63   0
   5  -1  12    3.74    5.26   0
   5   0   8  132.36    4.70   0
   5   3  11   -3.15    6.39   0
 -13  -1   0   53.48    8.54   0
 -12   1  -1  197.81    7.24   0
  -9   1  -2  121.20    4.58   0
  -8   0  -2  305.09    5.74   0
  -8   2  -2   73.93    3.38   0
  -6  -5   5   50.04    6.25   0
  -5   5   1   11.30    2.84   0
  -5   6   3   17.35    4.78   0
  -3  -1  -1  149.93    2.60   0
   0   4   2   41.35    3.74   0
   0   5   4   61.83    5.24   0
   0   6   7   -7.73    7.72   0
   1   5   5  114.15    5.13   0
   2   2   2  695.42    5.55   0
   2   5   7   12.51    5.19   0
   3  -3  11    2.01    2.95   0
   3   1   3  250.84    3.94   0
   4   4  10    2.03    6.52   0
   5   1   8  514.60    7.73   0
   5   2   9  156.43    7.47   0
 -12   2  -1   85.67    6.02   0
 -11  -3   1  107.97    6.99   0
 -11  -1  -1   67.06    6.84   0
  -9  -4   2   -0.37    7.66   0
  -9   0  -2   13.70    4.54   0
  -8  -4   2   59.82    5.68   0
  -8  -2  -1   46.14    5.77   0
  -7  -2  -1  337.10    6.55   0
  -6  -4   2    9.51    5.68   0
  -6  -2  -1  187.19    5.31   0
  -4   1  -2 1646.64    5.44   0
  -3  -4   3   57.50    3.88   0
  -3  -3   1  113.37    3.94   0
  -3   6   4   69.91    5.39   0
  -2   6   5    3.23    6.39   0
  -1   5   3   32.67    4.15   0
  -1   6   6   43.65    7.58   0
   0  -4   6  275.20    3.28   0
   1   2   1  148.43    2.89   0
   2   3   3  111.86    4.30   0
   2   5   8    6.25    8.13   0
   3  -3  12   12.42    3.58   0
   3  -2   6  140.46    2.09   0
   3   4   7  239.16    7.82   0
   4  -2  10   89.93    3.47   0
   4  -2  11    2.31    3.97   0
   4  -2  12   -0.08    4.54   0
   4   1   5  160.92    3.74   0
   4   3   7   18.12    4.34   0
   5   0   9   47.10    4.59   0
   5   0  10    1.40    5.07   0
   5   0  13   77.03    7.86   0
   5   1   9   28.55    5.88   0
   5   2  10  108.44    7.31   0
   5   2  11   -9.86    7.61   0
   5   2  12   36.85    8.95   0
 -12  -2   0    5.76    6.09   0
 -10  -4   2   -2.09    8.90   0
  -9  -5   4    2.81    8.90   0
  -9   2  -2   68.03    3.93   0
  -8  -5   4   23.23    8.64   0
  -8  -3   0    6.51    6.21   0
  -7  -5   4   -3.06    7.23   0
  -7  -3   0   22.21    5.51   0
  -6  -3   0   99.94    5.26   0
  -5  -4   2  390.02    6.86   0
  -5  -2  -1  167.33    4.89   0
  -3  -5   6   62.02    4.58   0
  -2  -5   7   15.04    4.32   0
  -2   2  -1   42.43    0.88   0
  -1  -5   9   28.63    3.62   0
   1   5   6   17.25    5.92   0
   2   0   2  540.00    3.24   0
   2   4   5  101.35    5.47   0
   2   5   9   10.66    8.80   0
   3   3   5  131.49    5.04   0
   3   4   8  167.50    7.93   0
   4  -1   7   70.23    3.43   0
   4   2   6  249.59    5.81   0
   4   3   8   19.99    5.89   0
   5   0  11   49.19    5.76   0
   5   0  12    1.51    6.06   0
   5   1  10   59.04    6.48   0
   5   1  12   10.20    7.64   0
   5   1  13    8.46    7.83   0
 -13   0  -1   53.19    8.52   0
 -13   1  -1   29.35    7.22   0
 -12  -1  -1  207.05    8.64   0
 -11   3  -1    5.41    4.06   0
 -10   0  -2  132.79    5.04   0
  -9  -3   0   83.19    5.65   0
  -8  -1  -2  265.17    6.08   0
  -7  -1  -2   54.56    3.38   0
  -6  -5   4   42.98    6.85   0
  -6  -1  -2  362.46    5.63   0
  -6   5   1   10.17    2.77   0
  -5  -3   0   58.09    4.70   0
  -4   6   4    7.65    5.39   0
  -3   5   2    8.15    3.46   0
  -2  -2   0  962.68    5.69   0
  -1   6   7   37.64    8.43   0
   0  -3   3   21.65    2.00   0
   3   2   4  106.06    3.33   0
   3   4   9   66.55    8.22   0
   4   0   6   69.28    3.63   0
   4   3   9    0.03    6.68   0
   4   3  10    0.46    7.27   0
 -11  -2  -1    4.16    7.97   0
 -11   0  -2   -3.79    6.18   0
 -10   2  -2   45.97    4.79   0
  -8  -4   1  144.77    8.15   0
  -5  -5   4   51.15    6.43   0
  -5  -1  -2   62.00    3.75   0
  -4  -4   2  270.93    5.03   0
  -4   4   0   68.97    2.18   0
  -3   6   5    0.53    6.23   0
  -2   4   1   11.19    2.55   0
  -2   5   3   85.43    5.24   0
  -2   6   6   36.86    7.53   0
  -1   5   4  380.43    6.94   0
   0   5   5  176.10    5.57   0
   1   4   4  125.19    5.15   0
   1   5   7   47.34    5.28   0
   2   4   6   92.52    6.36   0
   3   3   6   65.01    5.35   0
   3   4  10   43.47    8.70   0
   3   4  11   17.27    9.90   0
   4   1   6  177.27    4.16   0
   4   3  11    6.90    6.51   0
   4   3  12   11.51    7.02   0
 -10  -4   1   40.39    8.91   0
  -8  -5   3   -4.17    9.11   0
  -6  -4   1   79.45    6.55   0
  -5   6   4   19.22    6.15   0
  -3  -5   5   17.64    5.04   0
  -2  -4   3  117.48    3.94   0
  -2  -3   1  594.59    5.50   0
  -1   4   2    8.91    3.26   0
   0   4   3    9.76    4.23   0
   1   1   1    9.59    1.99   0
   1   5   8    1.32    8.48   0
   2   3   4  285.85    5.56   0
   3   1   4  112.17    3.73   0
   4  -1   8    2.54    3.16   0
   4   2   8  165.66    6.58   0
 -12  -2  -1   85.29    9.69   0
 -12   1  -2    7.71    5.97   0
  -6  -5   3   61.91    7.47   0
  -4  -5   4   39.91    5.49   0
  -2   6   7   25.28    8.69   0
   0   5   6   54.75    6.38   0
   1   0   1  437.39    2.17   0
   1   5   9   82.00    8.88   0
   1   5  10   25.09    9.90   0
   2   2   3  732.27    6.20   0
   2   4   7    9.88    4.77   0
   3   3   7   66.91    6.20   0
   4   0   7  230.58    5.14   0
   4   1   7   81.89    4.87   0
   4   2   9    7.77    6.46   0
   4   2  10   87.44    7.28   0
   4   2  12   11.78    8.81   0
   4   2  13   -4.48   10.50   0
  -8  -3  -1   51.23    5.50   0
  -7  -3  -1  108.82    5.50   0
   1   4   5    9.04    3.90   0
   4   2  11   -0.30    5.86   0
;
_shelx_hkl_checksum              29597
_shelx_res_file
;
TITL h68013 in P2(1)
    h68013.res
    created by SHELXL-2017/1 at 09:04:48 on 18-Sep-2017
CELL  0.71073  10.1497   5.1276  11.6896  90.000  99.541  90.000
ZERR    2.000   0.0012   0.0004   0.0016   0.000   0.010   0.000
REM Gitterkonstanten aus 4652 Reflexen mit 2.0-28.5 Grad V=599.96(12)
REM farblose Nadel
LATT -1
SYMM -X, 1/2+Y, -Z
SFAC C H O
UNIT        32      28       4
L.S. 5
FMAP 2
TEMP -80
PLAN -10 .5 -.5
ACTA
CONF
SIZE 0.070  0.130  0.5
BOND $H
EQIV $1 x, y-1, z
HTAB O1 O2_$1
EQIV $2 -x+1, y+1/2, -z+1
HTAB O2 O1_$2
WGHT    0.031000    0.251900
FVAR       1.39040
O1    3    0.510562    0.298051    0.411472    11.00000    0.03084    0.01920 =
         0.02098    0.00163    0.00382   -0.00222
H1    2    0.471268    0.154354    0.384649    11.00000    0.04413
O2    3    0.402018    0.809580    0.350054    11.00000    0.03179    0.01811 =
         0.02449   -0.00237    0.00404    0.00268
H2    2    0.421061    0.749733    0.427495    11.00000    0.06097
C1    1    0.545397    0.448921    0.318158    11.00000    0.02465    0.01759 =
         0.02167    0.00037    0.00510   -0.00077
C2    1    0.615515    0.288911    0.229726    11.00000    0.03230    0.02250 =
         0.02132   -0.00122    0.00468    0.00312
AFIX  23
H2A   2    0.627109    0.101101    0.248340    11.00000   -1.20000
H2B   2    0.576281    0.316258    0.147268    11.00000   -1.20000
AFIX   0
C3    1    0.738070    0.454619    0.271820    11.00000    0.02803    0.02388 =
         0.02389    0.00609    0.00394    0.00402
C4    1    0.868805    0.497164    0.258387    11.00000    0.03090    0.04107 =
         0.03568    0.00945    0.01109    0.00504
AFIX  43
H4    2    0.909902    0.401865    0.204145    11.00000   -1.20000
AFIX   0
C5    1    0.936348    0.687601    0.328986    11.00000    0.02628    0.04722 =
         0.04168    0.01369    0.00283   -0.00351
AFIX  43
H5    2    1.026509    0.725004    0.322585    11.00000   -1.20000
AFIX   0
C6    1    0.876264    0.826493    0.409295    11.00000    0.03129    0.03563 =
         0.03948    0.00767   -0.00684   -0.00754
AFIX  43
H6    2    0.926413    0.955950    0.455706    11.00000   -1.20000
AFIX   0
C7    1    0.744737    0.779863    0.422980    11.00000    0.02942    0.02547 =
         0.02938    0.00069   -0.00197   -0.00234
AFIX  43
H7    2    0.703271    0.872062    0.477908    11.00000   -1.20000
AFIX   0
C8    1    0.678491    0.590724    0.351440    11.00000    0.02319    0.02022 =
         0.02357    0.00454    0.00195    0.00240
C9    1    0.424871    0.615592    0.267904    11.00000    0.02303    0.01708 =
         0.02131    0.00014    0.00296    0.00048
C10   1    0.423324    0.732397    0.142951    11.00000    0.02798    0.02173 =
         0.02406    0.00387    0.00348   -0.00003
AFIX  23
H10A  2    0.394867    0.917068    0.134744    11.00000   -1.20000
H10B  2    0.506586    0.702490    0.111143    11.00000   -1.20000
AFIX   0
C11   1    0.312897    0.537324    0.102080    11.00000    0.02354    0.02275 =
         0.02682    0.00073    0.00223    0.00244
C12   1    0.231479    0.436318    0.005538    11.00000    0.03342    0.03666 =
         0.02465    0.00190    0.00041    0.00147
AFIX  43
H12   2    0.237744    0.491510   -0.070953    11.00000   -1.20000
AFIX   0
C13   1    0.139527    0.248084    0.027747    11.00000    0.02708    0.03704 =
         0.03076   -0.00932   -0.00496   -0.00114
AFIX  43
H13   2    0.081726    0.172058   -0.035734    11.00000   -1.20000
AFIX   0
C14   1    0.129816    0.168428    0.139535    11.00000    0.02141    0.02767 =
         0.03703   -0.00203    0.00270   -0.00239
AFIX  43
H14   2    0.064511    0.042157    0.150384    11.00000   -1.20000
AFIX   0
C15   1    0.213208    0.268560    0.236278    11.00000    0.02352    0.02459 =
         0.02768    0.00251    0.00438    0.00270
AFIX  43
H15   2    0.207527    0.213816    0.312948    11.00000   -1.20000
AFIX   0
C16   1    0.304730    0.452783    0.213310    11.00000    0.02263    0.02078 =
         0.02437   -0.00116    0.00292    0.00187
HKLF 4
REM  h68013 in P2(1)
REM R1 =  0.0433 for    2371 Fo > 4sig(Fo)  and  0.0642 for all    2964 data
REM    171 parameters refined using      1 restraints
END
WGHT      0.0310      0.2514
REM Highest difference peak  0.243,  deepest hole -0.175,  1-sigma level  0.042
Q1    1   0.4441  0.6957  0.2115  11.00000  0.05    0.24
Q2    1   0.3574  0.5476  0.2534  11.00000  0.05    0.19
Q3    1   0.2916  0.2843  0.2159  11.00000  0.05    0.17
Q4    1   0.6026  0.5338  0.3599  11.00000  0.05    0.17
Q5    1   0.5213  0.3427  0.4834  11.00000  0.05    0.17
Q6    1   0.4863  0.5429  0.2922  11.00000  0.05    0.17
Q7    1   0.6821  0.7564  0.3360  11.00000  0.05    0.16
Q8    1   0.7328  0.4730  0.3347  11.00000  0.05    0.16
Q9    1   0.3313  0.4089  0.1516  11.00000  0.05    0.16
Q10   1   0.3734  0.6185  0.1007  11.00000  0.05    0.15
;
_shelx_res_checksum              2955
loop_
_space_group_symop_operation_xyz
'x, y, z'
'-x, y+1/2, -z'
loop_
_atom_site_type_symbol
_atom_site_label
_atom_site_fract_x
_atom_site_fract_y
_atom_site_fract_z
_atom_site_U_iso_or_equiv
_atom_site_adp_type
_atom_site_calc_flag
_atom_site_occupancy
O O1 0.51056(18) 0.2981(4) 0.41147(15) 0.0237(4) Uani d 1
H H1 0.471(3) 0.154(8) 0.385(3) 0.044(10) Uiso d 1
O O2 0.40202(18) 0.8096(4) 0.35005(17) 0.0249(4) Uani d 1
H H2 0.421(4) 0.750(8) 0.427(4) 0.061(12) Uiso d 1
C C1 0.5454(3) 0.4489(5) 0.3182(2) 0.0212(5) Uani d 1
C C2 0.6155(3) 0.2889(6) 0.2297(2) 0.0253(6) Uani d 1
H H2A 0.627109 0.101101 0.248340 0.030 Uiso calc 1
H H2B 0.576281 0.316258 0.147268 0.030 Uiso calc 1
C C3 0.7381(3) 0.4546(5) 0.2718(2) 0.0253(6) Uani d 1
C C4 0.8688(3) 0.4972(6) 0.2584(3) 0.0352(7) Uani d 1
H H4 0.909902 0.401865 0.204145 0.042 Uiso calc 1
C C5 0.9363(3) 0.6876(7) 0.3290(3) 0.0387(8) Uani d 1
H H5 1.026509 0.725004 0.322585 0.046 Uiso calc 1
C C6 0.8763(3) 0.8265(7) 0.4093(3) 0.0369(7) Uani d 1
H H6 0.926413 0.955950 0.455706 0.044 Uiso calc 1
C C7 0.7447(3) 0.7799(6) 0.4230(2) 0.0289(6) Uani d 1
H H7 0.703271 0.872062 0.477908 0.035 Uiso calc 1
C C8 0.6785(3) 0.5907(5) 0.3514(2) 0.0225(6) Uani d 1
C C9 0.4249(3) 0.6156(5) 0.2679(2) 0.0206(5) Uani d 1
C C10 0.4233(3) 0.7324(5) 0.1430(2) 0.0247(6) Uani d 1
H H10A 0.394867 0.917068 0.134744 0.030 Uiso calc 1
H H10B 0.506586 0.702490 0.111143 0.030 Uiso calc 1
C C11 0.3129(3) 0.5373(5) 0.1021(2) 0.0246(6) Uani d 1
C C12 0.2315(3) 0.4363(6) 0.0055(3) 0.0321(7) Uani d 1
H H12 0.237744 0.491510 -0.070953 0.038 Uiso calc 1
C C13 0.1395(3) 0.2481(6) 0.0277(3) 0.0327(7) Uani d 1
H H13 0.081726 0.172058 -0.035734 0.039 Uiso calc 1
C C14 0.1298(3) 0.1684(6) 0.1395(3) 0.0289(6) Uani d 1
H H14 0.064511 0.042157 0.150384 0.035 Uiso calc 1
C C15 0.2132(2) 0.2686(5) 0.2363(2) 0.0253(6) Uani d 1
H H15 0.207527 0.213816 0.312948 0.030 Uiso calc 1
C C16 0.3047(3) 0.4528(5) 0.2133(2) 0.0227(5) Uani d 1
loop_
_atom_site_aniso_label
_atom_site_aniso_U_11
_atom_site_aniso_U_22
_atom_site_aniso_U_33
_atom_site_aniso_U_12
_atom_site_aniso_U_13
_atom_site_aniso_U_23
O1 0.0308(10) 0.0192(9) 0.0210(9) -0.0022(9) 0.0038(7) 0.0016(8)
O2 0.0318(10) 0.0181(9) 0.0245(10) 0.0027(9) 0.0040(8) -0.0024(8)
C1 0.0246(13) 0.0176(12) 0.0217(13) -0.0008(11) 0.0051(10) 0.0004(11)
C2 0.0323(14) 0.0225(13) 0.0213(12) 0.0031(13) 0.0047(10) -0.0012(12)
C3 0.0280(14) 0.0239(13) 0.0239(14) 0.0040(12) 0.0039(11) 0.0061(12)
C4 0.0309(15) 0.0411(18) 0.0357(17) 0.0050(14) 0.0111(13) 0.0094(14)
C5 0.0263(14) 0.0472(19) 0.0417(18) -0.0035(14) 0.0028(13) 0.0137(16)
C6 0.0313(15) 0.0356(16) 0.0395(17) -0.0075(15) -0.0068(13) 0.0077(15)
C7 0.0294(14) 0.0255(14) 0.0294(14) -0.0023(13) -0.0020(11) 0.0007(13)
C8 0.0232(13) 0.0202(13) 0.0236(13) 0.0024(11) 0.0020(11) 0.0045(11)
C9 0.0230(13) 0.0171(12) 0.0213(13) 0.0005(10) 0.0030(10) 0.0001(10)
C10 0.0280(13) 0.0217(14) 0.0241(13) 0.0000(11) 0.0035(11) 0.0039(11)
C11 0.0235(13) 0.0227(14) 0.0268(14) 0.0024(11) 0.0022(11) 0.0007(11)
C12 0.0334(16) 0.0367(16) 0.0246(14) 0.0015(14) 0.0004(12) 0.0019(13)
C13 0.0271(14) 0.0370(18) 0.0308(15) -0.0011(13) -0.0050(12) -0.0093(14)
C14 0.0214(13) 0.0277(15) 0.0370(17) -0.0024(12) 0.0027(12) -0.0020(12)
C15 0.0235(12) 0.0246(14) 0.0277(13) 0.0027(12) 0.0044(10) 0.0025(12)
C16 0.0226(12) 0.0208(13) 0.0244(13) 0.0019(11) 0.0029(10) -0.0012(11)
loop_
_atom_type_symbol
_atom_type_description
_atom_type_scat_dispersion_real
_atom_type_scat_dispersion_imag
_atom_type_scat_source
C C 0.0033 0.0016 'International Tables Vol C Tables 4.2.6.8 and 6.1.1.4'
H H 0.0000 0.0000 'International Tables Vol C Tables 4.2.6.8 and 6.1.1.4'
O O 0.0106 0.0060 'International Tables Vol C Tables 4.2.6.8 and 6.1.1.4'
loop_
_geom_angle_atom_site_label_1
_geom_angle_atom_site_label_2
_geom_angle_atom_site_label_3
_geom_angle
C1 O1 H1 110(2)
C9 O2 H2 113(2)
O1 C1 C8 112.6(2)
O1 C1 C9 108.2(2)
C8 C1 C9 116.7(2)
O1 C1 C2 114.5(2)
C8 C1 C2 86.47(19)
C9 C1 C2 117.3(2)
C3 C2 C1 86.04(19)
C3 C2 H2A 114.3
C1 C2 H2A 114.3
C3 C2 H2B 114.3
C1 C2 H2B 114.3
H2A C2 H2B 111.5
C4 C3 C8 122.3(3)
C4 C3 C2 143.4(3)
C8 C3 C2 94.3(2)
C3 C4 C5 115.7(3)
C3 C4 H4 122.1
C5 C4 H4 122.1
C4 C5 C6 122.1(3)
C4 C5 H5 118.9
C6 C5 H5 118.9
C7 C6 C5 121.6(3)
C7 C6 H6 119.2
C5 C6 H6 119.2
C8 C7 C6 115.6(3)
C8 C7 H7 122.2
C6 C7 H7 122.2
C3 C8 C7 122.7(3)
C3 C8 C1 93.2(2)
C7 C8 C1 144.2(3)
O2 C9 C16 117.0(2)
O2 C9 C1 109.9(2)
C16 C9 C1 112.82(19)
O2 C9 C10 112.4(2)
C16 C9 C10 86.32(19)
C1 C9 C10 117.0(2)
C11 C10 C9 86.26(19)
C11 C10 H10A 114.3
C9 C10 H10A 114.3
C11 C10 H10B 114.3
C9 C10 H10B 114.3
H10A C10 H10B 111.4
C12 C11 C16 121.8(3)
C12 C11 C10 144.3(3)
C16 C11 C10 93.8(2)
C11 C12 C13 115.7(3)
C11 C12 H12 122.1
C13 C12 H12 122.1
C14 C13 C12 122.2(3)
C14 C13 H13 118.9
C12 C13 H13 118.9
C13 C14 C15 121.8(3)
C13 C14 H14 119.1
C15 C14 H14 119.1
C16 C15 C14 115.6(3)
C16 C15 H15 122.2
C14 C15 H15 122.2
C15 C16 C11 122.9(3)
C15 C16 C9 143.9(3)
C11 C16 C9 93.1(2)
loop_
_geom_bond_atom_site_label_1
_geom_bond_atom_site_label_2
_geom_bond_distance
O1 C1 1.429(3)
O1 H1 0.87(4)
O2 C9 1.428(3)
O2 H2 0.94(4)
C1 C8 1.527(4)
C1 C9 1.528(3)
C1 C2 1.579(4)
C2 C3 1.519(4)
C2 H2A 0.9900
C2 H2B 0.9900
C3 C4 1.379(4)
C3 C8 1.380(4)
C4 C5 1.385(5)
C4 H4 0.9500
C5 C6 1.397(5)
C5 H5 0.9500
C6 C7 1.391(4)
C6 H6 0.9500
C7 C8 1.380(4)
C7 H7 0.9500
C9 C16 1.527(4)
C9 C10 1.576(4)
C10 C11 1.519(4)
C10 H10A 0.9900
C10 H10B 0.9900
C11 C12 1.384(4)
C11 C16 1.386(4)
C12 C13 1.397(4)
C12 H12 0.9500
C13 C14 1.388(4)
C13 H13 0.9500
C14 C15 1.393(4)
C14 H14 0.9500
C15 C16 1.382(4)
C15 H15 0.9500
loop_
_geom_hbond_atom_site_label_D
_geom_hbond_atom_site_label_H
_geom_hbond_atom_site_label_A
_geom_hbond_site_symmetry_A
_geom_hbond_distance_DH
_geom_hbond_distance_HA
_geom_hbond_distance_DA
_geom_hbond_angle_DHA
_geom_hbond_publ_flag
O1 H1 O2 1_545 0.87(4) 1.92(4) 2.782(3) 170(3) yes
O2 H2 O1 2_656 0.94(4) 1.91(4) 2.782(3) 152(4) yes
loop_
_geom_torsion_atom_site_label_1
_geom_torsion_atom_site_label_2
_geom_torsion_atom_site_label_3
_geom_torsion_atom_site_label_4
_geom_torsion
O1 C1 C2 C3 -114.5(2)
C8 C1 C2 C3 -1.30(18)
C9 C1 C2 C3 117.1(2)
C1 C2 C3 C4 179.5(4)
C1 C2 C3 C8 1.4(2)
C8 C3 C4 C5 -0.7(4)
C2 C3 C4 C5 -178.4(3)
C3 C4 C5 C6 0.4(5)
C4 C5 C6 C7 0.2(5)
C5 C6 C7 C8 -0.7(4)
C4 C3 C8 C7 0.3(4)
C2 C3 C8 C7 179.0(3)
C4 C3 C8 C1 179.9(3)
C2 C3 C8 C1 -1.5(2)
C6 C7 C8 C3 0.4(4)
C6 C7 C8 C1 -178.9(3)
O1 C1 C8 C3 116.5(2)
C9 C1 C8 C3 -117.4(2)
C2 C1 C8 C3 1.4(2)
O1 C1 C8 C7 -64.1(5)
C9 C1 C8 C7 61.9(5)
C2 C1 C8 C7 -179.2(4)
O1 C1 C9 O2 68.3(2)
C8 C1 C9 O2 -59.9(3)
C2 C1 C9 O2 -160.4(2)
O1 C1 C9 C16 -64.3(3)
C8 C1 C9 C16 167.5(2)
C2 C1 C9 C16 67.0(3)
O1 C1 C9 C10 -162.1(2)
C8 C1 C9 C10 69.7(3)
C2 C1 C9 C10 -30.8(3)
O2 C9 C10 C11 -122.9(2)
C16 C9 C10 C11 -5.15(19)
C1 C9 C10 C11 108.6(2)
C9 C10 C11 C12 -174.8(4)
C9 C10 C11 C16 5.7(2)
C16 C11 C12 C13 1.1(4)
C10 C11 C12 C13 -178.3(4)
C11 C12 C13 C14 0.4(4)
C12 C13 C14 C15 -1.2(5)
C13 C14 C15 C16 0.5(4)
C14 C15 C16 C11 1.0(4)
C14 C15 C16 C9 -172.8(3)
C12 C11 C16 C15 -1.8(4)
C10 C11 C16 C15 177.8(3)
C12 C11 C16 C9 174.5(3)
C10 C11 C16 C9 -5.9(2)
O2 C9 C16 C15 -66.3(5)
C1 C9 C16 C15 62.7(5)
C10 C9 C16 C15 -179.6(4)
O2 C9 C16 C11 118.9(2)
C1 C9 C16 C11 -112.1(2)
C10 C9 C16 C11 5.6(2)

_cod_database_fobs_code 1550217
