#------------------------------------------------------------------------------
#$Date: 2019-11-08 04:21:48 +0200 (Fri, 08 Nov 2019) $
#$Revision: 225359 $
#$URL: file:///home/coder/svn-repositories/cod/cif/1/55/03/1550350.cif $
#------------------------------------------------------------------------------
#
# This file is available in the Crystallography Open Database (COD),
# http://www.crystallography.net/
#
# All data on this site have been placed in the public domain by the
# contributors.
#
data_1550350
loop_
_publ_author_name
'Tatikonda, Rajendhraprasad'
'Bulatov, Evgeny'
'\"Ozdemir, Z\"ulal'
'Nonappa, ?'
'Haukka, Matti'
_publ_section_title
;
 Infinite coordination polymer networks: metallogelation of aminopyridine
 conjugates and in situ silver nanoparticle formation.
;
_journal_issue                   3
_journal_name_full               'Soft matter'
_journal_page_first              442
_journal_page_last               451
_journal_paper_doi               10.1039/c8sm02006j
_journal_volume                  15
_journal_year                    2019
_chemical_formula_moiety         'C13 H12 Ag N3 O3'
_chemical_formula_sum            'C13 H12 Ag N3 O3'
_chemical_formula_weight         366.13
_space_group_crystal_system      triclinic
_space_group_IT_number           2
_space_group_name_Hall           '-P 1'
_space_group_name_H-M_alt        'P -1'
_symmetry_space_group_name_Hall  '-P 1'
_symmetry_space_group_name_H-M   'P -1'
_atom_sites_solution_hydrogens   geom
_audit_creation_date             2018-03-13
_audit_creation_method
;
Olex2 1.2
(compiled 2015.09.30 svn.r3233 for OlexSys, GUI svn.r5103)
;
_audit_update_record
;
2018-03-15 deposited with the CCDC.
2018-12-11 downloaded from the CCDC.
;
_cell_angle_alpha                102.912(5)
_cell_angle_beta                 95.079(4)
_cell_angle_gamma                108.486(5)
_cell_formula_units_Z            2
_cell_length_a                   7.3603(3)
_cell_length_b                   8.6180(6)
_cell_length_c                   11.0702(6)
_cell_measurement_reflns_used    5857
_cell_measurement_temperature    120
_cell_measurement_theta_max      30.3170
_cell_measurement_theta_min      3.6300
_cell_volume                     639.40(7)
_computing_cell_refinement       'CrysAlisPro 1.171.38.46 (Rigaku OD, 2015)'
_computing_data_collection       'CrysAlisPro 1.171.38.46 (Rigaku OD, 2015)'
_computing_data_reduction        'CrysAlisPro 1.171.38.46 (Rigaku OD, 2015)'
_computing_molecular_graphics    'Olex2 (Dolomanov et al., 2009)'
_computing_publication_material  'Olex2 (Dolomanov et al., 2009)'
_computing_structure_refinement  'ShelXL (Sheldrick, 2015)'
_computing_structure_solution    'ShelXT (Sheldrick, 2015)'
_diffrn_ambient_temperature      120
_diffrn_detector                 'CCD plate'
_diffrn_detector_area_resol_mean 16.0107
_diffrn_detector_type            Eos
_diffrn_measured_fraction_theta_full 0.999
_diffrn_measured_fraction_theta_max 0.999
_diffrn_measurement_details
;
List of Runs (angles in degrees, time in seconds):

  # Type    Start    End  Width  t~exp~   \w     \q     \k     \f   Frames
#--------------------------------------------------------------------------
  1  \w      2.00  73.00   1.00    2.50    --   23.20  57.00   0.00   71
  2  \w      3.00  58.00   1.00    2.50    --   23.20  57.00 -90.00   55
  3  \w      7.00  92.00   1.00    2.50    --   23.20  57.00-180.00   85
  4  \w     23.00  64.00   1.00    2.50    --   23.20 -99.00 -30.00   41
  5  \w     16.00  65.00   1.00    2.50    --   23.20 -99.00  90.00   49
  6  \w    -46.00  32.00   1.00    2.50    --   23.20 -57.00  30.00   78
  7  \w    -44.00  46.00   1.00    2.50    --  -22.10  57.00 -60.00   90
  8  \w     -7.00  90.00   1.00    2.50    --   23.20  77.00  60.00   97
  9  \w    -51.00  48.00   1.00    2.50    --  -22.10  77.00-180.00   99
 10  \w    -65.00  17.00   1.00    2.50    --  -22.10 -19.00-150.00   82
;
_diffrn_measurement_device       'four-circle diffractometer'
_diffrn_measurement_device_type  'SuperNova, Single source at offset, Eos'
_diffrn_measurement_method       '\w scans'
_diffrn_measurement_specimen_support 'Mitegen 50um'
_diffrn_orient_matrix_type
'CrysAlisPro convention (1999,Acta A55,543-557)'
_diffrn_orient_matrix_UB_11      0.0205560000
_diffrn_orient_matrix_UB_12      -0.0611045000
_diffrn_orient_matrix_UB_13      0.0270798000
_diffrn_orient_matrix_UB_21      0.0130004000
_diffrn_orient_matrix_UB_22      -0.0429804000
_diffrn_orient_matrix_UB_23      -0.0593677000
_diffrn_orient_matrix_UB_31      0.1002480000
_diffrn_orient_matrix_UB_32      0.0502457000
_diffrn_orient_matrix_UB_33      0.0139855000
_diffrn_radiation_collimation    0.3
_diffrn_radiation_monochromator  mirror
_diffrn_radiation_probe          x-ray
_diffrn_radiation_type           MoK\a
_diffrn_radiation_wavelength     0.71073
_diffrn_reflns_av_R_equivalents  0.0301
_diffrn_reflns_av_unetI/netI     0.0335
_diffrn_reflns_Laue_measured_fraction_full 0.999
_diffrn_reflns_Laue_measured_fraction_max 0.999
_diffrn_reflns_limit_h_max       9
_diffrn_reflns_limit_h_min       -9
_diffrn_reflns_limit_k_max       11
_diffrn_reflns_limit_k_min       -11
_diffrn_reflns_limit_l_max       14
_diffrn_reflns_limit_l_min       -14
_diffrn_reflns_number            9983
_diffrn_reflns_point_group_measured_fraction_full 0.999
_diffrn_reflns_point_group_measured_fraction_max 0.999
_diffrn_reflns_theta_full        25.242
_diffrn_reflns_theta_max         27.876
_diffrn_reflns_theta_min         2.962
_diffrn_source                   'micro-focus sealed X-ray tube'
_diffrn_source_current           24.0
_diffrn_source_power             1.2
_diffrn_source_target            Mo
_diffrn_source_type              'SuperNova (Mo) X-ray Source'
_diffrn_source_voltage           50.0
_exptl_absorpt_coefficient_mu    1.587
_exptl_absorpt_correction_T_max  0.938
_exptl_absorpt_correction_T_min  0.858
_exptl_absorpt_correction_type   analytical
_exptl_absorpt_process_details
;
CrysAlisPro 1.171.38.46 (Rigaku Oxford Diffraction, 2015)
Analytical numeric absorption correction using a multifaceted crystal
            model based on expressions derived by R.C. Clark & J.S. Reid.
(Clark, R. C. & Reid, J. S. (1995). Acta Cryst. A51, 887-897)
Empirical absorption correction using spherical harmonics,
 implemented in SCALE3 ABSPACK scaling algorithm.
;
_exptl_crystal_colour            'clear colourless'
_exptl_crystal_colour_lustre     clear
_exptl_crystal_colour_primary    colourless
_exptl_crystal_density_diffrn    1.902
_exptl_crystal_description       plate
_exptl_crystal_F_000             364
_exptl_crystal_size_max          0.254
_exptl_crystal_size_mid          0.149
_exptl_crystal_size_min          0.089
_refine_diff_density_max         0.442
_refine_diff_density_min         -0.341
_refine_diff_density_rms         0.083
_refine_ls_extinction_method     none
_refine_ls_goodness_of_fit_ref   1.045
_refine_ls_hydrogen_treatment    constr
_refine_ls_matrix_type           full
_refine_ls_number_parameters     182
_refine_ls_number_reflns         3064
_refine_ls_number_restraints     0
_refine_ls_restrained_S_all      1.045
_refine_ls_R_factor_all          0.0261
_refine_ls_R_factor_gt           0.0230
_refine_ls_shift/su_max          0.003
_refine_ls_shift/su_mean         0.000
_refine_ls_structure_factor_coef Fsqd
_refine_ls_weighting_details
'w=1/[\s^2^(Fo^2^)+(0.0222P)^2^+0.1463P] where P=(Fo^2^+2Fc^2^)/3'
_refine_ls_weighting_scheme      calc
_refine_ls_wR_factor_gt          0.0506
_refine_ls_wR_factor_ref         0.0521
_reflns_Friedel_coverage         0.000
_reflns_number_gt                2825
_reflns_number_total             3064
_reflns_threshold_expression     'I > 2\s(I)'
_iucr_refine_instructions_details
;

    ofs-212+agoac_a.res created by SHELXL-2014/7

TITL ofs-212+agoac_a_a.res in P-1
REM Old TITL OFS-212 + AgOAc_a in P-1 #2
REM SHELXT solution in P-1
REM R1 0.073, Rweak 0.011, Alpha 0.117, Orientation as input
REM Formula found by SHELXT: C13 N3 O3 Ag
CELL 0.71073 7.360264 8.618006 11.070245 102.9116 95.0792 108.4855
ZERR 2 0.000337 0.000555 0.000555 0.0048 0.0039 0.0049
LATT 1
SFAC C H Ag N O
UNIT 26 24 2 6 6
EQIV $1 1-X,1-Y,2-Z
 
L.S. 10
PLAN  1
TEMP -153.15
HTAB N2 O2_$1
BOND $H
LIST 4
fmap 2
acta
MORE -1
CONF
REM <olex2.extras>
REM <HklSrc "%.\\OFS-212%20+%20AgOAc_a.hkl">
REM </olex2.extras>
 
WGHT    0.022200    0.146300
FVAR       0.58450
AG01  3    0.399245    0.816338    1.084328    11.00000    0.02555    0.01649 =
         0.01120   -0.00016    0.00377    0.00698
O1    5    0.277831    0.268106    0.462277    11.00000    0.03025    0.01390 =
         0.01121    0.00379    0.00386    0.00915
O3    5    0.727437    0.995668    1.004407    11.00000    0.02999    0.02206 =
         0.01244   -0.00035   -0.00082    0.01159
O2    5    0.704581    1.017787    1.205102    11.00000    0.02794    0.02195 =
         0.01520    0.00720    0.00372    0.00798
N3    4    0.275711   -0.203276    0.265633    11.00000    0.01658    0.01502 =
         0.01178   -0.00110    0.00250    0.00525
N2    4    0.250672    0.067273    0.570828    11.00000    0.02079    0.01085 =
         0.00854    0.00076    0.00350    0.00589
AFIX  43
H2    2    0.240687    0.050369    0.645847    11.00000   -1.20000
AFIX   0
N1    4    0.350315    0.603805    0.907464    11.00000    0.02061    0.01388 =
         0.01462    0.00131    0.00417    0.00736
C12   1    0.796606    1.057102    1.118877    11.00000    0.02275    0.01446 =
         0.01551    0.00369    0.00242    0.01001
C7    1    0.242614   -0.073796    0.473977    11.00000    0.01303    0.01224 =
         0.01172   -0.00033    0.00070    0.00612
C8    1    0.277771   -0.065878    0.353352    11.00000    0.01695    0.01028 =
         0.01493    0.00200    0.00329    0.00349
AFIX  43
H8    2    0.303891    0.039241    0.332431    11.00000   -1.20000
AFIX   0
C5    1    0.241972    0.442088    0.893811    11.00000    0.02154    0.01694 =
         0.01398    0.00226    0.00633    0.00561
AFIX  43
H5    2    0.183189    0.413522    0.962613    11.00000   -1.20000
AFIX   0
C4    1    0.210214    0.313636    0.785436    11.00000    0.01783    0.01143 =
         0.01542    0.00087    0.00281    0.00449
AFIX  43
H4    2    0.133197    0.200022    0.780677    11.00000   -1.20000
AFIX   0
C6    1    0.272098    0.226035    0.561137    11.00000    0.01288    0.01201 =
         0.01170    0.00083    0.00112    0.00423
C2    1    0.403836    0.523451    0.695634    11.00000    0.01858    0.01492 =
         0.01413    0.00421    0.00579    0.00717
AFIX  43
H2A   2    0.460523    0.556396    0.627363    11.00000   -1.20000
AFIX   0
C11   1    0.204685   -0.227321    0.503829    11.00000    0.02016    0.01291 =
         0.01369    0.00157    0.00309    0.00448
AFIX  43
H11   2    0.180819   -0.235675    0.585492    11.00000   -1.20000
AFIX   0
C10   1    0.201821   -0.368717    0.413595    11.00000    0.02321    0.01143 =
         0.01944    0.00311    0.00352    0.00702
AFIX  43
H10   2    0.175664   -0.475453    0.431934    11.00000   -1.20000
AFIX   0
C3    1    0.293586    0.354464    0.683444    11.00000    0.01452    0.01177 =
         0.01106    0.00071    0.00012    0.00631
C1    1    0.429573    0.642455    0.808409    11.00000    0.01984    0.01215 =
         0.01594    0.00177    0.00415    0.00390
AFIX  43
H1    2    0.506937    0.757003    0.816320    11.00000   -1.20000
AFIX   0
C9    1    0.238067   -0.350473    0.295976    11.00000    0.01841    0.01197 =
         0.01661   -0.00186    0.00255    0.00485
AFIX  43
H9    2    0.236053   -0.447292    0.233924    11.00000   -1.20000
AFIX   0
C13   1    0.998933    1.188093    1.156993    11.00000    0.02336    0.02754 =
         0.02404    0.00107    0.00271    0.00254
AFIX 137
H13A  2    1.085841    1.149976    1.105155    11.00000   -1.50000
H13B  2    1.046645    1.202921    1.245798    11.00000   -1.50000
H13C  2    0.995631    1.296400    1.144765    11.00000   -1.50000
AFIX   0
HKLF 4
 
REM  ofs-212+agoac_a_a.res in P-1
REM R1 =  0.0230 for    2825 Fo > 4sig(Fo)  and  0.0261 for all    3064 data
REM    182 parameters refined using      0 restraints
 
END  
     
WGHT      0.0224      0.1426 

REM Highest difference peak  0.442,  deepest hole -0.341,  1-sigma level  0.083
Q1    1   0.2634 -0.0068  0.5190  11.00000  0.05    0.44

  REM The information below was added by Olex2.
  REM
  REM R1 = 0.0230 for 2825 Fo > 4sig(Fo) and 0.0261 for all 9983 data
  REM n/a parameters refined using n/a restraints
  REM Highest difference peak 0.44, deepest hole -0.34
  REM Mean Shift 0, Max Shift -0.003.
  
  REM +++ Tabular Listing of Refinement Information +++
  REM R1_all = 0.0261
  REM R1_gt = 0.0230
  REM wR_ref = 0.0521
  REM GOOF = 1.045
  REM Shift_max = -0.003
  REM Shift_mean = 0
  REM Reflections_all = 9983
  REM Reflections_gt = 2825
  REM Parameters = n/a
  REM Hole = -0.34
  REM Peak = 0.44
  REM Flack = n/a
  
  
;
_cod_data_source_file            c8sm02006j2.cif
_cod_data_source_block           1.AgOAc
_cod_depositor_comments
'Adding full bibliography for 1550349--1550355.cif.'
_cod_original_cell_volume        639.40(6)
_cod_database_code               1550350
_chemical_oxdiff_formula         'C24 H23 N3 O4 Ag'
_chemical_oxdiff_usercomment     'Clear, Colorless, Block, 0.15 0.1 0.06'
_shelx_space_group_comment
;
The symmetry employed for this shelxl refinement is uniquely defined
by the following loop, which should always be used as a source of
symmetry information in preference to the above space-group names.
They are only intended as comments.
;
_reflns_odcompleteness_completeness 99.87
_reflns_odcompleteness_iscentric 1
_reflns_odcompleteness_theta     27.82
_olex2_refinement_description
;
1. Fixed Uiso
 At 1.2 times of:
  All C(H) groups, All N(H) groups
 At 1.5 times of:
  All C(H,H,H) groups
2.a Aromatic/amide H refined with riding coordinates:
 N2(H2), C8(H8), C5(H5), C4(H4), C2(H2A), C11(H11), C10(H10), C1(H1), C9(H9)
2.b Idealised Me refined as rotating group:
 C13(H13A,H13B,H13C)
;
_shelx_shelxl_version_number     2014/7
_olex2_submission_special_instructions 'No special instructions were received'
_oxdiff_exptl_absorpt_empirical_details
;
Empirical correction (ABSPACK) includes:
- Absorption correction using spherical harmonics
- Frame scaling
;
_oxdiff_exptl_absorpt_empirical_full_max 1.120
_oxdiff_exptl_absorpt_empirical_full_min 0.908
loop_
_space_group_symop_operation_xyz
'x, y, z'
'-x, -y, -z'
loop_
_atom_site_label
_atom_site_type_symbol
_atom_site_fract_x
_atom_site_fract_y
_atom_site_fract_z
_atom_site_U_iso_or_equiv
_atom_site_adp_type
_atom_site_occupancy
_atom_site_site_symmetry_order
_atom_site_calc_flag
_atom_site_refinement_flags_posn
Ag01 Ag 0.39924(2) 0.81634(2) 1.08433(2) 0.01844(6) Uani 1 1 d .
O1 O 0.2778(2) 0.26811(18) 0.46228(13) 0.0180(3) Uani 1 1 d .
O3 O 0.7274(2) 0.9957(2) 1.00441(13) 0.0220(3) Uani 1 1 d .
O2 O 0.7046(2) 1.0178(2) 1.20510(14) 0.0215(3) Uani 1 1 d .
N3 N 0.2757(2) -0.2033(2) 0.26563(15) 0.0153(4) Uani 1 1 d .
N2 N 0.2507(2) 0.0673(2) 0.57083(15) 0.0135(3) Uani 1 1 d .
H2 H 0.2407 0.0504 0.6458 0.016 Uiso 1 1 calc R
N1 N 0.3503(2) 0.6038(2) 0.90746(16) 0.0164(4) Uani 1 1 d .
C12 C 0.7966(3) 1.0571(3) 1.11888(19) 0.0168(4) Uani 1 1 d .
C7 C 0.2426(3) -0.0738(3) 0.47398(18) 0.0126(4) Uani 1 1 d .
C8 C 0.2778(3) -0.0659(3) 0.35335(19) 0.0146(4) Uani 1 1 d .
H8 H 0.3039 0.0392 0.3324 0.017 Uiso 1 1 calc R
C5 C 0.2420(3) 0.4421(3) 0.89381(19) 0.0178(4) Uani 1 1 d .
H5 H 0.1832 0.4135 0.9626 0.021 Uiso 1 1 calc R
C4 C 0.2102(3) 0.3136(3) 0.78544(19) 0.0155(4) Uani 1 1 d .
H4 H 0.1332 0.2000 0.7807 0.019 Uiso 1 1 calc R
C6 C 0.2721(3) 0.2260(3) 0.56114(18) 0.0127(4) Uani 1 1 d .
C2 C 0.4038(3) 0.5235(3) 0.69563(19) 0.0153(4) Uani 1 1 d .
H2A H 0.4605 0.5564 0.6274 0.018 Uiso 1 1 calc R
C11 C 0.2047(3) -0.2273(3) 0.50383(19) 0.0162(4) Uani 1 1 d .
H11 H 0.1808 -0.2357 0.5855 0.019 Uiso 1 1 calc R
C10 C 0.2018(3) -0.3687(3) 0.4136(2) 0.0180(4) Uani 1 1 d .
H10 H 0.1757 -0.4755 0.4319 0.022 Uiso 1 1 calc R
C3 C 0.2936(3) 0.3545(3) 0.68344(18) 0.0125(4) Uani 1 1 d .
C1 C 0.4296(3) 0.6425(3) 0.80841(19) 0.0166(4) Uani 1 1 d .
H1 H 0.5069 0.7570 0.8163 0.020 Uiso 1 1 calc R
C9 C 0.2381(3) -0.3505(3) 0.29598(19) 0.0168(4) Uani 1 1 d .
H9 H 0.2361 -0.4473 0.2339 0.020 Uiso 1 1 calc R
C13 C 0.9989(3) 1.1881(3) 1.1570(2) 0.0276(5) Uani 1 1 d .
H13A H 1.0858 1.1500 1.1052 0.041 Uiso 1 1 calc GR
H13B H 1.0466 1.2029 1.2458 0.041 Uiso 1 1 calc GR
H13C H 0.9956 1.2964 1.1448 0.041 Uiso 1 1 calc GR
loop_
_atom_site_aniso_label
_atom_site_aniso_U_11
_atom_site_aniso_U_22
_atom_site_aniso_U_33
_atom_site_aniso_U_23
_atom_site_aniso_U_13
_atom_site_aniso_U_12
Ag01 0.02555(10) 0.01649(9) 0.01120(9) -0.00016(6) 0.00377(6) 0.00698(7)
O1 0.0303(8) 0.0139(7) 0.0112(7) 0.0038(6) 0.0039(6) 0.0091(6)
O3 0.0300(8) 0.0221(8) 0.0124(7) -0.0004(6) -0.0008(6) 0.0116(7)
O2 0.0279(8) 0.0220(8) 0.0152(8) 0.0072(6) 0.0037(6) 0.0080(7)
N3 0.0166(8) 0.0150(9) 0.0118(8) -0.0011(7) 0.0025(7) 0.0052(7)
N2 0.0208(9) 0.0109(8) 0.0085(8) 0.0008(7) 0.0035(6) 0.0059(7)
N1 0.0206(9) 0.0139(9) 0.0146(9) 0.0013(7) 0.0042(7) 0.0074(7)
C12 0.0227(11) 0.0145(10) 0.0155(10) 0.0037(8) 0.0024(8) 0.0100(9)
C7 0.0130(9) 0.0122(10) 0.0117(9) -0.0003(8) 0.0007(7) 0.0061(8)
C8 0.0169(10) 0.0103(10) 0.0149(10) 0.0020(8) 0.0033(8) 0.0035(8)
C5 0.0215(11) 0.0169(11) 0.0140(10) 0.0023(8) 0.0063(8) 0.0056(9)
C4 0.0178(10) 0.0114(10) 0.0154(10) 0.0009(8) 0.0028(8) 0.0045(8)
C6 0.0129(9) 0.0120(10) 0.0117(9) 0.0008(8) 0.0011(7) 0.0042(8)
C2 0.0186(10) 0.0149(10) 0.0141(10) 0.0042(8) 0.0058(8) 0.0072(8)
C11 0.0202(10) 0.0129(10) 0.0137(10) 0.0016(8) 0.0031(8) 0.0045(8)
C10 0.0232(11) 0.0114(10) 0.0194(11) 0.0031(8) 0.0035(8) 0.0070(9)
C3 0.0145(9) 0.0118(10) 0.0111(9) 0.0007(8) 0.0001(7) 0.0063(8)
C1 0.0198(10) 0.0121(10) 0.0159(10) 0.0018(8) 0.0042(8) 0.0039(8)
C9 0.0184(10) 0.0120(10) 0.0166(10) -0.0019(8) 0.0026(8) 0.0049(8)
C13 0.0234(12) 0.0275(13) 0.0240(12) 0.0011(10) 0.0027(9) 0.0025(10)
loop_
_atom_type_symbol
_atom_type_description
_atom_type_scat_dispersion_real
_atom_type_scat_dispersion_imag
_atom_type_scat_source
C C 0.0033 0.0016 'International Tables Vol C Tables 4.2.6.8 and 6.1.1.4'
H H 0.0000 0.0000 'International Tables Vol C Tables 4.2.6.8 and 6.1.1.4'
Ag Ag -0.8971 1.1015 'International Tables Vol C Tables 4.2.6.8 and 6.1.1.4'
N N 0.0061 0.0033 'International Tables Vol C Tables 4.2.6.8 and 6.1.1.4'
O O 0.0106 0.0060 'International Tables Vol C Tables 4.2.6.8 and 6.1.1.4'
loop_
_exptl_crystal_face_index_h
_exptl_crystal_face_index_k
_exptl_crystal_face_index_l
_exptl_crystal_face_perp_dist
-1 -3 -13 0.0608
0 11 -6 0.0396
10 -6 4 0.0951
0 -12 6 0.0470
-9 7 -5 0.1114
-9 -1 8 0.1074
9 3 -2 0.0775
1 3 13 0.0697
loop_
_geom_angle_atom_site_label_1
_geom_angle_atom_site_label_2
_geom_angle_atom_site_label_3
_geom_angle
_geom_angle_site_symmetry_1
_geom_angle_site_symmetry_3
O2 Ag01 O3 100.12(5) . 2_677
N3 Ag01 O3 107.21(6) 1_566 2_677
N3 Ag01 O2 90.54(6) 1_566 .
N1 Ag01 O3 99.86(6) . 2_677
N1 Ag01 O2 127.87(6) . .
N1 Ag01 N3 127.65(6) . 1_566
C12 O3 Ag01 112.35(13) . 2_677
C12 O2 Ag01 101.33(13) . .
C8 N3 Ag01 122.43(14) . 1_544
C9 N3 Ag01 117.58(13) . 1_544
C9 N3 C8 118.55(18) . .
C7 N2 H2 116.4 . .
C6 N2 H2 116.4 . .
C6 N2 C7 127.23(17) . .
C5 N1 Ag01 124.04(14) . .
C5 N1 C1 117.26(18) . .
C1 N1 Ag01 118.67(14) . .
O3 C12 O2 123.4(2) . .
O3 C12 C13 118.6(2) . .
O2 C12 C13 117.97(19) . .
C8 C7 N2 124.17(19) . .
C11 C7 N2 116.99(18) . .
C11 C7 C8 118.79(18) . .
N3 C8 C7 121.82(19) . .
N3 C8 H8 119.1 . .
C7 C8 H8 119.1 . .
N1 C5 H5 118.1 . .
N1 C5 C4 123.87(19) . .
C4 C5 H5 118.1 . .
C5 C4 H4 120.7 . .
C5 C4 C3 118.5(2) . .
C3 C4 H4 120.7 . .
O1 C6 N2 124.48(18) . .
O1 C6 C3 120.43(18) . .
N2 C6 C3 115.08(17) . .
C3 C2 H2A 120.5 . .
C1 C2 H2A 120.5 . .
C1 C2 C3 119.07(19) . .
C7 C11 H11 120.3 . .
C7 C11 C10 119.43(19) . .
C10 C11 H11 120.3 . .
C11 C10 H10 120.9 . .
C9 C10 C11 118.3(2) . .
C9 C10 H10 120.9 . .
C4 C3 C6 123.62(18) . .
C4 C3 C2 118.14(18) . .
C2 C3 C6 118.24(18) . .
N1 C1 C2 123.1(2) . .
N1 C1 H1 118.4 . .
C2 C1 H1 118.4 . .
N3 C9 C10 123.12(19) . .
N3 C9 H9 118.4 . .
C10 C9 H9 118.4 . .
C12 C13 H13A 109.5 . .
C12 C13 H13B 109.5 . .
C12 C13 H13C 109.5 . .
H13A C13 H13B 109.5 . .
H13A C13 H13C 109.5 . .
H13B C13 H13C 109.5 . .
loop_
_geom_bond_atom_site_label_1
_geom_bond_atom_site_label_2
_geom_bond_distance
_geom_bond_site_symmetry_2
Ag01 O3 2.4426(16) 2_677
Ag01 O2 2.4101(16) .
Ag01 N3 2.2937(17) 1_566
Ag01 N1 2.2742(17) .
O1 C6 1.228(2) .
O3 Ag01 2.4426(16) 2_677
O3 C12 1.249(2) .
O2 C12 1.264(3) .
N3 Ag01 2.2937(17) 1_544
N3 C8 1.348(3) .
N3 C9 1.335(3) .
N2 H2 0.8800 .
N2 C7 1.411(2) .
N2 C6 1.357(3) .
N1 C5 1.334(3) .
N1 C1 1.344(3) .
C12 C13 1.510(3) .
C7 C8 1.395(3) .
C7 C11 1.384(3) .
C8 H8 0.9500 .
C5 H5 0.9500 .
C5 C4 1.383(3) .
C4 H4 0.9500 .
C4 C3 1.392(3) .
C6 C3 1.505(3) .
C2 H2A 0.9500 .
C2 C3 1.393(3) .
C2 C1 1.382(3) .
C11 H11 0.9500 .
C11 C10 1.385(3) .
C10 H10 0.9500 .
C10 C9 1.385(3) .
C1 H1 0.9500 .
C9 H9 0.9500 .
C13 H13A 0.9800 .
C13 H13B 0.9800 .
C13 H13C 0.9800 .
loop_
_geom_hbond_atom_site_label_D
_geom_hbond_atom_site_label_H
_geom_hbond_atom_site_label_A
_geom_hbond_distance_DH
_geom_hbond_distance_HA
_geom_hbond_distance_DA
_geom_hbond_angle_DHA
_geom_hbond_site_symmetry_A
N2 H2 O2 0.88 1.92 2.760(2) 158.6 2_667
loop_
_geom_torsion_atom_site_label_1
_geom_torsion_atom_site_label_2
_geom_torsion_atom_site_label_3
_geom_torsion_atom_site_label_4
_geom_torsion
_geom_torsion_site_symmetry_1
Ag01 O3 C12 O2 98.7(2) 2_677
Ag01 O3 C12 C13 -79.9(2) 2_677
Ag01 O2 C12 O3 -0.3(2) .
Ag01 O2 C12 C13 178.34(16) .
Ag01 N3 C8 C7 -165.70(14) 1_544
Ag01 N3 C9 C10 166.35(16) 1_544
Ag01 N1 C5 C4 179.00(15) .
Ag01 N1 C1 C2 -178.12(15) .
O1 C6 C3 C4 151.2(2) .
O1 C6 C3 C2 -29.1(3) .
N2 C7 C8 N3 177.34(17) .
N2 C7 C11 C10 -177.77(18) .
N2 C6 C3 C4 -30.0(3) .
N2 C6 C3 C2 149.68(18) .
N1 C5 C4 C3 -0.8(3) .
C7 N2 C6 O1 4.0(3) .
C7 N2 C6 C3 -174.77(17) .
C7 C11 C10 C9 0.2(3) .
C8 N3 C9 C10 -0.3(3) .
C8 C7 C11 C10 -0.2(3) .
C5 N1 C1 C2 -0.1(3) .
C5 C4 C3 C6 179.16(18) .
C5 C4 C3 C2 -0.5(3) .
C6 N2 C7 C8 7.5(3) .
C6 N2 C7 C11 -175.07(19) .
C11 C7 C8 N3 0.0(3) .
C11 C10 C9 N3 0.1(3) .
C3 C2 C1 N1 -1.1(3) .
C1 N1 C5 C4 1.1(3) .
C1 C2 C3 C4 1.4(3) .
C1 C2 C3 C6 -178.27(18) .
C9 N3 C8 C7 0.3(3) .
loop_
_refln_index_h
_refln_index_k
_refln_index_l
_refln_F_squared_meas
_refln_F_squared_sigma
0 0 -2 599.37 12.16
0 0 2 624.44 12.48
0 0 2 622.29 12.41
0 0 -2 612.07 12
0 0 3 308.78 10.77
0 0 3 311.37 10.75
0 0 -3 298.89 10.6
0 0 -3 269.95 9.91
0 0 3 302.06 6.41
0 0 -4 175.21 9.32
0 0 4 159.45 8.99
0 0 4 171.44 5.58
0 0 4 153.18 6.55
0 0 5 1461.5 17.89
0 0 5 1370.27 21.56
0 0 5 1435.34 30.21
0 0 -5 1404.86 29.49
0 0 6 1103.59 29.19
0 0 -6 1062.77 28.36
0 0 6 1086.8 16.67
0 0 6 1103.63 22.26
0 0 7 443.14 11.23
0 0 -7 441.9 19.98
0 0 7 459.05 15.72
0 0 -7 463.82 18.34
0 0 7 457.94 20.61
0 0 8 317.46 13.88
0 0 -8 304.01 17.92
0 0 8 278.82 9.2
0 0 -8 300.24 16.12
0 0 8 292.17 17.76
0 0 9 164.22 10.75
0 0 -9 134.63 13.03
0 0 9 143.54 13.42
0 0 -9 136.04 11.61
0 0 -10 468.9 25.53
0 0 10 493.47 19.52
0 0 -10 469.88 23
0 0 10 513.25 27.14
0 0 11 529.06 29.34
0 0 -11 540.24 26.28
0 0 -11 532.19 28.84
0 0 12 347.49 25.28
0 0 -12 319.38 21.42
0 0 -12 358.84 25.22
0 0 13 119.7 15.78
0 0 -13 153.61 15.7
0 0 -13 159.54 17.9
0 -1 14 15.98 6.28
0 1 -14 30.37 8.65
0 1 -14 23.01 6.43
0 1 -13 15.42 4.96
0 -1 13 9.94 5.22
0 1 -13 13.41 5.62
0 1 -12 41.13 7.66
0 -1 12 30.03 7.45
0 1 -12 25.38 7.26
0 1 -11 442.44 25.91
0 1 -11 440.02 23.07
0 -1 11 439.07 20.59
0 -1 11 460.16 26.92
0 -1 10 155.29 11.76
0 1 -10 136.83 12.13
0 1 -10 164.71 14.98
0 -1 10 136.88 13.94
0 -1 9 1011.82 35.24
0 1 -9 981.21 33.82
0 1 -9 1021.77 17.91
0 1 -9 1031.04 30.78
0 -1 9 1014.25 28.46
0 -1 8 469.32 18.37
0 -1 8 465.08 22.21
0 1 -8 455.6 21.38
0 1 -8 471.53 19.34
0 1 -7 96.61 9.37
0 -1 7 94.87 9.42
0 -1 7 88.97 7.6
0 -1 7 97.48 6.52
0 1 -7 104.91 6.34
0 1 -7 92.61 8.05
0 1 -6 20.66 2.8
0 1 -6 17.01 3.7
0 1 -6 23.64 3.88
0 -1 6 9.6 2.65
0 -1 6 13.09 2.38
0 1 -5 534.19 13.09
0 1 -5 527.62 15.56
0 -1 5 527.67 15.77
0 -1 5 518.19 13.51
0 1 -5 518 17.57
0 1 -4 1589.96 27.52
0 1 -4 1640.22 24.24
0 1 -4 1644.2 21.67
0 1 -4 1684.24 15.69
0 -1 4 1597.17 25.21
0 -1 4 1609.81 22.31
0 -1 3 1560.62 20.46
0 -1 3 1574.84 20.79
0 1 -3 1587.68 13.98
0 1 -3 1593.86 21.36
0 1 -3 1527.63 22.29
0 1 -3 1609.59 20.77
0 1 -3 1587.65 19.93
0 -1 3 1617.86 22.84
0 -1 2 139.19 6.06
0 1 -2 148.42 5.41
0 -1 2 139.63 5.25
0 1 -2 158.83 4.24
0 -1 2 145.03 4.04
0 -1 2 141.64 5.83
0 1 -2 150.2 5.85
0 1 -2 144.26 6.18
0 1 1 2650.2 23.34
0 -1 -1 2613.42 24.23
0 -1 -1 2642.16 23.19
0 1 1 2582.86 24.37
0 -1 -1 2542.01 23.26
0 -1 -1 2557.18 24.46
0 -1 -1 2573.47 16.07
0 1 1 2545.19 23.11
0 1 1 2559.69 24.21
0 -1 -2 1361.68 20.93
0 1 2 1338.95 20.5
0 1 2 1358.52 21.21
0 -1 -2 1379.38 21.6
0 -1 -2 1340.9 21.34
0 1 2 1324.55 12.83
0 1 2 1348.44 20.98
0 -1 -2 1356.95 20.42
0 -1 -2 1408.91 12.9
0 1 3 712.33 11.01
0 -1 -3 706.55 10.74
0 -1 -3 683.44 17.17
0 1 3 668.9 17.33
0 -1 -3 712.15 17.26
0 1 4 1419.95 18.2
0 1 4 1457.97 29.05
0 1 5 672.28 11.72
0 -1 -5 639.53 20.79
0 1 5 626.67 13.35
0 1 5 636.25 21.31
0 1 6 70 7.81
0 1 6 57.18 3.56
0 -1 -6 52.61 6.63
0 1 7 771.85 13.05
0 1 7 805.97 28.18
0 -1 -7 799.01 27.31
0 1 8 278.46 12.36
0 1 8 290.56 18.37
0 -1 -8 282.66 17.54
0 -1 -9 487.05 24.78
0 1 9 493.39 17.24
0 1 9 475.49 25.18
0 1 10 154.5 15.4
0 -1 -10 129.96 13.91
0 -1 -10 131.67 12.74
0 -1 -11 -5.94 3.92
0 1 11 2.76 3.54
0 -1 -11 0.69 2.14
0 1 12 111.14 14.79
0 -1 -12 100.06 13.76
0 -1 -12 141.4 14.83
0 -1 -13 68.6 11.24
0 -1 -13 103.61 14.59
0 1 13 73.63 12.9
0 2 -14 176.01 16.94
0 -2 14 168.18 19.36
0 2 -14 145.96 17.76
0 -2 13 351.6 26.43
0 2 -13 373.5 23.51
0 2 -13 319.51 24.56
0 2 -12 362.41 21.84
0 2 -12 387.88 25.47
0 -2 12 361.9 25.26
0 2 -11 1.92 3.43
0 -2 11 3.17 3.29
0 -2 11 5.99 3.13
0 2 -11 0.32 1.58
0 -2 10 396.86 23.53
0 2 -10 382.61 19.9
0 2 -10 407.76 15.82
0 2 -10 408.19 23.34
0 -2 10 392.61 19.97
0 2 -9 552.53 11.84
0 2 -9 551.88 18.06
0 2 -9 587.78 26.15
0 2 -9 553.15 22.29
0 -2 9 547.96 26.08
0 -2 9 544.12 22.51
0 2 -8 1220.43 26.44
0 2 -8 1280.14 31.48
0 2 -8 1263.39 17.82
0 -2 8 1225.2 32.33
0 2 -8 1239.36 35.58
0 2 -7 842.68 27.14
0 2 -7 806.26 20.81
0 -2 7 821.05 25.06
0 2 -7 817.66 14
0 2 -7 830.29 23.53
0 2 -6 715.96 20.28
0 -2 6 690.5 21.66
0 2 -6 708.13 12.82
0 2 -6 671.14 18.48
0 2 -5 47.77 4.93
0 2 -5 50.96 3.47
0 2 -5 48.63 4.96
0 -2 5 61.51 6.19
0 -2 4 254.73 11.67
0 2 -4 281.17 8.03
0 2 -4 257.53 10.18
0 2 -4 271.35 9.36
0 -2 4 263.94 7.77
0 2 -4 254.67 10.73
0 -2 3 391.63 13.53
0 2 -3 410.09 13.34
0 -2 3 408.07 9.81
0 2 -3 428.54 12.13
0 -2 3 417.57 13.58
0 2 -3 426.74 9.25
0 -2 3 438.88 12.22
0 -2 2 1376.02 18.9
0 2 -2 1360.72 20.5
0 2 -2 1338.78 23.39
0 2 -2 1371.34 23.74
0 -2 2 1363.94 23.69
0 -2 2 1355.67 23.24
0 -2 2 1398.97 20.8
0 -2 1 324.1 11.15
0 -2 1 352.42 11.06
0 2 -1 351.54 11.61
0 2 -1 331.29 10.87
0 2 0 662.52 14.71
0 2 0 682.51 14.41
0 2 0 684.96 10.83
0 2 0 696.6 15.63
0 -2 0 658.55 10.92
0 2 0 679.5 13.83
0 -2 0 705.43 15.22
0 -2 0 665.59 13.93
0 -2 0 694.72 15.6
0 2 1 21.96 2.73
0 -2 -1 26.6 2.66
0 -2 -1 23.17 2.87
0 2 1 21.45 2.84
0 2 1 26.08 2.71
0 2 1 23.82 2.9
0 -2 -1 21.97 2.7
0 -2 -1 25.71 3.28
0 2 1 20.33 2.89
0 2 2 132.53 5.86
0 -2 -2 140.22 5.31
0 -2 -2 128.65 7.78
0 -2 -2 133.18 7.53
0 2 2 135.9 6.65
0 2 2 123.22 7.7
0 2 3 2787.24 27.43
0 -2 -3 2837.04 24.4
0 2 3 2877.38 40.26
0 -2 -3 2772.33 38.14
0 -2 -3 2840.89 40.17
0 2 3 2843.51 29.83
0 2 4 575.29 19.96
0 -2 -4 605.29 20.24
0 -2 -4 559.27 18.91
0 2 4 585.68 11.69
0 -2 -4 583.63 11.71
0 2 5 1923.08 22.99
0 -2 -5 2013.35 39.75
0 2 5 2031.64 40.66
0 -2 -5 1997.52 39.03
0 -2 -5 1973.1 23.01
0 -2 -6 564.05 22.45
0 2 6 540.57 13.06
0 2 6 591.49 23.64
0 2 6 570.75 13.21
0 2 7 36.49 6.49
0 2 7 43 3.55
0 -2 -7 35.13 6.25
0 2 8 129.33 12.82
0 -2 -8 142.99 13.01
0 -2 -9 62.54 9.36
0 2 9 76.65 10.51
0 2 10 444.57 26.83
0 -2 -10 421.15 25.45
0 2 11 384.32 26.56
0 -2 -11 405.58 26.52
0 2 12 35.97 8.97
0 -2 -12 37.09 8.84
0 -2 -12 43.12 8.54
0 -2 -13 8.29 4.22
0 2 13 2.55 3.33
0 -2 -13 0.04 2.78
0 3 -14 0.59 2.9
0 -3 14 6.37 4.13
0 3 -13 166.81 15.62
0 3 -13 155.63 17.39
0 -3 13 172.26 18.57
0 3 -12 294.07 22.25
0 3 -12 278.3 18.95
0 -3 12 281.71 22.5
0 -3 12 291.9 19.89
0 3 -11 368.74 23.49
0 -3 11 353.07 24.01
0 -3 11 385.27 22.08
0 3 -11 323.49 19.32
0 3 -10 73.08 8.72
0 3 -10 67.96 7.45
0 -3 10 64.34 8.74
0 3 -10 59.16 9.01
0 3 -9 28.26 4.83
0 -3 9 33.3 6.25
0 3 -9 27.94 5.2
0 3 -9 35.11 6.74
0 3 -8 2.81 2.01
0 -3 8 0.29 2.17
0 3 -8 0.66 1.31
0 3 -7 47.73 6.05
0 -3 7 57.26 7.28
0 3 -7 55.45 6.26
0 3 -6 1681.52 34.01
0 3 -6 1743.04 32.86
0 -3 6 1663.19 23.56
0 -3 6 1735.86 37.79
0 3 -5 2145.28 37.72
0 -3 5 2168.69 40.26
0 3 -5 2150.64 27.4
0 -3 5 2128.3 27.05
0 3 -5 2204.94 34.85
0 3 -4 1736.42 33.56
0 3 -4 1762.85 19.84
0 -3 4 1831.7 35.03
0 3 -4 1761.19 29.88
0 -3 3 9.35 3.01
0 3 -3 6.92 2.7
0 3 -2 104.81 7.96
0 -3 2 102.05 7.54
0 -3 1 561.56 8.98
0 3 -1 544.99 17.6
0 -3 1 572.82 16.88
0 3 0 273 11.78
0 -3 0 277.17 11.09
0 3 0 297.31 6.36
0 -3 0 291.83 8.84
0 3 0 274.1 12.22
0 3 1 1336.32 26.28
0 -3 -1 1332.47 27.03
0 -3 -1 1287.6 24.68
0 -3 -1 1335.52 23.2
0 3 1 1254.66 26.13
0 3 2 1965.64 35.05
0 3 2 1898.99 27.55
0 -3 -2 1916.96 24.05
0 3 2 1921.7 31.01
0 -3 -2 1969.6 34.9
0 -3 -2 1886.7 32.23
0 -3 -3 26.65 4.54
0 3 3 10.86 2.6
0 3 3 11.61 2.4
0 -3 -3 24.32 4.66
0 3 3 18.66 3.97
0 -3 -3 22.26 2.71
0 3 4 20.68 4.48
0 3 4 23.71 3.42
0 -3 -4 25.82 2.84
0 -3 -4 25.33 4.85
0 -3 -4 31.11 5.17
0 -3 -5 1132.6 31.55
0 -3 -5 1137.95 18.34
0 -3 -5 1074.34 31.58
0 3 5 1131.91 23.22
0 3 5 1159.04 33.01
0 -3 -6 772.04 27.8
0 -3 -6 783.32 28.57
0 3 6 785.72 19.03
0 3 6 772.75 28.98
0 -3 -6 790.77 15.67
0 3 7 824.92 31.66
0 3 7 856.33 19.23
0 -3 -7 817.98 30.62
0 -3 -8 168.43 14.9
0 3 8 133.91 13.83
0 -3 -9 277.69 20.28
0 3 9 293.68 21.41
0 3 10 -0.89 2.73
0 -3 -10 3.53 3.97
0 -3 -11 175.7 18.08
0 3 11 179.82 18.76
0 -3 -12 408.44 28.9
0 3 12 467.57 31.63
0 -4 14 141.08 18.19
0 4 -14 157.47 18.41
0 4 -13 91.79 13.23
0 4 -13 87.05 11.32
0 -4 13 89.86 13.79
0 -4 13 89.09 12.09
0 -4 12 4.45 2.77
0 4 -12 9.2 3.95
0 4 -12 3.21 3.32
0 4 -11 31.14 7.38
0 4 -11 28.83 5.63
0 -4 11 34.6 7.04
0 4 -11 28.43 5.8
0 -4 10 404.19 23.06
0 4 -10 376.46 20.02
0 4 -10 400.83 20.07
0 4 -10 418.83 24.11
0 4 -9 284 16.58
0 4 -9 309.59 17.39
0 -4 9 304.21 19.5
0 4 -8 313.75 16.49
0 -4 8 300.49 18.44
0 4 -8 275.92 16.19
0 -4 7 293.67 17.76
0 4 -7 309.48 16.87
0 4 -7 300.01 15.45
0 4 -6 30.31 3.47
0 4 -6 30.51 4.9
0 -4 6 31.96 5.71
0 4 -6 37.03 5.76
0 4 -5 697.72 21.81
0 4 -5 701.87 24.66
0 -4 5 687.96 24.82
0 4 -5 647.93 12.39
0 -4 4 2057.35 41.4
0 4 -4 2136.17 42.14
0 -4 3 745.44 23.9
0 4 -3 753.17 24.8
0 -4 2 2531.28 19.21
0 4 -2 2603.04 45.08
0 -4 2 2592.34 42.53
0 -4 1 61.95 6.55
0 -4 1 55.58 3.57
0 4 -1 62.92 7.09
0 4 0 26.98 4.72
0 -4 0 25.41 4.44
0 -4 0 30.39 3.41
0 4 0 36 5.12
0 4 0 34.54 2.5
0 -4 0 36.84 4.87
0 -4 -1 373.57 16.65
0 4 1 353.48 16.18
0 -4 -1 373.79 14.5
0 4 1 383.81 16.7
0 -4 -2 1143.99 21.93
0 -4 -2 1151.81 24.84
0 -4 -2 1175.96 28.73
0 4 2 1176.46 30.52
0 4 2 1181 28.7
0 -4 -2 1145.33 30.3
0 4 3 1078.75 27.34
0 -4 -3 1070.2 30.76
0 -4 -3 1117.09 21.07
0 4 3 1086.82 31.08
0 -4 -3 1104.05 29.27
0 -4 -4 171.55 8.12
0 4 4 168.69 10.74
0 4 4 158.35 12.55
0 -4 -4 164.08 12.74
0 -4 -4 166.2 12.16
0 4 5 96.74 8.05
0 -4 -5 112.79 6.36
0 -4 -5 85.63 9.41
0 4 5 112.37 11.17
0 -4 -5 129.79 12.06
0 4 6 82.2 7.24
0 -4 -6 69 9.32
0 -4 -6 88.9 5.5
0 4 6 83.08 10.24
0 -4 -6 80.04 10.12
0 4 7 407.81 23.94
0 -4 -7 429.12 23.54
0 -4 -7 463.72 25.11
0 -4 -8 619.23 29.96
0 4 8 598.27 30.5
0 4 9 470.41 28.49
0 -4 -9 492.31 28.2
0 4 10 193.67 19.19
0 -4 -10 187.69 18.44
0 4 11 44.86 10.08
0 -4 -11 58.04 10.87
0 5 -14 169.28 19.23
0 -5 14 186.6 21.23
0 -5 14 151.49 17.1
0 5 -13 161.34 17.86
0 -5 13 170.12 17.59
0 5 -12 192.77 16.09
0 5 -12 154.35 16.68
0 -5 12 204.82 18.68
0 5 -11 339.8 23.36
0 -5 11 344.24 23.31
0 5 -11 392.61 22.02
0 5 -11 378.75 21.83
0 5 -10 59.15 8.72
0 -5 10 62.8 9.96
0 5 -10 66.49 8.76
0 5 -9 181.16 13.74
0 -5 9 155.62 14.83
0 5 -9 170.01 14.22
0 5 -8 237.15 15.25
0 5 -8 222.29 16.04
0 -5 8 202.19 16.43
0 5 -7 399.56 19.05
0 -5 7 390.39 21.89
0 5 -7 394.11 21.09
0 5 -6 884.22 31.05
0 -5 6 822.86 30.56
0 5 -5 126.7 11.7
0 -5 5 144 12.51
0 5 -4 53.91 7.78
0 -5 4 57.54 7.61
0 -5 3 59.48 3.57
0 -5 3 51.32 7.09
0 -5 2 534.43 21.48
0 -5 2 563.91 8.67
0 5 -2 551.91 23.3
0 -5 1 2195.65 42.35
0 5 -1 2313.11 47.15
0 -5 1 2280.69 26.01
0 5 0 1473.29 37.27
0 -5 0 1498.7 33.72
0 5 0 1476.06 17.09
0 -5 0 1474.3 35.78
0 5 1 481.85 21.18
0 -5 -1 481.94 21.15
0 5 1 452.5 11.73
0 5 1 482.07 21.15
0 -5 -1 475.87 18.51
0 -5 -2 7.74 2.33
0 -5 -2 11.33 3.93
0 -5 -2 8.56 3.08
0 5 2 4.25 2.49
0 5 2 11.28 3.83
0 -5 -2 16.38 3.47
0 -5 -3 83.09 9.59
0 5 3 77 9.16
0 -5 -3 86.41 9.11
0 -5 -3 71.8 6.12
0 5 3 79.51 8.57
0 -5 -4 619.83 25.46
0 -5 -4 652.31 27.83
0 5 4 664.35 27.88
0 5 4 660.27 24.08
0 -5 -4 645.83 17.59
0 -5 -5 511.65 15.03
0 -5 -5 498.08 24
0 5 5 506.81 25.59
0 5 5 497.67 20.73
0 -5 -5 524.28 26.1
0 5 6 299.21 20.75
0 5 6 270.75 15.08
0 -5 -6 289.12 19.45
0 -5 -6 297.88 20.77
0 -5 -7 102.6 12.23
0 5 7 83.12 11.61
0 -5 -7 86.56 11.66
0 -5 -8 6.01 3.83
0 -5 -8 2.36 2.19
0 5 8 2.3 3.65
0 5 9 115.73 14.9
0 -5 -9 107.77 13.91
0 5 10 261.73 23.36
0 -5 -10 240.04 21.74
0 -6 13 81.13 12.83
0 6 -13 60 11.52
0 6 -12 146.58 14.95
0 6 -12 113.42 14.68
0 -6 12 117.68 14.9
0 6 -11 352.68 22.88
0 -6 11 315.9 23.73
0 6 -11 346.83 21.57
0 6 -10 543.97 25.89
0 -6 10 568.6 30.84
0 6 -10 564.85 28.72
0 -6 9 100.86 12.87
0 6 -9 117.58 12.91
0 -6 8 26.83 6.5
0 6 -8 25.16 6.2
0 -6 7 93.63 11.73
0 6 -7 83.16 10.74
0 -6 6 29.11 6.64
0 6 -6 23.88 5.98
0 -6 5 524.84 25.41
0 6 -5 533.68 26.3
0 -6 4 367.22 9.9
0 -6 4 407.74 21.76
0 6 -4 434.09 23.45
0 -6 3 98.11 10.62
0 6 -3 113.94 11.94
0 -6 2 0.96 0.58
0 6 -2 1.17 2.97
0 -6 2 -0.59 2.68
0 -6 1 331.91 11.07
0 6 -1 350.9 20.32
0 -6 1 337.92 18.35
0 -6 0 415.87 19.79
0 6 0 428.71 22.25
0 -6 0 389.81 20.77
0 6 1 1304.21 38.63
0 -6 -1 1407.64 35.44
0 6 1 1354.25 20.73
0 6 1 1241.67 37.74
0 -6 -1 1266.58 38.16
0 -6 -2 34.66 5.61
0 6 2 40.09 7.27
0 -6 -2 31.86 6.53
0 6 2 26.42 5.87
0 -6 -2 31.26 4.74
0 6 3 425.03 21.81
0 -6 -3 455.18 17.14
0 -6 -3 424 23.49
0 -6 -4 71.52 9.57
0 6 4 74.52 9.2
0 -6 -4 75.88 6.74
0 6 4 71.05 10.2
0 -6 -4 76.61 10.56
0 6 5 9.26 4.03
0 -6 -5 1.99 1.98
0 6 5 3.68 2.82
0 -6 -5 2.94 3.33
0 -6 -6 290.17 20.74
0 6 6 294.97 21.95
0 -6 -6 324.8 23.33
0 6 7 180.74 18.16
0 -6 -7 154.92 15.84
0 -6 -7 186.47 18.34
0 -6 -8 220.98 20.61
0 6 8 206.32 20.04
0 -6 -8 247.27 20.97
0 -6 -9 108.54 14.79
0 6 9 106.45 15.04
0 7 -13 44.09 10.21
0 -7 13 34.45 9.11
0 -7 12 68.74 12.01
0 7 -12 45.86 9.28
0 -7 11 43.02 9.57
0 7 -11 24.93 7.25
0 7 -10 186.19 17.75
0 -7 10 194.06 19.07
0 7 -9 383.15 25.08
0 -7 9 305.27 23.37
0 -7 8 756.67 35.31
0 7 -8 808.48 36.01
0 7 -7 148.64 15.39
0 -7 7 127.09 14.29
0 7 -6 26.39 6.43
0 -7 6 32.43 7.38
0 7 -5 25.87 6.8
0 -7 5 18.06 5.62
0 -7 4 213.16 17.06
0 7 -4 237.57 18.77
0 7 -3 577.95 29.13
0 -7 3 562.35 26.99
0 -7 2 381.39 21.75
0 7 -2 397.94 23.85
0 7 -1 33.92 7.57
0 -7 1 28.51 6.18
0 -7 1 24.37 5.48
0 -7 0 292.6 18.12
0 7 0 270.34 19.49
0 -7 0 283.27 19.35
0 7 1 307.27 20.66
0 -7 -1 322.29 18.66
0 -7 -1 319.37 21.02
0 7 2 372.97 23.36
0 7 2 409.79 23.59
0 -7 -2 402.02 18.1
0 -7 -2 378.56 23.44
0 -7 -3 468.06 26.81
0 -7 -3 485.99 19.48
0 7 3 442.79 25.93
0 7 3 442.92 24.41
0 -7 -4 487.04 28.26
0 7 4 505.77 28.64
0 7 4 468.25 24.91
0 7 5 342.81 24.47
0 -7 -5 381.19 24.23
0 -7 -5 396.14 26.57
0 7 6 3.51 2.77
0 -7 -6 9.93 4.57
0 -7 -6 7.89 3.94
0 -7 -7 125.14 15.16
0 -7 -7 88.48 13.48
0 7 7 112.28 15.09
0 -7 -8 146.79 17.3
0 7 8 151.06 18.36
0 -7 -8 138.39 17.34
0 -8 12 103.71 15.74
0 8 -12 95.98 14.14
0 -8 11 127.82 16.91
0 8 -11 113.58 15.12
0 8 -10 -2.78 3.09
0 -8 10 1.08 3.19
0 -8 9 6.03 4.23
0 8 -9 -1.39 2.62
0 -8 8 12.68 5.69
0 8 -8 3.84 3.85
0 -8 7 284.1 22.62
0 8 -7 310.61 23.9
0 8 -6 239.9 20.99
0 -8 6 223.88 19.47
0 8 -5 445.71 28.09
0 -8 5 503.36 28.64
0 8 -4 97.68 13.28
0 -8 4 102.7 12.83
0 8 -3 2.04 3
0 -8 3 5.76 3.73
0 -8 2 114.83 12.96
0 8 -2 120.85 14.55
0 -8 2 148.8 15.08
0 -8 1 173.98 15.45
0 8 -1 153.75 16.23
0 -8 1 165.74 16.08
0 8 0 413.4 26.17
0 -8 0 403.68 23.02
0 -8 0 403.97 25.28
0 8 1 386.66 25.19
0 -8 -1 388.03 25.29
0 -8 -1 413.48 22.91
0 -8 -2 2.03 2.39
0 8 2 -0.02 3.39
0 -8 -3 12.52 5.27
0 8 3 19.43 6.19
0 8 3 10.3 4.56
0 8 4 220.32 18.73
0 8 4 254.72 22.01
0 -8 -4 257.48 22.09
0 8 5 175.02 18.7
0 -8 -5 169.43 18.83
0 -8 -6 449.11 31.31
0 8 6 511.11 32.86
0 9 -10 152.83 18.64
0 -9 10 137.56 18.06
0 9 -9 111.3 15.59
0 -9 9 118.54 16.14
0 9 -8 118.6 15.9
0 -9 8 99.85 14.59
0 9 -7 15.85 6.33
0 -9 7 12.98 6.44
0 -9 6 144.12 16.74
0 9 -6 216.08 21.09
0 -9 5 348.61 25.6
0 9 -5 401.02 28.39
0 -9 4 304.49 23.29
0 9 -4 340.79 26.25
0 -9 3 143.04 15.54
0 -9 3 143.65 15.98
0 9 -3 172.86 18.6
0 -9 2 28.59 7.08
0 -9 2 29.12 7.61
0 9 -2 27 7.71
0 -9 1 24.27 6.51
0 9 -1 13.24 6.14
0 -9 1 21.13 6.27
0 9 0 68.26 11.54
0 -9 0 90.22 12.96
0 -9 0 67.14 10.21
0 -9 -1 268.13 22.6
0 9 1 262.57 22.21
0 -9 -1 265.58 19.8
0 9 2 325.55 24.67
0 -9 -2 329.44 25.82
0 9 3 89.82 13.09
0 -9 -3 93.59 14.31
0 -9 -4 9.38 4.74
0 9 4 10.58 4.94
0 10 -8 68.91 13.08
0 -10 8 92.28 14.76
0 -10 7 197.37 21.22
0 10 -7 152.5 19.14
0 10 -6 37.92 9.94
0 -10 6 30.89 8.31
0 -10 5 3.78 2.67
0 10 -5 0.19 3.38
0 10 -4 67.98 12.88
0 -10 4 72.95 12.23
0 10 -3 176.33 20.24
0 -10 3 192.16 19.33
0 -10 3 166.26 18.41
0 10 -2 111.43 16.07
0 -10 2 101.52 14.45
0 -10 2 98.14 13.68
0 -10 1 202.97 19.27
0 10 -1 256.47 23.84
0 -10 1 262.72 23.32
0 -10 0 13.79 5.1
0 10 0 19.49 7.44
0 -10 0 28.9 7.49
0 10 1 20.83 7.38
0 -10 -1 19.5 6.62
1 -11 3 65.9 11.98
1 -11 3 68.35 12.39
-1 11 -3 57.41 12.19
1 -11 4 3.57 3.14
-1 11 -4 -1.07 5.56
1 -11 4 -2.32 2.81
1 -11 5 2.71 2.32
-1 11 -5 7.69 4.97
-1 10 2 154.26 18.45
1 -10 -2 153.16 18.19
-1 10 1 82.94 13.67
1 -10 -1 64.07 11.75
1 -10 0 14.12 5.96
-1 10 0 17.26 6.54
1 -10 0 18.78 5.54
-1 10 -1 43.96 10.34
1 -10 1 27.89 7.32
1 -10 1 21.92 6.92
1 -10 2 281.86 23.23
-1 10 -2 306.98 26
1 -10 2 235.55 20.99
1 -10 3 171.13 18.3
-1 10 -3 201.46 21.45
1 -10 3 158.84 17.28
1 -10 4 233.91 20.88
-1 10 -4 274.14 24.79
1 -10 4 257.46 22.58
-1 10 -5 21.47 7.73
1 -10 5 13.86 5.49
-1 10 -6 -0.07 3.78
1 -10 6 1.69 3.73
-1 10 -7 111.6 16.07
1 -10 7 98.92 15.03
1 -10 8 92.21 14.66
-1 10 -8 80.6 13.83
1 -10 9 118.76 16.99
-1 10 -9 150.79 19
1 -9 -5 331.31 27.16
-1 9 5 312.72 25.92
-1 9 4 -4.56 4.12
-1 9 4 7.49 4.27
1 -9 -4 4.58 3.1
1 -9 -3 12.72 5.13
-1 9 3 17.62 5.98
-1 9 2 343.77 25.17
1 -9 -2 324.55 24.52
1 -9 -1 316.22 19.98
1 -9 -1 266.11 21.74
-1 9 1 305.57 23.86
1 -9 0 236.47 17.48
-1 9 0 240.7 21.42
1 -9 0 224.25 19.55
1 -9 0 228.73 19
-1 9 -1 85.27 12.89
1 -9 1 70.05 10.69
1 -9 1 67.81 10.67
1 -9 2 3.55 2.84
1 -9 2 13.64 4.97
-1 9 -2 13.06 5.51
-1 9 -3 3.61 4.4
1 -9 3 0.42 2.34
1 -9 3 2.06 3.26
1 -9 4 232.15 20.2
-1 9 -4 231.2 21.34
-1 9 -5 443.1 29.5
1 -9 5 434.66 28.09
1 -9 6 194.65 19.37
-1 9 -6 144.77 17.12
1 -9 7 57.24 10.56
-1 9 -7 83.83 13.08
1 -9 8 21.06 6.59
-1 9 -8 17.58 6.4
1 -9 9 73.11 12.57
-1 9 -9 91.06 13.9
1 -9 10 22.17 7.2
-1 9 -10 27.45 7.83
1 -9 11 294.09 26.15
-1 9 -11 289.13 24.9
-1 8 7 49.71 10.35
1 -8 -7 64.71 11.89
1 -8 -6 139.77 17.02
-1 8 6 139.14 16.6
1 -8 -5 317.65 24.61
-1 8 5 250.52 21.43
-1 8 4 235.16 19.42
1 -8 -4 240.56 20.74
-1 8 4 273.43 21.77
-1 8 3 28.43 7.31
1 -8 -3 37.44 6.42
1 -8 -3 34.45 7.62
-1 8 3 38.94 8.19
-1 8 2 6.38 3.94
1 -8 -2 1.65 2.06
1 -8 -2 3.29 2.7
1 -8 -1 8.82 4.27
1 -8 -1 9.79 3.68
-1 8 1 12.44 5.09
1 -8 0 170.63 15.23
1 -8 0 156.52 15.12
-1 8 0 155.63 15.99
1 -8 1 170.98 15.62
-1 8 -1 163.59 16.5
1 -8 1 164.71 15.11
1 -8 2 413.19 24.18
-1 8 -2 465.74 27.52
1 -8 2 463.84 25.14
-1 8 -3 124.03 14.63
1 -8 3 101.74 12.33
1 -8 4 210.67 17.98
-1 8 -4 227.97 19.64
-1 8 -5 103.66 13.51
1 -8 5 128.22 14.51
-1 8 -6 68.86 11.1
1 -8 6 72.66 11.3
1 -8 7 128.57 15.01
-1 8 -7 116.85 14.44
-1 8 -8 124.57 15.01
1 -8 8 118.01 14.67
-1 8 -9 234.31 20.62
1 -8 9 238.55 21.28
1 -8 10 55.77 10.79
-1 8 -10 79.38 12.11
1 -8 11 20.68 6.7
-1 8 -11 23.62 6.84
-1 8 -12 85.71 12.7
1 -8 12 91.43 14.23
1 -7 -8 279.56 23.61
1 -7 -8 252.27 22.88
-1 7 8 280.94 23.97
1 -7 -7 218.05 20.09
-1 7 7 286.43 22.97
1 -7 -7 241.97 21.56
1 -7 -6 26.45 7.07
-1 7 6 27.8 7.22
1 -7 -6 26.41 7.18
1 -7 -5 -0.1 1.89
-1 7 5 1.22 2.83
-1 7 5 -1.24 2.35
1 -7 -4 298.58 15.84
-1 7 4 242.65 18.13
-1 7 4 249.04 19.17
1 -7 -4 255.09 19.9
-1 7 3 315.25 20.8
-1 7 3 323.23 20.77
1 -7 -3 335.42 17.12
1 -7 -3 323.1 21.4
-1 7 2 688.76 30.06
-1 7 2 757.1 31.74
1 -7 -2 763.45 26.15
1 -7 -2 666.19 29.85
1 -7 -1 370.9 20.37
1 -7 -1 355.72 21.24
1 -7 -1 376.9 18.63
-1 7 1 383.98 22.89
1 -7 0 96.7 10.98
1 -7 0 99.56 10.91
-1 7 0 84.95 11.02
1 -7 1 99.77 10.86
-1 7 -1 84.69 10.9
1 -7 1 84.03 10.12
-1 7 -2 321.91 21.1
1 -7 2 343.67 20.51
-1 7 -3 459.88 25.4
1 -7 3 484.34 24.85
1 -7 4 606.38 28.36
-1 7 -4 585.55 28.65
-1 7 -5 274.01 20.02
1 -7 5 261.99 19.09
1 -7 6 141.23 14.43
-1 7 -6 139.89 14.56
-1 7 -7 141.52 14.71
1 -7 7 122.37 13.71
1 -7 8 163.52 16.11
-1 7 -8 135.11 14.59
-1 7 -9 188.21 17.04
1 -7 9 192.48 18.13
1 -7 10 285.86 22.53
-1 7 -10 282.17 21.14
-1 7 -11 130.31 14.54
1 -7 11 120.18 15.17
-1 7 -11 125.84 14.18
1 -7 12 0.5 3.52
-1 7 -12 10.04 4.39
-1 7 -13 10.61 6.39
1 -7 13 21.23 6.74
1 -6 -9 20.26 6.34
-1 6 9 26.64 7.64
1 -6 -8 60.57 10.58
1 -6 -8 74.43 11.55
-1 6 8 69.6 11.18
-1 6 7 185.19 17.49
1 -6 -7 179.89 17.06
1 -6 -7 167.08 16.83
-1 6 6 456.4 26.03
1 -6 -6 415.88 25.27
1 -6 -6 428.49 25.02
-1 6 6 435.25 21.73
1 -6 -5 600.47 20.51
-1 6 5 636.1 29.35
1 -6 -5 589.37 28.24
1 -6 -5 629.9 29.86
-1 6 5 594.5 25.52
-1 6 4 112.22 11.3
1 -6 -4 115.09 9.19
-1 6 4 111.63 11.86
1 -6 -4 117.96 12.61
1 -6 -4 108.11 11.71
1 -6 -3 139.64 10.2
1 -6 -3 132.71 12.63
-1 6 3 128.29 12.23
-1 6 3 131.68 12.21
-1 6 2 39.52 5.81
1 -6 -2 48.22 5.99
-1 6 2 52.69 7.67
1 -6 -2 37.07 6.64
-1 6 2 52.87 7.77
-1 6 1 759.23 28
1 -6 -1 735.1 23.89
-1 6 1 791.72 29.35
-1 6 1 818.69 23.24
1 -6 -1 799.51 28.72
1 -6 -1 803.85 27.22
1 -6 0 1823.96 41.55
-1 6 0 1796.42 44.37
-1 6 0 1861.09 31.53
1 -6 0 1774.65 41.64
-1 6 -1 476.72 14.2
1 -6 1 429.06 20.65
1 -6 1 448.85 20.5
-1 6 -2 222.55 15.93
1 -6 2 202.26 7.98
1 -6 2 242.04 15.81
-1 6 -2 215.42 8.22
-1 6 -3 1.61 0.94
-1 6 -3 7.69 3.71
1 -6 3 4.43 2.86
-1 6 -4 99.3 11.02
1 -6 4 88.52 10.08
-1 6 -4 72.74 3.67
-1 6 -5 621.54 27.4
-1 6 -5 552.24 10.75
1 -6 5 618.3 27.04
1 -6 6 729.29 30.29
-1 6 -6 738.69 14.66
-1 6 -7 1153.06 38.4
1 -6 7 1162.37 39.1
1 -6 8 -0.87 2.63
-1 6 -8 2.26 2.9
-1 6 -8 -0.79 2.4
1 -6 9 21.77 6.1
-1 6 -9 26.81 6.15
-1 6 -9 27.13 6.18
-1 6 -10 345.36 21.36
1 -6 10 328.19 22.73
-1 6 -10 318.58 20.9
-1 6 -11 163.93 15.54
-1 6 -11 164.66 15.05
1 -6 11 164.02 16.56
-1 6 -12 330.51 22.87
1 -6 12 318.2 23.64
-1 6 -12 258.93 22.69
-1 6 -13 48.07 9.42
1 -6 13 56.18 10.29
-1 6 -13 50.09 11.15
-1 5 11 164.55 18.96
1 -5 -11 181.29 19.62
-1 5 10 279.02 23.41
1 -5 -10 279.23 23.28
1 -5 -9 449.22 27.94
-1 5 9 375.1 25.73
1 -5 -8 120.23 13.77
-1 5 8 98.09 12.59
1 -5 -7 13.34 5.17
1 -5 -7 8.12 3.9
-1 5 7 8.64 3.56
1 -5 -6 6.93 3.34
-1 5 6 4.7 2.06
1 -5 -6 4.68 3.24
-1 5 6 15.01 4.65
1 -5 -6 8.01 2.38
-1 5 5 489.77 23.89
1 -5 -5 502.47 17.49
1 -5 -5 507.84 24.18
1 -5 -5 472.04 23.81
-1 5 5 501.8 21.16
1 -5 -4 896.22 30.56
-1 5 4 861.8 29.99
1 -5 -4 931.45 31.99
-1 5 4 929.23 28.47
1 -5 -4 918.82 23.56
1 -5 -3 337.08 18.18
-1 5 3 343.6 18.21
1 -5 -3 338.88 17.93
1 -5 -3 359.73 15
-1 5 3 375.24 18.14
-1 5 3 350.31 16.98
1 -5 -2 438.15 16.55
-1 5 2 421.66 19.18
-1 5 2 436.93 19.54
-1 5 2 439.6 17.55
1 -5 -2 386.99 18.6
-1 5 1 6.63 2.77
1 -5 -1 8.78 3.08
1 -5 -1 9.82 3.04
-1 5 1 8.13 2.57
-1 5 1 8.65 3.02
-1 5 0 152.4 8.48
1 -5 0 138.39 10.42
1 -5 0 138.45 10.42
-1 5 0 152.06 11.66
-1 5 -1 1147.11 20.36
-1 5 -1 1185.83 32.52
1 -5 1 1165.1 20.68
1 -5 1 1130.86 30.26
-1 5 -2 375.77 10.32
1 -5 2 364.61 17.67
-1 5 -2 378.97 18.77
-1 5 -3 370.12 9.4
1 -5 3 384.18 18.59
-1 5 -4 622.59 12.49
-1 5 -4 635.55 24.88
1 -5 4 612.65 24.21
-1 5 -5 0.23 1.7
-1 5 -5 2.79 2.77
1 -5 5 6.17 3.06
-1 5 -5 0.75 0.81
-1 5 -6 78.26 8.73
-1 5 -6 92.44 9.99
1 -5 6 85.82 9.64
-1 5 -7 1495.86 39.71
1 -5 7 1483.66 41.04
-1 5 -7 1417.39 37.78
1 -5 8 92.97 10.87
-1 5 -8 83.69 9.73
-1 5 -8 84.34 9.65
1 -5 9 339.82 21.1
-1 5 -9 367.81 19.94
-1 5 -9 344.7 20.13
-1 5 -10 31.51 6.43
-1 5 -10 24.41 5.4
1 -5 10 28.98 6.67
-1 5 -11 31.12 6.75
-1 5 -11 34.89 8.17
-1 5 -11 23.95 5.45
1 -5 11 43.82 8.29
1 -5 12 11.99 5.16
-1 5 -12 16.14 5.15
-1 5 -12 3.5 3.97
1 -5 13 92.18 12.51
-1 5 -13 96.35 14.19
-1 5 -13 106.28 13.34
1 -5 13 96.39 14.61
-1 5 -14 160.45 17.22
1 -5 14 212.58 22.86
-1 5 -14 212.62 21.97
-1 4 11 -5.94 4.02
1 -4 -11 -4.09 3.67
-1 4 10 79.93 12.14
1 -4 -10 70.88 11.21
-1 4 9 202.16 17.93
1 -4 -9 214.83 18.44
-1 4 8 680.43 31.31
1 -4 -8 645.88 30.46
1 -4 -7 566.56 17.77
-1 4 7 509.99 25.54
1 -4 -7 538.52 26.36
-1 4 7 516.84 19.18
-1 4 6 584.98 25.64
1 -4 -6 548.26 17.48
1 -4 -6 546.72 25.09
1 -4 -6 573.72 25.35
1 -4 -5 25.79 3.78
1 -4 -5 28.67 5.56
1 -4 -5 20.62 4.85
-1 4 5 18.12 4.27
1 -4 -4 178.66 9.59
1 -4 -4 173.2 12.42
-1 4 4 183.55 12.7
1 -4 -4 201.24 13.59
-1 4 4 184.05 12.73
1 -4 -3 491.64 15.75
1 -4 -3 500.54 19.83
1 -4 -3 446.79 18.93
-1 4 3 481.2 18.73
-1 4 3 501.43 19.71
-1 4 2 1469.74 31.8
1 -4 -2 1490.24 27.32
-1 4 2 1479.4 31.66
1 -4 -2 1455.87 32.25
1 -4 -2 1463.98 32.2
-1 4 2 1488.14 29.98
1 -4 -1 1002.81 24.42
-1 4 1 990.72 25.98
-1 4 1 974.71 24.54
-1 4 1 927.67 21.36
1 -4 -1 987.5 25.08
1 -4 -1 1019.79 22.68
-1 4 0 675.36 16.29
1 -4 0 684.29 20.12
-1 4 0 684.02 21.59
1 -4 0 670.92 20.32
1 -4 1 49.29 3.96
-1 4 -1 46.63 3.88
1 -4 1 46.55 5.79
-1 4 -1 44.89 5.82
-1 4 -2 452.95 10.64
1 -4 2 433.15 17.32
-1 4 -2 454.29 18.06
-1 4 -3 748.5 13.69
-1 4 -3 738.68 23.49
1 -4 3 801.54 24.13
-1 4 -4 542.25 19.75
1 -4 4 575.6 21.21
-1 4 -4 553.54 20.65
-1 4 -5 843.16 26.04
1 -4 5 875.21 27.08
-1 4 -5 879.18 25.77
1 -4 6 412.41 11.45
1 -4 6 428.74 19.73
-1 4 -6 421.88 18.75
-1 4 -6 442.46 19.05
-1 4 -7 62.09 7.36
-1 4 -7 64.37 7.79
1 -4 7 67.4 4.24
1 -4 7 69.1 8.42
1 -4 8 93.34 10.11
-1 4 -8 77.24 9.02
-1 4 -8 87.6 8.63
-1 4 -9 141.69 12.53
1 -4 9 132.27 12.26
-1 4 -9 111.54 9.78
1 -4 10 647.89 27.95
-1 4 -10 649.51 28.08
-1 4 -10 663.91 23.98
-1 4 -10 649.29 30.82
-1 4 -11 445.1 24.43
-1 4 -11 395.48 25.47
1 -4 11 420.47 23.33
-1 4 -12 259.05 21.67
-1 4 -12 257.99 19.63
1 -4 12 251.82 21.99
1 -4 12 273.18 19.35
1 -4 13 6.29 4.88
-1 4 -13 -2.79 4.03
-1 4 -13 2.98 2.78
-1 4 -14 14.54 6.3
1 -4 14 26.79 8.54
-1 4 -14 30.46 7.5
-1 3 12 311.16 25.26
1 -3 -12 379.23 27.61
-1 3 11 175.6 17.83
1 -3 -11 212.97 19.83
1 -3 -10 200.77 18.01
-1 3 10 213.06 18.77
-1 3 9 3.74 3.3
1 -3 -9 5.39 3.24
1 -3 -8 5.01 3.68
-1 3 8 3.15 2.53
1 -3 -7 147.26 12.88
-1 3 7 151 13.04
1 -3 -7 143.95 8.87
1 -3 -6 1663.44 40.63
1 -3 -6 1635.82 28.58
-1 3 6 1659.99 40.37
1 -3 -5 1342.51 33.89
-1 3 5 1333.17 34.39
1 -3 -5 1333.85 33.94
1 -3 -5 1347.8 25.08
-1 3 5 1353.28 33.79
-1 3 4 420.94 17.41
1 -3 -4 424.21 13.67
1 -3 -4 408.8 17.58
-1 3 4 414.58 17.8
1 -3 -4 402.64 17.44
1 -3 -3 191.53 11.17
-1 3 3 164.84 10.32
1 -3 -3 190.91 8.92
-1 3 3 177.18 10.49
1 -3 -3 173.68 10.7
-1 3 2 17.55 3.47
1 -3 -2 17.57 3.6
1 -3 -2 21.45 3.66
1 -3 -2 22.42 3.15
-1 3 2 17.45 3.24
-1 3 1 527.68 15.34
1 -3 -1 512.05 15.44
-1 3 1 508.61 14.48
1 -3 -1 546.64 14.66
1 -3 0 290.64 9.71
-1 3 0 283.53 9.48
1 -3 0 271.63 11.29
1 -3 0 279.24 10.72
1 -3 1 2156.63 23.47
-1 3 -1 2142.58 23.19
-1 3 -1 2148.84 32.91
1 -3 1 2207.75 32.75
-1 3 -2 1598.96 28.78
-1 3 -2 1547.24 28.16
1 -3 2 1576.08 28.79
-1 3 -2 1602.8 19.24
-1 3 -3 201.8 10.52
1 -3 3 222.43 11.35
-1 3 -3 207.2 10.7
1 -3 4 104.68 8.22
-1 3 -4 93.15 7.59
-1 3 -4 92.88 7.47
1 -3 5 799.32 12.51
1 -3 5 788.16 23.2
-1 3 -5 828.79 23.37
-1 3 -5 839.19 22.43
-1 3 -6 703.82 22.84
-1 3 -6 714.72 20.89
1 -3 6 687.22 22.55
-1 3 -7 488.74 17.35
1 -3 7 477.26 19.8
-1 3 -7 503.71 20.52
1 -3 8 370.88 18.14
-1 3 -8 390.05 15.68
-1 3 -8 363.53 18.55
-1 3 -9 113.32 12.14
1 -3 9 111.42 10.5
-1 3 -9 103.86 10.49
-1 3 -9 91.56 7.69
-1 3 -10 129.81 13.77
1 -3 10 129.4 13.92
1 -3 10 116.96 11.17
-1 3 -10 126.5 12.38
-1 3 -11 102.24 12.98
1 -3 11 115.75 14.05
-1 3 -11 102.01 11.8
1 -3 11 108.54 10.94
1 -3 12 477.44 29.64
-1 3 -12 554.8 28.6
-1 3 -12 513.24 30.05
-1 3 -13 118.13 15.77
1 -3 13 152.49 18.09
-1 3 -13 142.56 15.35
-1 3 -14 59.66 12.16
1 -3 14 96.08 15.3
-1 3 -14 78.6 12.06
1 -2 -13 119.07 16.05
1 -2 -13 139.68 15.43
-1 2 13 120.23 16.17
1 -2 -12 3.94 4.67
-1 2 12 1.69 1.65
-1 2 11 76.83 11.46
1 -2 -11 70.96 11.25
-1 2 10 431.83 25.61
1 -2 -10 428.54 25.29
1 -2 -9 658.77 29.5
-1 2 9 702.34 30.54
-1 2 8 246.32 17.1
1 -2 -8 253.66 17.08
1 -2 -7 541.43 23.42
-1 2 7 529.92 23.01
1 -2 -6 37.71 5.88
-1 2 6 48.53 6.96
1 -2 -6 43.55 4.68
-1 2 6 49.68 6.61
-1 2 5 329.47 15.4
1 -2 -5 297.3 11.39
1 -2 -5 315.81 15.33
-1 2 5 322.86 15.98
1 -2 -4 1472.81 30.15
-1 2 4 1523.82 31.7
1 -2 -4 1508.76 30.44
-1 2 4 1478.77 29.61
1 -2 -4 1477.36 23.81
1 -2 -3 2033.62 26.41
-1 2 3 2032.8 33.07
-1 2 3 1957.93 30.41
-1 2 3 1944.82 26
1 -2 -3 2003.64 31.97
1 -2 -3 2004.79 31.85
1 -2 -2 1898.93 28.22
-1 2 2 1843.43 26.19
1 -2 -2 1872.73 27.44
1 -2 -2 1952.99 27.04
1 -2 -2 1864.77 23.99
-1 2 2 1936.46 28.83
-1 2 2 1872.19 24.15
1 -2 -1 2556.83 27.3
-1 2 1 2644.04 29.3
-1 2 1 2572.38 26.99
-1 2 1 2684.39 30.28
-1 2 1 2640.57 29.78
1 -2 -1 2639.97 28.36
1 -2 -1 2614.72 27.52
-1 2 1 2663.41 28.81
1 -2 -1 2569.02 29.86
1 -2 -1 2647.03 29.62
-1 2 0 156.97 4.29
1 -2 0 154.82 6.09
-1 2 0 146.22 6.88
1 -2 0 142.79 5.95
1 -2 0 151.96 7.03
-1 2 0 160.25 6.35
1 -2 0 158.74 6.37
-1 2 -1 2829.16 31.25
1 -2 1 2870.23 30.89
-1 2 -1 2855.79 24.79
1 -2 1 2800.75 31.17
1 -2 1 2931.04 19.38
-1 2 -1 2883.23 31.33
1 -2 2 5177.87 43.37
-1 2 -2 5197.32 44.24
-1 2 -2 5121.28 42.23
-1 2 -2 5160.33 43.92
-1 2 -3 2698.52 34.28
-1 2 -3 2714.3 33.59
1 -2 3 2725.72 33.36
-1 2 -3 2703.21 31.32
-1 2 -4 543.25 14.57
1 -2 4 564.6 16.21
-1 2 -4 549.33 16.88
-1 2 -5 721.72 17.04
1 -2 5 746.44 19.92
-1 2 -5 756.95 21.43
-1 2 -6 614.99 15.62
-1 2 -6 613.56 20.7
1 -2 6 605.7 19.03
-1 2 -7 168.31 8.33
1 -2 7 164.89 10.52
-1 2 -7 163.03 12.53
-1 2 -7 155.12 11.29
-1 2 -8 961.77 32.37
-1 2 -8 1000.44 20.11
-1 2 -8 1014.13 30.48
1 -2 8 1026.3 27.33
1 -2 8 1087.23 34.51
1 -2 9 866.93 26.3
-1 2 -9 880.43 18.59
1 -2 9 898.9 33.83
-1 2 -9 851.01 32.47
-1 2 -9 837.75 29.63
-1 2 -10 323.41 19.66
1 -2 10 309.21 21.28
-1 2 -10 320 21.14
1 -2 10 319.39 16.77
-1 2 -11 1.54 2.97
-1 2 -11 -1.04 2.83
1 -2 11 0.36 2.7
-1 2 -12 87.05 12.58
-1 2 -12 109.38 12.88
1 -2 12 93.1 13.17
1 -2 13 132.3 16.81
-1 2 -13 102.19 13.18
-1 2 -13 117.37 15.29
-1 2 -14 179.77 20.04
-1 2 -14 249.64 21.67
1 -2 14 246.89 23.99
-1 1 13 67.52 12.02
1 -1 -13 49.21 8.83
1 -1 -13 67.99 12.11
1 -1 -12 409.54 26.95
1 -1 -12 429.53 24.18
-1 1 12 436.47 28.14
1 -1 -11 79.77 11.55
-1 1 11 88.75 12.14
1 -1 -11 83.55 10.07
-1 1 10 106.75 9.77
-1 1 10 94.6 11.74
1 -1 -10 99.87 11.93
1 -1 -9 432.57 22.96
-1 1 9 431.86 23.2
-1 1 8 16.92 4.71
1 -1 -8 17.77 4.69
-1 1 7 1222.78 33.46
1 -1 -7 1283.1 34
-1 1 6 1040.69 29.08
-1 1 6 1015.9 28.05
1 -1 -6 1042.24 28.29
1 -1 -5 329.75 14.52
-1 1 5 313.87 14.77
-1 1 5 328.14 11.32
-1 1 5 319.32 14.33
1 -1 -5 318.2 11.72
1 -1 -4 166.25 7.76
-1 1 4 153.82 8.76
-1 1 4 169.44 9.92
1 -1 -4 155.95 9.04
1 -1 -3 868.09 18.07
-1 1 3 904.85 20.06
-1 1 3 863.62 17.9
-1 1 3 835.78 16.16
1 -1 -3 845.3 18.38
1 -1 -3 854 16.16
-1 1 2 1334.58 21.44
1 -1 -2 1316.1 21.52
-1 1 2 1307.48 18.52
1 -1 -2 1329.76 18.4
-1 1 2 1360.74 18.37
1 -1 -2 1316.04 19.78
1 -1 -2 1352.27 18.32
-1 1 2 1360.37 20.09
-1 1 2 1336.27 19.78
1 -1 -1 2235.62 17.76
1 -1 -1 2301.73 22.2
-1 1 1 2312.56 24.07
-1 1 1 2335.15 20.53
1 -1 -1 2331.8 20.13
-1 1 1 2303.86 17.55
1 -1 -1 2307.62 21.85
-1 1 1 2188 22.14
-1 1 1 2278.71 22.32
1 -1 -1 2230.45 24.11
1 -1 0 1498.98 17.54
1 -1 0 1485.57 14.98
-1 1 0 1520.62 16.89
-1 1 -1 780.29 12.41
1 -1 1 802.6 13.66
-1 1 -1 819.02 13.71
1 -1 1 797.93 12.3
-1 1 -2 8.1 1.47
1 -1 2 5.33 1.44
1 -1 2 5.79 1.32
-1 1 -2 4.39 1.48
-1 1 -3 354.13 11.73
-1 1 -3 350.17 8.05
-1 1 -3 334.03 9.43
1 -1 3 349.41 9.52
1 -1 4 209.55 8.14
-1 1 -4 197.49 6.19
1 -1 4 187.33 9.98
-1 1 -4 212.26 10.2
-1 1 -4 207.5 8.04
-1 1 -5 1743.15 31.9
1 -1 5 1732.83 33.93
1 -1 5 1721.97 25.62
-1 1 -5 1698.12 17.84
-1 1 -5 1674.03 33.18
-1 1 -6 890.15 12.9
-1 1 -6 917.58 25.28
1 -1 6 886.59 19.87
1 -1 6 913.57 27.16
-1 1 -6 913 26.84
-1 1 -7 269.73 15.77
-1 1 -7 247.9 6.68
-1 1 -7 249.33 14.26
1 -1 7 246.76 15.52
1 -1 7 239.61 11.24
-1 1 -8 3.18 2.46
1 -1 8 0.09 1.22
-1 1 -8 -3.37 2.57
-1 1 -8 1.01 0.42
-1 1 -8 2.6 0.62
1 -1 8 2.07 2.8
1 -1 9 27.71 4.39
-1 1 -9 24.94 5.35
-1 1 -9 23.51 5.52
1 -1 9 12.96 5.05
-1 1 -10 269.05 18.33
1 -1 10 278.37 20.35
-1 1 -10 309.73 20.79
-1 1 -11 547.73 27.53
1 -1 11 587.95 31.19
-1 1 -11 533.75 28.9
-1 1 -12 346.98 23.27
1 -1 12 326.3 24.89
-1 1 -12 337.37 24.56
1 -1 13 30.52 8.02
-1 1 -13 44.98 9.45
-1 1 -13 28.44 7.03
1 0 -14 -5.52 4.06
-1 0 14 6.42 3.8
1 0 -13 22.17 7.04
1 0 -13 14.65 4.86
-1 0 13 18.86 6.34
1 0 -12 303.64 22.73
1 0 -12 298.09 19.4
-1 0 12 301.72 22.98
-1 0 11 743.69 34.13
-1 0 11 761.35 28.21
1 0 -11 778.68 34.19
1 0 -11 776.41 29.41
-1 0 10 1462.07 44.63
1 0 -10 1501.23 38.15
1 0 -10 1428.46 43.48
-1 0 10 1475.07 37.42
1 0 -9 45.5 6.24
-1 0 9 42.71 6.18
1 0 -9 40.68 6.99
-1 0 9 46.42 7.61
1 0 -8 36.12 5.15
1 0 -8 30.18 5.71
-1 0 8 39.82 6.56
-1 0 7 281.66 15.8
1 0 -7 286.7 15.69
-1 0 6 437.28 17.87
1 0 -6 407.61 17.04
-1 0 6 424.84 17.36
1 0 -5 1917.26 33.17
-1 0 5 1960.06 34.03
-1 0 5 2009.01 34.22
1 0 -4 1677.28 27.3
1 0 -4 1658.46 24.11
-1 0 4 1662.36 24.55
-1 0 4 1631.15 27.6
-1 0 3 131.49 6.56
-1 0 3 114.39 6.09
1 0 -3 125.73 6.38
1 0 -3 129.31 6.32
1 0 -3 115.72 6.63
-1 0 3 126.42 6.82
-1 0 3 115.67 6.1
1 0 -2 278.54 7.53
-1 0 2 294.81 8.68
1 0 -2 291.6 8.74
-1 0 2 317.35 9.15
1 0 -2 276.01 8.63
-1 0 2 301.13 7.85
1 0 -2 282.46 8.47
-1 0 2 300.61 8.92
-1 0 1 1387.78 16.27
-1 0 1 1407.06 16.29
-1 0 1 1408.49 11.06
1 0 -1 1361.04 17.1
-1 0 0 2453.85 15.36
-1 0 -1 1007.7 12.96
-1 0 -1 1055.58 14.29
-1 0 -1 974.18 11.22
1 0 1 1030.42 12.34
-1 0 -1 1026.76 9.64
1 0 1 1014.24 9.56
-1 0 -1 1021.79 12.37
1 0 1 1018.83 14.15
-1 0 -1 1020.87 12.18
-1 0 -2 96.92 3.89
-1 0 -2 97.99 5.32
1 0 2 104.17 5.8
-1 0 -2 110.9 5.23
1 0 2 100.99 5.11
-1 0 -2 108.45 5.89
1 0 3 658.19 15.59
1 0 3 648.16 16.86
-1 0 -3 682.77 16.65
1 0 3 673.94 8.29
1 0 4 112.7 4.4
1 0 4 113.33 8.09
-1 0 -4 107.9 7.66
1 0 5 167.8 6.38
1 0 5 151.22 10.45
-1 0 -5 178.9 10.89
-1 0 -6 1106.73 29.72
1 0 6 1034.13 17.83
1 0 6 1034.46 17.42
1 0 6 1079.98 30.23
-1 0 -7 991.06 30.56
1 0 7 915.67 18.49
1 0 7 928.44 30.3
-1 0 -7 950.6 28.63
-1 0 -8 592.73 24.33
1 0 8 604.13 16.23
1 0 8 595.51 26.22
-1 0 -8 632.53 26.15
1 0 9 4.38 3.63
-1 0 -9 0.97 1.77
-1 0 -9 2.23 2.28
-1 0 -10 85.52 10.82
1 0 10 82.42 11.34
-1 0 -10 74.58 10.54
1 0 11 99.94 13.33
-1 0 -11 112.86 13.6
-1 0 -11 93.32 11.67
-1 0 -12 103.46 13.7
-1 0 -12 102.1 13.02
1 0 12 112.36 15.01
-1 0 -13 336.73 26.07
-1 0 -13 335.38 24.72
1 0 13 336.65 27
-1 -1 14 314.38 26.14
1 1 -14 301.57 25.01
-1 -1 13 162.71 17.85
1 1 -13 185.33 18.51
-1 -1 12 44.55 7.63
1 1 -12 38.08 8.28
-1 -1 12 48.88 9.54
1 1 -12 35.38 6.6
-1 -1 11 59.34 9.78
1 1 -11 51.2 7.45
-1 -1 11 55.84 8.21
1 1 -11 51.25 8.92
1 1 -10 221.15 16.84
1 1 -10 234.45 11.14
-1 -1 10 237.67 18.11
1 1 -10 250.14 15.16
-1 -1 10 227.96 15.4
1 1 -9 917.44 21.25
-1 -1 9 903.41 32.58
1 1 -9 911.37 26.47
-1 -1 9 913.51 29.25
1 1 -9 906.6 31.63
1 1 -8 691.55 20.52
1 1 -8 680.93 25.42
-1 -1 8 695.43 26.7
-1 -1 8 689.41 24.18
1 1 -8 633.85 17.12
1 1 -8 683.31 21.11
1 1 -7 563.64 15.44
-1 -1 7 627.26 21.7
1 1 -7 580.48 17.64
1 1 -7 564.23 21.45
1 1 -7 568.7 18.15
1 1 -6 232.91 12.58
-1 -1 6 243.24 12.82
-1 -1 6 222.32 11.78
1 1 -6 234.33 10.07
1 1 -6 225.85 9.25
1 1 -6 236.95 11.15
1 1 -5 247.06 9.23
1 1 -5 241.78 9.01
1 1 -5 244.52 11.57
-1 -1 5 245.57 10.97
1 1 -5 258.52 11.16
1 1 -4 2377.75 27.43
1 1 -4 2371.7 30.65
-1 -1 4 2470.49 30.27
1 1 -4 2401.62 24.03
1 1 -4 2431.61 32
1 1 -4 2429.94 32.46
-1 -1 3 2096.14 23.86
1 1 -3 2131.88 28.9
1 1 -3 2073.82 24.49
1 1 -3 2056.69 24.19
1 1 -3 2150.55 18.43
-1 -1 3 2103.57 28.89
-1 -1 3 2080.77 17.76
-1 -1 2 1285.31 18.64
1 1 -2 1279.52 18.62
-1 -1 2 1338.52 21.61
-1 -1 2 1309.17 15.58
1 1 -2 1248.84 15.49
-1 -1 2 1281.03 12.05
1 1 -2 1295.93 21.2
-1 -1 1 1644.74 19.67
1 1 -1 1639.39 22.37
-1 -1 1 1707.98 15.99
-1 -1 1 1675.1 21.44
-1 -1 1 1617.71 20.85
1 1 -1 1725.09 21.16
-1 -1 1 1646.06 22.49
-1 -1 0 612.18 13.16
1 1 0 622.36 12.98
-1 -1 0 662.84 12.31
1 1 0 641.44 8.76
1 1 0 624.8 12.79
1 1 0 634.17 11.99
1 1 0 661.22 12.94
-1 -1 0 636.82 8.58
-1 -1 0 635.26 11.34
-1 -1 0 653.3 12.96
-1 -1 0 638.9 13.14
1 1 1 84.44 5.12
-1 -1 -1 91.51 5.52
-1 -1 -1 86.73 4.35
1 1 1 86.94 5.36
1 1 1 81.3 4.31
-1 -1 -1 88.51 4.6
1 1 1 87.21 4.44
-1 -1 -1 87.53 5.15
-1 -1 -1 80.35 5
-1 -1 -1 87.76 3.48
-1 -1 -2 2226.33 28.91
-1 -1 -2 2047.63 20.27
1 1 2 2049.44 29.6
-1 -1 -2 2150.53 26.53
1 1 2 2169.11 27.26
1 1 2 2162.7 19.79
-1 -1 -3 1431.47 25.26
1 1 3 1438.92 27.82
1 1 3 1431.76 13.9
-1 -1 -3 1401.2 26.01
-1 -1 -4 3208.86 42.71
1 1 4 3216.97 45.9
-1 -1 -4 3084.85 42.34
1 1 5 661.26 8.97
-1 -1 -5 684.44 21.88
1 1 5 655.31 9.14
1 1 6 3.8 0.95
1 1 6 3.78 2.87
-1 -1 -6 0.02 1.58
1 1 6 2.96 0.82
1 1 7 70.62 4.07
1 1 7 69.81 4.11
1 1 7 86.34 9.95
-1 -1 -7 87.53 9.43
-1 -1 -8 842.26 31.17
1 1 8 837.07 32.23
-1 -1 -9 54.9 8.49
1 1 9 66.06 10.14
-1 -1 -10 870.76 36.17
-1 -1 -10 949.63 36.3
1 1 10 852.38 37.09
1 1 11 191.93 18.71
-1 -1 -11 203.89 17.85
-1 -1 -11 189.64 17.99
-1 -1 -12 68.93 11.15
-1 -1 -12 68.26 11.59
1 1 12 40.78 9.38
1 1 13 164.03 19.38
-1 -1 -13 163.24 17.79
-1 -1 -13 161.58 18.67
1 2 -14 11.2 5.35
-1 -2 14 29.16 7.99
-1 -2 13 205.96 17.39
1 2 -13 198.53 19.21
-1 -2 13 199.39 19.84
1 2 -12 193.07 17.68
1 2 -12 165.29 13.7
-1 -2 12 173.76 15.5
-1 -2 12 214.22 19.44
-1 -2 11 159.37 15.84
1 2 -11 187.95 16.56
-1 -2 11 166.88 14.61
1 2 -11 175.69 13.36
-1 -2 10 5.66 3.13
-1 -2 10 10.37 4.73
1 2 -10 12.28 3.49
1 2 -10 9.43 2.26
1 2 -10 16.11 5.15
1 2 -10 13.32 3.71
1 2 -9 2.49 1.53
-1 -2 9 4.2 2.39
1 2 -9 3.93 2.13
1 2 -9 1.75 0.89
1 2 -9 1.14 2.76
1 2 -8 117.56 7.46
1 2 -8 110.18 8.46
1 2 -8 112.45 10.4
1 2 -8 107.52 9.02
-1 -2 8 95.17 9.61
1 2 -7 1242.76 23.14
1 2 -7 1259.08 25.96
-1 -2 7 1248.82 32.75
1 2 -7 1275.83 32.05
1 2 -7 1257.79 29.57
1 2 -6 408.84 12.99
-1 -2 6 411.39 17.84
1 2 -6 411.03 13.56
1 2 -6 408.88 16.74
1 2 -6 401.29 16.22
-1 -2 5 1816.35 25.03
1 2 -5 1905.83 34.11
1 2 -5 1914.12 26.26
-1 -2 5 1859.98 26.84
-1 -2 5 1920.3 36.36
1 2 -5 1884.06 27.52
-1 -2 4 183.67 10.73
1 2 -4 161.37 7.92
-1 -2 4 160.21 6.75
1 2 -4 164 7.07
-1 -2 4 162.94 6.88
1 2 -4 161.22 9.67
1 2 -4 162.22 7.02
-1 -2 3 33.54 4.51
1 2 -3 32.05 2.59
-1 -2 3 37.77 3.22
-1 -2 3 31.8 2.49
1 2 -3 32.82 4.35
1 2 -3 36.01 3.79
1 2 -2 726.63 16.83
-1 -2 2 756 9.69
-1 -2 2 709.75 18.18
1 2 -2 699.04 18.6
-1 -2 1 1620.69 25.49
1 2 -1 1580.99 25.22
-1 -2 1 1609.35 20.47
1 2 -1 1579.82 26.79
1 2 0 1425.19 19.64
-1 -2 0 1368.05 21.53
1 2 0 1384.89 24.24
1 2 0 1352.22 23.95
-1 -2 0 1416.23 18.99
1 2 0 1431.65 19.14
1 2 0 1345.02 21.3
1 2 1 1063.92 18.83
-1 -2 -1 1055.54 16.93
1 2 1 1015.04 19.98
-1 -2 -1 1041.99 22.13
1 2 1 1039.41 22.35
-1 -2 -1 1021.6 20.45
1 2 1 1009.7 16.81
-1 -2 -1 1054.19 18.56
1 2 2 165.63 6.24
-1 -2 -2 179.93 8.17
-1 -2 -2 174.75 8.7
1 2 2 176.42 10.06
-1 -2 -2 193.52 10.22
-1 -2 -2 187.65 6.12
1 2 2 177.67 8.09
1 2 3 190.72 7.96
-1 -2 -3 195.47 10.4
-1 -2 -3 215.58 11.64
1 2 3 191.69 5.88
1 2 3 207.25 11.93
1 2 4 250.81 8.4
1 2 4 245.02 5.97
-1 -2 -4 259.87 13.08
-1 -2 -4 250.82 13.58
1 2 4 240.15 13.81
1 2 5 905.28 14.1
-1 -2 -5 924.35 27.8
-1 -2 -5 931.11 27.06
1 2 5 973.83 29.74
-1 -2 -6 877.5 28.5
-1 -2 -6 877.11 29.01
1 2 6 784.46 9.5
1 2 6 899.95 30.82
1 2 7 803.97 30.98
-1 -2 -7 781.81 29.04
-1 -2 -8 2.39 3.12
1 2 8 -2.29 3.21
-1 -2 -9 71.6 10.27
1 2 9 61.54 9.95
-1 -2 -10 123.76 14.13
1 2 10 140.44 15.54
1 2 11 489.78 30.75
-1 -2 -11 477.31 29.14
-1 -2 -11 539.49 30.17
-1 -2 -12 202.23 19.44
-1 -2 -12 157.61 17.94
1 2 12 196.11 20.6
-1 -3 14 32.72 8.82
1 3 -14 61.87 11.63
-1 -3 13 2.87 3.79
-1 -3 13 13.78 4.78
1 3 -13 6.81 4.71
-1 -3 12 3.36 2.53
-1 -3 12 1.52 2.67
1 3 -12 3.8 3.67
1 3 -11 317.05 21.36
-1 -3 11 310.92 20.95
1 3 -11 342.52 18.24
1 3 -11 323 18.27
1 3 -10 349.03 17.36
1 3 -10 362.88 13.89
1 3 -10 356.04 18.69
-1 -3 10 361.24 21.65
1 3 -10 357.83 21.47
1 3 -9 941.94 32.48
1 3 -9 923.71 26.34
-1 -3 9 887.78 32.65
1 3 -9 905.57 22.06
1 3 -9 889.63 29.03
1 3 -8 175.23 9.68
1 3 -8 173.62 10.85
1 3 -8 159.05 12.56
1 3 -8 146.99 11.59
-1 -3 8 138.74 12.48
1 3 -7 4.55 2.36
-1 -3 7 6.11 2.64
1 3 -7 5.06 2.11
1 3 -7 3.08 1.53
1 3 -6 886.22 21.24
-1 -3 6 873.49 28.23
1 3 -6 910.61 21.63
1 3 -6 860.16 26.48
1 3 -5 1290.18 31.56
1 3 -5 1315.03 20.04
1 3 -5 1316.16 25.94
-1 -3 5 1340.25 33.25
1 3 -5 1320.57 24.87
1 3 -4 1126.02 24.07
1 3 -4 1091.92 14.13
-1 -3 4 1143.79 29.51
1 3 -4 1149.5 28.99
-1 -3 3 427.85 16.99
1 3 -3 426.58 17.33
-1 -3 2 730.65 15.18
-1 -3 2 738.26 8.61
-1 -3 2 753.53 21.4
1 3 -2 747.26 22.49
1 3 -1 506.32 13.5
1 3 -1 516.96 12.36
-1 -3 1 528.23 16.99
-1 -3 1 505.69 12.14
1 3 -1 504.09 18.02
1 3 0 888.21 16.99
1 3 0 940.06 23.7
1 3 0 904.41 23.4
-1 -3 0 867.56 20.41
-1 -3 -1 1454.58 25.87
1 3 1 1476.67 30.94
-1 -3 -1 1454.88 24.6
-1 -3 -1 1466.8 30.75
1 3 1 1419.95 28.9
1 3 2 2461.09 36.85
-1 -3 -2 2540.44 37.4
-1 -3 -2 2598.18 29.99
-1 -3 -2 2612.07 42.83
1 3 2 2645.2 43.95
1 3 2 2463.22 30.71
1 3 3 434.26 18.99
-1 -3 -3 402.91 17.93
-1 -3 -3 413.41 16.52
1 3 3 437.82 15.1
1 3 3 425.06 11.89
-1 -3 -3 419.19 8.91
-1 -3 -4 65.62 7.85
1 3 4 73.18 8.52
1 3 4 76.1 6.11
-1 -3 -4 70.91 2.86
1 3 4 60.21 4.2
-1 -3 -4 70.16 7.42
-1 -3 -5 21.39 4.83
-1 -3 -5 26.85 4.91
1 3 5 24.26 2.45
1 3 5 36.17 6.41
1 3 5 25.1 3.3
-1 -3 -6 149.96 13.05
1 3 6 152.23 7.31
1 3 6 159.52 13.89
-1 -3 -6 157.16 12.89
1 3 7 586.88 28.11
-1 -3 -7 613.89 26.94
-1 -3 -7 597.02 27.37
-1 -3 -8 645.77 29.59
1 3 8 708.36 32.65
-1 -3 -9 188.74 16.96
1 3 9 194.55 18.12
1 3 10 56.85 10.58
-1 -3 -10 51.96 9.43
-1 -3 -11 27.31 7.37
1 3 11 26.29 7.59
1 4 -14 241.34 22.29
-1 -4 14 217.49 22.1
-1 -4 14 248.06 21.73
-1 -4 13 233.64 20.38
1 4 -13 233.07 20.63
1 4 -12 157.93 16.28
-1 -4 12 166.22 16.81
1 4 -12 147.4 13.56
1 4 -11 -0.16 2.8
1 4 -11 0.24 1.32
-1 -4 11 0.49 2.44
1 4 -11 -3.63 2.38
-1 -4 10 65.66 9.88
1 4 -10 51.6 6.86
1 4 -10 52.35 8.49
1 4 -10 57.82 8.36
1 4 -9 539.45 21.02
-1 -4 9 542.91 26.99
1 4 -9 510 23.96
1 4 -9 506.08 24.25
1 4 -8 520.21 19.68
-1 -4 8 528.26 25.67
1 4 -8 530.21 23.99
-1 -4 7 279.12 18.02
1 4 -7 280.47 17.11
1 4 -7 286.71 13.98
-1 -4 6 176.9 13.87
1 4 -6 153.49 6.82
1 4 -6 190.99 13.78
1 4 -5 5.54 2.77
1 4 -5 4.04 0.85
-1 -4 5 8.03 3.61
1 4 -4 243.14 15.06
-1 -4 4 223.6 14.27
-1 -4 3 895.47 27.27
1 4 -3 889.87 28.28
1 4 -2 971.75 28.82
-1 -4 2 974.92 27.29
-1 -4 2 899.02 17.07
-1 -4 1 680.05 21.71
1 4 -1 724.72 24.7
-1 -4 1 713.4 13.76
1 4 0 336.4 11.07
-1 -4 0 330.51 14.41
1 4 0 378.79 17.35
1 4 0 349.04 16.78
1 4 1 112.26 7
-1 -4 -1 123.47 8.39
-1 -4 -1 99.13 9.12
1 4 1 127.1 10.4
1 4 1 113.42 9.43
1 4 2 307.49 15.21
-1 -4 -2 311.52 14.66
1 4 2 336.8 17.59
-1 -4 -2 309.57 12.4
-1 -4 -2 311.95 16.67
1 4 3 357.59 16
-1 -4 -3 402.4 17.88
-1 -4 -3 363.78 10.6
-1 -4 -3 368.61 19.07
1 4 3 346.12 18.59
1 4 4 128.95 12.02
-1 -4 -4 127.44 10.82
-1 -4 -4 126.24 11.76
-1 -4 -4 123.96 5.36
1 4 4 114.88 8.88
-1 -4 -5 413.56 22.31
1 4 5 396.88 22.05
-1 -4 -5 425.66 21.03
1 4 5 387.26 15.49
1 4 6 308.39 20.52
-1 -4 -6 304.96 20.17
-1 -4 -6 334.19 19.82
-1 -4 -7 9.47 4.2
1 4 7 13.91 5.01
-1 -4 -7 8.25 4.1
1 4 8 17.31 5.49
-1 -4 -8 21.77 6
-1 -4 -8 14.41 5.07
-1 -4 -9 301 22.3
1 4 9 248.93 21.73
-1 -4 -10 209.23 19.75
1 4 10 263.09 23.29
-1 -5 14 62.76 11.78
1 5 -14 53.09 10.94
-1 -5 13 127.26 15.92
1 5 -13 134.06 15.84
1 5 -12 206.66 18.7
1 5 -12 203.04 17.26
-1 -5 12 210.78 19.59
1 5 -11 643.5 30.26
-1 -5 11 628.49 32.91
1 5 -11 694.93 32.41
1 5 -10 125.25 13.17
-1 -5 10 104.46 13.16
1 5 -10 120.29 11.07
1 5 -10 99.26 11.92
1 5 -9 85.24 10.82
-1 -5 9 83.95 11.36
-1 -5 8 365.97 22.7
1 5 -8 422.21 23.32
-1 -5 7 31.28 6.8
1 5 -7 25.53 5.89
-1 -5 6 1512.61 42.81
1 5 -6 1479.95 42.04
-1 -5 5 498.98 23.75
1 5 -5 421.8 22.24
-1 -5 4 337.32 18.96
1 5 -4 340.51 19.56
1 5 -3 0.28 2.67
-1 -5 3 1.58 2.23
1 5 -2 382.52 20.19
-1 -5 2 361.5 7.45
-1 -5 2 395.73 19
-1 -5 1 557.34 21.79
1 5 -1 570.36 24.2
-1 -5 1 514.06 13.03
1 5 0 902.6 30
-1 -5 0 921.86 30.23
-1 -5 0 927.34 26.9
1 5 0 946.55 19.47
1 5 0 902.61 30.17
1 5 1 672.53 17.99
-1 -5 -1 676.61 21.95
-1 -5 -1 700.97 26.82
1 5 1 747.27 27.97
1 5 1 690.16 25.95
-1 -5 -2 404.94 16.31
1 5 2 423.75 21.71
-1 -5 -2 415.88 21.4
-1 -5 -2 445.19 19.43
1 5 2 429.37 15.53
1 5 2 409.42 19.71
1 5 3 7.73 3.49
1 5 3 12.02 3.57
-1 -5 -3 12.19 3.97
-1 -5 -3 11.1 2.31
-1 -5 -3 15.61 4.67
1 5 4 121.93 10.35
1 5 4 131.06 13.18
-1 -5 -4 123.33 11.63
-1 -5 -4 95.23 11.2
1 5 5 202.07 12.9
-1 -5 -5 179.94 15.92
-1 -5 -5 205.8 15.69
1 5 5 206.22 17.29
1 5 6 805.92 35.54
-1 -5 -6 705.95 32.87
-1 -5 -6 735.56 31.08
-1 -5 -7 307.15 22.58
1 5 7 323.29 23.5
-1 -5 -7 342.57 22.38
1 5 8 80.89 12.33
-1 -5 -8 71.35 11.43
-1 -5 -8 93.68 12.38
1 5 9 3.55 4.18
-1 -5 -9 -6.95 4.19
1 6 -13 0.89 3.47
-1 -6 13 7.52 4.4
1 6 -12 12.12 4.51
1 6 -12 2.1 3.26
-1 -6 12 3.96 4.31
-1 -6 11 172.12 18.2
1 6 -11 150.41 15.8
1 6 -11 172.32 16.98
1 6 -10 166.42 16.35
-1 -6 10 173.7 17.56
-1 -6 9 457.87 27.7
1 6 -9 392.71 24.77
1 6 -8 4.17 3.36
-1 -6 8 3.38 3.17
1 6 -7 306.91 21.25
-1 -6 7 311.23 21.43
-1 -6 6 37.18 7.66
1 6 -6 56.48 9.33
1 6 -5 148.07 14.18
-1 -6 5 176.47 15.37
-1 -6 4 719.63 29.84
1 6 -4 721.4 31.03
1 6 -3 465.38 24.61
-1 -6 3 444.55 22.69
-1 -6 2 267.53 17.04
1 6 -2 280.5 18.91
1 6 -1 25.54 6.07
-1 -6 1 44.17 6.81
-1 -6 0 16.28 4.15
-1 -6 0 21.18 5.35
1 6 0 17.58 2.86
1 6 0 16.06 5.12
1 6 1 257.04 17.53
1 6 1 244.91 11.25
-1 -6 -1 225.99 14.19
1 6 1 249.97 18.2
-1 -6 -1 236.28 17.36
1 6 2 495.2 25.54
1 6 2 564.54 18.46
-1 -6 -2 560.11 21.55
1 6 2 514.76 24.49
-1 -6 -2 507.84 26.09
-1 -6 -3 945.66 36.56
1 6 3 967.43 26.31
1 6 3 1037.2 33.95
1 6 3 1011.38 37.76
1 6 4 317.41 18.52
-1 -6 -4 336.39 22.62
1 6 4 353.66 23.25
-1 -6 -4 340.98 20.6
-1 -6 -5 44.2 8.72
1 6 5 59.14 10.07
-1 -6 -5 40.59 7.69
-1 -6 -6 98.35 13.45
1 6 6 93.9 13.12
-1 -6 -6 86.59 11.52
-1 -6 -7 194.61 18.09
1 6 7 246.61 21.81
-1 -6 -7 237.23 21.2
-1 -6 -8 247.79 22.5
-1 -6 -8 282.41 22.61
1 6 8 262.5 23.53
1 7 -12 40.49 9.14
1 7 -12 22.81 7.15
-1 -7 12 40 9.68
-1 -7 11 12.72 5.26
1 7 -11 6.46 3.76
1 7 -10 2.87 3.59
-1 -7 10 1.77 3.19
1 7 -9 108.53 14.23
-1 -7 9 99.67 13.83
-1 -7 8 385.06 26.1
1 7 -8 411.05 26.57
-1 -7 7 193.48 18.04
1 7 -7 175.52 17.35
1 7 -6 344.75 23.88
-1 -7 6 351.44 23.59
-1 -7 5 75.98 10.93
1 7 -5 59.03 9.96
1 7 -4 1.13 3.65
-1 -7 4 3.02 2.43
-1 -7 3 446.64 24.42
1 7 -3 470.95 27.02
-1 -7 2 273.93 18.66
1 7 -2 295.13 21.23
-1 -7 1 230.63 16.66
-1 -7 1 222.02 17.88
1 7 -1 264.09 19.79
1 7 0 281.66 20.12
-1 -7 0 249.29 16.74
-1 -7 0 240.79 18.73
-1 -7 -1 42.25 6.82
1 7 1 46.88 8.45
-1 -7 -1 66.76 10.12
-1 -7 -2 89.76 9.56
1 7 2 89.25 12.3
-1 -7 -2 106.53 13.19
1 7 2 101.48 12.04
-1 -7 -3 316.51 23.01
1 7 3 286.27 22.1
1 7 3 279.18 19.49
1 7 4 170.25 17.56
-1 -7 -4 148.93 16.28
1 7 5 247.98 21.65
-1 -7 -5 263.54 22.39
-1 -7 -5 284.57 20.93
-1 -7 -6 44.68 9.25
1 7 6 39.65 9.24
-1 -7 -6 53.3 10.57
-1 -7 -7 19.62 6.78
-1 -7 -7 14.33 5.63
1 7 7 17.93 6.5
-1 -8 11 197.34 21.46
1 8 -11 203.12 20.92
1 8 -10 277.9 24.21
-1 -8 10 254.01 23.68
-1 -8 9 49.42 10.6
1 8 -9 39.11 9
-1 -8 8 0.67 3.69
1 8 -8 1.01 2.73
1 8 -7 156.47 17.48
-1 -8 7 168.72 17.92
-1 -8 6 502.18 29.82
1 8 -6 452.46 29.2
-1 -8 5 209.01 18.94
1 8 -5 187.71 18.65
1 8 -4 522.92 30.8
-1 -8 4 503.7 28.54
1 8 -3 12.81 5.24
-1 -8 3 12.79 4.69
-1 -8 2 15.19 5.34
-1 -8 2 6.06 3.8
1 8 -2 3.93 3.46
1 8 -1 172.66 17.44
-1 -8 1 162.15 14.98
-1 -8 1 158.04 16.45
1 8 0 108.85 13.74
-1 -8 0 114.21 12.37
-1 -8 0 95.16 12.95
-1 -8 -1 283.31 19
-1 -8 -1 329 24.21
1 8 1 295.52 22.19
1 8 2 139.1 15.29
-1 -8 -2 214.23 19.86
-1 -8 -3 29.79 7.58
1 8 3 48.95 9.1
1 8 3 41.48 9.35
1 8 4 6.75 4.41
-1 -8 -4 10.17 6.5
-1 -8 -5 47.17 10.24
1 8 5 47.38 10.18
1 9 -10 241.79 24.12
-1 -9 10 256.21 24.94
1 9 -9 129.68 17.24
-1 -9 9 101.41 15.71
1 9 -8 157.54 18.83
-1 -9 8 145.98 17.96
-1 -9 7 -0.51 4.69
1 9 -7 4.04 4.01
-1 -9 6 5.02 4.41
1 9 -6 2.23 3.04
1 9 -5 9 5.26
-1 -9 5 11.94 5.24
1 9 -4 60.34 11.55
-1 -9 4 60.91 10.66
-1 -9 3 279.6 22.14
1 9 -3 322.07 25.69
-1 -9 3 281.08 23.27
1 9 -2 164.03 18.41
-1 -9 2 187.43 18.99
-1 -9 2 151.26 15.93
-1 -9 1 163.86 17.84
-1 -9 1 130.79 14.53
1 9 -1 160.26 17.88
1 9 0 8.31 4.93
-1 -9 0 2.27 2.99
-1 -9 0 -4.75 3.17
-1 -9 -1 129.96 16.57
1 9 1 135.74 16.36
-1 -9 -2 81.3 13.43
1 9 2 63.61 11.26
-1 -9 -3 171.63 19.56
1 10 -7 102.04 16.18
-1 -10 7 97.33 15.07
1 10 -6 111.45 16.54
-1 -10 6 140.56 17.82
-1 -10 5 80.96 13.35
1 10 -5 98.89 15.67
1 10 -4 34.65 9.54
-1 -10 4 16.88 5.6
-1 -10 4 39.45 9.79
1 10 -3 41.49 9.88
-1 -10 3 38.51 8.78
-1 -10 3 48.12 10.2
-1 -10 2 121.54 15.19
-1 -10 2 140.74 17.8
1 10 -2 143.38 18.25
1 10 -1 186.38 20.77
-1 -10 1 165.65 17.14
-1 -10 1 188.79 20.71
-2 11 -1 75.59 14.27
2 -11 1 44.94 9.9
2 -11 1 55.05 10.22
-2 11 -2 158.57 19.95
2 -11 2 170.14 19.09
2 -11 2 137.71 16.85
2 -11 2 160.07 17.21
-2 11 -3 57.76 12.44
2 -11 3 53.37 10.35
2 -11 3 56.23 11.19
-2 11 -4 62.97 13.39
2 -11 4 56.3 10.74
2 -11 4 55.45 11.33
-2 11 -5 -13.91 6.65
2 -11 5 -7.89 5.16
2 -11 5 -2.1 3
-2 11 -6 56.42 12.07
2 -11 6 52.53 11.42
-2 10 3 82.81 13.62
2 -10 -3 71.66 12.38
2 -10 -2 205.88 20.37
-2 10 2 198.2 20.86
2 -10 -1 294.25 21.41
2 -10 -1 275.08 23.02
-2 10 1 262.49 23.86
-2 10 0 58.98 11.71
2 -10 0 54.8 9.49
2 -10 0 53.5 10.14
-2 10 -1 55.54 11.37
2 -10 1 37.8 7.96
2 -10 1 48.05 9.41
2 -10 2 65.61 11.39
2 -10 2 44.11 8.99
-2 10 -2 75.8 13.18
2 -10 3 46.66 9.75
2 -10 3 47.49 9.37
-2 10 -3 61.39 12.02
-2 10 -4 72.11 12.71
2 -10 4 83.6 12.03
2 -10 4 84.92 13.21
2 -10 5 159.1 17.98
-2 10 -5 207.33 21.47
2 -10 6 41.41 9.58
-2 10 -6 26.29 8.2
-2 10 -7 23.06 7.7
2 -10 7 14.64 5.98
-2 10 -8 38.59 9.65
2 -10 8 34.15 9.1
2 -10 9 34.63 9.43
-2 10 -9 51.8 11.07
2 -9 -5 338.96 26.58
-2 9 5 301.84 24.36
-2 9 4 6.07 3.94
-2 9 4 3.03 3.47
2 -9 -4 13.17 5.41
-2 9 3 9.4 4.94
2 -9 -3 8.24 3.62
2 -9 -3 11.87 5.38
2 -9 -2 11.35 4.7
-2 9 2 15.06 6.01
2 -9 -2 10.92 4.19
-2 9 1 153.39 16.96
2 -9 -1 128.12 14.5
2 -9 -1 140.28 13.77
-2 9 0 398.08 27.25
2 -9 0 407.46 23.53
2 -9 0 381.66 24.43
2 -9 1 442.68 25.99
-2 9 -1 477.65 29.84
2 -9 1 462 25.48
2 -9 1 475.48 27.94
2 -9 2 194.23 17.01
-2 9 -2 179.95 18.55
2 -9 2 196.9 18.13
2 -9 3 45.93 8.41
-2 9 -3 44.44 9.48
2 -9 3 53.5 9.79
2 -9 4 22.57 6.53
-2 9 -4 45.91 9.63
-2 9 -5 108.69 14.52
2 -9 5 102.65 13.75
2 -9 6 263.31 22.18
-2 9 -6 228.84 21.06
2 -9 7 166.01 18
-2 9 -7 135.52 16.48
2 -9 8 153.5 17.45
-2 9 -8 127.57 16.07
-2 9 -9 0.85 2.88
2 -9 9 11.02 5.42
-2 9 -10 39.07 9.22
2 -9 10 22.05 7.04
-2 9 -11 66.75 11.62
2 -9 11 55.75 11.48
-2 8 7 81.97 12.86
2 -8 -7 70.89 12.44
-2 8 6 61.3 10.55
2 -8 -6 51.61 10.07
-2 8 5 100.16 13.1
2 -8 -5 99.92 13.52
-2 8 5 94.02 12.49
2 -8 -4 168.82 13.67
2 -8 -4 150.76 15.91
-2 8 4 157.71 16.15
-2 8 4 188.23 17.35
2 -8 -3 302.25 18.56
2 -8 -3 295.5 21.46
-2 8 3 288.26 21.42
-2 8 3 284.27 20.93
-2 8 2 186.33 13.85
2 -8 -2 223.89 18.07
-2 8 2 202.2 17.98
2 -8 -2 208.55 15.4
-2 8 1 458.32 20.2
-2 8 1 524.34 28.63
2 -8 -1 547.62 25.2
2 -8 -1 440.81 24.71
-2 8 0 -1.09 3.02
-2 8 0 0.19 1.26
2 -8 0 1.4 2.36
2 -8 0 -2.96 2.95
2 -8 1 733.29 32.09
2 -8 1 705.95 29.96
-2 8 -1 741.32 21.99
-2 8 -1 765.64 34.71
-2 8 -2 350.49 23.73
2 -8 2 325.26 20.16
2 -8 2 367.34 23.14
2 -8 3 614.66 30.13
-2 8 -3 631.46 31.9
2 -8 4 325.37 22.25
-2 8 -4 341.34 23.72
2 -8 5 195.05 17.59
-2 8 -5 188.09 17.69
-2 8 -6 4.95 3.9
2 -8 6 1.43 2.95
-2 8 -7 5.05 3.65
2 -8 7 13.88 5.45
-2 8 -8 444.04 27.65
2 -8 8 453.55 28.34
2 -8 9 564.75 32.37
-2 8 -9 586.04 31.78
-2 8 -10 67.41 10.98
2 -8 10 64.74 11.25
-2 8 -11 4.06 3.13
2 -8 11 2.1 2.1
2 -8 12 27.7 7.67
-2 8 -12 13.87 5.83
2 -7 -9 76.82 13
-2 7 9 54.23 10.76
2 -7 -8 282.83 23.66
-2 7 8 300.13 23.73
-2 7 7 329.77 23.83
2 -7 -7 323.24 24.14
2 -7 -6 229.6 19.77
2 -7 -6 224.43 19.53
-2 7 6 224.74 18.76
-2 7 6 220.68 17.5
-2 7 5 223.79 17.48
2 -7 -5 258.04 20.03
-2 7 5 228.41 18.3
2 -7 -5 258.96 15.74
-2 7 4 -4.15 3.02
-2 7 4 3.14 2.2
2 -7 -4 -0.93 2.42
2 -7 -4 -2.94 2.26
-2 7 4 2.49 3.16
-2 7 3 165.52 13.43
2 -7 -3 174.79 15.22
-2 7 3 185.65 15.36
2 -7 -3 164.87 12.74
-2 7 3 172.2 15.34
-2 7 2 408 19.63
-2 7 2 399.34 22.98
2 -7 -2 458.35 21.26
2 -7 -2 395.73 21.99
-2 7 2 395.94 21.78
-2 7 1 1.48 3.1
-2 7 1 9.67 3.28
2 -7 -1 3.34 2.82
2 -7 -1 3.33 2.51
-2 7 0 987.56 26.43
2 -7 0 938.23 30.82
2 -7 0 961.88 33.61
2 -7 0 945.32 31.97
-2 7 0 927.22 34.74
2 -7 1 1.07 2.38
-2 7 -1 1.05 2.31
2 -7 1 -0.29 2.21
-2 7 -1 1.92 3.24
2 -7 2 27.43 6.04
-2 7 -2 29.05 4.08
-2 7 -2 23.12 6.21
-2 7 -3 103.76 7.06
2 -7 3 112.15 12.13
-2 7 -3 121.53 13.06
-2 7 -4 387.96 23.22
-2 7 -4 359.32 12.42
2 -7 4 382.61 22.35
2 -7 5 583.53 28.28
-2 7 -5 594.26 15.92
-2 7 -5 629.66 29.73
-2 7 -6 566.79 28.49
2 -7 6 513.32 27.06
-2 7 -7 0.69 2.34
2 -7 7 -0.03 2.98
2 -7 8 5.18 3.42
-2 7 -8 4.13 3.23
-2 7 -8 9.79 4.52
2 -7 9 33.54 7.62
-2 7 -9 30.3 7.05
-2 7 -9 31.96 7.49
-2 7 -10 116.28 13.37
2 -7 10 115.37 14.2
-2 7 -10 102.88 13.19
2 -7 11 109.98 14.21
-2 7 -11 91.96 11.84
-2 7 -11 104.36 13.59
2 -7 12 97.56 13.62
-2 7 -12 60.08 10.96
2 -6 -10 134.7 16.98
-2 6 10 156.42 17.85
2 -6 -9 109.73 14.59
-2 6 9 85 12.45
-2 6 8 -5.94 3.62
2 -6 -8 0.82 1.79
-2 6 7 151.48 15.23
2 -6 -7 170.32 16.61
-2 6 7 157.42 13.81
2 -6 -7 173.23 16.81
-2 6 6 301.26 20.6
-2 6 6 280.08 17.89
2 -6 -6 310.85 21.21
-2 6 6 297.66 20.28
2 -6 -6 273.18 20.15
2 -6 -6 277.86 15.46
-2 6 5 932.4 34.09
2 -6 -5 923.59 28.21
2 -6 -5 981.99 36.21
-2 6 5 953.37 34.41
-2 6 5 999.68 33.51
2 -6 -5 1006.41 36.7
-2 6 4 571.83 25.17
-2 6 4 634.63 26.75
2 -6 -4 607.49 27.18
-2 6 4 579.4 25.49
2 -6 -4 618.81 22.83
2 -6 -4 614.54 27.59
2 -6 -3 915.06 27.74
2 -6 -3 871.28 30.85
-2 6 3 929.81 32.03
-2 6 3 856.15 29.67
-2 6 3 916.91 29.88
-2 6 2 161.51 12.5
2 -6 -2 135.66 11.83
-2 6 2 154.81 13.06
-2 6 2 172.17 12.1
2 -6 -2 169.81 12.13
-2 6 1 17.22 4.66
-2 6 1 20.36 2.22
-2 6 1 17.36 3.84
2 -6 -1 20.7 4.73
2 -6 -1 22.77 4.59
2 -6 0 765.1 25.79
-2 6 0 786.59 22.54
2 -6 0 795.28 28.1
-2 6 0 819.26 29.8
2 -6 0 860.89 27.29
2 -6 1 554.01 21.36
-2 6 -1 532.83 17.28
2 -6 1 548.28 23.57
-2 6 -1 537.53 24.13
-2 6 -2 604.47 25.71
2 -6 2 665.5 26.2
-2 6 -2 605.67 17.3
-2 6 -3 36.06 4.27
-2 6 -3 31.3 6.15
2 -6 3 37.84 6.48
2 -6 3 26.96 1.94
-2 6 -4 31.52 3.9
2 -6 4 34.67 3.21
-2 6 -4 33.3 6.39
2 -6 4 33.21 6.42
-2 6 -5 72.37 9.39
-2 6 -5 82.58 6.44
2 -6 5 85.13 10.28
-2 6 -6 794.77 20.79
-2 6 -6 756.52 30.1
2 -6 6 709.15 29.42
-2 6 -6 756.17 29.92
-2 6 -7 606.93 27.3
-2 6 -7 567.12 26.74
2 -6 7 649.87 28.99
2 -6 8 199.76 16.55
-2 6 -8 213.41 16.94
-2 6 -8 217.86 16.51
2 -6 9 64.98 9.85
-2 6 -9 67.15 10
-2 6 -9 70.82 9.54
2 -6 10 96.29 12.05
-2 6 -10 107.35 12.79
-2 6 -10 100.94 11.4
2 -6 11 40.78 8.15
-2 6 -11 54.86 9.65
2 -6 12 199.83 18.28
-2 6 -12 195.09 18.59
-2 6 -13 103.17 15.45
-2 6 -13 120.66 15.25
2 -5 -11 15.23 6.08
-2 5 11 36.45 8.97
-2 5 10 82.88 12.48
2 -5 -10 93.97 13.61
2 -5 -9 200.35 18.56
-2 5 9 194.37 17.87
-2 5 8 242.27 18.88
2 -5 -8 213.32 18.28
2 -5 -7 284.68 15.19
-2 5 7 297.19 19.85
-2 5 7 264.56 19.6
2 -5 -7 289.25 20.31
-2 5 6 76.49 9.97
2 -5 -6 70.38 7.52
-2 5 6 65.81 8.98
2 -5 -6 69.04 9.42
2 -5 -6 75.31 10.04
2 -5 -5 89.73 10.28
-2 5 5 88.35 10.2
2 -5 -5 93.89 10.47
2 -5 -5 81.09 7.94
-2 5 5 86.21 9.62
-2 5 4 888.66 29.67
2 -5 -4 870.42 25.26
-2 5 4 865.96 28.46
2 -5 -4 882.5 30.5
2 -5 -4 898.62 30.19
-2 5 3 1008.04 28.99
2 -5 -3 945.53 29.36
2 -5 -3 932.06 26.14
-2 5 3 979.59 29.21
2 -5 -3 979.57 30.6
2 -5 -2 679.82 22.14
2 -5 -2 650.29 23
-2 5 2 654.36 22.27
-2 5 2 703.15 23.24
-2 5 1 404.51 16.41
2 -5 -1 416.74 17.36
2 -5 -1 405.5 17.21
-2 5 1 396.85 16.87
-2 5 0 173.69 10.09
2 -5 0 175.86 11.35
-2 5 0 166.42 5.16
2 -5 0 174.94 12.12
2 -5 0 180.38 11.1
-2 5 -1 37.96 4.5
2 -5 1 49.35 5.74
-2 5 -1 41.58 6.52
2 -5 1 49 6.47
2 -5 2 115.48 10.01
-2 5 -2 129.49 10.82
-2 5 -2 129.15 7.8
2 -5 2 115.14 4.47
-2 5 -3 1148.62 22.95
2 -5 3 1177.2 17.84
2 -5 3 1176.9 32.4
-2 5 -3 1218.06 33.07
-2 5 -4 610.81 16.99
-2 5 -4 602.2 23.85
2 -5 4 640.18 24.45
-2 5 -4 605.33 23.64
-2 5 -5 282.36 16.75
2 -5 5 270.44 16.38
-2 5 -5 281.1 16.49
2 -5 6 18 4.54
-2 5 -6 14.73 4.16
-2 5 -6 19.67 4.88
-2 5 -7 164.05 13.8
2 -5 7 170.67 13.83
-2 5 -7 158.54 12.7
-2 5 -8 360.33 20.94
2 -5 8 344.36 19.99
-2 5 -8 355.37 19.02
-2 5 -9 261.06 18.63
2 -5 9 263.09 17.9
-2 5 -9 255.41 16.12
2 -5 10 555 26.91
-2 5 -10 535.9 27.76
-2 5 -10 574.97 23.73
2 -5 11 390.82 23.11
-2 5 -11 386.43 24.62
2 -5 12 3.49 2.43
-2 5 -12 8.47 4.99
2 -5 12 -0.46 4.26
-2 5 -12 6.12 3.8
-2 5 -13 92.26 13.09
-2 5 -13 93.81 14.38
2 -5 13 67.33 12.77
-2 4 12 204.4 20.56
2 -4 -12 221.42 21.89
-2 4 11 355.53 25.7
2 -4 -11 353.92 26.26
-2 4 10 46.74 8.97
2 -4 -10 40.41 8.87
2 -4 -9 9.21 4.53
-2 4 9 13.46 4.76
2 -4 -8 219.25 17.7
-2 4 8 237.97 17.68
2 -4 -8 226.96 13.41
2 -4 -7 346.67 16.04
-2 4 7 332.28 20.88
-2 4 7 334.37 19.83
2 -4 -7 351.29 21.01
2 -4 -6 529.37 19.42
-2 4 6 499.68 23.99
2 -4 -6 511.22 23.81
-2 4 6 502.76 22.69
2 -4 -5 432.27 20.77
-2 4 5 447.75 21.33
2 -4 -5 468.09 17.75
2 -4 -5 424.19 20.25
-2 4 5 432.07 19.71
2 -4 -4 20.29 4.29
-2 4 4 16.91 4.42
2 -4 -4 22.65 4.03
-2 4 4 14.78 3.69
2 -4 -4 26.86 5.19
2 -4 -3 55.6 5.95
-2 4 3 47.31 6.27
-2 4 3 45.45 5.62
2 -4 -3 45.22 6.19
2 -4 -3 52.98 6.32
2 -4 -2 435.23 16.69
-2 4 2 459.38 17.67
-2 4 2 427.74 15.79
2 -4 -2 459.98 16.68
-2 4 1 1606.53 30.69
-2 4 1 1512.08 28.19
2 -4 -1 1577.17 29.54
2 -4 -1 1622.53 31.02
-2 4 0 2748.44 24.28
2 -4 0 2740.82 36.63
-2 4 0 2676.36 36.88
2 -4 0 2792.58 40.77
-2 4 -1 963.17 20.9
2 -4 1 971.35 25.56
-2 4 -2 1056.34 21.63
2 -4 2 1116.03 27.73
2 -4 2 1078.63 16.82
-2 4 -3 494.06 19.41
-2 4 -3 435.58 17.67
-2 4 -3 462.38 14.4
2 -4 3 464.92 18.44
-2 4 -4 119.5 9.89
2 -4 4 137.61 10.32
2 -4 5 942.72 27.59
-2 4 -5 978.01 27.08
2 -4 6 843.08 13.18
-2 4 -6 888.06 28.88
2 -4 6 852.4 27.09
-2 4 -6 898.65 26.31
-2 4 -7 386.91 20.04
2 -4 7 406.97 19.42
-2 4 -7 400.09 17.83
2 -4 8 5.62 2.93
-2 4 -8 11.84 4.09
-2 4 -8 4.76 2.28
-2 4 -9 195.76 15.63
2 -4 9 179.17 13.62
-2 4 -9 166.9 11.27
-2 4 -10 226.29 18.82
-2 4 -10 238.64 18.36
2 -4 10 253.02 16.75
-2 4 -11 544.04 30.54
2 -4 11 608.25 32.38
-2 4 -11 566.46 29.36
2 -4 11 581.61 26.04
2 -4 12 263.57 22.95
-2 4 -12 238.74 20.05
-2 4 -12 268.48 22.58
-2 4 -13 77.94 12.14
2 -4 13 61.56 11.89
-2 4 -13 60.9 11.51
2 -3 -12 17.27 6.42
-2 3 12 8.94 5.22
-2 3 11 196.31 18.49
2 -3 -11 209.8 19.47
-2 3 10 573.98 29.55
2 -3 -10 569.88 30.13
2 -3 -9 750.48 32.54
-2 3 9 705.12 30.93
-2 3 8 35.97 7.2
-2 3 8 41.41 7.18
2 -3 -8 46.68 6.14
2 -3 -8 29.47 6.26
-2 3 7 115.92 11.9
2 -3 -7 112.49 11.32
-2 3 7 109.41 10.66
2 -3 -7 106.07 8.75
2 -3 -6 302.73 14.15
2 -3 -6 317.8 17.69
-2 3 6 313.83 16.68
-2 3 6 339.71 18.84
-2 3 5 359.99 18.12
2 -3 -5 353.04 17.68
-2 3 5 361.48 16.39
2 -3 -5 348.69 14.68
2 -3 -4 1078.19 27.47
-2 3 4 1114.57 26.42
2 -3 -4 1110.06 25.26
2 -3 -4 1112.24 28.73
-2 3 4 1090.63 29.48
2 -3 -3 90.04 7.4
2 -3 -3 90.53 7.05
-2 3 3 88.66 6.77
-2 3 3 101.47 8.64
2 -3 -3 83.94 7.52
2 -3 -2 1789.28 31.93
-2 3 2 1755.41 32.33
-2 3 2 1733.78 26.86
2 -3 -2 1859.76 30.1
2 -3 -2 1801.72 30.3
2 -3 -1 32.77 3.48
-2 3 1 36.15 4.61
2 -3 -1 35.97 3.88
2 -3 -1 37.43 4.49
-2 3 1 37.06 3.65
-2 3 0 1763.7 21.34
2 -3 0 1755.79 23.58
2 -3 0 1766.42 23.9
-2 3 0 1719.98 27.77
2 -3 0 1742.3 28.96
2 -3 1 1783.61 30.77
-2 3 -1 1755.59 31.18
2 -3 1 1812.4 22.08
-2 3 -1 1765.47 27.27
-2 3 -2 2760.5 34.07
2 -3 2 2696.4 38.11
2 -3 2 2735 29.82
-2 3 -2 2708.72 39.62
2 -3 3 686.01 19.45
-2 3 -3 659.35 20.41
-2 3 -4 256.7 11.86
-2 3 -4 232.19 12.75
2 -3 4 245.31 12.08
-2 3 -5 4.45 1.89
-2 3 -5 7.67 2.79
2 -3 5 3.44 1.94
2 -3 6 12.37 3.26
-2 3 -6 8.53 3.15
-2 3 -6 7.23 2.36
-2 3 -7 619.97 24.5
-2 3 -7 600.99 18.43
2 -3 7 629.21 21.54
-2 3 -8 480.13 22.89
2 -3 8 469.46 19.31
-2 3 -8 478.66 16.09
2 -3 9 268.3 18.87
-2 3 -9 246.17 17.33
2 -3 9 259.63 14.94
-2 3 -9 294.96 19.88
-2 3 -9 277.68 11.75
2 -3 10 9.81 4.69
2 -3 10 10.35 2.91
-2 3 -10 11.24 4.61
-2 3 -10 10.07 4.48
-2 3 -11 16.61 6.17
-2 3 -11 18.64 5.77
2 -3 11 6.86 4.25
-2 3 -12 157.83 16.42
2 -3 12 125.57 15.65
-2 3 -12 105.85 14.24
-2 3 -13 296.31 23.51
2 -3 13 283.3 24.57
-2 3 -13 288.89 24.33
2 -2 -13 269.49 23.66
-2 2 13 283.95 24.01
2 -2 -12 18.83 5.22
-2 2 12 35.36 8.33
2 -2 -12 28.13 7.62
-2 2 11 45.27 8.77
2 -2 -11 48.82 9.39
-2 2 10 147.17 14.53
2 -2 -10 147.09 14.81
2 -2 -9 1293.24 40.8
-2 2 9 1313.43 40.3
2 -2 -8 947 32.74
-2 2 8 987.55 34.53
-2 2 8 933.4 31.65
-2 2 7 503.82 21.55
2 -2 -7 498.67 18.63
2 -2 -7 482.37 21.82
-2 2 7 506.07 23.22
2 -2 -6 390.32 15.74
-2 2 6 359.45 16.76
-2 2 6 369.66 18.69
2 -2 -6 386.18 18.1
-2 2 5 82.31 8.32
2 -2 -5 87.96 8.09
2 -2 -5 78.34 6.8
-2 2 5 88.8 7.56
2 -2 -4 1151.22 24.71
-2 2 4 1143.26 23.95
2 -2 -4 1135.12 26.43
-2 2 4 1190.02 28.91
-2 2 3 746.1 21.18
2 -2 -3 768.69 17.19
2 -2 -3 735.91 18.73
-2 2 3 719.76 16.66
2 -2 -3 743.73 19.48
2 -2 -2 1890.58 28.77
2 -2 -2 1905.82 25.82
2 -2 -2 1884.38 28.5
-2 2 2 1896.55 31.19
-2 2 2 1898.71 26.38
-2 2 2 1902.7 22.58
2 -2 -2 1873 22.99
-2 2 1 452.73 14.23
2 -2 -1 453.17 13.64
2 -2 -1 441.1 10.44
2 -2 -1 439.12 12.9
2 -2 -1 456.49 9.21
-2 2 1 455.05 9.04
-2 2 1 443.56 10.72
2 -2 0 42.22 4.09
-2 2 0 52.41 4.55
-2 2 0 49.27 4.57
2 -2 0 48.31 4.41
2 -2 0 45.77 2.68
2 -2 0 42.42 3.65
2 -2 0 45.07 2.73
-2 2 0 43.41 3.66
-2 2 -1 2821.26 33.18
-2 2 -1 2731.02 33.95
2 -2 1 2782.79 29.59
2 -2 1 2765.63 32.15
2 -2 2 843.47 18.19
-2 2 -2 892.2 20.62
2 -2 3 276.54 10.61
-2 2 -3 264.51 12.16
-2 2 -4 850.73 23.3
-2 2 -4 822.26 17.56
2 -2 4 835.61 9.38
2 -2 4 833.89 18.95
-2 2 -5 1418.89 23.02
-2 2 -5 1370.6 31.66
2 -2 5 1393.89 25.61
-2 2 -6 458.66 12.85
2 -2 6 494.06 15.89
-2 2 -6 494.85 20.42
2 -2 6 500.52 20.59
2 -2 7 8.37 2.5
-2 2 -7 7.82 1.69
-2 2 -7 8.83 3.14
2 -2 7 3.41 2.14
-2 2 -7 8.57 3.51
-2 2 -8 117.6 11.71
2 -2 8 126.19 12.25
2 -2 8 102.23 7.9
-2 2 -8 109.11 5.28
-2 2 -8 137.55 12.27
2 -2 9 563.63 27.46
2 -2 9 541.33 18.8
-2 2 -9 545.92 25.74
-2 2 -9 575.09 27.41
2 -2 10 109.77 12.96
-2 2 -10 118 13.2
-2 2 -10 112 12.45
-2 2 -11 16.89 5.48
2 -2 11 15.79 5.44
-2 2 -11 9.5 4.05
2 -2 12 86.93 13.19
-2 2 -12 85.96 12.67
-2 2 -12 108.64 13.6
-2 2 -13 3.16 4.16
2 -2 13 2.89 2.77
-2 1 13 212.04 20.38
2 -1 -13 204.67 20.11
-2 1 12 253.18 21.01
2 -1 -12 270.98 21.71
2 -1 -12 262.47 17.7
-2 1 11 464.98 26.7
2 -1 -11 477.95 22.55
2 -1 -11 462.29 26.79
-2 1 10 175.38 15.48
2 -1 -10 215.89 17.21
2 -1 -9 72.44 9.38
-2 1 9 75.32 10.16
-2 1 9 71.93 9.41
-2 1 8 299.57 18.22
2 -1 -8 311.96 17.95
-2 1 8 295.61 17.35
-2 1 7 710 24.55
2 -1 -7 712.98 25.06
-2 1 7 742.73 26.57
2 -1 -6 1311.11 31.12
-2 1 6 1264.63 29.75
2 -1 -6 1303.85 28.78
-2 1 6 1307.9 33.08
-2 1 5 1585.24 29.84
2 -1 -5 1583.33 31.01
-2 1 5 1603.5 34.12
2 -1 -5 1633.81 30.4
2 -1 -4 1604.16 28.25
-2 1 4 1542.77 25.69
2 -1 -4 1582.14 28.06
-2 1 3 34.29 3.31
2 -1 -3 35.25 4.12
-2 1 3 40.34 4.84
2 -1 -3 40.15 4.04
-2 1 2 42.34 4.44
2 -1 -2 43.6 4.21
-2 1 2 51.59 3.91
-2 1 2 37.53 2.62
2 -1 -2 42.89 3.62
-2 1 1 223.82 7.15
-2 1 1 213.43 9.21
2 -1 -1 236.02 9.69
-2 1 1 235.02 9.19
2 -1 -1 206.27 6.83
2 -1 -1 233.8 9.02
-2 1 1 222.97 8.89
-2 1 1 228.6 7.19
-2 1 0 709.46 16.28
2 -1 0 697.74 15.45
-2 1 0 714.04 15.52
-2 1 0 728.76 13.98
2 -1 0 718.36 14.83
2 -1 0 700.41 13.71
-2 1 0 736.44 15.26
2 -1 1 9825.43 57.23
2 -1 1 9999 43.19
2 -1 1 9667.49 59.78
-2 1 -1 9723.7 57.57
2 -1 1 9829.46 52.55
-2 1 -1 9896.77 53.02
2 -1 2 1.6 0.85
-2 1 -2 1.61 1.51
2 -1 2 2.25 1.21
2 -1 2 0.62 0.49
2 -1 2 1.32 0.87
-2 1 -2 2.83 0.93
-2 1 -3 5.97 1.43
2 -1 3 8.98 1.37
2 -1 3 5.96 1.43
2 -1 3 8.76 2.36
-2 1 -3 7.8 2.42
-2 1 -4 361.21 15.01
2 -1 4 315.94 9.17
2 -1 4 336.58 14.08
-2 1 -4 331.53 9.79
-2 1 -5 1416.97 15.68
2 -1 5 1403.88 31.58
2 -1 5 1470.92 20.43
-2 1 -5 1424.51 31.94
-2 1 -5 1457.32 20.94
-2 1 -6 2225.08 43.44
2 -1 6 2148.9 42.98
-2 1 -6 2190.05 43.01
2 -1 6 2229.54 26.7
2 -1 7 899.05 30.19
-2 1 -7 883.37 29.38
2 -1 7 898.77 18.02
-2 1 -7 877.12 29.01
-2 1 -8 126.72 11.89
2 -1 8 136.52 12.76
2 -1 8 123.42 7.03
-2 1 -8 144.66 12.85
2 -1 9 153.77 14.6
-2 1 -9 132.39 12.96
-2 1 -9 148.65 13.94
-2 1 -10 165.46 15.42
2 -1 10 155.56 15.6
-2 1 -10 166.64 15.69
-2 1 -11 148.63 15.32
-2 1 -11 172.49 16.93
2 -1 11 152.92 16.49
-2 1 -12 363.03 26.04
2 -1 12 373.66 27.06
-2 1 -12 396.62 26.3
2 -1 13 223.44 22.26
-2 1 -13 240.6 22.27
-2 1 -13 203.51 20.02
-2 0 14 147.23 18.08
2 0 -14 179.01 19.55
-2 0 13 0.35 2.27
2 0 -13 -10.24 5.38
-2 0 12 24.91 6.04
-2 0 12 28.89 7.26
2 0 -12 28.88 7.26
2 0 -11 180.67 13.12
2 0 -11 196.37 17.2
-2 0 11 160.77 15.49
-2 0 11 170.99 14.64
2 0 -10 342.97 16.68
2 0 -10 345.96 20.92
-2 0 10 344.72 21.25
2 0 -9 10.93 4.3
-2 0 9 6.78 3.31
-2 0 9 10.59 4.19
2 0 -9 9.93 2.89
-2 0 8 365.8 18.96
2 0 -8 360.92 18.67
2 0 -8 379.83 14.71
-2 0 8 389.05 19.61
2 0 -7 44.71 6.23
-2 0 7 52.03 6.88
2 0 -7 57.23 5.22
-2 0 7 55.39 6.9
-2 0 6 14.39 3.64
-2 0 6 11.61 3.07
2 0 -6 14.71 3.28
-2 0 5 508.07 17.9
2 0 -5 502.21 16.28
-2 0 4 2671.55 37.62
2 0 -4 2561.5 32.5
2 0 -4 2637.5 37.55
-2 0 3 1601.57 21.72
2 0 -3 1528.89 27.31
-2 0 3 1564.5 26.32
2 0 -3 1504.12 25.95
2 0 -3 1547.29 21.15
2 0 -2 2152.66 30.76
2 0 -2 2142.73 28.48
2 0 -2 2131.37 28.72
-2 0 2 2168.28 28.72
-2 0 2 2182.16 19.8
2 0 -2 2182.34 19.38
2 0 -1 633.28 14.82
-2 0 1 635.97 9.59
-2 0 1 615.48 15.61
-2 0 1 630.62 14.94
2 0 -1 618.81 14.84
2 0 -1 617.45 15.52
-2 0 1 623.38 9.76
2 0 -1 628.2 14.29
-2 0 1 584.05 13.78
2 0 0 3419 34.46
-2 0 0 3407.39 28.47
2 0 0 3310.82 35.53
2 0 0 3307.78 29.58
-2 0 0 3410.97 25.69
-2 0 0 3325.5 30.17
2 0 0 3368.85 32.84
-2 0 0 3464.02 34.43
2 0 1 1910.98 24.1
-2 0 -1 1849.63 23.9
-2 0 -1 1863.71 23.61
-2 0 -1 1876.18 20.54
2 0 1 1882.27 20.02
2 0 1 1904.14 27.74
-2 0 -1 1871.44 23.15
2 0 1 1892.97 22.98
-2 0 -1 1932.88 20.32
-2 0 -1 1891.67 25.07
2 0 2 685.64 14.41
-2 0 -2 668.15 14.21
2 0 2 676.34 10.87
-2 0 -2 647.05 13.91
-2 0 -2 662.82 12.93
-2 0 -2 698.98 17.43
2 0 2 648.54 13.93
-2 0 -2 674.89 15
2 0 2 659.25 16.17
-2 0 -3 1297.25 19.76
-2 0 -3 1278.82 22.49
2 0 3 1282.45 13.97
-2 0 -3 1312.42 24.37
2 0 3 1325.08 26.21
-2 0 -3 1283.21 11.97
-2 0 -3 1304.17 15.85
-2 0 -4 92.24 5.3
-2 0 -4 85.15 7.17
-2 0 -4 85.29 7.55
2 0 4 74.34 7.02
2 0 4 87.15 3.65
-2 0 -4 86.57 3.18
-2 0 -5 89.41 5.31
2 0 5 81.46 8.03
-2 0 -5 81.15 8.03
-2 0 -5 90.45 8.07
2 0 5 86.77 3.82
-2 0 -6 46.16 6.58
-2 0 -6 50.78 6.66
2 0 6 37.61 6.16
-2 0 -6 48.98 4.05
-2 0 -7 717.57 26.69
-2 0 -7 685.2 26.45
2 0 7 732.07 28.24
-2 0 -8 716.53 28.81
-2 0 -8 651.29 27.42
2 0 8 666.42 28.88
-2 0 -9 538.56 26.62
-2 0 -9 538.16 26.57
2 0 9 532.24 27.5
2 0 10 309.64 22.51
-2 0 -10 353.65 23.04
-2 0 -10 331.71 22.12
-2 0 -11 45.85 8.95
2 0 11 41.92 9.48
-2 0 -11 32.64 7.59
-2 0 -12 48.38 9.58
2 0 12 43.54 10.17
-2 0 -12 53.5 10.06
2 0 13 173.3 20.01
-2 0 -13 179.33 19.1
-2 0 -13 188.86 19.87
-2 -1 14 379.29 28.16
2 1 -14 345.54 26.45
2 1 -13 283.34 22.65
-2 -1 13 256.28 21.87
-2 -1 13 310.16 22.01
-2 -1 12 129.47 14.81
2 1 -12 142.79 15.34
-2 -1 12 144.08 14.45
-2 -1 11 284.11 19.35
2 1 -11 306.13 16.18
2 1 -11 285.84 20.04
-2 -1 11 309.89 21.46
-2 -1 10 20.86 5.39
-2 -1 10 11.05 4
2 1 -10 21.91 3.93
2 1 -10 15.29 3.46
2 1 -9 97.99 8.22
2 1 -9 91.65 7.67
-2 -1 9 94.2 10.54
2 1 -9 97.86 10.41
-2 -1 9 93.22 10.25
2 1 -8 848.44 26.32
2 1 -8 879.26 28.32
2 1 -8 865.89 23.28
2 1 -8 866.2 20.89
-2 -1 8 895.45 27.97
-2 -1 7 1371.43 32.14
2 1 -7 1326.95 23.03
2 1 -7 1298.37 31.58
2 1 -7 1289.06 27.4
2 1 -7 1283.57 31.33
-2 -1 6 767.11 22.18
2 1 -6 759.01 20.34
2 1 -6 755.99 14.81
2 1 -6 766.63 23.29
2 1 -6 757.33 21.74
2 1 -5 5.85 2.08
-2 -1 5 6.22 2.44
2 1 -5 3.86 1.01
2 1 -5 5.08 2.29
2 1 -5 3.47 1.58
-2 -1 4 675.09 17.41
2 1 -4 655.47 17.75
2 1 -4 657.99 15.34
2 1 -4 650.64 19.89
-2 -1 3 1468.54 23.36
2 1 -3 1439.01 28.32
2 1 -3 1462.66 25.81
2 1 -3 1428.56 18.47
2 1 -2 1380.03 24.4
-2 -1 2 1412.16 21.72
2 1 -2 1338.42 21.16
2 1 -2 1360.6 12.49
2 1 -2 1349.8 26.2
2 1 -1 1206.79 22.57
2 1 -1 1180.62 22.23
-2 -1 1 1158.89 19.14
-2 -1 1 1185.27 20.34
-2 -1 1 1240.78 20.44
2 1 -1 1222.43 23.69
2 1 0 2610.09 33.18
2 1 0 2549.55 18.05
2 1 0 2579.17 33.2
-2 -1 0 2670.79 30.54
2 1 0 2565.28 30.13
2 1 0 2595.42 32.77
-2 -1 0 2660.64 17.79
-2 -1 0 2613.17 27.06
2 1 1 1312.81 23.74
2 1 1 1350.63 24.78
2 1 1 1321.85 21.92
-2 -1 -1 1378.6 22.98
2 1 1 1349.18 18.44
-2 -1 -1 1300.4 16.34
-2 -1 -1 1325.85 17.64
2 1 1 1298.49 23.39
-2 -1 -1 1274.83 21.82
-2 -1 -2 143.09 7.19
-2 -1 -2 144.04 6.93
2 1 2 149.22 8.87
-2 -1 -2 128.41 4.52
-2 -1 -2 134.06 7.87
2 1 2 144.2 7.51
-2 -1 -2 139.84 4.3
2 1 2 134.34 6.59
2 1 3 1116.64 16.79
-2 -1 -3 1147.19 24.83
2 1 3 1108.73 26.48
-2 -1 -3 1133.78 23.39
-2 -1 -3 1063.21 17.23
-2 -1 -4 1163.7 15.09
-2 -1 -4 1148.59 26.37
-2 -1 -4 1196.48 27.69
2 1 4 1233.04 30.59
-2 -1 -5 288.99 14.77
-2 -1 -5 250.59 13.76
2 1 5 260.31 15.3
-2 -1 -6 182.74 12.74
2 1 6 187.06 13.85
-2 -1 -7 68.3 8.55
2 1 7 82.38 9.98
2 1 8 133.55 13.46
-2 -1 -8 125.06 12.46
2 1 9 291.57 21.26
-2 -1 -9 279.23 19.78
-2 -1 -9 280.41 19.68
-2 -1 -10 448.56 26.47
2 1 10 424.61 27.14
-2 -1 -10 416.97 25.62
-2 -1 -11 389.96 26.17
2 1 11 382.15 27.15
-2 -1 -11 400.66 26.42
-2 -1 -12 193.09 19.39
-2 -1 -12 142.76 16.91
2 1 12 185.53 20.15
2 2 -14 -5.84 4.39
-2 -2 14 0.79 2.56
-2 -2 14 -4.79 3.19
-2 -2 13 58.59 10.81
-2 -2 13 61.76 10.28
2 2 -13 32.93 8.05
2 2 -12 349.62 23.3
-2 -2 12 345.95 23.15
-2 -2 12 411.47 26.54
2 2 -11 508.37 23.53
-2 -2 11 515.94 28.02
2 2 -11 559.77 27.88
-2 -2 11 565.66 28.24
-2 -2 10 686.39 29.84
2 2 -10 665.4 21.49
2 2 -10 652.83 21.69
2 2 -10 707.45 28.91
2 2 -10 681.83 26.57
2 2 -9 95.15 9.78
2 2 -9 97.9 10.31
2 2 -9 95.26 8.17
-2 -2 9 123.47 12.22
2 2 -9 100.95 7.75
2 2 -8 19.44 4.27
2 2 -8 16.51 4.12
2 2 -8 18.06 3.57
2 2 -8 19.03 3.17
-2 -2 8 23.68 5.44
-2 -2 8 15.06 3.72
2 2 -7 284.52 13.3
2 2 -7 287.9 15.89
2 2 -7 284.69 10.58
-2 -2 7 284.82 13.66
2 2 -7 257.43 13.88
-2 -2 7 258.77 16.09
-2 -2 6 403.27 14.85
2 2 -6 394.52 15.4
2 2 -6 395.06 10.97
2 2 -6 394.63 18
2 2 -6 409.47 15.88
-2 -2 6 405.71 19.02
2 2 -5 908.82 22.81
-2 -2 5 927.34 20.52
-2 -2 5 891.23 13.89
2 2 -5 921.51 26.63
2 2 -5 877.27 20.8
-2 -2 5 903.71 26.99
2 2 -4 928.17 22.73
2 2 -4 901.07 18.44
-2 -2 4 936.71 13.74
2 2 -4 966.47 26.43
-2 -2 4 953.06 18.77
-2 -2 4 999.44 26.89
2 2 -3 108.96 5.88
-2 -2 3 114.15 6.1
2 2 -3 112.88 7.93
-2 -2 3 127.08 9.12
2 2 -3 118.54 9.02
-2 -2 2 52.12 4.1
2 2 -2 65.38 6.2
-2 -2 2 53.55 5.61
2 2 -2 59.4 6.29
2 2 -1 1101.28 24.77
2 2 -1 1149.14 22.89
2 2 -1 1087.29 13.7
-2 -2 1 1116.47 23.48
2 2 -1 1134.38 25.9
2 2 0 1420.14 18.26
-2 -2 0 1425.2 24.5
2 2 0 1493.14 26.5
2 2 0 1508.3 27.9
-2 -2 0 1431.69 18.13
2 2 0 1400.75 27.49
2 2 1 2201.09 27.33
2 2 1 2211.48 33.57
-2 -2 -1 2203.15 23.57
-2 -2 -1 2172.12 34.89
2 2 1 2183.8 32.84
-2 -2 -1 2197.38 27.4
-2 -2 -1 2157.52 26.93
-2 -2 -2 589.31 9.79
-2 -2 -2 559.48 11.82
2 2 2 591.99 19.86
-2 -2 -2 599.65 19.28
-2 -2 -2 594.81 16.17
2 2 2 592.18 16.37
2 2 3 479.06 19.22
-2 -2 -3 451.58 17.8
-2 -2 -3 423.9 7.3
2 2 3 453.23 13.38
-2 -2 -3 498.21 16.75
-2 -2 -3 457.43 13.88
-2 -2 -4 223.17 8.69
2 2 4 224.68 8.52
-2 -2 -4 236.85 12.81
-2 -2 -4 220.53 13.41
2 2 4 215.03 13.95
2 2 5 2.85 0.83
-2 -2 -5 0.11 1.79
2 2 5 4.45 2.77
-2 -2 -5 1.7 1.7
2 2 6 464.57 23.21
-2 -2 -6 485.65 21.69
-2 -2 -6 451.47 21.43
2 2 7 330.52 20.95
-2 -2 -7 343.44 19.59
2 2 8 274.75 20.49
-2 -2 -8 226.88 16.99
2 2 9 -3.17 3.59
-2 -2 -9 0.13 2.35
-2 -2 -10 9.47 4.79
2 2 10 -0.3 4.1
-2 -2 -10 5.37 3.73
-2 -2 -11 37.13 8.43
2 2 11 50.94 10.24
-2 -2 -11 58.22 10.44
-2 -3 14 50.59 10.01
2 3 -14 45.9 9.81
-2 -3 14 61.24 11.76
-2 -3 13 73.53 12.16
-2 -3 13 96.1 13.24
2 3 -13 71.63 11.35
2 3 -12 11.67 3.84
2 3 -12 7.29 3.85
-2 -3 12 14.21 5.15
2 3 -11 27.25 5.94
2 3 -11 30.69 6.83
-2 -3 11 46.16 8.57
-2 -3 10 698.59 31.71
2 3 -10 632.35 27.39
2 3 -10 647.87 22.21
2 3 -10 665.8 28.3
2 3 -9 926.14 23.54
2 3 -9 937.37 26.26
2 3 -9 899.52 30.59
-2 -3 9 906.37 34.66
2 3 -9 900.16 31.82
2 3 -8 529.31 16.53
2 3 -8 528.98 21.83
-2 -3 8 492.95 24.5
2 3 -8 494.26 18.89
2 3 -8 511.92 23.53
2 3 -7 53.39 7.52
-2 -3 7 62.42 5.9
-2 -3 7 67.64 8.8
2 3 -7 67.62 7.3
2 3 -7 49.68 5.99
-2 -3 6 99.74 6.63
2 3 -6 89.11 9.33
2 3 -6 100.81 8.41
-2 -3 6 90.2 5.73
2 3 -5 212.41 12.05
2 3 -5 216.28 8.86
-2 -3 5 228.45 14.67
-2 -3 5 214.78 8.73
2 3 -5 228.17 14.48
-2 -3 5 233.39 9
2 3 -4 443.65 17.42
-2 -3 4 400.1 12.26
-2 -3 4 455.4 11.31
-2 -3 4 423.73 19.02
2 3 -4 387.05 18.53
2 3 -3 1772.12 34.79
2 3 -3 1742.96 38.09
-2 -3 3 1836.33 21.84
-2 -3 3 1772.25 36.89
-2 -3 2 372.46 10.54
2 3 -2 347.54 10.26
-2 -3 2 361.04 15.85
2 3 -2 335.74 16.31
2 3 -2 339.07 15.31
2 3 -1 505.03 15.93
2 3 -1 524.92 19.79
2 3 -1 504.38 12.64
-2 -3 1 498.13 17.67
2 3 0 615.78 17.98
2 3 0 625.68 21.06
-2 -3 0 630.84 18.7
2 3 0 607.74 20.71
2 3 1 516.6 18.5
2 3 1 525.48 17.25
2 3 1 505.59 19.65
-2 -3 -1 560.78 20.45
-2 -3 -1 521.83 15.58
-2 -3 -1 517.43 15.31
-2 -3 -2 410.69 15.12
2 3 2 448.22 16.83
2 3 2 452.76 19.49
-2 -3 -2 425.14 18.48
-2 -3 -2 434.85 12.71
2 3 2 404.71 15.72
2 3 3 1507.09 37.43
-2 -3 -3 1469.42 35.85
-2 -3 -3 1526.91 20.22
-2 -3 -3 1412.22 12.91
-2 -3 -3 1437.38 13.13
-2 -3 -3 1524.24 32
2 3 3 1500.17 29
-2 -3 -4 420.51 20.32
2 3 4 424.7 21.2
2 3 4 445.25 14.89
-2 -3 -4 438.48 18.78
-2 -3 -5 249.98 15.24
-2 -3 -5 257.49 16.79
2 3 5 294.34 18.68
2 3 5 267.34 10.54
-2 -3 -6 24.11 5.57
-2 -3 -6 18.45 4.85
2 3 6 33.52 7.14
-2 -3 -7 53.19 8.83
2 3 7 45.52 8.73
-2 -3 -7 46.34 7.72
2 3 8 544.94 29.91
-2 -3 -8 566 28.02
2 3 9 248.84 21.33
-2 -3 -9 221.5 18.62
2 3 10 148.53 17.62
-2 -3 -10 162.69 16.81
-2 -3 -11 22.22 7.12
2 3 11 18.56 7.31
-2 -4 14 33.68 8.81
-2 -4 14 62.27 11.88
2 4 -14 39.37 9.32
2 4 -13 196.65 18.58
-2 -4 13 208.68 20.26
2 4 -12 187.34 16.63
-2 -4 12 209.61 19.65
2 4 -12 203.17 17.82
2 4 -11 64.31 9.6
-2 -4 11 60.56 10.31
2 4 -11 48.95 8.57
2 4 -10 58.39 7.17
-2 -4 10 63.01 10.41
2 4 -10 52.15 8.61
2 4 -10 48.79 8
2 4 -9 157.69 11.61
2 4 -9 139.75 13.63
-2 -4 9 117.57 13.4
2 4 -9 135.94 12.33
2 4 -8 451.84 19.41
2 4 -8 412.08 19.77
2 4 -8 432.57 23.29
-2 -4 8 465.3 25.31
2 4 -7 154.37 11.36
-2 -4 7 152.92 14.02
2 4 -7 190.55 15.12
2 4 -6 586.5 21.97
-2 -4 6 583.6 26.1
2 4 -6 615.24 26.48
-2 -4 5 902.66 13.97
2 4 -5 940.42 27.85
2 4 -5 944.63 32.13
-2 -4 5 970.16 32.31
-2 -4 4 209.78 6.2
2 4 -4 227.84 15.51
-2 -4 4 231.16 15.29
-2 -4 3 303.1 8.12
-2 -4 3 327.4 17.45
2 4 -3 311.43 17.66
2 4 -2 32.09 5.88
-2 -4 2 28.84 5.08
-2 -4 2 38.65 3.43
2 4 -1 712.56 19.75
-2 -4 1 696.96 23.2
2 4 -1 682.74 24.97
-2 -4 0 509.5 18.69
2 4 0 534.89 17.43
2 4 0 532.83 22.14
2 4 0 579.75 22.6
-2 -4 0 521.31 21.57
2 4 1 426.35 20.16
2 4 1 444.5 16.62
-2 -4 -1 445.67 20.54
-2 -4 -1 431.85 16.15
2 4 1 388.31 18.14
-2 -4 -2 58.84 6.41
2 4 2 58.44 6.45
-2 -4 -2 61.8 7.97
-2 -4 -2 46.94 4.98
2 4 2 56.96 7.92
2 4 2 56.79 6.79
-2 -4 -3 2.28 0.86
2 4 3 6.09 2.4
-2 -4 -3 2.19 2.1
-2 -4 -3 1.37 1.16
-2 -4 -3 0.93 2.44
-2 -4 -4 715.17 29.03
-2 -4 -4 723.71 25.76
2 4 4 762.64 22.88
-2 -4 -5 1006.13 35.98
2 4 5 1042.85 37.59
-2 -4 -5 1083.57 33.7
-2 -4 -6 777.8 30.48
-2 -4 -6 815.04 33.89
2 4 6 789.94 34.39
-2 -4 -7 124.62 13.83
2 4 7 140.8 15.38
-2 -4 -7 138.88 13.74
-2 -4 -8 3.51 3.02
2 4 8 5 3.89
-2 -4 -8 5.01 3.65
2 4 9 46.17 10.15
-2 -4 -9 36.4 7.76
2 4 10 166.36 19.32
-2 -4 -10 156.74 17.33
2 5 -13 6.62 3.05
2 5 -13 14.32 5.44
2 5 -12 162.79 16.23
2 5 -12 168.54 16.89
-2 -5 12 183.83 19.28
2 5 -11 156.02 15.01
2 5 -11 174.26 16.85
-2 -5 11 137.47 16.12
2 5 -10 147.16 13.97
2 5 -10 162.79 15.95
-2 -5 10 183.88 18.08
2 5 -9 233.28 18.78
-2 -5 9 226.16 19.44
2 5 -8 -1.28 2.24
-2 -5 8 -3.78 3.33
-2 -5 7 181.77 16.19
2 5 -7 201.3 16.89
-2 -5 6 162.06 14.92
2 5 -6 131.52 13.45
-2 -5 5 491.26 24.58
2 5 -5 476.33 24.72
-2 -5 4 958.29 33.08
2 5 -4 936.24 33.98
-2 -5 3 344.74 7.09
-2 -5 3 380.98 7.59
-2 -5 3 385.88 20.48
2 5 -2 6.76 3.29
-2 -5 2 3.96 1.31
-2 -5 2 7.1 3.2
2 5 -1 13.25 4.22
-2 -5 1 12.45 3.76
2 5 0 267.34 12.96
-2 -5 0 250.39 14.39
-2 -5 0 242.32 16.42
2 5 0 249.48 16.62
2 5 1 565.5 19.55
2 5 1 523.37 23.38
2 5 1 566.13 25.86
-2 -5 -1 543.09 20.12
-2 -5 -1 507.53 24.24
2 5 2 613.11 21.46
2 5 2 617.79 24.74
2 5 2 649.94 28.34
-2 -5 -2 586.89 26.7
-2 -5 -2 630.22 20.27
2 5 3 1.73 2.17
2 5 3 6.39 2.64
2 5 3 2.75 3.15
-2 -5 -3 6.38 3.07
-2 -5 -3 6.57 3.41
-2 -5 -3 6.04 2.1
2 5 4 12.32 3.66
-2 -5 -4 12.82 4.21
2 5 4 17.43 5.25
-2 -5 -4 15.44 5.14
-2 -5 -5 53.4 9.1
2 5 5 67.7 10.52
-2 -5 -5 72.05 9.38
-2 -5 -6 221.03 17.28
-2 -5 -6 194.92 18.03
2 5 6 246.35 20.79
-2 -5 -7 319.69 21.83
-2 -5 -7 289.55 22.66
2 5 7 337.38 25.22
-2 -5 -8 134.79 16.14
2 5 8 134.86 16.76
-2 -5 -8 141.09 15.38
-2 -5 -9 125.03 15.35
2 5 9 115.56 16.06
-2 -6 13 150.04 18.64
2 6 -13 143.63 16.92
2 6 -13 148.17 16.6
2 6 -12 12.5 4.55
-2 -6 12 21.33 7.26
2 6 -12 20.36 6
-2 -6 11 13.12 5.21
2 6 -11 11.09 4.88
2 6 -11 9.88 4.49
-2 -6 10 18.41 6.05
2 6 -10 22.97 6.79
-2 -6 9 292.78 23.19
2 6 -9 277.44 21.86
-2 -6 8 534.44 30.06
2 6 -8 553.93 30.49
-2 -6 7 691.46 33.2
2 6 -7 683.53 33.21
2 6 -6 6.15 4.1
-2 -6 6 16.52 5.35
2 6 -5 73.73 10.78
-2 -6 5 76.69 10.48
2 6 -4 472.35 26.27
-2 -6 4 486.66 25.34
-2 -6 3 705.61 29.55
2 6 -3 695.27 31.44
-2 -6 2 525.09 24.63
2 6 -2 616.9 29.19
-2 -6 1 378.27 20.14
-2 -6 1 383.8 22.38
2 6 -1 367.6 22.36
-2 -6 0 -0.22 2.65
-2 -6 0 3.64 2.49
2 6 0 2.68 2.86
2 6 0 2.65 1.76
2 6 1 123.16 9.49
2 6 1 101.54 12.38
-2 -6 -1 120.74 10.58
-2 -6 -1 124.46 13.28
2 6 1 129.64 12.99
2 6 2 895.84 26.86
2 6 2 948.87 37.55
-2 -6 -2 922.52 27.22
-2 -6 -2 881.22 35.77
2 6 2 944.35 33.72
2 6 3 173.85 12.62
2 6 3 162.12 16.22
-2 -6 -3 172.64 16.32
2 6 3 167.79 13.97
2 6 4 294.53 17.35
-2 -6 -4 281.46 21.55
2 6 4 288.93 22.05
-2 -6 -4 267.53 18.23
-2 -6 -5 55.65 8.85
2 6 5 48.07 7.49
2 6 5 52.66 10.12
-2 -6 -5 47.33 9.17
-2 -6 -6 67.01 10.2
2 6 6 70.2 11.81
-2 -6 -6 60.54 11
-2 -6 -7 102.62 14.64
2 6 7 65.54 11.94
-2 -6 -7 69.97 11.09
2 7 -12 74.66 12.77
-2 -7 12 68.43 13.08
-2 -7 11 187.64 20.66
2 7 -11 166.03 18.72
2 7 -10 182.83 19.34
-2 -7 10 139.61 17.31
2 7 -9 14.12 5.16
-2 -7 9 15.15 6.07
-2 -7 8 49.44 10.01
2 7 -8 69.73 11.49
-2 -7 7 232.62 20.58
2 7 -7 267.98 22.2
-2 -7 6 155.17 16.27
2 7 -6 156.73 16.97
2 7 -5 62.33 10.89
-2 -7 5 76.77 11.23
2 7 -4 40.75 8.57
-2 -7 4 34.1 7.66
2 7 -3 1.13 2.85
-2 -7 3 0.81 2.46
2 7 -2 37.97 8.17
-2 -7 2 40.93 7.63
-2 -7 1 435.54 23.25
-2 -7 1 467.43 26.98
2 7 -1 484.42 27.59
-2 -7 0 208.53 15.62
-2 -7 0 218.58 18.82
2 7 0 223.26 18.6
-2 -7 -1 536.77 23.98
-2 -7 -1 521.76 29.32
2 7 1 567.92 29.01
2 7 2 43.31 8.15
2 7 2 40.16 9.11
-2 -7 -2 50.07 9.55
2 7 3 20.9 5.83
2 7 3 17.28 6.28
-2 -7 -3 34.42 7.9
2 7 4 20.8 6.82
-2 -7 -4 26.16 7.35
-2 -7 -5 95.08 13.91
2 7 5 70.73 12.3
2 7 6 172.74 19.67
-2 -7 -6 138.72 15.63
-2 -7 -6 148.78 18.04
-2 -8 11 82.32 14.29
2 8 -11 74.91 13.71
-2 -8 10 185.46 20.75
2 8 -10 172.67 19.88
2 8 -9 136.69 17.64
-2 -8 9 146.56 18.27
-2 -8 8 46.32 10.1
2 8 -8 36.6 8.88
2 8 -7 52.91 10.97
-2 -8 7 32.52 8.08
2 8 -6 105.29 14.85
-2 -8 6 65.48 11.28
2 8 -5 82.22 13.13
-2 -8 5 75.23 11.74
-2 -8 4 231.03 19.91
2 8 -4 215.36 20.52
-2 -8 3 187.8 17.38
2 8 -3 197.5 19.49
-2 -8 2 54.06 9.2
2 8 -2 47.54 9.82
-2 -8 2 55.18 10.31
-2 -8 1 3.05 2.39
-2 -8 1 9.73 4.78
2 8 -1 8.75 4.49
-2 -8 0 30.01 6.61
2 8 0 44.5 9.26
-2 -8 0 36.71 8.58
2 8 1 106.5 13.64
-2 -8 -1 111.53 14.79
-2 -8 -2 456.17 30.35
2 8 2 513.68 29.21
-2 -8 -3 193.07 20.26
2 8 3 133.3 17.43
2 8 4 96.5 15.01
-2 -8 -4 88.39 14.24
2 9 -8 74.31 13.67
-2 -9 8 65.07 12.72
2 9 -7 139.23 18.32
-2 -9 7 114.4 16.06
2 9 -6 150.37 18.97
-2 -9 6 155.8 18.3
2 9 -5 33.9 9.06
-2 -9 5 34.45 8.7
-2 -9 4 13.27 4.42
2 9 -4 22.23 7.65
2 9 -3 118.27 16.39
-2 -9 3 104.46 14.72
-2 -9 3 94.95 13.29
-2 -9 2 194.79 18.27
-2 -9 2 193.21 20.18
2 9 -2 182.39 19.73
2 9 -1 58.65 11.37
-2 -9 1 64.34 10.32
-2 -9 1 71.02 12.62
2 9 0 69.54 12.25
-2 -9 0 39.28 9.49
2 9 1 3.61 4.15
-2 -9 -1 -5.45 4.15
3 -11 0 23.71 6.62
-3 11 0 7.14 5.36
3 -11 0 30.22 8.05
-3 11 -1 -4.38 6.32
3 -11 1 0.9 2.25
3 -11 1 7.07 3.76
3 -11 2 107.23 14.34
-3 11 -2 121.31 17.59
3 -11 2 118.46 15.32
3 -11 3 203.48 21.44
3 -11 3 190.04 18.74
3 -11 3 191.67 19.51
-3 11 -3 183.26 21.28
3 -11 4 169.89 19.7
3 -11 4 171.28 17.67
-3 11 -4 229.81 23.97
-3 11 -5 9.73 6.39
3 -11 5 23.89 6.97
3 -11 5 14.96 6.35
-3 11 -6 12.93 6.09
3 -11 6 10.8 4.97
3 -10 -3 0.18 2.18
-3 10 3 -1.74 3.13
3 -10 -3 0.87 2.4
-3 10 2 48.78 10.62
3 -10 -2 46.56 9.32
3 -10 -2 45.69 8.57
3 -10 -1 279.85 22.29
3 -10 -1 275.63 21.08
-3 10 1 268.07 24.01
3 -10 0 351.36 23.91
-3 10 0 350.21 27.35
3 -10 0 320.9 23.4
3 -10 1 190.88 17.75
-3 10 -1 210.37 21.54
3 -10 1 182.71 17.45
3 -10 2 42.55 8.57
3 -10 2 38.61 8.28
-3 10 -2 45.1 10.19
-3 10 -3 62.9 12.07
3 -10 3 44.89 8.67
3 -10 3 48.78 9.96
-3 10 -4 41.82 9.87
3 -10 4 21.64 5.76
3 -10 4 32.79 8.54
-3 10 -5 290.88 25.18
3 -10 5 314.55 25.62
3 -10 6 194.34 20.5
-3 10 -6 211.88 21.66
-3 10 -7 138.79 17.6
3 -10 7 150.89 18.36
-3 10 -8 21.73 7.39
3 -10 8 27.07 7.94
-3 10 -9 -12.25 5.75
3 -10 9 -5.71 3.6
3 -9 -6 187.18 19.65
-3 9 6 177.92 18.68
3 -9 -5 73.05 11.98
-3 9 5 86.13 12.96
-3 9 5 82.15 12.56
-3 9 4 354.8 23.05
3 -9 -4 322.9 21.24
-3 9 4 386.12 26.86
3 -9 -4 307.36 23.56
-3 9 3 119.64 12.78
-3 9 3 116.11 14.77
3 -9 -3 110.96 13.89
3 -9 -3 89.5 11.35
-3 9 2 40.27 9.12
-3 9 2 39.85 7.17
3 -9 -2 38.96 7.66
3 -9 -2 44.07 8.43
3 -9 -1 34.25 7.45
-3 9 1 41.67 9.36
3 -9 -1 26.6 6.48
-3 9 0 44.81 9.44
3 -9 0 56.81 9.19
3 -9 0 39.63 7.99
3 -9 1 276.56 19.57
-3 9 -1 301.23 23.62
3 -9 1 299.14 21.04
3 -9 2 259.49 19.92
3 -9 2 251.32 20.79
3 -9 2 234.11 17.79
-3 9 -2 245.47 21.44
3 -9 3 128.49 13.06
-3 9 -3 133.08 15.9
3 -9 3 109.16 13.92
-3 9 -4 31.15 7.9
3 -9 4 53.27 10.12
-3 9 -5 18.39 6.54
3 -9 5 8.46 4.93
-3 9 -6 176.3 18.47
3 -9 6 160.44 17.42
3 -9 7 198.82 19.65
-3 9 -7 213.5 20.33
-3 9 -8 75.14 12.33
3 -9 8 76.1 12.49
-3 9 -9 105.95 14.72
3 -9 9 119.15 15.89
3 -9 10 0.13 3.21
-3 9 -10 0.28 3.53
3 -8 -7 217.47 20.55
-3 8 7 241.22 20.81
-3 8 6 127.17 14.87
-3 8 6 103.04 13.33
-3 8 6 121.49 14.31
3 -8 -6 108.65 14.24
-3 8 5 -0.67 2.61
-3 8 5 -0.8 3.33
3 -8 -5 1.98 2.62
-3 8 5 -7.41 3.5
3 -8 -5 0.54 1.43
-3 8 4 67.57 9.81
-3 8 4 61.86 9.55
-3 8 4 78.57 11.61
3 -8 -4 72.19 10.78
3 -8 -4 62.86 9.03
-3 8 3 428.54 23.2
3 -8 -3 457.58 23.83
3 -8 -3 458.67 25.7
-3 8 3 483.23 27.81
-3 8 2 660.61 27.26
-3 8 2 643.16 31.88
3 -8 -2 631.37 29.07
3 -8 -2 657.72 28.54
-3 8 1 350.56 18.9
3 -8 -1 322.58 20.19
3 -8 -1 333.48 20.63
-3 8 1 307.61 21.91
-3 8 0 84.69 11.86
-3 8 0 79.33 8.64
3 -8 0 61.03 9.04
-3 8 -1 122.9 10.25
-3 8 -1 106.48 13.26
3 -8 1 136.36 12.63
3 -8 1 119.7 12.52
-3 8 -2 87.33 8.21
3 -8 2 114.83 13.2
3 -8 2 106.88 10.96
-3 8 -2 102.53 13.07
3 -8 3 474.26 22.75
3 -8 3 466.59 26.73
-3 8 -3 456.92 17.86
-3 8 -3 466.96 27.21
3 -8 4 181 17.05
-3 8 -4 240.62 19.68
3 -8 5 453.18 26.99
-3 8 -5 481.12 28.13
-3 8 -6 34.51 8.17
3 -8 6 31.41 7.24
-3 8 -7 13.93 5.24
3 -8 7 5.14 3.71
-3 8 -8 296.73 22.52
3 -8 8 270.33 21.79
-3 8 -9 97.77 13.03
3 -8 9 121.25 15.03
-3 8 -9 141.91 16.36
-3 8 -10 74.9 11.41
-3 8 -10 59.44 10.83
3 -8 10 53.45 10.28
-3 8 -11 100.9 14.46
3 -8 11 110.86 14.87
-3 7 9 11.83 4.95
3 -7 -9 8.35 5.06
-3 7 8 66.54 10.84
3 -7 -8 43.07 9.62
3 -7 -7 159.22 17.14
-3 7 7 137.1 15.38
-3 7 7 124.01 14.01
-3 7 7 140.3 14.47
3 -7 -6 329.84 22.87
-3 7 6 326.56 22.64
-3 7 6 369.52 22.92
-3 7 6 332.67 22.03
3 -7 -6 354.78 20.02
-3 7 5 406.29 23.97
3 -7 -5 401.5 24.11
3 -7 -5 386.7 20.82
-3 7 5 380.26 22.29
-3 7 4 417.61 23.17
3 -7 -4 462.3 24.9
3 -7 -4 390.76 20.71
-3 7 4 383.61 21.52
-3 7 3 7.37 3.11
-3 7 3 13.38 4.45
3 -7 -3 12.63 4.27
3 -7 -3 13.52 3.92
-3 7 2 7.74 3.32
3 -7 -2 13.96 4.38
3 -7 -2 9.51 3.64
-3 7 1 210.06 14.18
-3 7 1 201.44 16.49
3 -7 -1 184.71 13.74
3 -7 -1 206.09 15.17
-3 7 0 405.74 18.64
3 -7 0 402.3 19.82
3 -7 0 396.43 20.92
-3 7 0 428.7 23.93
-3 7 -1 673.34 22.91
3 -7 1 710.15 25.64
-3 7 -1 744.94 31.41
3 -7 1 754.65 29.08
-3 7 -2 123.97 9.66
3 -7 2 123.49 12.6
3 -7 2 106.06 9.77
-3 7 -2 106.28 12.09
-3 7 -3 51.1 8.46
-3 7 -3 57.35 6.44
3 -7 3 58.01 8.92
3 -7 4 21.91 5.73
3 -7 4 20.52 2.73
-3 7 -4 20.49 5.28
-3 7 -4 19.95 4.02
3 -7 5 400.54 13.92
3 -7 5 409.34 23.84
-3 7 -5 380.78 22.98
-3 7 -5 399.35 16.73
-3 7 -6 322.46 15.39
3 -7 6 324.71 21.68
-3 7 -6 321.1 21.38
-3 7 -7 433.46 25.69
-3 7 -7 386.32 17.56
3 -7 7 379.93 23.74
-3 7 -7 417.85 24.46
-3 7 -8 134.94 14.92
3 -7 8 133.66 14.52
-3 7 -8 145.4 14.6
3 -7 9 -4.61 3.41
-3 7 -9 0.61 2.45
-3 7 -9 4.11 3.52
3 -7 10 1.72 3.01
-3 7 -10 -3.05 2.77
-3 7 -10 2.53 2.76
-3 7 -11 161.03 17.65
3 -7 11 210.29 19.09
-3 7 -12 254.18 22.81
3 -7 12 263.51 21.85
3 -6 -10 207.56 20.93
-3 6 10 211.1 19.68
-3 6 9 153.76 15.99
3 -6 -9 152.05 17.07
-3 6 8 213.18 19.39
-3 6 8 233.23 18.8
3 -6 -8 250.97 20.99
-3 6 7 -0.39 2.93
-3 6 7 3.4 3.2
3 -6 -7 -1.04 3.33
3 -6 -7 0.62 1.78
-3 6 6 115.8 13.15
3 -6 -6 131.97 13.52
-3 6 6 109.92 11.87
3 -6 -6 119.49 13.4
3 -6 -6 127.29 11.41
-3 6 5 149.77 14.2
3 -6 -5 130.63 12.88
3 -6 -5 159.12 12.68
-3 6 5 162.4 13.41
3 -6 -5 141.46 13.94
-3 6 4 704.57 28.85
3 -6 -4 763.12 29.21
-3 6 4 739.51 27.35
3 -6 -4 732.57 26.77
-3 6 3 405.78 20.78
3 -6 -3 393.66 20.06
-3 6 3 420.06 19.56
3 -6 -3 427.41 20.3
-3 6 2 157.03 12.38
3 -6 -2 142.63 11.56
-3 6 2 134.54 10.71
3 -6 -2 136.08 11.59
-3 6 1 36.11 5.87
3 -6 -1 38.44 5.73
3 -6 -1 42.94 6.38
-3 6 0 13.07 3.64
-3 6 0 12.91 1.99
3 -6 0 14.16 4.02
3 -6 0 3.99 2.22
-3 6 -1 374.82 16.51
3 -6 1 408.55 17.08
3 -6 1 417.58 20.05
-3 6 -2 828.15 23.83
3 -6 2 875.31 24.7
3 -6 2 905.23 31.24
-3 6 -2 781.73 29.29
-3 6 -3 560.1 25.12
-3 6 -3 535.8 19.05
3 -6 3 546.65 24.5
3 -6 3 507.3 13.69
-3 6 -4 153.95 10.32
3 -6 4 135.68 8.01
3 -6 4 127.9 12.26
-3 6 -4 161.23 13.64
-3 6 -5 141.73 12.84
-3 6 -5 103.82 11.58
-3 6 -5 135.12 9.95
3 -6 5 139.92 12.9
3 -6 6 145.71 13.43
-3 6 -6 126.02 9.99
-3 6 -6 117.01 12.5
-3 6 -6 136.3 12.72
-3 6 -7 134.53 12.9
-3 6 -7 109.67 12.56
3 -6 7 132.09 13.11
-3 6 -8 1100.25 40.02
3 -6 8 1073.63 37.68
-3 6 -8 1134.24 36.91
-3 6 -9 57.48 8.59
3 -6 9 45.89 8.34
-3 6 -9 42.38 8.77
-3 6 -10 263.19 21.04
3 -6 10 251.45 19.17
-3 6 -11 8.71 4.08
3 -6 11 9.37 3.89
-3 6 -12 35.5 8.59
-3 6 -12 10.22 5.34
3 -6 12 27.97 8.5
-3 6 -13 121.23 15.99
3 -6 13 116.79 16.61
-3 6 -13 130.61 17.8
3 -5 -11 81.05 13.19
-3 5 11 81.49 12.44
3 -5 -10 2.37 4.22
-3 5 10 1.41 3.04
-3 5 9 66.4 10.93
-3 5 9 75.07 10.67
3 -5 -9 83.98 12.23
-3 5 8 310.07 22.43
3 -5 -8 324.63 22.43
-3 5 8 353.23 21.77
3 -5 -8 327.62 18.33
-3 5 7 831.34 34.81
3 -5 -7 837.93 34.22
-3 5 7 803.5 30.87
3 -5 -7 772.76 27.62
-3 5 6 244.89 18
3 -5 -6 241.94 17.79
-3 5 6 224.46 15.46
3 -5 -6 232.17 14.77
-3 5 5 65.77 9.21
-3 5 5 67.65 8.02
3 -5 -5 49.63 7.35
3 -5 -5 53.82 8.06
3 -5 -5 44.41 6.43
-3 5 4 24.82 5.7
-3 5 4 32.97 5.27
3 -5 -4 36.99 6.49
3 -5 -4 26.81 5.18
3 -5 -4 26.48 5.13
-3 5 3 383.09 19.25
3 -5 -3 389.38 18
-3 5 3 384.76 16.77
3 -5 -3 366.5 17.68
3 -5 -2 272.28 14.09
-3 5 2 241.73 12.59
-3 5 2 266.82 15.29
3 -5 -2 250.39 14.47
-3 5 1 1935.77 38.99
3 -5 -1 1844.97 38.77
-3 5 0 858.53 24.87
3 -5 0 844.06 26.21
3 -5 0 848.24 22.07
-3 5 0 809.9 17.12
-3 5 -1 490.85 18.21
3 -5 1 481.71 15.87
3 -5 1 524.17 20.67
-3 5 -2 237.86 12.59
3 -5 2 222.52 9.45
3 -5 2 244.17 14.87
-3 5 -3 1103.26 32.97
-3 5 -3 1098.97 27.04
3 -5 3 1085.62 22.51
3 -5 3 1133.76 32.35
-3 5 -4 598.37 24.8
-3 5 -4 528.78 18.97
3 -5 4 516.91 16.9
3 -5 4 532.97 22.52
-3 5 -4 529.99 22.35
-3 5 -5 378.7 18.81
-3 5 -5 381.97 20.43
3 -5 5 387.82 19.57
-3 5 -6 88.81 10.42
3 -5 6 85.81 9.45
-3 5 -6 100.02 9.87
-3 5 -7 356.3 18.76
-3 5 -7 369.97 21.58
3 -5 7 333.48 18.99
-3 5 -8 105.75 12.19
3 -5 8 102.56 10.92
-3 5 -8 105.51 10.28
-3 5 -9 117.96 13.42
3 -5 9 120.58 11.92
-3 5 -9 150.69 12.2
-3 5 -10 328.13 23.04
3 -5 10 341.77 20.46
-3 5 -11 190.43 18.99
3 -5 11 214.71 20.05
-3 5 -11 224.7 19.86
-3 5 -12 96.67 13.66
3 -5 12 101.29 14.51
-3 5 -12 123.84 16.03
-3 5 -13 5.89 4.08
-3 5 -13 6.99 4.35
3 -5 13 15.76 7.5
3 -4 -12 222.69 21.76
-3 4 12 192.3 19.54
-3 4 11 443.05 27.6
3 -4 -11 465.47 29.86
3 -4 -10 360.25 25.03
-3 4 10 364.87 23.68
-3 4 9 119.97 14.44
-3 4 9 92.57 11.35
3 -4 -9 100.35 10.25
3 -4 -9 106.54 13.06
-3 4 8 2.82 4.02
-3 4 8 0.72 2.13
3 -4 -8 -0.06 2.62
3 -4 -8 1.45 2.19
-3 4 7 166.81 13.33
3 -4 -7 165.88 12.38
-3 4 7 171.29 15.4
3 -4 -7 172.37 14.66
-3 4 6 347.91 20.48
3 -4 -6 375.19 20.43
-3 4 6 383.32 18.71
3 -4 -6 360.95 17.84
3 -4 -5 1153.36 33.93
-3 4 5 1110.47 34.81
3 -4 -5 1090.7 29.99
-3 4 5 1109.97 29.42
-3 4 4 839.19 28.57
3 -4 -4 867.91 25.99
3 -4 -4 855.46 27.61
-3 4 4 858.92 23.67
3 -4 -4 840.81 25.76
-3 4 3 26.04 5.1
-3 4 3 24.78 3.81
3 -4 -3 19.7 4.03
3 -4 -3 20.32 4.38
3 -4 -3 21.07 3.91
-3 4 2 207.88 12.92
3 -4 -2 193.54 10.51
-3 4 2 188.81 9.47
3 -4 -2 199.52 12.01
-3 4 1 660.24 21.76
3 -4 -1 682.89 21.97
3 -4 -1 627.89 17.28
-3 4 0 1454.75 31.02
3 -4 0 1435.07 23.59
3 -4 0 1435.17 31.58
3 -4 1 809.92 18.67
3 -4 1 871.65 17.26
3 -4 1 888.92 24.8
-3 4 -1 871.38 23.63
-3 4 -2 346.55 16.69
-3 4 -2 379.67 15.52
3 -4 2 352.75 12.79
3 -4 2 357.93 15.76
-3 4 -3 36.77 5.08
3 -4 3 29.45 4.07
3 -4 3 31.57 5.13
-3 4 -3 33.12 5.65
-3 4 -4 42.22 6.37
3 -4 4 41.19 5.89
-3 4 -5 69.39 7.23
-3 4 -5 79.91 8.94
3 -4 5 90.92 8.67
-3 4 -6 586.43 25.07
3 -4 6 589.92 22.23
-3 4 -6 606.99 21.45
-3 4 -7 358.25 16.65
-3 4 -7 369.69 20.79
3 -4 7 346.24 17.38
-3 4 -8 339.53 21.03
3 -4 8 344.55 17.78
-3 4 -8 343.4 16.19
3 -4 9 1.5 1.25
-3 4 -9 1.12 2.28
3 -4 9 -0.88 2.8
3 -4 10 5.59 2.61
-3 4 -10 6.09 3.55
-3 4 -10 11.1 4.77
3 -4 10 3.53 4.56
3 -4 11 141.91 16.27
-3 4 -11 161.55 17.28
-3 4 -11 146.71 15.91
-3 4 -12 21.32 6.91
3 -4 12 30.61 8.25
-3 4 -12 46.52 9.85
3 -4 13 173.88 19.87
-3 4 -13 194.38 20.14
-3 4 -13 186.85 20.22
-3 3 12 46.94 9.51
3 -3 -12 65.46 11.97
-3 3 11 124.42 14.23
3 -3 -11 134.66 15.46
-3 3 10 396.82 26.03
3 -3 -10 368.16 24.05
-3 3 10 391.18 23.62
-3 3 9 965.77 38.27
-3 3 9 982.55 35.06
3 -3 -9 1066.78 38.7
-3 3 8 434.42 24.48
-3 3 8 453.99 22.14
3 -3 -8 487.09 21.45
3 -3 -8 444.79 23.8
-3 3 7 115.83 12.14
-3 3 7 112.61 10.37
3 -3 -7 124.1 10.58
3 -3 -7 91.25 10.11
-3 3 6 113.11 11.37
3 -3 -6 95.73 9.82
3 -3 -6 97.71 9.03
-3 3 6 100.86 8.95
-3 3 5 275.98 16.58
3 -3 -5 290.71 15.06
-3 3 5 298.3 13.92
3 -3 -5 283.6 15.59
-3 3 4 485.92 20.71
3 -3 -4 459.59 18.09
3 -3 -4 528.14 19.7
-3 3 4 504.78 16.32
-3 3 3 2176.64 41.47
3 -3 -3 2052.75 36.88
-3 3 3 2122.87 29.28
3 -3 -3 2152.59 38.22
-3 3 2 527.56 19.48
3 -3 -2 485.57 12.44
-3 3 2 487.75 12.17
3 -3 -2 500.99 17.94
-3 3 1 480.49 17.78
3 -3 -1 481.56 12.35
3 -3 -1 481.29 10.89
-3 3 1 476.96 12.56
3 -3 -1 504.41 17.64
-3 3 0 9.65 2.89
3 -3 0 14.57 1.95
3 -3 0 15.44 3.4
3 -3 0 14.19 1.95
-3 3 -1 38.54 5.21
-3 3 -1 35.12 5
3 -3 1 31.45 4.06
3 -3 1 33.25 2.41
3 -3 1 33.29 4.66
-3 3 -2 1621.85 31.72
-3 3 -2 1639.65 33.45
3 -3 2 1721.5 29.71
3 -3 2 1662.74 30.92
3 -3 3 1937.46 33.36
-3 3 -3 1988.48 38.47
3 -3 3 2021.35 34.35
3 -3 4 879 23.24
-3 3 -4 874.85 26.91
3 -3 5 380.34 8.71
3 -3 5 380.95 15.49
-3 3 -5 383.19 18.77
-3 3 -5 384.48 14.81
3 -3 6 14.5 4.11
3 -3 6 15.96 3.39
-3 3 -6 10.07 3.59
-3 3 -6 15.75 3.22
-3 3 -7 512.49 23.98
3 -3 7 489.58 18.23
3 -3 7 469.93 22.24
-3 3 -7 496.42 16.53
-3 3 -8 429.07 23.23
3 -3 8 420.02 22.55
3 -3 8 372.55 16.18
-3 3 -8 398.86 14.1
3 -3 9 343.37 21.96
3 -3 9 357.11 16.26
-3 3 -9 358.16 22.68
-3 3 -9 367.32 22.67
-3 3 -10 526.68 28.81
3 -3 10 433.07 26.05
-3 3 -10 460.49 26.6
3 -3 11 23.51 6.98
-3 3 -11 46.01 9.45
-3 3 -11 40.3 8.62
-3 3 -12 5.27 3.95
3 -3 12 -0.1 3.84
-3 3 -12 0.37 1.38
3 -3 13 195.17 20.88
-3 3 -13 198.68 20.77
-3 3 -13 198.35 20.18
-3 2 13 281.16 23.46
3 -2 -13 266.55 23.4
-3 2 12 149.6 16.07
3 -2 -12 126.52 15.42
3 -2 -11 61.31 10.16
-3 2 11 92.08 11.89
-3 2 10 18.74 6.23
-3 2 10 8.12 3.37
3 -2 -10 19.85 5.88
-3 2 9 110.02 12.58
-3 2 9 102.97 10.97
3 -2 -9 118.21 12.35
-3 2 8 473.2 24.4
3 -2 -8 499.63 23.55
-3 2 8 464.47 21.61
-3 2 7 12.16 4.37
3 -2 -7 18.91 4.79
-3 2 7 9.97 2.97
3 -2 -7 12.89 3.63
3 -2 -6 1145.6 30.15
-3 2 6 1106.04 27.76
-3 2 6 1115.14 33.36
3 -2 -6 1119.22 30.44
3 -2 -5 871.34 25.22
-3 2 5 868.09 22.02
-3 2 5 886.99 28.2
3 -2 -5 849.08 24.77
3 -2 -4 65.93 6.34
-3 2 4 73.43 8.04
-3 2 4 64.91 5.29
3 -2 -4 64.22 6.68
-3 2 3 71.21 7.45
-3 2 3 66.36 4.42
3 -2 -3 78.43 7.11
3 -2 -3 63.98 5.87
-3 2 2 929.06 24.65
3 -2 -2 919.09 23
-3 2 2 884.65 17.51
-3 2 2 859.86 11.76
3 -2 -2 890.78 19.06
-3 2 1 468.03 16.99
3 -2 -1 477.82 16.1
-3 2 1 472.35 10.15
-3 2 0 325.39 13.89
3 -2 0 307.56 12.6
-3 2 0 303.54 11.95
3 -2 0 319.16 12.73
-3 2 -1 532.79 17.71
3 -2 1 559.4 17.1
3 -2 1 550.44 10.82
-3 2 -1 569.94 17.23
3 -2 1 563.37 16.54
3 -2 2 413.87 11.86
3 -2 2 412.1 15.18
-3 2 -2 414.19 15.78
3 -2 2 418.01 14.01
3 -2 3 2.3 1.75
3 -2 3 4.57 1.45
3 -2 3 3.15 1.65
-3 2 -3 2.06 1.98
3 -2 3 1.92 0.88
3 -2 4 1341.29 18.68
3 -2 4 1269.55 21.15
3 -2 4 1324.68 28.45
-3 2 -4 1353.88 32.33
3 -2 4 1245.25 24.26
3 -2 5 453.16 18.41
-3 2 -5 464.5 20.08
3 -2 5 458.88 9.77
3 -2 6 1307.11 34.08
3 -2 6 1274.66 24.5
-3 2 -6 1344.13 22.28
-3 2 -6 1347.69 36.44
-3 2 -7 67.58 8.8
3 -2 7 62.18 5.6
3 -2 7 64.98 8.51
-3 2 -7 61.23 8.33
-3 2 -7 64.02 4.5
3 -2 8 26.51 3.81
-3 2 -8 22.59 5.84
3 -2 8 46.19 7.59
-3 2 -8 41.95 7.33
-3 2 -9 36.8 7.52
3 -2 9 51.81 8.67
-3 2 -9 44.66 8.15
3 -2 10 102.03 13.09
-3 2 -10 87.88 11.83
-3 2 -10 97.29 12.48
3 -2 11 386.97 26.27
-3 2 -11 326.38 23.8
-3 2 -11 368.34 25.08
3 -2 12 425.35 29.17
-3 2 -12 418.32 28.29
-3 2 -12 410.48 27.92
-3 2 -13 94.38 14.31
3 -2 13 107.21 15.59
-3 2 -13 73.5 12.56
3 -1 -13 78.75 12.59
-3 1 13 99.36 13.8
-3 1 12 45.68 8.89
3 -1 -12 65.17 10.84
-3 1 11 417.09 25.82
-3 1 11 395.88 24.13
3 -1 -11 433.49 25.43
-3 1 10 258.95 18.25
3 -1 -10 262.75 14.24
-3 1 10 284.54 20.11
3 -1 -10 279.15 19.19
-3 1 9 1046.33 36.52
-3 1 9 970.57 32.72
3 -1 -9 1004.54 34.09
-3 1 8 40.98 7.22
-3 1 8 39.27 6.24
3 -1 -8 42.09 6.75
-3 1 7 66.88 8.48
-3 1 7 73.61 7.66
3 -1 -7 66.04 7.65
-3 1 6 606.48 23.52
-3 1 6 610.05 19.84
3 -1 -6 674.03 22.92
3 -1 -6 607.41 20.93
-3 1 5 1832.51 38.25
3 -1 -5 1831.43 36.21
-3 1 5 1804.87 30.3
3 -1 -5 1789.84 32.84
-3 1 4 1737.37 35.5
-3 1 4 1664.17 25.17
3 -1 -4 1716.28 33.44
3 -1 -4 1745.72 29.09
-3 1 3 839.07 23.28
3 -1 -3 827.22 13.96
3 -1 -3 859.74 22.62
3 -1 -3 825.75 17.65
-3 1 3 788.7 14.14
-3 1 2 70.44 6.67
3 -1 -2 64.03 6.01
-3 1 2 63.1 4.41
-3 1 2 58.02 2.75
3 -1 -2 68.13 4.11
-3 1 1 45.44 5.31
-3 1 1 47.07 3.48
-3 1 1 44.6 3.8
3 -1 -1 44.74 4.76
3 -1 -1 44.04 3.69
3 -1 0 677.59 15.65
-3 1 0 693.89 19.72
3 -1 0 664.05 19.11
3 -1 0 694.95 9.3
-3 1 0 683.07 16.14
3 -1 0 691.54 17.49
3 -1 1 1926.46 28.1
3 -1 1 1891.6 32.69
-3 1 -1 1825.13 14.5
3 -1 1 1914.72 21.89
-3 1 -1 1919.41 29.87
3 -1 1 1918.33 27.79
3 -1 2 1343.31 22.76
3 -1 2 1444.74 29.55
3 -1 2 1388.7 23.11
3 -1 2 1425.32 16.85
3 -1 2 1388.99 22.81
-3 1 -2 1375.75 27.82
-3 1 -3 171.36 10.79
3 -1 3 166.55 7.73
3 -1 3 151.79 8.91
3 -1 3 166.41 7.26
-3 1 -3 182.99 7.8
3 -1 3 158.56 7.59
-3 1 -4 4.78 1.35
-3 1 -4 0.77 0.63
3 -1 4 0.57 0.92
-3 1 -4 2.2 2.07
3 -1 4 1.42 1.34
3 -1 4 1.99 1.09
-3 1 -5 212.51 13.77
3 -1 5 190.14 12.28
-3 1 -5 201.97 7.34
-3 1 -5 198.83 12.47
-3 1 -5 190.72 7.63
3 -1 5 213.17 8.59
-3 1 -6 561.51 23.69
3 -1 6 572.52 23.26
-3 1 -6 547.09 22.28
3 -1 6 592.95 14.44
-3 1 -6 542.86 9.38
-3 1 -6 554.33 12.23
-3 1 -6 519.18 8.84
-3 1 -7 499.62 23.82
3 -1 7 487.28 23.17
-3 1 -7 500.53 22.95
3 -1 7 489.55 13.39
-3 1 -8 481.93 24.88
3 -1 8 516.76 25.66
-3 1 -8 463.4 23.63
-3 1 -9 173.3 15.82
-3 1 -9 137.92 13.76
3 -1 9 128.02 13.78
3 -1 10 2.36 3.32
-3 1 -10 -4.74 3.1
-3 1 -10 0.02 2.1
3 -1 11 40.56 8.99
-3 1 -11 51.77 9.91
-3 1 -11 38.93 8.47
-3 1 -12 145.83 16.81
3 -1 12 173.27 19.3
-3 1 -12 189.71 19.36
-3 0 14 275.87 23.86
3 0 -14 268.93 23.45
-3 0 13 223.14 20.39
3 0 -13 212.06 19.63
-3 0 13 257.82 20.84
3 0 -12 119.83 13.95
-3 0 12 124.66 14.34
-3 0 12 129.32 14.29
-3 0 11 5.58 3.66
3 0 -11 2.97 2.3
3 0 -11 -1.88 2.78
-3 0 11 2.44 2.72
3 0 -10 25.17 5.77
-3 0 10 17.22 5.12
-3 0 10 24.94 5.88
3 0 -9 590.24 17.64
-3 0 9 556.33 25.38
3 0 -9 592.59 25.12
-3 0 9 560.72 24.83
3 0 -8 989.37 20.39
3 0 -8 961.15 29.62
-3 0 8 947.36 29.99
-3 0 8 926.34 30.94
3 0 -7 711.72 14.89
3 0 -7 670.5 22.63
-3 0 7 724.44 24
-3 0 7 750.17 26.34
-3 0 6 9.92 3.22
3 0 -6 9.12 1.47
3 0 -6 12.68 3.01
3 0 -5 2.41 0.57
3 0 -5 2.6 1.51
3 0 -4 272.36 10.11
-3 0 4 294.21 13.76
3 0 -4 293.28 13.95
3 0 -3 2348.01 37
-3 0 3 2341.51 36.99
3 0 -3 2296.08 24.59
3 0 -3 2343.22 36.94
-3 0 3 2358.31 24.74
3 0 -2 2010.21 32.28
-3 0 2 1990.87 33.13
3 0 -2 1978.26 32.88
-3 0 2 1920.87 17.98
-3 0 2 1977.94 17.52
3 0 -1 903.32 21.59
-3 0 1 843.46 9.09
-3 0 1 918.63 22.23
-3 0 1 882.86 14.28
3 0 -1 837.29 22.29
3 0 -1 901.42 20.33
-3 0 1 890.22 15.41
3 0 0 616.54 17.53
-3 0 0 565.82 14.47
3 0 0 562.45 15.06
3 0 0 588.02 18.69
-3 0 0 577.97 12.89
3 0 0 572.87 12.7
-3 0 -1 3.69 1.7
3 0 1 5.01 2.11
3 0 1 3.32 2.21
3 0 1 6.09 1.77
-3 0 -1 7.67 1.73
-3 0 -1 3.97 1.34
3 0 1 4.59 1.56
3 0 2 1408.75 25.75
-3 0 -2 1467.38 28.88
3 0 2 1490.21 31.18
-3 0 -2 1476.49 23.07
3 0 2 1411.03 26.06
3 0 2 1397.63 20.27
-3 0 -2 1430.41 20.8
-3 0 -2 1437.8 23.31
3 0 3 1171.11 23.51
-3 0 -3 1246.79 23.59
-3 0 -3 1204.09 28.51
3 0 3 1192.06 26.91
-3 0 -3 1210.79 16.52
-3 0 -3 1206.66 24.53
-3 0 -3 1152.16 20.91
-3 0 -4 628.2 18.6
-3 0 -4 595.22 9.03
-3 0 -4 599.57 21.76
3 0 4 593.69 20.81
-3 0 -4 600.74 19.4
3 0 4 598.79 11.15
-3 0 -4 606.53 13.55
-3 0 -5 479.96 20.91
3 0 5 466.21 20.13
-3 0 -5 441.65 18.42
3 0 5 422.93 8.45
-3 0 -5 440.62 9.44
3 0 6 67.79 8.49
-3 0 -6 78.75 9.32
-3 0 -6 76.31 8.41
3 0 6 61.33 2.73
-3 0 -7 157.01 13.73
3 0 7 135.38 12.78
-3 0 -7 124.32 11.46
-3 0 -8 166.31 15.03
3 0 8 176.89 15.65
-3 0 -8 174.86 14.79
-3 0 -9 673.69 30.44
-3 0 -9 653.24 31.24
3 0 9 586.75 30.15
-3 0 -10 24.45 6.65
3 0 10 32.73 7.93
-3 0 -10 35.77 7.69
-3 0 -11 332.74 24.75
3 0 11 332.03 25.53
-3 0 -11 342.31 24.39
3 0 12 5.48 4.62
-3 0 -12 12.07 5.18
-3 0 -12 5.48 3.85
3 1 -14 137.95 16.49
-3 -1 14 153.45 17.94
-3 -1 14 134.44 15.98
3 1 -13 131.62 15.09
-3 -1 13 155.85 16.63
-3 -1 12 229.5 19.55
3 1 -12 235.81 19.13
-3 -1 12 229.89 19.36
3 1 -11 467.91 21.04
-3 -1 11 466.55 26.06
3 1 -11 434.81 24.1
-3 -1 11 480.14 26.77
-3 -1 10 139.57 13.05
-3 -1 10 161.85 14.53
3 1 -10 138.44 11.34
3 1 -10 132.26 12.6
-3 -1 10 152.12 14.58
3 1 -9 1.84 1.91
-3 -1 9 4.09 3.15
3 1 -9 2.04 1.93
3 1 -8 345.93 16.73
3 1 -8 332.97 18.51
3 1 -8 346.93 10.46
3 1 -8 376.54 17.83
-3 -1 8 365.92 18.49
3 1 -7 537.05 22.81
-3 -1 7 485.7 19.96
3 1 -7 523.44 20.04
3 1 -7 492.42 9.88
3 1 -7 516.23 19.1
3 1 -6 745.39 23.24
-3 -1 6 732.5 23.12
3 1 -6 753.84 20.65
3 1 -6 717.56 25.45
3 1 -5 1.85 1.43
3 1 -5 12.46 3.18
-3 -1 5 8.19 2.77
3 1 -5 6.81 1.86
-3 -1 4 613.69 18.85
3 1 -4 633.54 20.42
3 1 -4 625.2 13.68
3 1 -4 615.08 22.09
3 1 -3 1.3 1.93
3 1 -3 0.93 0.56
3 1 -3 -3.15 2.18
-3 -1 3 -1.02 1.65
3 1 -2 765 21.58
-3 -1 2 763.7 19.97
3 1 -2 760.42 22.78
3 1 -1 1772.64 32.8
-3 -1 1 1814.96 30.9
3 1 -1 1784.1 33.55
3 1 -1 1710.45 32.86
3 1 0 2061.03 34.95
3 1 0 2081.99 36.43
-3 -1 0 1984.5 15.58
3 1 0 2040.25 34.54
3 1 0 2112.49 30.73
3 1 1 246.52 12.23
3 1 1 282.25 13.79
3 1 1 268.62 11.9
-3 -1 -1 266.5 11.25
-3 -1 -1 271.21 8.35
-3 -1 -1 268.21 9.57
3 1 1 259.94 11.8
3 1 2 100.06 7.87
3 1 2 100.63 8.62
3 1 2 104.13 8.11
-3 -1 -2 105.42 7.49
-3 -1 -2 100.68 6.26
-3 -1 -2 108.78 5.38
3 1 2 95.6 6.89
-3 -1 -3 111.38 4.4
-3 -1 -3 117.99 8.55
3 1 3 130.65 9.82
-3 -1 -3 127.38 8.2
-3 -1 -4 60.07 6.63
3 1 4 63.79 7.61
-3 -1 -4 67.2 6.69
-3 -1 -4 59.8 4.74
-3 -1 -5 189.84 12.52
3 1 5 185.98 13.68
-3 -1 -5 184.91 12.15
-3 -1 -5 175.09 6.5
3 1 6 566.67 25.39
-3 -1 -6 581.81 23.33
3 1 7 361.25 21.6
-3 -1 -7 404.05 22.81
-3 -1 -7 395.26 20.8
-3 -1 -8 331.17 21.72
3 1 8 303.25 21.17
-3 -1 -8 317.6 20.07
-3 -1 -9 266.64 20.53
3 1 9 238.23 19.93
-3 -1 -9 273.31 19.76
-3 -1 -10 57.04 10.3
-3 -1 -10 54.54 9.5
3 1 10 62.2 10.97
-3 -1 -11 216.58 20.62
-3 -1 -11 235.34 20.67
3 1 11 240.06 22.43
-3 -2 14 6.67 4.05
-3 -2 14 7.29 3.67
3 2 -14 4.35 3.98
-3 -2 13 1.86 3.61
-3 -2 13 4.71 3.07
3 2 -13 1.73 3.35
-3 -2 12 116.85 14.04
3 2 -12 117.96 13.48
-3 -2 12 142.73 15.8
3 2 -11 189.02 13.57
3 2 -11 149.19 14
-3 -2 11 167.37 16.41
3 2 -10 580.18 27.01
-3 -2 10 601.98 25.33
3 2 -10 598.86 23.52
3 2 -10 590.07 25.81
-3 -2 10 602.42 29.85
3 2 -9 444.06 19.91
-3 -2 9 432.71 20.33
3 2 -9 436.44 22.9
3 2 -9 435.63 20.69
-3 -2 9 443.74 24.52
3 2 -8 188.54 12.61
3 2 -8 170.93 11.94
-3 -2 8 163.75 11.71
-3 -2 8 164.88 14.49
3 2 -8 176.72 14.32
3 2 -7 46.24 7.37
3 2 -7 41.79 5.99
-3 -2 7 43.97 7.17
-3 -2 7 38.32 5.41
3 2 -7 42.69 5.43
3 2 -6 220.52 13.2
-3 -2 6 223.23 12.01
3 2 -6 212.17 14.71
3 2 -6 220.08 10.94
-3 -2 6 213.61 14.98
3 2 -5 242.53 13.64
-3 -2 5 244.6 11.81
3 2 -5 220.62 9.53
3 2 -5 206.45 14.2
3 2 -4 1155.32 28.93
-3 -2 4 1133.66 24.07
-3 -2 4 1059.34 12.41
3 2 -4 1094.31 17.39
3 2 -4 1157.06 32.11
3 2 -3 720.99 22.83
-3 -2 3 753.48 19.17
3 2 -3 695.26 10.35
3 2 -3 730.02 24.8
3 2 -2 83.96 7.96
-3 -2 2 87.91 6.68
3 2 -2 75.22 7.82
-3 -2 2 77.06 7.51
3 2 -1 12.23 3.25
3 2 -1 6.98 2.76
-3 -2 1 13.02 3.07
3 2 -1 10.22 3.19
3 2 0 39.37 5.62
3 2 0 47.35 5.83
3 2 0 49.54 5.99
3 2 0 41.39 5.18
3 2 0 42.71 3.1
-3 -2 0 43.94 4.95
3 2 1 613.01 20.96
3 2 1 602.32 20.41
-3 -2 -1 609.03 19.96
3 2 1 599.08 14.47
-3 -2 -1 630.21 14.45
-3 -2 -1 607.99 16.67
3 2 1 615.78 20.02
3 2 2 753.71 24.2
3 2 2 778.08 24.63
-3 -2 -2 754.18 23.1
-3 -2 -2 802.09 19.08
-3 -2 -2 752.17 14.13
-3 -2 -2 783.22 16.54
3 2 2 756.91 21.07
3 2 3 1144.46 31.29
3 2 3 1195.85 32.28
-3 -2 -3 1228.42 31.05
-3 -2 -3 1165.42 15.17
-3 -2 -3 1133.61 11.4
-3 -2 -3 1234.14 26.84
3 2 3 1218.33 25.22
3 2 4 369.88 12.97
-3 -2 -4 397.86 18.76
3 2 4 370 19.32
-3 -2 -4 368.48 16.26
-3 -2 -5 56.45 7.06
3 2 5 50.62 7.83
-3 -2 -5 65.25 8.07
-3 -2 -6 172.51 13.78
3 2 6 138.77 13.46
-3 -2 -6 150.52 12.38
-3 -2 -7 371.56 20.89
3 2 7 343.98 22.33
3 2 8 610.37 31.39
-3 -2 -8 603.53 28.24
3 2 9 318.78 23.97
-3 -2 -9 309.05 23.08
-3 -2 -9 287.13 20.87
-3 -2 -10 3.5 3.01
3 2 10 12.77 5.47
-3 -2 -10 13.33 4.39
-3 -2 -11 8.17 4.06
3 2 11 4.28 3.08
-3 -2 -11 6.51 4.23
-3 -3 14 162.07 18.92
3 3 -14 169.5 17.89
-3 -3 14 193.65 20.56
-3 -3 13 259.57 22.81
-3 -3 13 221.72 20.91
3 3 -13 238.67 19.88
3 3 -12 48.88 8.68
-3 -3 12 56.63 10.54
3 3 -12 42.72 8.22
3 3 -11 8.93 4.28
3 3 -11 13.2 4.01
-3 -3 11 13.11 4.88
3 3 -11 5.75 3.52
3 3 -10 247.77 15.65
3 3 -10 236.62 16.35
3 3 -10 240.12 18.54
-3 -3 10 231.12 19.5
-3 -3 9 169.19 11.87
3 3 -9 157.84 14.66
3 3 -9 149.04 11.92
-3 -3 9 157.77 15.44
3 3 -9 140.94 11.83
3 3 -8 582.22 23.24
-3 -3 8 578.27 20.43
3 3 -8 604.49 22.3
-3 -3 8 614.35 28.96
3 3 -8 582.93 27.19
3 3 -7 318.46 16.92
-3 -3 7 324.3 14.19
3 3 -7 319.54 14.77
3 3 -7 324.22 19.85
-3 -3 7 311.68 19.9
-3 -3 6 322.07 8.49
3 3 -6 369.18 18.05
-3 -3 6 374.74 14.34
3 3 -6 371.09 14.34
-3 -3 6 404.32 21.48
3 3 -6 374.27 20.72
-3 -3 5 47.13 4.95
3 3 -5 45.72 6.43
-3 -3 5 48.1 7.51
-3 -3 5 48.53 3.73
3 3 -5 48.44 7.51
3 3 -5 43.7 4.39
-3 -3 4 31.1 3.37
3 3 -4 37.61 5.84
-3 -3 4 27.8 5.43
-3 -3 4 30.44 3.88
3 3 -4 43.56 7.01
3 3 -3 523.15 21.14
-3 -3 3 539.18 15.79
3 3 -3 478.99 10.61
-3 -3 3 491.96 21.17
3 3 -3 533.67 22.98
3 3 -2 852.8 27.08
3 3 -2 760.16 12.87
-3 -3 2 850.57 20.23
-3 -3 2 845.44 26.17
3 3 -2 856.9 28.29
3 3 -1 289.63 14.51
3 3 -1 280.42 15.8
3 3 -1 249.06 7.97
-3 -3 1 242.81 13.42
3 3 0 321.78 15.44
3 3 0 335.84 16.63
3 3 0 355.6 17.25
3 3 0 318.18 10.48
-3 -3 0 345.37 15.04
-3 -3 -1 1.49 1.89
3 3 1 1.73 1.92
-3 -3 -1 4.25 1.89
3 3 1 0.49 1.81
3 3 1 -1.49 1.9
-3 -3 -1 0.34 0.9
-3 -3 -2 89.53 7.11
3 3 2 92.87 8.31
3 3 2 83.3 8.5
3 3 2 96.42 9.7
-3 -3 -2 74 8.29
-3 -3 -2 81.89 6.1
-3 -3 -2 73.75 4.79
3 3 3 851.05 23.83
3 3 3 869.63 28.18
3 3 3 885.5 30.58
-3 -3 -3 854.14 28.95
-3 -3 -3 862.81 15.8
-3 -3 -3 867.87 24.48
-3 -3 -4 466.38 22.36
3 3 4 485.4 16.95
3 3 4 525.96 24.87
-3 -3 -4 502.53 20.21
-3 -3 -5 188.1 14.95
-3 -3 -5 208.17 14.17
3 3 5 176 15.22
-3 -3 -6 102.97 11.69
3 3 6 123.55 13.51
-3 -3 -6 134.45 12.22
3 3 7 4.25 3.5
-3 -3 -7 4.43 2.82
-3 -3 -7 2.56 1.87
-3 -3 -8 63.16 9.62
3 3 8 70.84 11.53
3 3 9 113.23 15.13
-3 -3 -9 94 12.5
3 3 10 165.46 19.16
-3 -3 -10 163.22 18.44
-3 -3 -10 133.63 15.72
3 4 -13 157.75 16.76
3 4 -13 166 16.57
-3 -4 13 205.37 20.87
3 4 -12 145.25 14.5
-3 -4 12 160.6 18.18
3 4 -12 129.39 14.96
3 4 -11 182.43 14.24
-3 -4 11 191.23 18.98
3 4 -11 194.86 17.82
3 4 -11 206.62 16.4
3 4 -10 233.54 15.96
-3 -4 10 256.32 21.25
3 4 -10 232.48 16.23
3 4 -10 222.42 18.68
3 4 -9 79.58 9.25
3 4 -9 91.69 11.87
-3 -4 9 98.04 12.93
3 4 -9 78.19 8.81
3 4 -8 1.77 2.72
3 4 -8 -0.01 1.84
3 4 -8 0.65 2.24
-3 -4 8 3.24 3.66
-3 -4 8 -0.69 1.23
3 4 -7 369.28 19.51
-3 -4 7 406.85 14.07
-3 -4 7 341.18 21.93
3 4 -7 381.2 16.72
3 4 -7 399.19 23.41
3 4 -6 714.13 26.93
-3 -4 6 690.67 17.05
-3 -4 6 702.55 30.2
3 4 -6 682.09 30.1
3 4 -5 1841.59 42.96
-3 -4 5 1861.97 47.34
3 4 -5 1866.25 48.57
-3 -4 5 1868.7 26.84
3 4 -4 331.07 18.31
-3 -4 4 343.5 11.54
-3 -4 4 335.48 19.4
3 4 -4 335.02 20.24
-3 -4 3 2.47 1.83
-3 -4 3 0.2 1.09
3 4 -3 4.85 1.36
3 4 -3 5.01 3.72
-3 -4 2 86.44 9.22
-3 -4 2 102.25 7.22
3 4 -2 99.92 6.01
3 4 -1 372.04 17.02
3 4 -1 427.25 21.38
-3 -4 1 419.17 19.02
3 4 0 506.97 20.14
3 4 0 535.95 23.53
-3 -4 0 508.1 22.74
-3 -4 0 517.2 20
3 4 0 481.93 22.11
3 4 1 747.23 25.04
3 4 1 750.25 28.26
-3 -4 -1 737.78 27.96
-3 -4 -1 769.14 22.68
3 4 1 750.67 26.83
3 4 2 302.12 16.62
3 4 2 328.67 19.61
-3 -4 -2 302.74 18.35
-3 -4 -2 312.99 13.23
-3 -4 -2 295.28 14.14
3 4 2 302.11 16.53
3 4 3 18.17 4.03
3 4 3 19.86 4.6
3 4 3 20.65 5.61
-3 -4 -3 15.62 3.91
-3 -4 -3 10.42 3.95
3 4 4 379.81 20.35
-3 -4 -4 385.93 22.31
-3 -4 -4 398.54 19.21
3 4 4 387.99 17.19
-3 -4 -5 386.48 20.39
-3 -4 -5 391.98 23.41
3 4 5 365.08 23.46
-3 -4 -6 108.09 13.03
3 4 6 142.9 15.53
-3 -4 -6 146.11 13.52
-3 -4 -7 388.61 25.15
3 4 7 364.68 25.78
-3 -4 -7 386.86 23.37
-3 -4 -8 80.29 12.03
3 4 8 56 10.78
-3 -4 -8 79.25 11.25
3 4 9 27.9 8.29
-3 -4 -9 15.94 5.75
3 5 -13 67.57 11.69
-3 -5 13 81.75 14.2
3 5 -12 11.61 4.98
-3 -5 12 36.14 9.26
3 5 -11 4.57 4.1
-3 -5 11 9.23 4.79
3 5 -10 223.52 16.25
3 5 -10 243.12 20.9
-3 -5 10 253.4 22.05
-3 -5 9 153.78 16.58
3 5 -9 132.18 11.86
3 5 -9 174.95 17.38
3 5 -8 537.13 22.1
-3 -5 8 561.02 30.55
3 5 -8 545.66 29.89
-3 -5 7 142.87 15.13
3 5 -7 118.67 13.95
3 5 -6 35.89 7.71
-3 -5 6 45.29 8.48
-3 -5 5 167.46 15.22
3 5 -5 201.21 17.25
-3 -5 4 410.77 22.83
3 5 -4 381.45 23.26
-3 -5 3 489.48 13.79
-3 -5 3 478.38 23.87
3 5 -3 430.77 24.23
-3 -5 2 222.2 15.74
-3 -5 2 235.12 10.8
3 5 -2 258.33 18.47
-3 -5 1 70.05 8.58
3 5 -1 74.35 9.88
-3 -5 0 10.4 4.27
3 5 0 3.39 3.14
-3 -5 0 4.35 2.54
3 5 0 9.64 2.99
3 5 1 103.18 9.78
3 5 1 115.09 12.49
-3 -5 -1 115.39 12.29
-3 -5 -1 100.36 9.06
3 5 1 105.46 11.16
3 5 2 250.96 16.64
3 5 2 258.22 15.93
3 5 2 248.78 18.76
-3 -5 -2 272.27 19.25
3 5 3 291.59 17.67
-3 -5 -3 365.35 22.72
3 5 3 313.51 21.68
-3 -5 -3 319.35 17.28
3 5 3 334.17 18.57
3 5 4 216.79 15.97
-3 -5 -4 212.65 18.04
3 5 4 256.51 20.28
-3 -5 -4 231.65 15.83
3 5 5 33.81 6.57
3 5 5 28.18 7.29
-3 -5 -5 28.4 6.93
-3 -5 -5 34.12 6.56
3 5 6 -0.95 1.79
3 5 6 2.61 3.14
-3 -5 -6 3.78 3.96
-3 -5 -6 -4.75 3.05
3 5 7 118.79 13.57
3 5 7 149.22 17.54
-3 -5 -7 105.59 14.3
-3 -5 -7 125.01 13.84
-3 -5 -8 216.63 20.97
3 5 8 203.92 21.33
-3 -5 -8 221.69 19.52
3 6 -12 131.18 16.75
-3 -6 12 110.6 16.37
3 6 -11 27.6 7.89
-3 -6 11 18.34 6.88
-3 -6 10 16.4 6.13
3 6 -10 17.23 6.44
-3 -6 9 35.9 9.02
3 6 -9 37.33 8.61
-3 -6 8 421.87 27.94
3 6 -8 437.52 28.56
-3 -6 7 173.01 17.42
3 6 -7 172.94 17.68
3 6 -6 48.08 9.57
-3 -6 6 34.48 8.1
-3 -6 5 11.76 4.72
3 6 -5 11.2 5.17
3 6 -4 2.88 4.05
-3 -6 4 0.56 2.5
3 6 -3 112.1 13.57
-3 -6 3 123.07 13.11
-3 -6 2 402.81 22.35
3 6 -2 411.14 25.25
-3 -6 1 386.13 21.19
-3 -6 1 396.34 23.98
3 6 -1 389.72 24.04
3 6 0 95.71 9.38
-3 -6 0 104.89 10.63
-3 -6 0 109.2 12.91
3 6 0 118.28 13.08
3 6 1 147.36 12.04
-3 -6 -1 134.11 14.58
3 6 1 159.9 14.9
3 6 2 2.9 3.22
3 6 2 9.32 3.05
3 6 2 1.68 3.23
-3 -6 -2 -0.27 2.49
3 6 3 128.93 14.98
-3 -6 -3 103.31 13.37
-3 -6 -4 225.9 20.03
3 6 4 158.96 17.18
-3 -6 -5 125.41 15.33
3 6 5 139.46 16.81
-3 -6 -6 143.48 16.95
3 6 6 119.08 16.13
-3 -7 11 219.81 22.97
3 7 -11 201.28 21.59
-3 -7 10 250.08 23.85
3 7 -10 259.25 24.3
3 7 -9 52.94 10.72
-3 -7 9 54.17 10.93
3 7 -8 2.69 2.7
-3 -7 8 1.17 2.96
3 7 -7 33.12 8.34
-3 -7 7 23.35 6.77
3 7 -6 54.2 10.54
-3 -7 6 54.28 10.12
-3 -7 5 298.44 22.6
3 7 -5 309.82 24.58
-3 -7 4 174.29 16.89
3 7 -4 198.38 19.48
-3 -7 3 325.26 22.19
3 7 -3 307.01 23.75
3 7 -2 18.23 6.25
-3 -7 2 20.07 5.57
-3 -7 2 12.4 4.89
-3 -7 1 158.01 14.56
-3 -7 1 168.44 17.14
3 7 -1 187.09 18.15
-3 -7 0 194.58 18.58
3 7 0 230.66 19.67
3 7 1 117.19 13.78
-3 -7 -1 113.35 14.44
-3 -7 -2 179.12 18.42
3 7 2 200.77 17.67
-3 -7 -3 136.29 16.46
3 7 3 155.77 18.1
3 7 4 -0.75 3.7
-3 -7 -4 2.53 3.33
-3 -8 9 324.49 27.66
3 8 -9 245.03 24.39
-3 -8 8 159.54 19.03
3 8 -8 176.12 20.48
3 8 -7 91.8 14.86
-3 -8 7 94.33 14.14
3 8 -6 10.44 5.53
-3 -8 6 4.97 3.9
3 8 -5 59.44 12.06
-3 -8 5 46.05 9.83
3 8 -4 34.43 9.09
-3 -8 4 25.82 7.01
-3 -8 3 265.31 21.25
3 8 -3 259.76 23.39
-3 -8 2 144.53 15.33
-3 -8 2 159.48 17.92
3 8 -2 150.15 17.68
-3 -8 1 66.8 11.45
3 8 -1 43.17 9.88
-3 -8 0 3.07 3.24
3 8 0 3.22 3.99
3 8 1 31.05 8.07
-3 -8 -1 21.16 7.02
-3 -8 -2 211.48 21.51
3 9 -5 121.09 17.32
-3 -9 5 123.26 16.28
-3 -9 4 11.91 5
3 9 -4 12.14 6.63
-3 -9 3 0.29 3.08
3 9 -3 1.13 3.14
-3 -9 3 -1.04 3.39
-4 11 0 107.75 16.8
4 -11 0 82.05 12.32
4 -11 0 82.93 12.97
-4 11 -1 -3.33 6.32
4 -11 1 4.49 3.31
4 -11 1 0.81 3.4
4 -11 2 3.01 3.29
4 -11 2 7.97 3.8
4 -11 3 155.55 18.05
-4 11 -3 187.82 21.82
4 -11 4 112.03 15.39
-4 11 -4 132.71 18.32
4 -11 5 77.7 13.03
-4 11 -5 79.37 14.27
4 -11 5 82.27 14.16
-4 10 3 8.25 4.35
4 -10 -3 18.26 5.97
4 -10 -3 20.36 6.3
-4 10 2 0.55 4.15
4 -10 -2 1.82 2.41
4 -10 -2 -2.17 2.65
-4 10 1 53.31 11.22
4 -10 -1 64.81 10.7
4 -10 -1 59.68 10.45
4 -10 0 427.38 25.82
4 -10 0 412.1 26.87
-4 10 0 447.36 31.09
-4 10 -1 121.33 16.53
4 -10 1 132.78 15.61
4 -10 1 138.62 14.54
4 -10 2 75.87 11.84
-4 10 -2 84.37 13.69
4 -10 2 84.99 11.37
4 -10 3 -1.49 1.89
4 -10 3 5 3.31
-4 10 -3 -5.48 4.25
-4 10 -4 23.84 7.54
4 -10 4 21.87 5.68
4 -10 4 22.79 7
-4 10 -5 96.57 14.71
4 -10 5 93.3 14.12
4 -10 6 275.65 24.5
-4 10 -6 242.31 23.27
4 -10 7 144.81 17.9
-4 10 -7 156.44 18.86
-4 10 -8 130.97 17.4
4 -10 8 121.43 16.76
-4 9 6 3.29 3.6
-4 9 6 8.58 4.49
4 -9 -6 3.41 3.44
-4 9 6 -2.94 2.78
-4 9 5 12.63 4.67
-4 9 5 6.54 4.56
4 -9 -5 1.21 1.98
4 -9 -5 8.97 3.69
-4 9 4 346.39 23.78
-4 9 4 355.2 26.43
4 -9 -4 368.64 25
4 -9 -4 367.39 23.88
-4 9 3 305.69 21.31
4 -9 -3 310.86 22.29
4 -9 -3 310.09 21.73
-4 9 3 286.48 23.58
-4 9 2 174.88 15.3
4 -9 -2 135.6 14.22
4 -9 -2 197.4 17.52
-4 9 2 187.13 18.99
-4 9 1 76.34 9.85
-4 9 1 108.36 14.54
4 -9 -1 96.51 11.54
4 -9 -1 99.15 12.55
-4 9 0 115.03 14.83
-4 9 0 110.32 11.4
4 -9 0 118.12 12.52
4 -9 0 103.8 12.87
-4 9 -1 33.8 8.18
4 -9 1 36.77 7.86
4 -9 1 26.33 5.98
4 -9 2 358.46 20.77
4 -9 2 336.89 23.2
-4 9 -2 364.83 26.09
4 -9 3 129.56 12.51
-4 9 -3 136.87 16.23
4 -9 3 112.57 13.66
-4 9 -4 229.91 20.89
4 -9 4 232.86 20.74
4 -9 4 219.04 16.16
4 -9 4 192.68 17.89
-4 9 -5 51.6 10.1
4 -9 5 53.39 10.44
-4 9 -6 1.65 2.57
4 -9 6 -11.72 5.45
-4 9 -7 92.77 13.53
4 -9 7 118.44 15.46
-4 9 -8 28.1 7.85
4 -9 8 31.53 8.15
4 -9 9 334.31 26.36
-4 9 -9 317.19 25.25
4 -9 10 257.61 23.47
-4 9 -10 263.96 22.88
-4 8 7 194.33 19.4
-4 8 7 182.1 17.27
-4 8 7 156.28 16.97
-4 8 6 130.16 15.32
4 -8 -6 114.86 14.2
-4 8 6 120.71 13.69
4 -8 -6 137.71 14.21
-4 8 5 121.3 14.25
4 -8 -5 104.19 12.92
-4 8 5 88.97 11.18
4 -8 -5 91 11.43
4 -8 -4 7.01 3.63
-4 8 4 -0.78 2.85
4 -8 -4 -0.13 2.69
-4 8 3 100.03 11.79
4 -8 -3 112.94 12.39
4 -8 -3 100.55 11.93
-4 8 2 539.98 26.23
4 -8 -2 499.26 24.83
4 -8 -2 569.88 27.88
-4 8 1 107.66 11.44
4 -8 -1 99.24 10.68
4 -8 -1 99.94 11.85
-4 8 0 48.98 7.42
4 -8 0 49.73 7.49
-4 8 0 33.85 8.05
4 -8 0 48.55 8.32
4 -8 1 566.5 27.84
-4 8 -1 570.27 24.23
4 -8 1 581.99 24.27
-4 8 -1 550.72 29.85
4 -8 2 1.28 1.8
-4 8 -2 2.22 2.03
4 -8 2 -3.05 2.85
-4 8 -2 3.21 3.52
-4 8 -3 17.54 5.4
4 -8 3 14.32 3.71
-4 8 -3 10.1 3.4
4 -8 3 14.01 4.94
-4 8 -4 139.97 11.43
4 -8 4 169.32 16.59
-4 8 -4 144.88 15.52
-4 8 -5 130.6 11.08
4 -8 5 132.07 14.78
-4 8 -5 123.46 14.36
4 -8 6 321.99 23.4
-4 8 -6 294.16 22.05
-4 8 -7 27.29 7.13
4 -8 7 33.06 7.79
-4 8 -8 6.86 4.24
-4 8 -8 0.61 4.14
4 -8 8 6.74 3.55
-4 8 -9 21.9 6.31
-4 8 -9 21.26 6.97
4 -8 9 19.44 6.82
-4 8 -10 109.9 15.36
4 -8 10 112.14 14.7
-4 8 -11 219.17 22.43
4 -8 11 243.4 21.7
-4 7 9 126.11 16.72
-4 7 9 157.16 16.55
4 -7 -9 161.68 18.69
4 -7 -8 41.24 9.44
-4 7 8 44.09 9.73
-4 7 8 53.52 9.22
-4 7 7 4.32 3.98
-4 7 7 5.5 2.84
4 -7 -7 7.72 3.15
4 -7 -6 200.28 16.21
-4 7 6 214.21 16.71
-4 7 5 231.31 18.85
4 -7 -5 257.33 18.7
-4 7 5 275.91 17.94
4 -7 -5 259.5 18.26
-4 7 4 430.96 24.53
4 -7 -4 427.37 23.06
-4 7 4 406.94 20.99
4 -7 -4 442.33 23.41
-4 7 3 116.09 12.47
4 -7 -3 116.13 12.01
4 -7 -3 102.78 10.75
-4 7 2 152.63 13.68
4 -7 -2 152.15 12.44
4 -7 -2 174.71 14.63
-4 7 1 338.9 19.27
4 -7 -1 296.08 16.55
4 -7 -1 310.56 19.49
-4 7 0 52.56 7.49
4 -7 0 60.53 7.23
4 -7 0 59.94 8.66
-4 7 -1 1254.58 34.76
4 -7 1 1249.99 31.48
4 -7 1 1244.09 38.81
-4 7 -2 899.71 28.87
4 -7 2 909.81 26.26
4 -7 2 917.59 33.66
-4 7 -3 285.67 16.27
4 -7 3 306.5 15.16
-4 7 -3 328.21 21.21
4 -7 3 333.17 20.36
-4 7 -4 0.06 2.4
-4 7 -4 0.8 1.8
4 -7 4 0.19 1.19
4 -7 4 1.55 2.61
-4 7 -5 149.7 11.98
4 -7 5 140.12 9.75
4 -7 5 139.4 14.1
-4 7 -5 140.26 13.99
-4 7 -6 53.59 8.97
-4 7 -6 51.68 7.26
4 -7 6 48.16 6.27
-4 7 -6 58.9 10.01
4 -7 6 61.11 9.46
-4 7 -7 360.91 24.46
-4 7 -7 394.37 20.1
4 -7 7 415.52 19.48
4 -7 7 386.29 24.04
-4 7 -7 420.56 24.57
-4 7 -8 175.73 17.87
-4 7 -8 145.97 12.8
4 -7 8 128.77 14.17
-4 7 -8 188.95 16.54
-4 7 -9 53.01 8.84
-4 7 -9 55.33 10.27
4 -7 9 43.87 8.32
4 -7 10 -0.2 2.03
-4 7 -10 -0.08 3.24
4 -7 11 40.98 8.6
-4 7 -11 53.84 10.8
4 -6 -10 210.31 20.95
-4 6 10 175.71 19.66
-4 6 10 187.89 17.97
-4 6 9 183.74 19.11
-4 6 9 182.12 16.94
4 -6 -9 234.38 21.18
-4 6 8 374.26 26.38
-4 6 8 366.13 22.56
4 -6 -8 375.35 22.13
4 -6 -8 374.25 25.71
-4 6 7 286.29 22.02
-4 6 7 275.11 18.4
4 -6 -7 288.73 19.06
4 -6 -7 274.43 21.13
-4 6 6 62.75 9.98
4 -6 -6 54.96 9.54
-4 6 6 57.57 8
4 -6 -6 76.59 9.72
-4 6 5 36.61 7.52
-4 6 5 33.47 5.84
4 -6 -5 31.27 6.14
-4 6 4 268.65 18.64
4 -6 -4 245.36 16.03
-4 6 4 264.9 15.15
4 -6 -4 251.74 16.88
4 -6 -3 325.5 19
-4 6 3 315.05 19.53
4 -6 -3 352.5 18.09
-4 6 3 348.66 16.78
-4 6 2 1056.03 34.04
4 -6 -2 1080.41 29.8
4 -6 -2 1103.64 34.42
-4 6 1 78.03 9.14
4 -6 -1 73.95 9.14
4 -6 -1 70.51 7.22
-4 6 0 46.56 6.91
4 -6 0 38.48 5.24
4 -6 0 59.84 8.07
-4 6 -1 176.45 12.88
4 -6 1 206.97 11.12
4 -6 1 183.16 14.05
-4 6 -2 312.96 16.76
4 -6 2 351.41 14.05
4 -6 2 337.9 19.07
-4 6 -3 513.05 21.46
4 -6 3 554.66 18.27
4 -6 3 542.58 24.29
-4 6 -4 574.18 27.17
-4 6 -4 556.68 22.55
4 -6 4 555.97 19.38
4 -6 4 569.29 26.1
-4 6 -4 548.49 25.56
4 -6 4 517.51 24.02
-4 6 -5 190.99 16.2
-4 6 -5 165.86 12.73
4 -6 5 166.99 11.33
4 -6 5 177.62 14.74
-4 6 -5 195.77 15.2
-4 6 -6 110.28 10.65
4 -6 6 95.51 9.25
4 -6 6 116.16 12.09
-4 6 -6 90 11.52
-4 6 -6 119.91 11.99
-4 6 -7 2.95 2.68
-4 6 -7 7.21 4.48
-4 6 -8 157.29 16.13
4 -6 8 176.51 15.4
-4 6 -8 159.94 14.04
-4 6 -9 220.4 19.64
4 -6 9 215.56 17.22
-4 6 -9 199.78 15.65
-4 6 -10 24.52 7.24
4 -6 10 31.72 7.15
-4 6 -11 100.7 14.23
4 -6 11 89.91 13.18
-4 6 -12 7.03 5.29
4 -6 12 3.27 3.48
-4 6 -12 7.75 4.69
4 -5 -11 345.71 26.72
-4 5 11 376.32 25.73
-4 5 10 126.15 16.01
-4 5 10 116.56 13.54
4 -5 -10 122.25 15.5
-4 5 9 14.99 6.39
-4 5 9 22.25 5.6
4 -5 -9 13.15 5.22
4 -5 -9 17.19 5.07
-4 5 8 357.38 24.62
-4 5 8 351.03 20.68
4 -5 -8 339.1 20.35
4 -5 -8 383.2 24.42
-4 5 7 532.25 28.7
-4 5 7 557 24.42
4 -5 -7 540.71 25.07
4 -5 -7 553.51 27.91
-4 5 6 578.07 28.58
-4 5 6 516.7 21.94
4 -5 -6 478.96 23.07
4 -5 -6 558.73 26.87
-4 5 5 317.69 20.54
-4 5 5 296.9 15.53
4 -5 -5 292.64 17.73
4 -5 -5 290.88 18.51
-4 5 4 298.54 18.96
-4 5 4 315.81 14.78
4 -5 -4 301.72 17.56
-4 5 3 -0.65 2.14
-4 5 3 0.13 1.12
4 -5 -3 3.54 2.36
4 -5 -3 1 2.07
-4 5 2 207.03 14.68
4 -5 -2 206.86 11.55
4 -5 -2 184.83 13.38
-4 5 1 836.68 28.12
4 -5 -1 804.12 21.02
4 -5 -1 792.26 27.26
-4 5 0 601.93 23.28
4 -5 0 663.97 17.57
4 -5 0 618.24 23.95
4 -5 1 221.19 14.33
-4 5 -1 218.71 13.89
4 -5 1 226.12 9.54
4 -5 2 22.07 4.9
4 -5 2 19.94 2.81
-4 5 -2 25.88 4.9
4 -5 2 14.49 3.2
-4 5 -2 19.83 4.94
4 -5 3 0.14 2.19
-4 5 -3 -0.11 2.21
4 -5 3 1.53 1.68
-4 5 -3 -0.8 3.08
-4 5 -4 415.27 19.46
-4 5 -4 410.88 21.75
4 -5 4 376.82 16.83
4 -5 4 376.81 19
-4 5 -5 348.02 20.68
4 -5 5 353.28 17.26
4 -5 5 396.37 20.02
4 -5 6 682.43 26.59
-4 5 -6 628.63 25.01
-4 5 -7 671.15 30.71
4 -5 7 684.85 27.18
-4 5 -7 664.24 25.46
-4 5 -8 86.49 11.73
4 -5 8 85.71 9.9
-4 5 -8 109.85 10.48
-4 5 -9 67.97 10.97
4 -5 9 55.86 9.39
4 -5 9 56.95 7.98
-4 5 -10 70.26 11.43
4 -5 10 76.53 11.72
-4 5 -11 55.42 10.45
4 -5 11 68.09 11.73
-4 5 -11 58.55 10.96
4 -5 12 233.75 22.04
-4 5 -12 267.11 23.73
-4 5 -12 218.57 21.86
-4 4 11 73.06 12.53
-4 4 11 75.24 11.13
4 -4 -11 66.53 11.46
-4 4 10 377.4 26.65
-4 4 10 307.04 20.97
4 -4 -10 341.61 24.11
-4 4 9 204.42 18.85
-4 4 9 193.21 15.64
4 -4 -9 214.99 16.27
4 -4 -9 217.73 18.27
-4 4 8 25.8 6.88
-4 4 8 33.59 6.33
4 -4 -8 39.54 7.77
4 -4 -8 33.43 6.52
-4 4 7 38.17 7.92
-4 4 7 39.65 6.2
4 -4 -7 39.13 7.42
4 -4 -7 42.6 6.91
-4 4 6 17.55 5.38
-4 4 6 24.14 4.61
4 -4 -6 35.68 6.46
4 -4 -6 18.96 4.72
-4 4 5 391.08 21.65
-4 4 5 387.64 16.04
4 -4 -5 394.96 19.68
4 -4 -5 384.72 19.7
4 -4 -4 883.09 28.79
-4 4 4 911.39 31.79
-4 4 4 952.84 22.47
4 -4 -4 964.75 29.51
-4 4 3 641.66 25.45
4 -4 -3 616.12 23.54
-4 4 3 671.36 16.76
-4 4 2 133.12 11.29
4 -4 -2 116.76 6.41
4 -4 -2 130.97 10.59
-4 4 1 128.59 10.87
4 -4 -1 134.4 7.19
4 -4 -1 128.63 6.17
4 -4 -1 129.24 10.46
4 -4 0 22.01 2.59
-4 4 0 18.51 4.21
4 -4 0 23.5 2.62
-4 4 -1 437.64 19.31
-4 4 -1 441.19 19.37
4 -4 1 444.19 16.93
4 -4 1 416.22 9.28
4 -4 1 446.2 18.94
-4 4 -2 38.72 6.05
4 -4 2 36.97 5.21
4 -4 2 41.37 2.72
-4 4 -2 41.36 6.42
4 -4 2 38.65 5.61
-4 4 -3 1220.87 32.62
-4 4 -3 1132.09 33.02
4 -4 3 1162.14 29.03
4 -4 3 1167.19 30.56
4 -4 4 175.96 11.96
-4 4 -4 163.73 13.03
4 -4 4 167.39 11.73
4 -4 5 -2.2 1.93
-4 4 -5 -0.8 2.2
4 -4 6 210.8 7.67
4 -4 6 221.34 14.47
-4 4 -6 219.53 16.49
-4 4 -6 222.96 13.29
4 -4 7 305.77 18.61
4 -4 7 307.69 16.49
-4 4 -7 332.01 21.12
-4 4 -7 338.1 16.31
4 -4 8 438.89 23.95
4 -4 8 470.15 20.56
-4 4 -8 449.33 25.77
-4 4 -8 487.71 19.29
4 -4 9 301.23 21.04
-4 4 -9 344.56 23.53
4 -4 10 52.26 9.77
-4 4 -10 53.24 9.93
-4 4 -10 51.78 9.6
-4 4 -11 52.18 9.98
4 -4 11 32.89 8.13
-4 4 -11 50.82 9.94
-4 4 -12 -3.38 3.53
4 -4 12 -0.04 4.58
-4 3 12 59.45 11.07
-4 3 12 105.96 13.6
4 -3 -12 83.47 13.02
-4 3 11 0.66 3.08
-4 3 11 -0.22 0.78
4 -3 -11 0.74 3.29
-4 3 10 10.96 5.23
4 -3 -10 7.57 4.1
-4 3 10 7.67 3.61
-4 3 9 91.28 12.28
-4 3 9 110.31 11.32
4 -3 -9 99.01 11.02
4 -3 -9 125.46 13.22
-4 3 8 1076.34 39.57
4 -3 -8 1095.81 35.22
-4 3 8 1110.76 32.98
4 -3 -8 1048.25 36.04
-4 3 7 184.12 15.78
-4 3 7 200.56 12.92
4 -3 -7 178.28 13.89
4 -3 -7 185.53 14.2
4 -3 -6 288.43 16.62
-4 3 6 261.89 17.83
-4 3 6 263.31 13.54
4 -3 -6 280.13 16.73
-4 3 5 1.59 2.8
-4 3 5 0.88 1.02
4 -3 -5 -2.18 2.05
4 -3 -5 2.14 2.16
-4 3 4 73.41 8.96
-4 3 4 70.67 5.37
4 -3 -4 65.37 7.59
4 -3 -4 68.82 7.39
-4 3 3 2333.26 25.23
4 -3 -3 2313.21 43.54
-4 3 2 690.12 24.55
4 -3 -2 657.75 22.75
-4 3 1 1067.66 29.81
-4 3 1 1085.89 16.99
4 -3 -1 1128.25 28.92
4 -3 0 686.91 22.15
-4 3 0 680.44 21.48
-4 3 0 711.99 24.04
4 -3 0 734.1 22.25
4 -3 0 649.31 8.61
-4 3 -1 20.2 4.52
4 -3 1 19.34 3.96
-4 3 -1 13.62 3.53
4 -3 1 8.82 2.8
-4 3 -2 484.25 20.05
4 -3 2 494.76 18.92
4 -3 2 495.7 13.55
-4 3 -2 473.89 19.42
4 -3 2 517.19 18.87
4 -3 3 629.71 17.86
4 -3 3 595.34 21.58
-4 3 -3 612 23.04
4 -3 3 610.88 20.32
4 -3 4 313.62 11.66
4 -3 4 343.17 15.28
4 -3 4 327.09 14.65
4 -3 4 329.68 9.51
4 -3 4 330.76 16.84
-4 3 -4 343.1 18.24
4 -3 5 354.57 11.29
4 -3 5 340.51 15.27
4 -3 5 361.34 16.93
-4 3 -5 370.38 19.83
4 -3 6 43.13 5.64
4 -3 6 51.5 3.69
4 -3 6 55.69 7.56
-4 3 -6 58.8 8.58
4 -3 7 1.24 1.79
-4 3 -7 4.77 1.85
4 -3 7 3.81 2.65
-4 3 -7 1.94 2.29
4 -3 8 148.59 13.89
-4 3 -8 171.57 15.26
-4 3 -8 173.06 15.98
4 -3 8 166.15 11.28
-4 3 -9 235.76 18.97
4 -3 9 249.71 19.09
-4 3 -9 236.21 19.45
-4 3 -10 638.04 32.52
4 -3 10 576.14 30.62
-4 3 -10 663.63 33.84
-4 3 -11 88.53 12.85
4 -3 11 92.17 13.17
-4 3 -11 69.08 11.75
4 -3 12 8.61 5.02
-4 3 -12 18.34 6.07
-4 3 -12 6.93 3.94
-4 2 13 48.78 9.57
4 -2 -13 48.97 9.97
-4 2 12 335.47 25.63
-4 2 12 301.58 22.31
4 -2 -12 315.18 23.88
-4 2 11 192.31 18.73
-4 2 11 188.67 16.51
4 -2 -11 182.82 17.13
-4 2 10 331.6 23.33
-4 2 10 332.51 20.42
4 -2 -10 351.73 22.52
-4 2 9 293.05 20.83
-4 2 9 300.57 18.03
4 -2 -9 276.93 18.6
-4 2 8 32.69 7.23
-4 2 8 36.81 6.04
4 -2 -8 31.99 6.31
4 -2 -8 42.79 7.02
-4 2 7 498.9 24.66
-4 2 7 502.68 19.59
4 -2 -7 468.4 21.91
4 -2 -7 437.17 20.66
-4 2 6 937.04 32.46
-4 2 6 945.4 24.18
4 -2 -6 934.26 29.87
4 -2 -6 1005.66 28.72
-4 2 5 707.91 26.82
-4 2 5 724.41 18.45
4 -2 -5 722.45 25.4
4 -2 -5 728.53 22.62
-4 2 4 566.11 23.07
-4 2 4 531.55 13.15
4 -2 -4 515.28 20.61
4 -2 -4 521.69 17.8
-4 2 3 2.64 2.26
-4 2 3 2.67 0.78
4 -2 -3 0.79 1.89
-4 2 2 70.04 7.74
-4 2 2 57.92 4.44
4 -2 -2 70.64 7.16
-4 2 1 801.33 20.14
-4 2 1 838.87 25.78
-4 2 1 784.82 12.57
4 -2 -1 817.23 23.45
-4 2 0 603.36 21.81
4 -2 0 629.32 20.04
4 -2 0 651.17 21.67
-4 2 0 626.76 18.89
-4 2 -1 2961.24 48.43
4 -2 1 2922.37 46.31
4 -2 1 3010.16 42.63
4 -2 1 2937.04 25.69
-4 2 -1 3013.55 44.04
4 -2 2 2076.17 33.06
4 -2 2 1991.08 39.26
4 -2 2 2129.59 28.03
-4 2 -2 2031.2 38.47
4 -2 2 2046.87 34.39
4 -2 3 3.84 0.98
4 -2 3 2.75 1.51
4 -2 3 3.55 2.68
4 -2 3 1.53 1.23
-4 2 -3 3.1 2.42
4 -2 3 2.23 1.6
4 -2 4 176.76 8.86
4 -2 4 194.75 11.26
4 -2 4 178.9 12.75
4 -2 4 170.88 7.55
4 -2 4 193.95 10.45
-4 2 -4 198.19 13.68
4 -2 5 207.19 9
4 -2 5 236.03 13.81
4 -2 5 199.4 10.51
-4 2 -5 219.76 15.09
4 -2 6 411.39 19.84
-4 2 -6 476.64 21.95
4 -2 6 429.18 15.53
-4 2 -6 446.78 22.69
4 -2 7 596.91 25.8
-4 2 -7 652.21 27.29
4 -2 7 616.79 18.52
-4 2 -8 39.06 7.7
4 -2 8 46.04 7.88
-4 2 -8 38.54 7.36
-4 2 -9 7.91 4.31
4 -2 9 1.99 2.78
-4 2 -9 6.43 3.72
-4 2 -10 38.21 8.61
4 -2 10 54.26 9.78
-4 2 -10 61.69 10.33
4 -2 11 282.07 23.12
-4 2 -11 284.93 22.82
-4 2 -11 339.45 25.64
4 -2 12 150.38 18.14
-4 2 -12 159.65 18.12
-4 2 -12 180.61 19.74
-4 1 13 31.09 7.88
4 -1 -13 37.19 8.83
-4 1 12 72.7 11.56
-4 1 12 70.64 10.64
4 -1 -12 70.08 11.22
-4 1 11 72.03 11.01
-4 1 11 91.12 11.44
4 -1 -11 89.89 11.81
-4 1 10 554.87 28.84
-4 1 10 520.1 25.27
4 -1 -10 559.79 27.03
-4 1 9 486.37 22.59
-4 1 9 453.66 24.84
4 -1 -9 463.66 22.95
-4 1 8 289.1 19.04
-4 1 8 240.3 14.57
4 -1 -8 277.28 16.59
-4 1 7 35.63 6.79
-4 1 7 33.89 5.1
4 -1 -7 26.86 5.5
4 -1 -7 27.77 4.97
-4 1 6 17.6 4.84
4 -1 -6 20.16 2.47
-4 1 6 20.05 3.65
4 -1 -6 20.31 3.99
4 -1 -6 24.77 5.03
-4 1 5 249.89 15.49
4 -1 -5 221.9 7.06
-4 1 5 230.41 10.36
4 -1 -5 247.26 14.79
4 -1 -5 241.11 11.85
-4 1 4 182.7 12.63
-4 1 4 191.67 7.99
4 -1 -4 179.21 6.14
4 -1 -4 207.52 12.99
4 -1 -4 200.87 9.65
-4 1 3 786.16 25.13
-4 1 3 736.91 12.36
4 -1 -3 777.82 24.17
4 -1 -3 758.2 13.49
4 -1 -2 427.83 11.41
-4 1 2 454.85 12.39
-4 1 2 430.03 18.3
4 -1 -2 458.99 17.8
-4 1 2 451.64 11.8
4 -1 -1 215.06 11.92
-4 1 1 225.36 13.19
4 -1 -1 227.11 13.16
-4 1 1 235.99 9.95
4 -1 -1 218.06 11.78
-4 1 1 220.43 7.8
4 -1 0 861.9 23.19
-4 1 0 987.07 27.5
4 -1 0 913.05 26.37
-4 1 0 892.13 13.45
4 -1 0 934.7 13.58
-4 1 0 966.64 22.28
4 -1 0 824.5 21.77
-4 1 -1 7.69 2.53
4 -1 1 6.63 2.46
-4 1 -1 9.15 1.87
4 -1 1 7.69 3.23
4 -1 1 5.58 1.54
-4 1 -1 8.53 1.34
4 -1 1 7.86 2.41
4 -1 2 2467.9 37.12
-4 1 -2 2588.91 24.73
4 -1 2 2615.24 46.14
4 -1 2 2541.5 33.87
4 -1 2 2494.09 35.24
-4 1 -2 2456.02 41.52
4 -1 3 349.63 13.66
4 -1 3 393.86 18.63
-4 1 -3 351.62 17.05
4 -1 3 358.22 14.47
4 -1 3 336.2 12.49
-4 1 -4 193.45 13.43
4 -1 4 196.67 10.14
-4 1 -4 190.18 11.68
4 -1 4 188.38 13.56
4 -1 4 184.18 11.63
4 -1 4 202.15 9.44
4 -1 5 40.88 6.2
-4 1 -5 31.56 5.4
-4 1 -5 41.72 6.83
4 -1 5 41.18 4.13
4 -1 6 63.11 8.23
4 -1 6 57.44 4.79
-4 1 -6 49.64 7.03
-4 1 -7 14.1 4.71
4 -1 7 25.8 6.11
-4 1 -7 27.36 5.76
-4 1 -8 457.08 25.84
4 -1 8 440.82 24.52
-4 1 -8 466.8 24.5
-4 1 -9 182.85 17.39
4 -1 9 153.59 15.57
-4 1 -9 193.12 16.81
4 -1 10 173.79 17.52
-4 1 -10 142.39 15.29
-4 1 -10 146.97 16.45
-4 1 -11 0.49 1.35
4 -1 11 0.76 3.74
-4 1 -11 0.53 2.47
-4 1 -12 11.2 4.91
4 -1 12 6.56 4.57
-4 1 -12 3.52 3.33
-4 0 13 362.44 25.39
4 0 -13 391.17 26.33
-4 0 13 394.81 27.28
-4 0 12 185.97 17.7
4 0 -12 188.49 15.37
-4 0 12 197.35 17.64
4 0 -12 188.54 17.24
4 0 -11 12.44 4.08
-4 0 11 14.84 5.1
-4 0 11 12.75 4.91
4 0 -11 15.69 5.11
4 0 -10 21.34 4.97
-4 0 10 11.63 5.05
-4 0 10 15.23 4.57
4 0 -10 17.39 4.79
-4 0 9 492.05 24.74
4 0 -9 452.1 21.76
-4 0 9 448.86 21.95
4 0 -9 433.46 21.23
-4 0 8 382.45 20.95
4 0 -8 370.18 19.3
-4 0 8 378.36 18.53
4 0 -8 354.64 17.65
-4 0 7 968.03 31.56
4 0 -7 955.27 29.98
4 0 -7 994.36 26.85
-4 0 6 555.16 22.91
4 0 -6 561.77 22.35
4 0 -6 579.48 18.46
4 0 -5 198.38 13
-4 0 5 185.1 12.86
4 0 -5 194.37 9.48
4 0 -4 22.28 4.53
-4 0 4 22.57 4.52
-4 0 4 23.54 2.9
4 0 -4 16.18 2.46
4 0 -4 22.73 4.56
4 0 -3 670.82 22.6
-4 0 3 653.3 22.34
-4 0 3 650.58 14.7
4 0 -3 667.46 22.2
-4 0 3 670.46 12.24
4 0 -2 427.09 17.68
-4 0 2 462.95 18.71
-4 0 2 413.94 7.06
-4 0 2 410.39 10.95
-4 0 2 430.78 11.11
4 0 -2 471.41 17.65
4 0 -1 1483.65 32.11
-4 0 1 1447.02 32.88
4 0 -1 1421.03 33.68
-4 0 1 1451.05 24.1
-4 0 1 1439.52 21.24
4 0 -1 1427.83 29.48
4 0 0 27.52 4.5
-4 0 0 32.27 5.25
4 0 0 26.89 4.86
4 0 0 29.45 3.45
-4 0 0 30.54 2.39
4 0 0 34.29 4.42
-4 0 0 22.51 3.52
4 0 1 645.53 20.73
-4 0 -1 651.8 19.87
4 0 1 654.53 23.34
4 0 1 632.56 17.13
-4 0 -1 658.39 15.75
-4 0 -1 634.88 13.69
4 0 1 655.9 17.8
4 0 2 32.4 4.77
-4 0 -2 24.62 3.3
4 0 2 24.11 4.97
4 0 2 22.04 3.69
-4 0 -2 19.33 3.91
-4 0 -2 25.87 3.43
4 0 2 25.66 3.43
4 0 3 219.42 11.93
-4 0 -3 233.95 14.08
-4 0 -3 227.43 10.83
4 0 3 226.45 14.81
4 0 3 227.5 12.61
-4 0 -3 216.56 10.86
4 0 3 203.7 8.72
-4 0 -4 854.34 28.43
-4 0 -4 816.54 22.1
4 0 4 796.76 28.63
4 0 4 807.24 25.9
-4 0 -4 779.31 13.97
-4 0 -4 784.39 23.14
4 0 4 803.06 15.67
-4 0 -5 725.48 28.17
4 0 5 691.13 26.03
4 0 5 687.15 12.51
-4 0 -5 726.18 24.22
-4 0 -6 422.3 22.77
4 0 6 453.13 22.58
-4 0 -6 409.15 19.85
-4 0 -7 178.89 15.73
-4 0 -7 188.02 14.61
4 0 7 152.25 14.14
-4 0 -8 4.43 3.6
4 0 8 -0.53 2.89
-4 0 -8 2.51 2.8
-4 0 -9 111.24 13.92
4 0 9 137.71 15.26
-4 0 -9 122.59 13.49
-4 0 -10 180.22 18.6
4 0 10 198.98 19.19
-4 0 -10 188.67 17.5
-4 0 -11 240.75 22.33
4 0 11 232.2 22.15
-4 0 -11 212.48 19.8
-4 -1 13 11.22 5.45
-4 -1 13 11.43 4.9
4 1 -13 9.93 4.91
-4 -1 12 215.94 18.38
4 1 -12 204.1 15.73
-4 -1 12 214.69 18.7
4 1 -12 220.9 18.14
-4 -1 12 220.88 20.27
4 1 -11 304.36 18.84
-4 -1 11 266.26 19.69
-4 -1 11 296.36 20.42
4 1 -11 314.61 20.06
-4 -1 11 297.34 22.59
-4 -1 10 451.82 23.89
4 1 -10 442.26 22.11
-4 -1 10 433.58 23.58
4 1 -10 442.19 22.19
4 1 -9 11.84 3.88
-4 -1 9 8.02 3.27
4 1 -9 10.71 3.58
4 1 -8 2.07 2.6
-4 -1 8 5.34 3.29
4 1 -8 6.34 2.48
4 1 -7 73.79 9.48
4 1 -7 58.96 7.64
-4 -1 7 61.59 7.93
4 1 -7 65.47 6.49
4 1 -6 329.35 19.3
4 1 -6 328.61 17.48
-4 -1 6 347.83 17.26
4 1 -6 323.13 12.77
4 1 -5 633.23 23.65
-4 -1 5 644.01 22.55
4 1 -5 673.56 26.66
4 1 -5 655.09 15.39
4 1 -4 873.29 29.48
4 1 -4 859.45 26.86
-4 -1 4 860.72 25.37
4 1 -4 839.79 13.28
4 1 -3 781.29 25.37
4 1 -3 757.19 26.65
-4 -1 3 670.31 22.09
-4 -1 3 696.98 11.19
4 1 -2 3.48 2.37
-4 -1 2 2.32 1.01
4 1 -2 1.28 2.33
-4 -1 2 3.41 1.87
4 1 -1 226.17 13.73
4 1 -1 228.07 13.35
-4 -1 1 231.33 13.04
4 1 -1 228.57 13.92
-4 -1 1 229.98 10.04
4 1 0 422.86 18.14
4 1 0 436.86 18.38
4 1 0 424.68 19.13
-4 -1 0 414.91 15.16
4 1 0 434.96 15.45
4 1 1 180.74 11.57
4 1 1 194.06 12.27
4 1 1 198.54 13.35
-4 -1 -1 205.39 11.83
4 1 1 194.89 11.01
-4 -1 -1 198.43 10.61
-4 -1 -1 190.23 7.18
4 1 2 698.88 23.26
4 1 2 687.81 25.31
4 1 2 714.02 22.62
-4 -1 -2 684.69 20.46
-4 -1 -2 752.59 24.09
-4 -1 -2 667.67 16.62
4 1 3 249.27 15.95
-4 -1 -3 236.37 12.71
4 1 3 275.61 15.19
-4 -1 -3 249 15.03
-4 -1 -3 224.82 11.1
-4 -1 -3 234.2 8.36
-4 -1 -3 232.06 8.55
4 1 4 1.89 2.73
4 1 4 2.53 2.82
-4 -1 -4 0.58 2.1
-4 -1 -4 0.21 1.62
-4 -1 -4 0.69 1.43
-4 -1 -5 440.94 19.71
-4 -1 -5 478.67 23.62
4 1 5 498.95 23.47
-4 -1 -5 448.72 19.37
-4 -1 -6 383.06 22.38
4 1 6 357.13 21.15
-4 -1 -6 401.01 19.81
-4 -1 -7 414.02 24.55
4 1 7 411.58 24.19
-4 -1 -7 418.8 21.85
-4 -1 -8 298.07 22.03
4 1 8 258.79 20.48
-4 -1 -8 291.47 19.65
4 1 9 24.06 7.09
-4 -1 -9 20.64 5.86
-4 -1 -9 23.06 6.8
-4 -1 -10 3.39 2.93
4 1 10 8.31 5.25
-4 -1 -10 2.52 2.61
-4 -2 13 49.86 10.27
-4 -2 13 37.99 8.86
4 2 -13 59.58 10.13
-4 -2 12 20.36 6.77
-4 -2 12 15.44 5.69
4 2 -12 18.09 5.51
4 2 -11 18.95 5.05
4 2 -11 6.49 3.78
-4 -2 11 12.81 4.52
4 2 -10 63.92 9.96
4 2 -10 66.88 8.87
-4 -2 10 77.43 11.65
-4 -2 10 53 7.88
4 2 -10 53.88 7.73
4 2 -9 506.4 26.92
4 2 -9 543.09 24.33
-4 -2 9 545.44 23.73
4 2 -9 576.02 22.68
-4 -2 9 557.72 29.28
4 2 -8 320.25 18.32
-4 -2 8 303.8 16.91
4 2 -8 316.36 15.33
-4 -2 8 302.37 20.81
4 2 -8 313.66 20.69
4 2 -7 386.11 19.81
-4 -2 7 369.31 17.77
4 2 -7 384.21 22.35
4 2 -7 365.1 14.75
4 2 -6 41.49 7.36
4 2 -6 34.19 6.02
-4 -2 6 35.3 5.45
4 2 -6 31.32 3.75
4 2 -5 57.75 8.38
4 2 -5 66.11 8.13
-4 -2 5 61.16 6.85
4 2 -5 67.44 4.43
4 2 -4 935.31 29.55
-4 -2 4 861.94 11.37
-4 -2 4 928.09 25.38
4 2 -4 953.84 32.35
4 2 -3 1292.55 34.37
-4 -2 3 1370.3 30.65
4 2 -3 1390.06 38.04
4 2 -2 850 27.65
-4 -2 2 808.27 23.85
4 2 -2 860.89 28.97
4 2 -1 389.71 18.84
-4 -2 1 375.26 16.63
4 2 -1 378.08 18.39
-4 -2 1 421.63 17.84
4 2 -1 420.12 19.76
4 2 0 30.32 5.38
4 2 0 30.83 5.52
-4 -2 0 37.85 5.18
4 2 0 28.44 5.28
4 2 0 27.9 4.84
4 2 1 154.48 12.05
4 2 1 172.48 13
4 2 1 170.61 11.73
-4 -2 -1 163.88 11.22
-4 -2 -1 171.18 7.3
-4 -2 -1 166.98 9.86
4 2 1 143.74 10.91
4 2 2 626.74 25.03
4 2 2 616.51 23.41
-4 -2 -2 553.75 21.2
-4 -2 -2 599.9 16.75
-4 -2 -2 604.95 17.05
4 2 2 553.39 20.57
4 2 3 400.07 16.75
4 2 3 349.67 19.46
4 2 3 365.79 19.14
-4 -2 -3 374.56 10.86
-4 -2 -3 380.4 15.15
4 2 4 963.44 33.38
-4 -2 -4 964.84 30.52
4 2 4 931.75 32.2
-4 -2 -4 939.5 26.37
4 2 5 1.7 2.1
4 2 5 3.99 2.74
-4 -2 -5 0.27 1.8
-4 -2 -5 2.81 2.26
4 2 6 16.79 5.52
-4 -2 -6 27.5 5.83
-4 -2 -6 20.22 4.79
-4 -2 -7 108.93 13.32
4 2 7 96.5 12.63
-4 -2 -7 101.27 11.21
4 2 8 102.19 13.54
-4 -2 -8 99.97 13.55
-4 -2 -8 125.98 13.33
-4 -2 -9 468.78 30.18
4 2 9 470.4 30.31
-4 -2 -9 471.68 27.21
-4 -2 -10 147.19 17.89
4 2 10 139.07 17.6
-4 -2 -10 135.27 15.47
-4 -3 13 149.8 18.41
4 3 -12 229.56 20.23
-4 -3 12 285.51 24.32
4 3 -11 100.37 11.35
4 3 -11 109.54 13.67
-4 -3 11 105.82 14.49
4 3 -10 75.71 11.28
4 3 -10 65.23 9.01
-4 -3 10 63.53 10.82
-4 -3 10 75.61 8.94
4 3 -10 52.15 7.52
4 3 -9 9.66 4.91
4 3 -9 5.8 3
-4 -3 9 13.72 5.83
-4 -3 9 7.76 3.51
4 3 -9 3.64 2.02
4 3 -8 179.85 11.36
-4 -3 8 201.82 12.91
4 3 -8 197.46 15.05
4 3 -8 229.17 18.61
-4 -3 8 201.26 17.68
-4 -3 7 686.2 22.75
4 3 -7 627.33 26.26
4 3 -7 660.78 19.39
-4 -3 7 664.42 30.78
4 3 -7 717.7 31.89
4 3 -6 107.7 11.15
-4 -3 6 107.2 8.74
4 3 -6 117.23 7.07
-4 -3 6 127.37 13.09
4 3 -6 133.44 13.44
4 3 -5 307.49 18.15
-4 -3 5 321.02 14.53
4 3 -5 297.61 9.11
-4 -3 5 311.5 19.42
4 3 -5 337.39 20.96
4 3 -4 23.77 5.79
4 3 -4 25.34 5.53
-4 -3 4 23.05 5.52
-4 -3 4 21.06 4.05
4 3 -3 15.88 4.79
4 3 -3 18.64 4.83
-4 -3 3 15.13 4.34
-4 -3 3 17.31 3.7
4 3 -2 743.44 27.97
-4 -3 2 739.52 22.58
-4 -3 2 745.96 26.51
4 3 -2 752.87 29.16
4 3 -1 106.51 10.76
4 3 -1 120.2 10.71
-4 -3 1 112.13 9.89
4 3 -1 108.57 10.84
4 3 0 829.83 28.35
4 3 0 846.16 28.22
-4 -3 0 802.95 27.4
-4 -3 0 834.18 25.36
4 3 0 882.52 29.81
-4 -3 -1 394.34 12.64
4 3 1 358.13 19.17
4 3 1 344.3 18.68
-4 -3 -1 333.45 17.88
-4 -3 -1 369.69 15.7
4 3 1 378.89 19
4 3 2 24.61 4.9
-4 -3 -2 31.55 4.26
4 3 2 33.27 6.26
4 3 2 29.1 5.87
-4 -3 -2 27.42 3.98
-4 -3 -2 31.76 5.86
4 3 3 6.11 2.7
4 3 3 -0.61 2.05
4 3 3 2.46 2.98
-4 -3 -3 3.66 2.1
-4 -3 -3 0.12 1.84
4 3 4 54.49 8.28
4 3 4 55.24 8.76
-4 -3 -4 59.46 7.07
-4 -3 -4 58.24 8.5
-4 -3 -5 273.51 18.67
4 3 5 292.37 19.96
4 3 5 279.4 20.28
-4 -3 -5 313.56 17.61
-4 -3 -6 295.78 20.4
4 3 6 320.64 21.7
4 3 6 331.84 22.89
-4 -3 -6 345.68 19.91
-4 -3 -7 119.76 13.58
4 3 7 94.62 12.92
-4 -3 -7 100.59 11.54
4 3 8 22.83 6.89
-4 -3 -8 24.95 6.33
-4 -3 -9 20.49 6.55
4 3 9 38.79 9.69
-4 -3 -9 23.78 6.54
4 4 -13 27.06 7.55
-4 -4 13 29.62 8.58
4 4 -12 72.9 12
-4 -4 12 90.99 14.43
4 4 -11 332.08 21.05
4 4 -11 341.29 25.28
-4 -4 11 385.34 28.29
4 4 -10 261.97 18.74
-4 -4 10 222.04 20.9
4 4 -10 205.87 19.3
4 4 -9 220.01 16.96
-4 -4 9 255.03 21.58
4 4 -9 244.1 20.68
4 4 -8 76.19 11.4
4 4 -8 56.44 8.58
-4 -4 8 52.7 9.54
4 4 -7 177.33 14.94
4 4 -7 176.9 16.81
-4 -4 7 212 18.37
4 4 -6 424.94 22.75
-4 -4 6 412.56 15.68
4 4 -6 383.65 24.36
4 4 -5 97.94 11.06
4 4 -5 85.73 11.39
-4 -4 5 91.99 7.38
-4 -4 5 93.63 11.36
4 4 -4 71.28 10.37
4 4 -4 71.84 9.56
-4 -4 4 70.51 6.63
-4 -4 4 78.34 10.23
4 4 -3 359.53 20.88
-4 -4 3 316.03 14.27
-4 -4 3 322.56 19.45
4 4 -3 332.45 21.18
4 4 -2 8.02 4.01
-4 -4 2 7.63 3.45
-4 -4 2 10.43 3.15
4 4 -1 17.16 4.82
-4 -4 1 18.61 4.59
4 4 -1 12.55 3.67
4 4 0 299.89 17.63
-4 -4 0 268.54 17.54
-4 -4 0 311.92 16.58
4 4 0 265.99 17.76
4 4 1 380.84 20.3
4 4 1 370.47 21.29
-4 -4 -1 372.79 21
-4 -4 -1 358.31 16.63
4 4 1 390.19 20.88
4 4 2 534.6 24.71
4 4 2 517.77 25.78
-4 -4 -2 533.19 25.62
4 4 2 550.21 23.9
4 4 3 65.72 8.2
4 4 3 79.16 9.85
4 4 3 77.97 10.68
-4 -4 -3 75.6 7.81
-4 -4 -3 81.76 10.53
4 4 4 1.88 2.15
4 4 4 0.97 2.84
-4 -4 -4 0.85 1.7
-4 -4 -4 5.49 3.35
4 4 5 -0.41 1.94
4 4 5 -1.12 2.75
-4 -4 -5 3.04 1.91
4 4 6 8.18 3.69
4 4 6 11.19 4.94
-4 -4 -6 13.72 4.89
-4 -4 -7 174.47 17.38
4 4 7 153.14 16.32
4 4 7 149.77 17.24
-4 -4 -8 149.42 16.84
4 4 8 146.41 16.58
4 4 8 111.97 15.5
4 5 -12 35.46 9.1
-4 -5 12 48.53 10.79
4 5 -11 0.54 2.21
4 5 -11 3.23 2.54
-4 -5 11 -5.14 4.21
4 5 -10 46.22 9.73
4 5 -10 40.38 7.89
-4 -5 10 30.99 8.17
4 5 -9 196.01 16.69
-4 -5 9 196.59 19.85
4 5 -9 186.57 19.09
4 5 -8 310.51 20.89
-4 -5 8 312.82 24.13
4 5 -8 290.24 23.24
4 5 -7 318.88 21.16
-4 -5 7 319.12 23.41
4 5 -7 328.43 24.31
4 5 -6 100.52 13.39
-4 -5 6 114.9 13.89
4 5 -5 16.31 5.9
-4 -5 5 10.59 4.18
4 5 -4 43.82 8.91
-4 -5 4 44.54 8.16
-4 -5 3 319.35 20.45
4 5 -3 305.02 21.87
-4 -5 2 594.72 26.86
4 5 -2 556.9 28.83
-4 -5 1 218.33 17.31
-4 -5 1 268.08 17.34
4 5 -1 275.19 19.92
-4 -5 0 24.16 6.08
4 5 0 26.26 6.41
-4 -5 0 29.7 5.53
4 5 0 24.49 5.44
-4 -5 -1 48.61 8.6
4 5 1 47.21 8.18
4 5 1 52.14 7.81
4 5 1 43.59 8.52
4 5 2 13.19 4.62
4 5 2 9.28 4.07
4 5 2 5.93 4.19
-4 -5 -2 6.64 3.95
4 5 3 586.06 27.61
-4 -5 -3 564.36 29.52
4 5 3 561.89 30.38
4 5 4 174.17 15.8
-4 -5 -4 143.67 15.47
4 5 4 177.3 17.82
4 5 5 263.55 19.99
-4 -5 -5 246.55 20.9
4 5 5 273.04 22.57
-4 -5 -6 67.59 11.59
4 5 6 63.65 10.59
4 5 6 53.93 10.52
4 6 -11 34.09 9.23
-4 -6 11 70.64 13.34
4 6 -10 46.16 10.41
-4 -6 10 50.06 10.94
4 6 -9 23.27 7.1
-4 -6 9 36.44 9.15
4 6 -8 85.04 13.47
-4 -6 8 60.18 11.43
4 6 -7 115.27 15.34
-4 -6 7 83.35 12.87
-4 -6 6 381.36 26.09
4 6 -6 372.1 26.88
-4 -6 5 128.9 14.98
4 6 -5 143.81 16.59
4 6 -4 100.37 14.03
-4 -6 4 112.95 13.52
4 6 -3 3.37 3.73
-4 -6 3 5.37 2.94
4 6 -2 41.74 8.79
-4 -6 2 48.51 8.31
-4 -6 1 66.71 10.7
4 6 -1 98.82 13.16
-4 -6 1 107.27 11.69
-4 -6 0 374.88 24.7
4 6 0 416.04 25.73
4 6 1 38.13 7.87
-4 -6 -1 29.24 7.56
-4 -6 -2 335.72 24.14
4 6 2 348.64 25.15
4 6 3 53.16 10.23
-4 -6 -3 43.54 9.21
4 6 4 74.87 12.5
-4 -6 -4 84.74 12.82
4 7 -9 137.08 18.31
-4 -7 9 113.97 16.24
4 7 -8 28.8 8.95
-4 -7 8 46.67 10.56
4 7 -7 43.47 10.53
-4 -7 7 30.95 8.45
4 7 -6 12.13 5.87
-4 -7 6 12.75 5.77
-4 -7 5 279.25 22.88
4 7 -5 264.99 24.15
-4 -7 4 237.35 20.43
4 7 -4 240.79 22.39
-4 -7 3 236.62 19.67
4 7 -3 195.41 19.99
4 7 -2 54.6 10.61
-4 -7 2 63.9 10.89
-4 -7 2 60.3 9.82
-4 -7 1 6.96 4.35
4 7 -1 5.75 4.12
-4 -7 0 49.97 9.99
4 7 0 58.46 10.62
4 7 1 24.83 7.06
-4 -7 -1 27.09 7.56
-4 -7 -2 135.82 16.76
4 8 -7 39.42 10.64
-4 -8 7 36.35 9.39
4 8 -6 88.91 15.01
-4 -8 6 94.31 14.3
4 8 -5 2.13 4.4
-4 -8 5 -5.26 4.37
4 8 -4 33.13 9.16
-4 -8 4 43.31 9.53
4 8 -3 87.18 14.31
-4 -8 3 84.48 12.43
-4 -8 3 59.1 11.45
-4 -8 2 76.76 13.06
4 8 -2 95.79 14.58
-4 -8 1 119.58 15.99
4 8 -1 99.48 14.95
-5 11 -2 48.85 11.47
5 -11 2 44.02 10.07
-5 11 -3 1.68 2.72
5 -11 3 5.3 3.98
5 -11 4 29.61 8.49
-5 11 -4 43.64 10.49
5 -10 -3 168.67 17.6
-5 10 3 156.79 19.09
-5 10 2 5.58 5.18
5 -10 -2 11.01 5.21
-5 10 1 -0.61 3.95
5 -10 -1 13.43 5.08
-5 10 0 48.48 10.79
5 -10 0 63.43 11.2
-5 10 -1 19.55 8
5 -10 1 46.57 9.69
-5 10 -2 90.38 14.08
5 -10 2 52.51 10.35
5 -10 3 198.33 19.76
-5 10 -3 206.59 21.43
5 -10 4 5.66 4.51
-5 10 -4 6.88 4.25
-5 10 -5 6.2 3.79
5 -10 5 0.41 3.98
5 -10 6 39.34 9.16
-5 10 -6 37.42 9.48
5 -10 7 129.33 16.7
-5 10 -7 112.72 16.49
-5 9 5 -3.66 3.45
5 -9 -5 -5.42 3.72
-5 9 4 16.6 5.72
5 -9 -4 21.08 6.07
5 -9 -4 34.58 8.02
-5 9 3 194.05 17.92
5 -9 -3 212.46 17.75
5 -9 -3 239.55 20.15
-5 9 2 217.25 18.29
5 -9 -2 220.58 17.2
5 -9 -2 220.05 19.31
-5 9 1 422.77 24.57
5 -9 -1 420.45 22.89
5 -9 -1 420.46 26.55
-5 9 0 140.88 13.81
5 -9 0 121.86 14.6
-5 9 0 153.75 17.45
-5 9 -1 24.97 7.21
-5 9 -1 24.24 5.71
5 -9 1 13.9 5.36
-5 9 -2 113.1 14.91
-5 9 -2 118.53 12.17
5 -9 2 138.48 15.59
5 -9 3 186.63 18.04
-5 9 -3 158.61 17.76
5 -9 4 416.04 27.06
-5 9 -4 400.53 27.9
5 -9 5 113.87 14.16
-5 9 -5 90.16 13.33
5 -9 6 90.63 13.05
-5 9 -6 94.45 13.87
5 -9 7 3.05 2.49
-5 9 -7 -1.68 2.7
5 -9 8 80.28 12.74
-5 9 -8 66.08 11.23
5 -9 8 69.03 12.05
5 -9 9 176.91 19.41
-5 9 -9 160.36 17.93
-5 8 7 116.09 15.66
5 -8 -7 103 13.16
-5 8 6 135.38 16.14
5 -8 -6 100.07 12.67
-5 8 5 216.59 19.52
5 -8 -5 177.98 16.83
-5 8 4 139.77 15.34
5 -8 -4 144.2 13.93
5 -8 -4 150.94 15.32
-5 8 3 87.66 11.65
5 -8 -3 75.45 9.65
5 -8 -3 74.5 10.87
-5 8 2 37.42 7.92
5 -8 -2 46.79 7.58
5 -8 -2 45.86 8.43
-5 8 1 161.56 14.95
5 -8 -1 137.9 11.95
5 -8 -1 138.96 14.59
-5 8 0 238.39 17.59
5 -8 0 250.35 15.3
5 -8 0 271.1 20.28
-5 8 -1 659.63 28.47
5 -8 1 694.7 32.27
-5 8 -2 137.54 12.94
5 -8 2 152.46 15.26
5 -8 3 2.2 2.95
-5 8 -3 2.61 2.23
-5 8 -3 4.79 3.59
5 -8 4 44.1 8.6
-5 8 -4 48.2 9.19
-5 8 -4 48.19 7.82
5 -8 5 41.69 8.41
-5 8 -5 44.15 8.96
-5 8 -5 41.78 7.13
-5 8 -6 279.8 18.51
5 -8 6 310.65 22.43
-5 8 -6 289.65 22.22
5 -8 7 93.36 12.69
-5 8 -7 115.07 15.39
-5 8 -7 137.87 15.4
5 -8 8 116.4 14.33
-5 8 -8 108.05 13.76
-5 8 -8 116.41 15.43
-5 8 -9 -0.79 2.99
5 -8 9 -1.37 2.83
-5 8 -9 -3.73 3.46
5 -8 10 22.59 6.62
-5 8 -10 20.8 7.35
-5 7 8 233.37 21.9
5 -7 -8 181.97 17.18
-5 7 7 53.08 10.4
5 -7 -7 35.06 7.39
-5 7 6 41.26 8.92
5 -7 -6 51.64 8.86
-5 7 5 212.41 18.89
5 -7 -5 199.58 17
-5 7 4 77.36 11.26
5 -7 -4 64.84 9.64
-5 7 3 603.59 29.39
5 -7 -3 593.28 24.64
5 -7 -3 584.65 28.37
-5 7 2 147.58 14.34
5 -7 -2 147.41 11.56
5 -7 -2 135.79 13.66
-5 7 1 15.55 4.8
5 -7 -1 7.95 3.01
5 -7 -1 14.7 5.09
-5 7 0 128.96 12.66
5 -7 0 145.91 10.35
5 -7 0 142.85 14.04
-5 7 -1 104.84 11.27
5 -7 1 125.24 9.08
5 -7 1 125.28 12.94
-5 7 -2 506.84 24.2
5 -7 2 565.02 27.48
-5 7 -3 176.16 14.36
5 -7 3 181.27 11.6
5 -7 3 182.53 15.85
5 -7 4 65.94 9.62
5 -7 4 57.16 6.92
-5 7 -4 51.29 8.03
-5 7 -5 54.38 9.18
5 -7 5 59.38 9.44
5 -7 5 57.23 7.24
-5 7 -5 51.7 7.93
-5 7 -5 42.09 8.71
-5 7 -6 -5.33 3.53
5 -7 6 6.01 3.58
-5 7 -6 5.92 2.97
5 -7 6 5.61 3.17
-5 7 -6 8.1 4.5
5 -7 7 68.32 10.2
-5 7 -7 96.07 11.77
-5 7 -7 80.56 10.35
5 -7 7 76.41 9.36
-5 7 -7 68.46 11.37
-5 7 -8 241.6 21.55
-5 7 -8 282.15 19.77
5 -7 8 230.09 17.07
5 -7 8 246.57 19.4
-5 7 -8 235.7 18.81
-5 7 -9 326.59 22.14
-5 7 -9 336.97 26.3
5 -7 9 304.32 20.74
5 -7 9 325.58 22.69
5 -7 10 0.72 3.05
-5 7 -10 8.7 5.11
5 -7 11 7.91 5.81
-5 7 -11 2.12 2.19
-5 6 9 179.13 19.39
5 -6 -9 195.1 19.42
5 -6 -9 191.84 17.35
-5 6 8 185.27 18.98
5 -6 -8 181.7 16.41
5 -6 -8 192.65 18.66
-5 6 7 409.3 27.23
5 -6 -7 359.44 22.76
-5 6 6 346.41 24.07
5 -6 -6 396.14 23.27
-5 6 5 38.75 8.25
-5 6 5 38.23 5.72
5 -6 -5 25.06 6.07
-5 6 4 -0.64 3.68
-5 6 4 3.89 2.08
5 -6 -4 0.56 2.16
-5 6 3 144.56 14.23
5 -6 -3 132.72 12.91
-5 6 2 281.02 18.99
5 -6 -2 274.38 14.03
5 -6 -2 276.78 18.47
-5 6 1 194.9 15.43
5 -6 -1 199.9 11.17
5 -6 -1 196.19 15.36
-5 6 0 239.54 16.68
5 -6 0 222.29 10.8
5 -6 0 252.02 17.42
-5 6 -1 96.81 10.57
5 -6 1 92.37 6.46
5 -6 1 118.84 11.93
5 -6 2 12.6 3.32
-5 6 -2 14.18 4.25
5 -6 2 12.79 2.31
5 -6 2 6.73 3.47
-5 6 -3 116.91 12.72
-5 6 -3 118.43 11.59
5 -6 3 103.75 9.34
5 -6 3 122.27 12.16
-5 6 -4 533.77 27.49
-5 6 -4 595.21 26.16
5 -6 4 542.16 22.06
5 -6 4 578.85 26.49
-5 6 -5 297.98 21.14
-5 6 -5 261.03 17.67
5 -6 5 276.8 16.54
5 -6 5 274.29 18.58
-5 6 -6 349.63 20.93
-5 6 -6 324.72 22.8
5 -6 6 306.21 18.36
-5 6 -6 312.58 19.89
5 -6 6 379.57 21.82
5 -6 7 -1.74 1.97
-5 6 -7 -0.67 2.22
5 -6 7 0.87 2.31
-5 6 -7 -0.45 3.2
5 -6 8 90.4 11.44
5 -6 8 98.16 11.4
5 -6 8 87.43 10.83
-5 6 -8 88.72 10.63
-5 6 -8 95.02 13.44
-5 6 -9 271.46 23
5 -6 9 264.7 20.53
5 -6 9 256.97 18.75
5 -6 10 34.9 7.13
-5 6 -10 26.65 7.5
5 -6 10 20.37 6.33
5 -6 11 176.46 18.95
-5 6 -11 194.17 20.71
-5 5 10 174.54 19.25
5 -5 -10 143.6 15.06
5 -5 -10 204.05 19.75
-5 5 9 19.82 6.32
5 -5 -9 29.58 7.67
5 -5 -9 25.48 6.45
-5 5 8 8.33 4.58
5 -5 -8 1.18 3.13
5 -5 -8 6.6 3.78
-5 5 7 24.46 7.18
5 -5 -7 18.7 5.58
5 -5 -7 31.66 6.52
-5 5 6 314.6 22.23
-5 5 6 323.78 16.05
5 -5 -6 324.38 20.4
-5 5 5 477.98 26.41
-5 5 5 500.74 18.06
5 -5 -5 534.5 25.59
-5 5 4 577.46 27.95
-5 5 4 631.06 18.41
5 -5 -4 572.21 26.11
-5 5 3 419.02 23.11
5 -5 -3 421.84 22
-5 5 2 110.17 11.57
5 -5 -2 106.28 10.9
-5 5 1 56.45 8.23
5 -5 -1 75.86 9.2
-5 5 0 461.2 22.6
5 -5 0 486.69 22.66
-5 5 -1 333.14 19.15
5 -5 1 321.7 18.29
-5 5 -2 511.78 24.26
-5 5 -2 488.91 23.28
5 -5 2 475.52 20.06
5 -5 2 497.72 22.85
-5 5 -3 100.69 11.17
-5 5 -3 102.12 10.86
5 -5 3 120.55 10.54
5 -5 3 116.29 11.14
-5 5 -4 51.67 8.15
5 -5 4 39.7 6.49
-5 5 -4 42.1 7.43
5 -5 4 36.52 6.38
-5 5 -5 163.88 14.2
-5 5 -5 153.26 14.68
5 -5 5 167.62 13.36
5 -5 5 170.49 13.5
5 -5 6 409.88 20.58
5 -5 6 374.26 20.83
-5 5 -6 432.32 25.34
5 -5 6 400.64 20.89
5 -5 7 175.23 14.63
5 -5 7 215.23 16.57
-5 5 -7 195.82 17.76
5 -5 7 203.79 15.07
-5 5 -7 194.99 14.39
-5 5 -8 223.2 19.54
5 -5 8 229.38 16.32
5 -5 9 31.49 6.24
-5 5 -9 39.36 8.79
5 -5 9 30.97 7.1
-5 5 -10 -5.64 4.26
5 -5 10 -0.82 3.1
-5 5 -11 68.69 12.37
5 -5 11 63.02 11.4
-5 5 -11 86.98 13.51
-5 4 11 2.82 5.13
5 -4 -11 1.18 2.83
-5 4 10 93.13 13.95
5 -4 -10 79.48 10.92
5 -4 -10 65.53 10.99
-5 4 9 297.43 23.4
5 -4 -9 236.43 18.43
5 -4 -9 267.89 20.3
-5 4 8 441.57 27.35
5 -4 -8 417.73 23.85
5 -4 -8 407.72 23.9
-5 4 7 325.39 22.61
-5 4 7 327.26 16.31
5 -4 -7 345.85 21.03
5 -4 -7 362.16 21.31
-5 4 6 30.74 7.18
-5 4 6 33.84 4.86
5 -4 -6 36.53 6.86
5 -4 -6 42.84 7.54
-5 4 5 49.72 8.52
-5 4 5 63.03 5.77
5 -4 -5 67.95 9.06
-5 4 4 726 30.21
-5 4 4 728.91 16.44
5 -4 -4 719.45 27.98
-5 4 3 791.54 30.5
5 -4 -3 818.58 29.28
-5 4 2 769.39 29.34
5 -4 -2 799.67 28.35
-5 4 1 258.38 16.84
5 -4 -1 245.76 15.59
-5 4 0 159.42 12.09
-5 4 0 177.53 13.84
5 -4 0 164.47 12.5
-5 4 -1 20.78 5.19
5 -4 1 18.45 4.25
5 -4 1 16.75 2.11
5 -4 1 15.42 2
-5 4 -1 16.95 4.49
5 -4 1 13.62 3.93
-5 4 -2 318.33 18.13
5 -4 2 304.3 16.75
5 -4 2 289.72 10.61
5 -4 2 311.63 16.85
-5 4 -3 1256.52 36.96
5 -4 3 1226.1 34.13
-5 4 -3 1275.08 37.36
5 -4 3 1344.78 26.67
5 -4 3 1320.27 34.68
5 -4 4 821.35 29.1
5 -4 4 871.19 24.18
-5 4 -4 853.39 31.87
5 -4 4 836.02 27.54
5 -4 5 8.95 2.47
-5 4 -5 10.27 4.29
5 -4 5 11.53 4.08
5 -4 5 9 3.12
5 -4 5 9.13 3.39
-5 4 -6 7.33 3.9
5 -4 6 4.32 3.21
5 -4 6 2 2.19
5 -4 6 1.53 1.9
5 -4 7 97.62 10.58
5 -4 7 107.35 10.16
-5 4 -7 118.94 10.16
5 -4 8 223.33 17.09
-5 4 -8 237.72 19.99
5 -4 8 231.99 14.98
5 -4 9 367.31 23.4
-5 4 -9 310.93 23.84
-5 4 -9 353.82 24.27
5 -4 10 122.84 14.58
-5 4 -10 130.27 16.03
-5 4 -10 148.73 16.45
5 -4 11 147.97 17.03
-5 4 -11 167.79 19
-5 4 -11 133.34 16.37
-5 3 12 179.82 19.79
5 -3 -12 167.29 18.01
-5 3 11 152.75 17.55
5 -3 -11 146.72 16.02
-5 3 10 15.17 5.37
5 -3 -10 32.52 7.66
-5 3 9 16.06 5.69
-5 3 9 14.49 3.91
5 -3 -9 10.11 4.46
5 -3 -9 14.29 4.93
-5 3 8 380.22 24.6
-5 3 8 353.84 17.65
5 -3 -8 389.6 22.7
5 -3 -8 367.7 21.2
-5 3 7 457.92 25.86
-5 3 7 441.54 17.92
5 -3 -7 453.28 23.79
5 -3 -7 446.72 22.09
-5 3 6 19.68 5.79
-5 3 6 24.69 3.99
5 -3 -6 21.1 4.79
5 -3 -6 25.78 5.8
-5 3 5 422.56 23.1
-5 3 5 396.91 12.69
5 -3 -5 420.41 21.7
5 -3 -5 413.44 18.93
-5 3 4 -0.4 3.07
-5 3 4 1.69 0.78
5 -3 -4 0.76 2.08
-5 3 3 27 5.98
5 -3 -3 12.21 3.92
-5 3 2 520.17 23.49
-5 3 2 489.4 13.23
5 -3 -2 497.7 21.47
-5 3 1 494.75 18.89
-5 3 1 530.18 23.5
-5 3 1 443.5 9.25
5 -3 -1 487.71 20.85
-5 3 0 961.42 31.63
-5 3 0 937.65 27.08
5 -3 0 1009.33 30.13
5 -3 0 937.31 28.22
-5 3 -1 102.27 10.44
5 -3 1 99.85 9.71
-5 3 -1 98.5 9.26
5 -3 1 89.6 4.08
5 -3 1 106.97 9.54
-5 3 -2 28.44 5.37
-5 3 -2 25.91 5.55
5 -3 2 29.37 3.32
5 -3 2 29.82 5.58
5 -3 2 27 4.82
5 -3 3 5.27 2.2
-5 3 -3 6.67 3.29
5 -3 3 2.13 2.58
5 -3 3 10.11 2.5
5 -3 3 13.48 3.65
5 -3 4 142.99 9.25
5 -3 4 128.75 12.02
5 -3 4 146.21 9.83
-5 3 -4 140.14 12.73
5 -3 4 140.78 10.56
5 -3 5 338.88 13.28
5 -3 5 367.53 20.86
5 -3 5 328.08 16.42
-5 3 -5 335.09 20.31
5 -3 5 346.27 16.45
5 -3 6 95.88 11.16
5 -3 6 83.75 9.21
-5 3 -6 84.71 10.89
5 -3 6 66.37 7.3
5 -3 7 239.1 16.52
-5 3 -7 243.6 19.27
5 -3 7 219.49 13.2
5 -3 8 8.54 4
-5 3 -8 11.19 4.53
-5 3 -8 11.07 4.41
5 -3 9 26.59 6.74
-5 3 -9 29.41 7.61
-5 3 -9 29.76 7.07
5 -3 10 55.2 9.98
-5 3 -10 86.66 13.22
-5 3 -10 68.87 11.09
5 -3 11 128.89 15.87
-5 3 -11 162.46 17.69
-5 3 -11 136.2 17.07
-5 2 12 253.93 22.9
5 -2 -12 242.74 20.91
-5 2 11 261.45 22.21
5 -2 -11 215.71 18.62
-5 2 10 499.07 29.31
-5 2 10 487.03 23.82
5 -2 -10 481.34 25.99
-5 2 9 328.05 22.81
-5 2 9 335.13 18.39
5 -2 -9 362.57 21.15
-5 2 8 348.9 22.78
-5 2 8 368.91 17.62
5 -2 -8 363.9 21.74
5 -2 -8 326.23 18.66
-5 2 7 402.09 23.47
-5 2 7 418.06 16.96
5 -2 -7 395.81 21.95
5 -2 -7 424.39 19.85
-5 2 6 180.42 15.17
-5 2 6 191.13 10.07
5 -2 -6 213.8 15.73
5 -2 -6 184.12 12.33
-5 2 5 306.3 19.14
-5 2 5 274.18 9.99
5 -2 -5 298.54 17.84
5 -2 -5 288.12 14.26
-5 2 4 771.09 29.26
-5 2 4 711.92 11.64
5 -2 -4 788.29 27.96
-5 2 3 435.27 21.45
5 -2 -3 432.47 20.07
-5 2 2 51.33 4.19
5 -2 -2 46.76 6.54
-5 2 1 363.03 19.33
-5 2 1 364.57 15
5 -2 -1 414.89 18.46
-5 2 0 473.48 21.77
5 -2 0 493.41 21.67
-5 2 0 486.94 18.36
5 -2 0 446.93 18.81
5 -2 1 651.44 22.07
-5 2 -1 697.49 26.72
5 -2 1 669.01 25.5
5 -2 1 670.83 12.89
-5 2 -1 627.63 22.21
5 -2 1 686.59 22.58
5 -2 2 758.67 23.12
5 -2 2 663.21 25.92
5 -2 2 722.55 17.19
-5 2 -2 710.82 25.02
5 -2 2 691.9 22.21
5 -2 3 118.73 8.94
5 -2 3 109.65 10.9
5 -2 3 118.02 8.17
-5 2 -3 142.01 11.85
5 -2 3 112.11 8.81
5 -2 4 119.5 8.69
5 -2 4 98.04 10.68
5 -2 4 106.52 8.79
-5 2 -4 103.08 10.8
5 -2 4 95.54 7.97
-5 2 -5 35.39 6.97
5 -2 5 29.73 4.36
5 -2 5 27.06 6.58
5 -2 5 30.54 5.41
5 -2 5 25 4
-5 2 -6 40.64 7.74
5 -2 6 36.82 7.17
5 -2 6 39.69 6.79
-5 2 -6 47.44 7.35
5 -2 6 34.44 4.69
5 -2 7 471.49 23.74
-5 2 -7 503.76 24.75
-5 2 -7 493.44 27.06
5 -2 8 208.15 16.97
-5 2 -8 165.75 15.27
-5 2 -8 169.67 16.73
5 -2 9 159.85 15.92
-5 2 -9 155.12 15.42
-5 2 -9 154.98 16.82
-5 2 -10 5.21 3.65
5 -2 10 0.14 3.08
-5 2 -10 3.85 3
5 -2 11 25.28 7.63
-5 2 -11 17.5 5.74
-5 1 12 42.13 9.17
5 -1 -12 47.85 8.52
5 -1 -12 43.94 8.84
-5 1 11 11.42 5.2
5 -1 -11 11.86 3.97
5 -1 -11 12.49 4.99
-5 1 10 240.45 19.76
-5 1 10 237.96 16.6
5 -1 -10 241.25 17.53
-5 1 9 113.37 13.1
-5 1 9 127.86 11.33
5 -1 -9 107.15 11.26
-5 1 8 704.67 31.12
-5 1 8 668.31 23.61
5 -1 -8 701.49 25.83
-5 1 7 286.24 19.11
-5 1 7 295.89 14.21
5 -1 -7 272.27 18.05
5 -1 -7 304.7 15.58
-5 1 6 149.25 13.5
-5 1 6 136.78 8.61
5 -1 -6 159.06 13.5
5 -1 -6 144.99 9.87
-5 1 5 18.18 4.9
-5 1 5 16.29 2.68
5 -1 -5 12.87 2.89
5 -1 -5 16.73 4.6
-5 1 4 16.49 4.84
-5 1 4 13.63 2.03
5 -1 -4 15.95 4.29
5 -1 -3 269.15 15.93
-5 1 3 263.46 16.39
-5 1 3 242.91 6.07
5 -1 -3 276.99 15.82
5 -1 -2 1396.81 35.21
-5 1 2 1396.62 36.94
-5 1 2 1410.99 25.2
5 -1 -2 1425.8 34.58
-5 1 2 1435.23 20.73
5 -1 -1 288.54 15.68
-5 1 1 317.2 17.8
5 -1 -1 320.9 17.83
-5 1 1 341.32 13.67
5 -1 -1 335.37 16.37
-5 1 1 330.5 9.72
-5 1 0 11.3 1.77
5 -1 0 7.57 3.01
-5 1 0 8.89 3.73
5 -1 0 13.2 3.87
-5 1 0 11.15 1.76
-5 1 0 14.55 3.17
5 -1 0 16.19 3.63
5 -1 1 2.06 1.76
-5 1 -1 0.07 2.52
5 -1 1 -2.16 2.26
5 -1 1 0.58 0.82
-5 1 -1 0.21 0.54
5 -1 1 0.12 1.21
-5 1 -1 1.7 1.4
-5 1 -2 21.4 4.48
5 -1 2 21.25 4.07
5 -1 2 18.24 4.85
5 -1 2 18.45 3.22
-5 1 -2 18.62 2.33
5 -1 2 21.99 3.82
5 -1 3 726.25 22.89
5 -1 3 728.9 28.5
5 -1 3 701.62 21.4
-5 1 -3 720.72 21.41
-5 1 -3 667.89 25.58
5 -1 4 660.46 21.58
5 -1 4 654.43 28.08
5 -1 4 660.65 22.96
-5 1 -4 655.34 22.28
-5 1 -4 648.57 26.62
5 -1 5 524.96 26
5 -1 5 514.87 22.2
-5 1 -5 527.91 21.59
-5 1 -5 495.12 24.55
5 -1 6 187.76 16.34
5 -1 6 193.89 14.82
-5 1 -6 204.64 14.58
-5 1 -6 193.1 16.58
-5 1 -7 10.71 4.58
5 -1 7 8.46 4.2
-5 1 -7 14.72 4.62
5 -1 8 227.36 18.36
-5 1 -8 228.8 17.49
-5 1 -8 254.19 20.83
5 -1 9 195.72 18
-5 1 -9 217.4 18.09
-5 1 -9 206.85 19.71
5 -1 10 137.77 16.3
-5 1 -10 138.69 15.5
-5 1 -10 152.62 17.74
-5 0 13 170.14 18.12
-5 0 13 180.19 19.85
-5 0 12 149.21 16.26
5 0 -12 156.09 15.16
5 0 -12 168.32 16.1
5 0 -11 131.84 13.66
-5 0 11 106.54 13.17
-5 0 11 109.48 12.2
5 0 -11 122.16 12.89
5 0 -10 73.05 9.84
-5 0 10 64.13 9.98
-5 0 10 66.26 8.89
5 0 -10 86.32 10.14
5 0 -9 1.39 3.06
-5 0 9 3.1 2.82
5 0 -9 2.05 1.99
5 0 -8 86.24 10.28
-5 0 8 90.3 10.72
-5 0 8 105.86 9.76
5 0 -8 89.24 8.77
5 0 -7 296.59 18.4
-5 0 7 322.04 19.56
5 0 -7 296.38 14.2
5 0 -6 715.53 27.81
-5 0 6 703.5 27.86
5 0 -6 734.11 19.87
5 0 -5 517.17 23.21
-5 0 5 514.75 23.1
5 0 -5 534.76 14.64
5 0 -4 111.95 10.72
-5 0 4 115.92 10.93
5 0 -4 137.07 11.65
5 0 -3 100.63 9.96
-5 0 3 106.16 10.23
-5 0 3 116.3 5.59
-5 0 3 102.33 6.1
5 0 -3 120.49 10.45
5 0 -2 106.47 10.12
-5 0 2 118.51 10.8
-5 0 2 104.89 6.09
-5 0 2 106.76 6.7
5 0 -2 114.4 9.84
5 0 -1 625.73 23.66
-5 0 1 576.48 23.62
5 0 -1 600.49 25.04
5 0 -1 604.15 21.43
-5 0 1 574.43 17.54
5 0 0 658.64 23.99
-5 0 0 680.8 25.98
5 0 0 729.91 27.56
5 0 0 652.59 17.64
5 0 0 695.71 21.84
-5 0 0 650.16 10.64
-5 0 0 679.7 17.46
-5 0 0 691.36 21.18
-5 0 -1 500.5 19.51
5 0 1 465.25 20.02
5 0 1 533.86 23.91
5 0 1 499.87 16.48
-5 0 -1 491.46 15.05
5 0 1 472.31 17.18
-5 0 -1 494.71 12.35
5 0 2 182.88 12.43
-5 0 -2 187.23 12.96
5 0 2 194.26 14.92
-5 0 -2 170.64 9.32
5 0 2 166.39 10.57
5 0 2 172.42 9.91
-5 0 -2 184.7 9.06
-5 0 -3 12.17 4.19
5 0 3 16.08 4.05
5 0 3 19.55 5.2
5 0 3 22.23 4.58
-5 0 -3 14.42 2.88
-5 0 -3 11.71 2.8
5 0 3 14.29 2.88
-5 0 -4 368.6 20.54
-5 0 -4 385.85 15.9
5 0 4 359.27 21.38
5 0 4 382 18.82
5 0 4 390.53 12.78
-5 0 -4 362.23 16.03
-5 0 -5 447.27 23.94
5 0 5 427.05 24.1
5 0 5 412.74 21.11
-5 0 -5 459.46 19.89
-5 0 -6 256.24 19.23
5 0 6 259.63 19.64
5 0 6 247.34 17.5
-5 0 -6 256.48 16.19
-5 0 -7 192.37 17.59
5 0 7 197.81 16.79
-5 0 -7 195.32 15.19
5 0 8 24.8 6.56
-5 0 -8 28.87 6.43
-5 0 -8 17.9 6.06
5 0 9 38.82 8.82
-5 0 -9 57.37 9.31
-5 0 -9 50.92 10.2
-5 0 -10 285.89 24.63
5 0 10 258.95 22.76
-5 0 -10 230.18 19.92
-5 -1 13 2.81 3.66
-5 -1 13 -0.83 2.22
5 1 -12 33.28 7.03
-5 -1 12 48.17 9.15
-5 -1 12 30.45 8.07
-5 -1 12 30.92 7.29
5 1 -11 94.68 11.61
-5 -1 11 94.71 12.06
-5 -1 11 93.67 13.59
-5 -1 11 67.34 10.01
5 1 -10 141.25 13.74
-5 -1 10 157.7 14.78
-5 -1 10 147.9 13.65
5 1 -9 228.23 17.16
-5 -1 9 249.16 17.9
5 1 -8 285.78 18.74
-5 -1 8 297.03 18.72
5 1 -8 303.91 14.77
5 1 -7 28.49 6.19
-5 -1 7 39.78 6.88
5 1 -7 33.06 4.41
5 1 -6 25.8 5.69
-5 -1 6 31.22 6.01
5 1 -6 37.45 3.94
5 1 -5 966.53 35.17
5 1 -5 957.91 32.26
-5 -1 5 891.96 29.56
5 1 -4 444.18 23.29
5 1 -4 424.65 21.13
-5 -1 4 424.21 19.94
5 1 -3 683.94 28.12
5 1 -3 698.98 26.78
-5 -1 3 692.9 25.41
-5 -1 3 669.34 13.88
5 1 -2 263.81 17.18
5 1 -2 263.18 16.35
-5 -1 2 258.01 15.59
-5 -1 2 261.92 10.83
-5 -1 1 -0.12 1.29
5 1 -1 1.83 2.09
5 1 -1 3.17 2.53
-5 -1 1 -0.06 2.27
5 1 -1 -0.81 2.85
-5 -1 0 1.69 1.64
5 1 0 -0.79 2.07
-5 -1 0 -0.07 2.24
5 1 0 1.2 2.66
-5 -1 0 2.89 1.96
5 1 0 -1.9 1.66
5 1 1 219.82 14.68
-5 -1 -1 232.78 13.85
5 1 1 220.53 15.83
5 1 1 255.34 13.68
-5 -1 -1 239.04 12.53
-5 -1 -1 237.94 7.75
5 1 2 364.79 18.89
-5 -1 -2 330.19 17.65
5 1 2 375.88 21.16
-5 -1 -2 352.49 15.77
5 1 2 356.69 17.21
-5 -1 -2 336.66 11.88
-5 -1 -3 460.19 22.13
5 1 3 412.03 22.77
-5 -1 -3 434.48 18.31
5 1 3 478.33 21.24
-5 -1 -3 437.31 15.73
-5 -1 -4 85.07 8.64
-5 -1 -4 75.8 9.71
5 1 4 83.49 10.7
5 1 4 83.62 9.66
-5 -1 -4 75.51 7.43
-5 -1 -5 1.4 2.26
5 1 5 -0.12 2.6
-5 -1 -5 1.86 1.51
-5 -1 -5 2.76 1.81
5 1 6 8.66 4.12
5 1 6 6.02 3.66
-5 -1 -6 8.85 3.33
-5 -1 -6 4.24 3.16
-5 -1 -7 237.3 19.96
5 1 7 223.95 19.48
5 1 7 233.4 19.2
-5 -1 -7 237.8 16.85
5 1 8 126.92 14.87
5 1 8 121.21 14.93
-5 -1 -8 127.14 15.41
-5 -1 -8 128.72 13.45
-5 -1 -9 444.11 30.01
5 1 9 407.46 27.95
-5 -1 -9 436.61 26.12
5 2 -12 133.84 14.16
-5 -2 12 139.89 17.56
-5 -2 12 115.03 13.95
5 2 -11 15.94 5.08
-5 -2 11 16.05 6.31
-5 -2 11 10.01 4.35
5 2 -10 -3.16 2.63
-5 -2 10 -1.63 2.88
-5 -2 10 1.96 2.12
5 2 -9 309.51 22.93
5 2 -9 272.3 18.98
-5 -2 9 293.96 18.55
-5 -2 9 329.51 23.99
5 2 -8 359.91 24.14
5 2 -8 383.38 22.12
-5 -2 8 360.57 19.74
-5 -2 8 435.27 26.62
5 2 -7 368.47 23.74
5 2 -7 345.44 20.76
-5 -2 7 351.32 18.97
5 2 -6 98.92 12.14
5 2 -6 128.29 12.57
-5 -2 6 105.48 10.16
5 2 -5 54.7 9.01
5 2 -5 64.17 8.96
-5 -2 5 66.77 8.02
5 2 -4 150.01 13.23
-5 -2 4 148 11.6
5 2 -4 117.57 12.63
5 2 -3 137.25 12.57
-5 -2 3 127.28 7.01
-5 -2 3 123.11 10.68
5 2 -3 116.27 12.28
5 2 -2 351.22 19.77
-5 -2 2 353.4 18.12
-5 -2 2 368.2 14.01
5 2 -2 359.9 20.85
5 2 -1 456.45 22.6
-5 -2 1 467.25 21.3
5 2 -1 461.96 22.93
-5 -2 1 459.56 17.41
-5 -2 1 489.32 21.12
5 2 -1 450.79 22.82
5 2 0 189.57 14.44
5 2 0 198.87 14.97
5 2 0 184.37 14.81
-5 -2 0 219.28 13.15
-5 -2 0 186.44 12.55
-5 -2 0 220.73 13.38
-5 -2 -1 42.44 6.14
5 2 1 45.98 7.06
5 2 1 50.88 7.7
-5 -2 -1 39.28 5.53
5 2 1 40.54 7.15
5 2 1 41.37 6.51
5 2 2 78.83 8.76
5 2 2 64.95 9.19
5 2 2 78.98 9.16
-5 -2 -2 80.1 7.03
-5 -2 -2 54.06 7.17
5 2 3 124.98 13.12
-5 -2 -3 146.93 12.06
-5 -2 -3 150.69 13.38
5 2 3 134.81 12.42
5 2 4 351.47 22.46
-5 -2 -4 320.22 18.42
-5 -2 -4 351.3 21.47
5 2 4 292.07 19.17
5 2 5 44.96 8.54
5 2 5 58.17 9.34
-5 -2 -5 49.47 7.69
-5 -2 -5 50 8.84
5 2 6 31.47 7.29
5 2 6 17.83 5.66
-5 -2 -6 20.35 5.79
-5 -2 -6 27.48 6.97
5 2 7 18.91 5.97
5 2 7 30.9 7.4
-5 -2 -7 36.61 8.63
-5 -2 -8 7.44 4.08
5 2 8 2.96 2.9
5 3 -12 301.6 21.54
-5 -3 12 330.24 27.49
5 3 -11 131.08 16.17
5 3 -11 111.01 12.93
-5 -3 11 93.12 14.14
5 3 -10 286.25 23.45
5 3 -10 254.81 19.12
-5 -3 10 270.27 23.23
5 3 -9 34.26 8.09
5 3 -9 52.78 8.81
-5 -3 9 54.25 10.4
5 3 -8 4.81 3.65
5 3 -8 3.58 3.33
-5 -3 8 6.55 3.43
-5 -3 8 -2.37 1.99
5 3 -7 137.44 13.73
-5 -3 7 129.44 11.05
-5 -3 7 126.37 14.35
5 3 -7 117.66 14.16
5 3 -6 128.06 13.1
-5 -3 6 140.45 11.25
-5 -3 6 133.8 14.23
5 3 -6 127.81 14.59
5 3 -5 380.86 22.16
-5 -3 5 387.73 18.23
-5 -3 5 391.01 23.35
5 3 -5 367.32 23.67
5 3 -4 509.18 25.57
-5 -3 4 516.09 21.02
-5 -3 4 509.62 25.72
5 3 -4 482.38 26.56
5 3 -3 65.19 9.75
5 3 -3 48.02 8.23
-5 -3 3 42.93 7.31
-5 -3 3 44.65 6.52
5 3 -2 16.73 5.11
5 3 -2 18.3 5.3
-5 -3 2 29.77 6.16
-5 -3 2 20.83 4.45
5 3 -1 316.69 20.14
-5 -3 1 315.26 17.68
5 3 -1 307.6 19.25
-5 -3 1 384.58 19.65
5 3 -1 319.24 20.3
5 3 0 392.94 22.03
-5 -3 0 391.23 20.25
-5 -3 0 404.3 19.2
5 3 0 361.93 20.94
5 3 1 570.76 26.94
5 3 1 535.7 24.99
-5 -3 -1 532.47 23.98
-5 -3 -1 577.61 21.39
5 3 1 579.12 25.77
5 3 2 167.82 15.06
5 3 2 174.72 14.61
-5 -3 -2 151.01 13.08
5 3 2 154.87 13.06
5 3 3 118.48 13.19
-5 -3 -3 111.22 11.55
5 3 3 121.67 12.9
5 3 4 5.19 3.5
5 3 4 2.05 3.2
-5 -3 -4 3.78 2.74
5 3 5 250.45 20.2
-5 -3 -5 214.94 17.39
5 3 5 221.23 18.78
-5 -3 -6 226.78 18.43
5 3 6 216.93 19.44
5 3 6 271.5 21.78
-5 -3 -6 287.5 22.69
-5 -3 -7 117.71 13.87
5 3 7 120.92 15.19
-5 -3 -7 136.25 16.29
5 3 7 126.64 15.72
5 4 -12 0.37 2.79
5 4 -12 -3.84 2.92
5 4 -11 89.8 13.92
5 4 -11 99.68 12.97
-5 -4 11 69.24 12.54
5 4 -10 75.17 12.77
5 4 -10 96.86 12.43
-5 -4 10 80.92 13.37
5 4 -9 167.68 16.23
-5 -4 9 203.26 20.33
5 4 -9 167.25 18.33
5 4 -8 152.65 15.18
-5 -4 8 175.1 18.13
5 4 -8 148.62 17.05
5 4 -7 170.33 15.88
-5 -4 7 160.22 16.89
5 4 -7 138.98 16.31
5 4 -6 47.27 9.63
5 4 -6 55.46 9.26
-5 -4 6 49.21 9.07
5 4 -5 40.15 8.92
5 4 -5 37.2 7.61
-5 -4 5 27.73 6.65
5 4 -4 146.8 14.86
-5 -4 4 167.34 11.74
-5 -4 4 160.19 15.33
5 4 -4 153.22 16.1
5 4 -3 413.94 24.41
-5 -4 3 389.47 18.28
-5 -4 3 436.73 24.1
5 4 -3 424.71 25.8
-5 -4 2 240.48 14.99
-5 -4 2 200.34 15.68
5 4 -2 224.19 18.47
5 4 -1 18.95 5.42
-5 -4 1 25.17 5.87
-5 -4 1 29.95 5.99
-5 -4 1 26.79 5.51
-5 -4 0 0.13 2.37
5 4 0 3.05 2.46
-5 -4 0 8.5 3.34
5 4 0 6.5 3.28
5 4 1 36.75 7.16
5 4 1 34.39 6.85
5 4 1 19.5 6.11
-5 -4 -1 28.74 6.37
5 4 2 180.03 15.99
-5 -4 -2 178.57 15.79
5 4 2 220.6 18.12
5 4 2 222.93 16.58
5 4 3 219.21 18.06
-5 -4 -3 199.2 16.93
5 4 3 224.6 18.81
5 4 4 265.78 20.64
-5 -4 -4 215.06 18.14
5 4 4 274.43 21.36
5 4 5 108.33 13.74
5 4 5 107.18 14.15
-5 -4 -5 84.65 11.86
5 4 6 10.52 4.49
5 4 6 8.86 4.73
-5 -4 -6 5.61 2.61
5 5 -11 8.89 5.27
5 5 -11 19.63 6.23
-5 -5 11 5.18 4.08
5 5 -10 -9.08 5
5 5 -10 -0.07 2.42
-5 -5 10 -6.63 4.65
5 5 -9 160.7 16.58
-5 -5 9 134.99 17.26
5 5 -9 158.53 18.76
5 5 -8 16.64 6.45
5 5 -8 19.42 6.17
-5 -5 8 16.93 5.91
5 5 -7 600.73 31.36
-5 -5 7 612.21 34.16
5 5 -7 644.85 36.08
5 5 -6 104.32 14.59
-5 -5 6 97.32 13.29
5 5 -5 115.34 15.07
-5 -5 5 100.89 13.31
5 5 -4 -3.48 3.61
-5 -5 4 1.48 2.51
5 5 -3 71.72 11.46
-5 -5 3 38.25 7.73
-5 -5 2 224.94 17.47
5 5 -2 245.3 20.58
-5 -5 1 257.92 19.73
-5 -5 1 214.8 16.4
5 5 -1 259.31 20.57
-5 -5 0 50.33 8.97
5 5 0 76.51 11.03
5 5 0 60.47 9.26
5 5 1 24.79 6.23
5 5 1 14.12 4.77
-5 -5 -1 23.91 6.31
5 5 2 13.37 4.44
5 5 2 4.75 3.72
-5 -5 -2 15.04 5.45
5 5 3 55.77 9.61
5 5 3 69.25 11.74
-5 -5 -3 61.24 10.34
5 5 4 281.9 21.88
-5 -5 -4 236.14 20.69
5 5 4 263.02 22.65
5 6 -9 47.37 10.94
-5 -6 9 58.56 12.01
5 6 -8 6.54 4.85
-5 -6 8 15.84 6.74
5 6 -7 49.56 11.35
-5 -6 7 41.13 9.79
-5 -6 6 148.83 17.3
5 6 -6 174.2 19.71
-5 -6 5 167.44 17.63
5 6 -5 174.6 19.29
-5 -6 4 180.16 17.63
5 6 -4 155.1 18.12
5 6 -3 76.81 12.77
-5 -6 3 88.96 12.01
5 6 -2 29.89 8
-5 -6 2 20.28 6.7
-5 -6 2 21.4 5.93
-5 -6 1 31.23 7.84
5 6 -1 28.62 7.95
-5 -6 0 142.99 16.05
5 6 0 192.37 18.53
-5 -6 -1 78.58 11.94
-5 -6 -2 55.82 10.34
5 7 -7 92.2 15.78
-5 -7 7 108.93 15.65
5 7 -6 1.52 4.31
-5 -7 6 1.75 2.82
5 7 -5 26.7 8.53
-5 -7 5 39.99 9.27
5 7 -4 134.78 17.83
-5 -7 4 142.21 16.44
5 7 -3 21.85 7.87
-5 -7 3 25.33 7.57
-5 -7 2 207.24 20.47
5 7 -2 164.44 18.99
-5 -7 1 67.54 11.93
5 7 -1 51.23 10.77
-6 10 2 120.39 15.15
-6 10 2 87.32 14.69
6 -10 -2 112.05 15.1
-6 10 1 15.9 5.53
-6 10 1 19.21 7.69
6 -10 -1 25.49 7.66
-6 10 0 57.25 11.96
6 -10 0 60.92 11.07
-6 10 -1 1.75 3.66
6 -10 1 -5.72 4.46
6 -10 2 199.76 20.23
-6 10 -2 209.38 21.98
6 -10 3 379.6 27.98
-6 10 -3 373.96 29.31
-6 10 -4 119.01 16.97
6 -10 4 136.63 17
-6 10 -5 39.86 9.89
6 -10 5 30.76 8.48
6 -10 6 5.57 3.56
-6 10 -6 20.71 7.35
-6 9 4 27.56 7.23
6 -9 -4 34.43 8.21
-6 9 3 25.51 6.98
6 -9 -3 15.98 6.1
-6 9 2 146.33 16.03
6 -9 -2 143.46 16.35
-6 9 1 368.14 24.74
6 -9 -1 388.53 26.51
-6 9 0 40.78 8.07
6 -9 0 48.28 9.45
-6 9 -1 5.83 4.12
6 -9 1 1.03 2.68
-6 9 -2 9.15 4.29
6 -9 2 25.19 7.03
-6 9 -3 152.03 15.1
6 -9 3 167.6 17.75
-6 9 -3 156.64 17.77
-6 9 -4 82.06 12.95
-6 9 -4 78.7 10.78
6 -9 4 73.34 11.96
-6 9 -5 107.05 14.74
6 -9 5 85.09 12.87
6 -9 6 51.94 10.18
-6 9 -6 59.05 11.16
6 -9 7 190.92 19.46
-6 9 -7 207.64 20.87
6 -9 8 5.12 3.63
-6 9 -8 0.89 2.59
-6 8 6 146.91 17.61
6 -8 -6 131.27 15.37
-6 8 5 196.06 19.83
6 -8 -5 217.3 19.56
-6 8 4 310.46 23.83
6 -8 -4 353.43 24.62
-6 8 3 144 16.07
6 -8 -3 129.84 14.93
-6 8 2 43.27 8.73
6 -8 -2 27.31 6.89
-6 8 1 12.41 4.91
6 -8 -1 13.67 5.72
-6 8 0 228.38 18.58
6 -8 0 228.38 19.48
-6 8 -1 2.9 2.98
6 -8 1 8.75 4.14
-6 8 -2 367.06 22.92
6 -8 2 353.62 24.24
-6 8 -3 107.97 12.52
6 -8 3 98.52 12.89
-6 8 -4 45.33 8.26
6 -8 4 40.16 8.45
-6 8 -5 50.27 9.63
-6 8 -5 36.82 7.47
6 -8 5 52.32 9.77
-6 8 -6 99.17 13.4
-6 8 -6 90.21 13.95
-6 8 -6 102.01 12.51
6 -8 6 123.35 14.64
-6 8 -7 184.51 19.98
-6 8 -7 136.47 14.71
6 -8 7 168.68 17.34
-6 8 -7 207.25 19.16
-6 8 -8 193.78 21.04
-6 8 -8 172.34 16.87
6 -8 8 214.35 19.67
-6 8 -8 175.4 17.75
6 -8 9 77.31 12.13
-6 8 -9 65.94 12.53
-6 7 8 82.26 13.68
6 -7 -8 83.44 12.15
-6 7 7 63.55 11.57
6 -7 -7 69.59 11.04
-6 7 6 54.67 10.55
6 -7 -6 40.42 8.46
-6 7 5 -0.8 3.3
6 -7 -5 0.49 3.63
-6 7 4 -0.42 4.46
6 -7 -4 1.94 2.23
-6 7 3 462.36 27.51
6 -7 -3 452.84 26.4
-6 7 2 294.6 21.41
6 -7 -2 277.32 20.51
-6 7 1 580.91 29.53
6 -7 -1 544.1 28.48
-6 7 0 7.06 4.19
6 -7 0 1.42 3.1
-6 7 -1 23.98 6.49
6 -7 1 11.09 4.53
-6 7 -2 32.23 7.24
6 -7 2 45.12 8.4
-6 7 -3 169.24 15.43
6 -7 3 186.48 13.66
6 -7 3 175.58 16.08
-6 7 -4 262 21.3
-6 7 -4 242.95 18.58
6 -7 4 227.13 15.59
6 -7 4 231.33 18.67
-6 7 -5 254.7 21.48
-6 7 -5 227.1 18.38
6 -7 5 204.2 15.45
6 -7 5 255.47 19.75
-6 7 -6 0.5 2.03
-6 7 -6 -4.3 3.34
6 -7 6 2.38 2.67
-6 7 -6 2.42 3.42
6 -7 6 -0.42 2.69
-6 7 -7 -4.07 2.81
-6 7 -7 -2.21 3.12
6 -7 7 1.23 2.41
-6 7 -7 -0.36 2.67
-6 7 -8 136.28 15.04
-6 7 -8 159.93 18.53
6 -7 8 157.35 15.4
6 -7 8 148.53 15.44
-6 7 -9 147.81 16.19
-6 7 -9 182.09 20.51
6 -7 9 152.79 15.97
6 -7 9 193.3 17.79
-6 6 9 15.84 5.64
6 -6 -9 12.16 4.67
-6 6 8 7.87 5.06
6 -6 -8 23.2 6.68
-6 6 7 154.3 17.49
6 -6 -7 140.31 15.15
-6 6 6 404.37 27.19
6 -6 -6 424.83 25.72
-6 6 5 194.97 18.44
6 -6 -5 213.72 18.04
-6 6 4 127.07 14.53
6 -6 -4 160.22 15.31
-6 6 3 5.45 3.96
6 -6 -3 1.3 2.29
-6 6 2 23.68 6.46
6 -6 -2 23.01 5.84
-6 6 1 428.17 24.81
6 -6 -1 475.77 25.42
-6 6 0 438.32 24.55
6 -6 0 469.38 25.07
-6 6 -1 475.89 25.59
6 -6 1 483.71 25.36
-6 6 -2 180.92 16.03
6 -6 2 151.06 12.64
6 -6 2 182.66 15.51
-6 6 -3 16.97 5.48
6 -6 3 19.45 4.92
-6 6 -3 26 6.71
6 -6 3 28.5 6.36
-6 6 -4 73.39 10.46
6 -6 4 75.05 9.39
-6 6 -4 71.77 10.89
6 -6 4 92.57 11.19
-6 6 -5 406.27 24.36
-6 6 -5 463.07 27.63
6 -6 5 408.47 22.5
6 -6 5 475.33 25.3
-6 6 -6 127.11 14.03
-6 6 -6 130.32 15.47
6 -6 6 145.16 14.03
6 -6 6 132.68 13.54
-6 6 -7 110.91 13.42
6 -6 7 92.09 11.65
6 -6 7 127.4 13.31
-6 6 -7 120.6 12.86
-6 6 -7 122.4 15.41
-6 6 -8 63.18 11.97
6 -6 8 61.63 10.08
6 -6 8 65.84 9.74
-6 6 -9 -8.06 5.47
6 -6 9 1.87 2.45
-6 6 -10 172.3 19.84
6 -6 10 180.15 18.46
-6 5 10 142.93 18
6 -5 -10 140.29 15.88
6 -5 -10 147.9 16.89
-6 5 9 270.83 23.92
6 -5 -9 315.13 23.11
6 -5 -9 306.03 23.18
-6 5 8 211.03 20.58
6 -5 -8 191.03 17.59
-6 5 7 2.58 2.9
6 -5 -7 2.3 2.61
-6 5 6 46.56 9.28
6 -5 -6 59.38 9.56
-6 5 5 153.35 16.03
6 -5 -5 154.78 14.91
-6 5 4 243.96 19.37
6 -5 -4 222.32 17.4
-6 5 3 301.57 21.2
6 -5 -3 318.81 20.58
-6 5 2 34.21 7.19
6 -5 -2 49.79 8.08
-6 5 1 -0.52 3.24
6 -5 -1 9.33 3.65
-6 5 0 27.83 6.65
6 -5 0 26.44 6.02
-6 5 -1 377.42 21.54
-6 5 -1 387.48 22.85
6 -5 1 406.24 21.96
-6 5 -2 476.57 24.73
-6 5 -2 488.73 25.7
6 -5 2 462.61 22.66
6 -5 2 467.78 23.53
-6 5 -3 98.86 11.77
-6 5 -3 73.46 10.13
6 -5 3 77.45 9.68
6 -5 3 87.15 10.35
-6 5 -4 239.34 18.55
-6 5 -4 228.67 18.2
6 -5 4 250.83 17.55
6 -5 4 247.85 17.06
-6 5 -5 6.65 3.94
6 -5 5 0.12 2.59
6 -5 5 0.3 1.81
6 -5 5 2.48 2.17
-6 5 -6 13.09 5.31
6 -5 6 20.76 5.79
6 -5 6 26.48 5.44
6 -5 6 26.63 5.93
-6 5 -7 43.08 9.05
6 -5 7 58.91 9.73
6 -5 7 50.92 7.88
6 -5 7 60.98 8.69
-6 5 -8 93.75 13.74
6 -5 8 98.76 13.08
6 -5 8 89.67 11.07
6 -5 8 97.78 10.98
6 -5 9 148.87 16.59
6 -5 9 137.38 14.63
-6 5 -9 150.54 17.76
-6 5 -10 20.01 6.93
6 -5 10 31.62 8.27
6 -5 10 16.21 5.58
-6 5 -10 36.2 8.86
-6 4 10 11.68 5.46
6 -4 -10 1.23 3.05
6 -4 -10 11.32 4.67
-6 4 9 154.87 17.65
6 -4 -9 168.66 16.79
6 -4 -9 145.29 15.17
-6 4 8 454.81 29.21
6 -4 -8 446.59 26.39
6 -4 -8 464.05 25.36
-6 4 7 867.27 38.86
6 -4 -7 956.07 37.49
-6 4 6 24.97 7.21
6 -4 -6 51.45 8.96
-6 4 5 0.05 3.17
6 -4 -5 4.23 3.37
-6 4 4 16.62 5.45
6 -4 -4 20.36 5.57
-6 4 3 142.69 14.16
6 -4 -3 124.81 12.49
-6 4 2 698.8 30.66
6 -4 -2 800.15 30.65
-6 4 1 295.91 19.83
6 -4 -1 299.1 18.47
-6 4 0 120.95 11.27
-6 4 0 137.02 13.52
6 -4 0 137.9 12.45
-6 4 -1 23.5 6.11
6 -4 1 19.14 4.97
-6 4 -1 22.98 5.25
6 -4 1 24.62 5.43
-6 4 -2 430.57 24.02
6 -4 2 468.78 23.44
-6 4 -2 512.51 24.46
6 -4 2 459.31 22.06
6 -4 3 309.86 16.17
-6 4 -3 317.31 20.78
6 -4 3 320.14 19.86
-6 4 -3 315.32 19.97
6 -4 3 332.44 18.6
6 -4 4 253.26 14.03
-6 4 -4 299.49 20.56
6 -4 4 278.35 18.98
6 -4 4 267.38 13.37
-6 4 -4 254.16 18.69
6 -4 4 269.69 16.67
-6 4 -5 96.7 12.15
6 -4 5 126.42 13.21
6 -4 5 122.39 10.13
6 -4 5 115.39 10.95
6 -4 6 158.5 15.52
6 -4 6 144.41 12.07
-6 4 -6 144.56 15.32
6 -4 6 160.26 12.79
-6 4 -7 22.96 6.94
6 -4 7 35.17 7.79
6 -4 7 37.41 6.99
6 -4 7 26.28 5.32
-6 4 -8 18.32 6.25
6 -4 8 15.03 5.12
6 -4 8 8.95 3.96
6 -4 9 64.63 11.13
-6 4 -9 62.35 11.7
6 -4 9 61.8 10.13
-6 4 -9 70.89 11.27
6 -4 10 152.83 17.8
6 -4 10 159.34 16.81
-6 4 -10 183.65 20.25
-6 4 -10 155.94 17.4
-6 3 11 239.87 22.81
6 -3 -11 227.51 19.73
-6 3 10 99.92 14.2
6 -3 -10 100.62 12.49
-6 3 9 4.01 3.8
6 -3 -9 10.09 3.9
-6 3 8 32.33 7.72
6 -3 -8 33.03 6.78
6 -3 -8 26.46 6.6
-6 3 7 135.17 15.09
6 -3 -7 159.06 15.27
6 -3 -7 161.73 13.39
-6 3 6 298.24 21.39
6 -3 -6 291.19 19.82
-6 3 5 591.22 29.25
6 -3 -5 606.64 28.01
-6 3 4 223.1 17.62
6 -3 -4 237.08 17.06
-6 3 3 352.09 21.72
6 -3 -3 341.47 19.98
-6 3 2 19.11 5.48
6 -3 -2 16.73 4.46
-6 3 1 122.88 10.22
-6 3 1 131.24 13.03
6 -3 -1 131.65 11.8
-6 3 0 353.78 21.43
-6 3 0 333.1 17.45
6 -3 0 331.73 19.62
6 -3 0 367.2 19.23
6 -3 1 147.18 11.75
-6 3 -1 150.29 14.14
6 -3 1 164.74 14.01
-6 3 -1 144.25 12
6 -3 1 138.19 11.8
6 -3 2 414.19 18.99
-6 3 -2 376.39 22.27
6 -3 2 402.93 22.26
-6 3 -2 409 21.14
6 -3 2 392.61 19.39
6 -3 3 180.78 12.26
-6 3 -3 165.76 15.27
6 -3 3 175.23 15.11
6 -3 3 203.05 10.31
-6 3 -3 170.89 14.3
6 -3 3 179.4 12.94
6 -3 4 26.31 4.71
6 -3 4 18.62 5.37
-6 3 -4 30.64 6.77
6 -3 4 20.7 3.93
6 -3 4 23.02 4.86
6 -3 5 144.81 10.16
6 -3 5 156.06 15.03
6 -3 5 145.84 11.32
-6 3 -5 154.2 14.9
6 -3 5 151.36 11.55
6 -3 6 324.51 22.47
6 -3 6 355.35 19.12
-6 3 -6 359.83 23.67
6 -3 6 340.65 17.13
6 -3 7 444.79 27.31
6 -3 7 479.55 24.16
-6 3 -7 458.43 27.91
-6 3 -7 452.59 24.82
6 -3 8 270.7 22.24
6 -3 8 303.92 20.56
-6 3 -8 308.16 24.09
-6 3 -8 327.52 22.18
6 -3 9 0.08 3.21
6 -3 9 2.13 3.59
-6 3 -9 2.58 3.41
-6 3 -9 -1.86 2.95
6 -3 10 -2.59 4.07
6 -3 10 1.55 3.24
-6 3 -10 -2.81 3.1
-6 3 -10 4.04 2.75
-6 2 11 177.49 19.05
-6 2 10 86.62 12.81
6 -2 -10 97.33 11.68
-6 2 9 238.85 20.52
6 -2 -9 224.8 16.52
-6 2 8 88.21 12.3
6 -2 -8 89.62 9.85
6 -2 -8 81.95 11.3
-6 2 7 54.44 9.51
6 -2 -7 45.35 6.62
6 -2 -7 63.09 9.67
-6 2 6 13.25 4.85
6 -2 -6 13.52 4.62
-6 2 5 87.6 11.18
6 -2 -5 101.91 11.28
-6 2 4 291.74 19.58
6 -2 -4 301.95 18.78
-6 2 3 533.34 25.96
6 -2 -3 491.85 23.3
-6 2 2 284.72 13.56
6 -2 -2 299.75 17.94
-6 2 2 303.76 19.66
6 -2 -2 319.91 18.36
6 -2 -1 226.48 15.34
-6 2 1 221.03 16.72
-6 2 1 234.59 13.21
6 -2 -1 258.02 16.08
-6 2 0 9.13 3.34
6 -2 0 5.5 2.84
-6 2 0 -1.13 3.4
6 -2 0 3.2 2.86
6 -2 0 -0.46 1.85
6 -2 1 87.41 9.17
6 -2 1 85.59 10.5
-6 2 -1 75.84 10.23
-6 2 -1 86.92 9.22
6 -2 1 78.62 8.52
6 -2 2 117.16 10.39
-6 2 -2 117.79 12.69
6 -2 2 117.1 12.45
6 -2 2 117.1 7.21
-6 2 -2 113.25 11.01
6 -2 2 127.5 10.44
6 -2 3 825.26 26.64
6 -2 3 830.02 33.17
6 -2 3 852.03 22.7
-6 2 -3 841.83 31.14
6 -2 3 810.26 25.53
6 -2 4 154.44 11.32
6 -2 4 209.48 17.23
6 -2 4 184.95 11.93
-6 2 -4 172.71 15.02
6 -2 4 171.65 11.57
6 -2 5 5.7 2.52
6 -2 5 0.5 2.28
6 -2 5 0.16 2.06
-6 2 -5 3.81 2.46
6 -2 5 0.18 1.06
-6 2 -5 2.02 3.06
6 -2 6 61.24 10.18
6 -2 6 57.39 8.13
-6 2 -6 65.29 8.68
-6 2 -6 50.12 9.1
-6 2 -7 45.26 8.82
6 -2 7 42.59 9.09
6 -2 7 45.37 7.76
-6 2 -7 38.17 7.05
6 -2 8 214.34 20.16
6 -2 8 205.69 17.39
-6 2 -8 217.29 17.7
-6 2 -8 193.72 19.28
6 -2 9 201.23 20.22
6 -2 9 171.41 17.04
-6 2 -9 198.75 18.01
-6 2 -9 202.36 20.46
6 -2 10 85.11 13.9
6 -2 10 73.04 11.96
-6 2 -10 71.92 11.44
-6 2 -10 95.15 14.67
-6 1 12 336.26 26.21
6 -1 -12 378.34 25.61
6 -1 -11 21.33 6.07
-6 1 11 29.42 7.76
6 -1 -10 -2.49 2.6
-6 1 10 3.3 3.12
6 -1 -9 4.07 3.32
-6 1 9 11.78 5.3
-6 1 8 149.27 15.28
6 -1 -8 128.45 13.54
6 -1 -7 353.52 21.8
-6 1 7 341.23 22.24
6 -1 -6 529.05 26.09
-6 1 6 548.75 27.56
6 -1 -6 575.21 27.34
6 -1 -5 214.7 16.44
-6 1 5 247.77 18.01
6 -1 -5 264.59 18.06
6 -1 -4 10.43 4.12
-6 1 4 7.58 3.87
6 -1 -4 12.86 4.33
6 -1 -3 150.59 13.23
-6 1 3 159.2 14.06
6 -1 -3 141.25 12.43
6 -1 -2 905.93 31.46
-6 1 2 871.82 32.55
-6 1 2 867 22.01
6 -1 -2 870.04 29.52
6 -1 -1 277.58 17.29
-6 1 1 317.67 19.92
-6 1 1 312.15 14.62
6 -1 -1 306.29 17.15
6 -1 0 671.49 26.1
-6 1 0 659.04 28.6
6 -1 0 666.32 28.91
-6 1 0 698.19 23.58
-6 1 0 636.78 13.78
6 -1 0 694.22 24.79
6 -1 1 10.82 3.52
-6 1 -1 4.87 3.31
6 -1 1 4.48 3.56
6 -1 1 9.24 2.29
-6 1 -1 3.17 2.09
6 -1 1 4.39 2.1
6 -1 2 287.83 16.73
6 -1 2 325.66 13.68
-6 1 -2 290.23 12.6
6 -1 2 279.99 14.65
-6 1 -2 271.95 16.82
6 -1 3 176.49 12.94
6 -1 3 149.4 14.56
6 -1 3 174.55 11.28
-6 1 -3 185.16 11.15
6 -1 3 182.27 11.47
-6 1 -3 173.47 14.26
6 -1 4 289.25 16.3
6 -1 4 329.82 21.96
6 -1 4 315.13 16.68
-6 1 -4 322.18 16
-6 1 -4 313.56 20.14
6 -1 5 255.42 20.05
6 -1 5 272.26 16.85
-6 1 -5 287.81 16.32
-6 1 -5 275.94 20.03
-6 1 -6 77.43 11.15
6 -1 6 87.88 10.48
6 -1 6 74.32 11.5
-6 1 -6 84.68 9.59
-6 1 -7 11.07 4.14
6 -1 7 2.84 2.31
6 -1 7 9.09 4.1
-6 1 -7 8.46 3.64
-6 1 -8 7.31 4.48
6 -1 8 6.78 3.3
6 -1 8 4.37 3.55
-6 1 -8 10.1 4.21
-6 1 -9 46.47 10.04
6 -1 9 55.67 10.96
6 -1 9 56.39 10.32
-6 1 -9 68.67 10.47
6 0 -12 76.14 11.51
-6 0 12 89.09 13.26
-6 0 11 334.9 24.3
6 0 -11 306.63 22.32
6 0 -10 181.64 16.78
-6 0 10 186.81 17.58
6 0 -9 398.13 24.34
-6 0 9 346.01 23.05
6 0 -8 9.23 4.11
-6 0 8 2.21 3.1
6 0 -7 50.09 8.4
-6 0 7 39.72 7.75
6 0 -6 292.69 19.6
-6 0 6 289.44 19.39
6 0 -5 476.99 24.55
-6 0 5 419.05 22.93
6 0 -4 103.58 11.32
-6 0 4 97.03 11.02
6 0 -3 106.52 11.35
-6 0 3 89.7 10.49
6 0 -3 104.35 10.82
6 0 -2 0.47 2.07
-6 0 2 2.93 1.35
-6 0 2 2.7 2.68
6 0 -2 1.37 2.06
6 0 -1 11.3 4.04
6 0 -1 14.2 4.6
-6 0 1 8.73 3.89
-6 0 1 8.11 2.66
6 0 -1 8.6 3.04
6 0 0 777.69 29.05
-6 0 0 705.35 29.66
6 0 0 718.47 30.63
-6 0 0 734.28 19.46
6 0 0 708.43 24.64
-6 0 0 739.55 24.39
6 0 1 166.3 13.43
-6 0 -1 183.11 15.56
6 0 1 154.87 14.53
-6 0 -1 188.31 9.9
6 0 1 175.99 10.76
6 0 1 178.79 11.81
-6 0 -1 160.65 12.28
6 0 2 269.05 16.88
6 0 2 254.99 18.84
6 0 2 243.52 13.49
6 0 2 233.42 12.87
-6 0 -2 240.94 16.02
6 0 3 125.16 11.6
6 0 3 147 14.78
6 0 3 134.91 11.02
-6 0 -3 132.52 12.65
6 0 4 13.71 4.95
6 0 4 9.31 3.57
-6 0 -4 11.43 4.4
6 0 5 46.28 9.02
6 0 5 46.98 7.63
-6 0 -5 46.68 8.57
-6 0 -6 112.97 13.79
6 0 6 98.7 11.54
6 0 6 104.56 13.92
6 0 7 51.5 10.07
6 0 7 46.24 8.61
-6 0 -7 60.59 10.55
6 0 8 120.36 15.72
6 0 8 100.74 13.38
-6 0 -8 116.9 15.35
6 1 -12 11.16 4.34
-6 -1 12 1.23 3.16
-6 -1 12 3.43 3.46
6 1 -11 37.33 8.25
-6 -1 11 22.19 6.42
6 1 -10 46.91 8.99
-6 -1 10 49.18 8.84
6 1 -9 273.55 20.29
-6 -1 9 279.83 20.1
6 1 -8 409.25 24.44
-6 -1 8 439.66 24.31
6 1 -7 110.36 12.64
-6 -1 7 105.71 11.91
6 1 -6 15.64 5.05
-6 -1 6 19.31 5.37
6 1 -5 1.2 2.04
-6 -1 5 4.14 2.95
6 1 -4 95.79 11.14
-6 -1 4 111.75 11.54
6 1 -3 288.47 19.08
-6 -1 3 276.76 18.02
6 1 -2 555.89 26.15
-6 -1 2 522.4 24.87
-6 -1 2 535.62 17.45
6 1 -1 217.29 16.24
-6 -1 1 188.39 15.25
6 1 -1 196.99 16.47
-6 -1 1 192.85 11.8
-6 -1 0 43.43 5.86
6 1 0 54.77 8.36
-6 -1 0 50.14 8.34
6 1 0 44.81 8.11
-6 -1 0 44.69 6.26
6 1 1 102.13 11.18
-6 -1 -1 108.81 10.41
6 1 1 104.71 12.26
6 1 1 112.26 9.88
-6 -1 -1 108.44 9.08
6 1 2 244.74 17.28
-6 -1 -2 229.91 16.12
6 1 2 232.01 18.41
-6 -1 -2 221.05 13.09
6 1 2 267.01 15.8
-6 -1 -3 342.55 20.87
6 1 3 329.74 22.68
6 1 3 346.38 19.03
-6 -1 -4 244.28 18.58
6 1 4 241.54 19.81
6 1 4 233.45 16.79
-6 -1 -5 389.87 24.82
6 1 5 403.97 26.54
6 1 5 347.61 21.49
-6 -1 -6 0.49 2.79
6 1 6 -4.88 3.79
6 1 6 -0.73 3.04
-6 -1 -7 38.31 8.86
6 1 7 23.89 6.98
6 1 7 36.56 8.32
-6 -1 -8 47.3 10.1
6 1 8 37.38 8.95
6 1 8 46.94 9.55
6 2 -11 169.03 17.02
-6 -2 11 188.34 20.77
6 2 -10 2.96 3.49
-6 -2 10 6.71 4.87
6 2 -9 5.87 3.75
-6 -2 9 1.35 2.57
-6 -2 9 4.19 2.35
6 2 -8 68.14 10.71
-6 -2 8 78.94 12.45
-6 -2 8 83.69 10.59
6 2 -7 170.62 17.56
6 2 -7 177.29 16.28
-6 -2 7 151.51 13.61
6 2 -6 264.11 21.47
6 2 -6 273.18 19.93
-6 -2 6 239.68 16.73
6 2 -5 42.57 8.79
6 2 -5 55.24 9.01
-6 -2 5 50.88 7.77
6 2 -4 193 17.65
6 2 -4 181.32 15.88
-6 -2 4 183.01 14.46
6 2 -3 47.89 8.83
6 2 -3 49.1 8.19
-6 -2 3 43.42 7.41
6 2 -2 111.91 12.96
6 2 -2 109.84 12.31
-6 -2 2 86.33 10.33
-6 -2 2 104.4 11.24
6 2 -1 444.13 24.74
6 2 -1 434.53 24.25
-6 -2 1 440.51 18.71
-6 -2 1 426.01 22.71
-6 -2 1 453.13 20.68
-6 -2 1 448.41 22.06
6 2 0 117.06 12.74
-6 -2 0 129.5 13.07
-6 -2 0 129.01 11.16
6 2 0 131.13 13.88
-6 -2 0 112.65 10.41
-6 -2 0 131.24 11.47
6 2 1 126.09 13.13
6 2 1 146.8 14.9
-6 -2 -1 124.44 11.62
6 2 1 126.6 11.9
-6 -2 -1 134.99 11.43
-6 -2 -2 49.34 7.92
6 2 2 36.84 7.69
6 2 2 30.63 6.37
-6 -2 -2 30.87 5.67
-6 -2 -3 28.77 6.52
6 2 3 26.61 6.97
6 2 3 23.45 5.79
-6 -2 -3 30.07 5.87
-6 -2 -4 -1.53 2.56
6 2 4 -0.4 2.25
6 2 4 -1.22 2.59
-6 -2 -5 192.81 18.08
6 2 5 218.18 20
6 2 5 217.17 18.29
-6 -2 -6 276.92 22.58
6 2 6 341.37 25.64
6 2 6 277.07 21.63
-6 -2 -7 221.02 21.37
6 2 7 224.05 21.68
6 2 7 203.06 19.55
6 3 -11 128.44 15.21
-6 -3 11 155.3 19.41
6 3 -10 219.52 19.43
-6 -3 10 255.97 24
6 3 -9 130.13 16.63
6 3 -9 108.92 13.63
-6 -3 9 112.91 15.49
6 3 -8 50.34 9.92
6 3 -8 37.8 8.15
-6 -3 8 32.54 8.22
6 3 -7 7.22 4.14
6 3 -7 8.44 4.29
-6 -3 7 3.23 3.26
6 3 -6 306.45 24.11
6 3 -6 299.62 21.82
-6 -3 6 309.17 18.38
-6 -3 6 353.08 24.58
6 3 -5 266.7 22.02
6 3 -5 286.78 21.2
-6 -3 5 264.51 16.85
-6 -3 5 273.94 21.02
6 3 -4 286.49 20.99
-6 -3 4 263.45 17
-6 -3 4 290.2 20.76
6 3 -4 268.4 21.63
6 3 -3 67.34 10.88
6 3 -3 56.1 9.46
-6 -3 3 66.36 9.85
-6 -3 3 67.12 8.94
6 3 -2 144.05 15.3
6 3 -2 183.68 16.81
-6 -3 2 143.69 13.05
-6 -3 2 180.51 15.19
-6 -3 1 70.18 9.19
6 3 -1 52.4 9.17
6 3 -1 66.17 10.27
-6 -3 1 61.94 8.92
-6 -3 1 58.48 8.75
-6 -3 0 38.19 6.95
6 3 0 51.09 8.85
-6 -3 0 46.91 7.23
-6 -3 0 48.68 7.97
6 3 0 26.93 6.49
6 3 1 156.04 14.67
6 3 1 174.58 16.74
-6 -3 -1 164.29 13.99
-6 -3 -1 140.08 13.03
6 3 2 179.95 17.09
-6 -3 -2 167.52 15.05
-6 -3 -2 186.39 15.2
6 3 2 192.82 16.39
6 3 3 153.52 16.33
-6 -3 -3 149.82 15.2
-6 -3 -3 153.62 14.34
6 3 3 167.46 15.77
-6 -3 -4 5.61 4.64
6 3 4 6.07 4.26
6 3 4 0.63 2.21
6 3 5 18.04 6.02
6 3 5 25.88 7.28
-6 -3 -5 32.57 7.93
6 4 -10 44.5 10.03
6 4 -10 32.91 8.37
-6 -4 10 12.37 5.62
6 4 -9 65.95 12.53
6 4 -9 67.15 11.05
-6 -4 9 64.55 12.2
6 4 -8 142.29 16.12
6 4 -8 115.46 16.04
-6 -4 8 158.1 18.32
6 4 -7 233.67 20.25
-6 -4 7 233.9 21.43
6 4 -7 222.26 21.83
6 4 -6 117.58 14.42
6 4 -6 117.89 16.02
-6 -4 6 97.75 13.51
6 4 -5 -1.36 3.67
6 4 -5 8.02 4.81
-6 -4 5 -1.06 2.15
6 4 -4 54.52 10.5
6 4 -4 51.97 9.82
-6 -4 4 76.05 11.35
6 4 -3 155.43 16.27
-6 -4 3 148.67 15.2
6 4 -3 155.27 16.91
-6 -4 2 308.42 20.72
6 4 -2 299.77 22.79
-6 -4 1 195.27 15.57
-6 -4 1 162.09 15.09
6 4 0 73.72 10.97
-6 -4 0 80.62 10.22
6 4 0 96.71 12.5
-6 -4 0 94.59 11.74
6 4 1 6.41 3.3
6 4 1 11.94 5.18
-6 -4 -1 2.43 2.45
6 4 2 27.56 6.99
6 4 2 33.34 7.89
-6 -4 -2 40.78 8.04
6 4 3 87.68 12.88
6 4 3 85.3 12.31
-6 -4 -3 88.02 11.72
6 4 4 147.67 16.84
-6 -4 -4 150.05 16.6
6 4 4 150.04 16.89
6 5 -9 29.09 9.03
6 5 -9 10.16 5.02
-6 -5 9 22.23 7.73
6 5 -8 -0.61 3.58
6 5 -8 -0.78 4.41
-6 -5 8 1.94 2.7
6 5 -7 94.14 13.72
6 5 -7 106.95 16.12
-6 -5 7 106.98 15.37
-6 -5 6 237.57 21.83
6 5 -6 269.53 24.73
6 5 -5 135.61 17.38
-6 -5 5 99.44 13.84
6 5 -4 1.54 3.42
-6 -5 4 7.63 3.66
6 5 -3 0.04 3.59
-6 -5 3 -1.42 3.5
-6 -5 2 3.53 2.83
6 5 -2 3.18 4.33
-6 -5 1 69.15 10.66
6 5 -1 60.46 10.81
6 5 0 93.38 13.16
-6 -5 0 82.99 11.76
6 5 1 226.71 19.7
-6 -5 -1 225.03 19.68
6 5 2 8.15 4.07
-6 -5 -2 20.23 6.45
6 6 -6 6.43 5.58
-6 -6 6 9.1 5.11
6 6 -5 41.94 10.85
-6 -6 5 53.87 10.52
6 6 -4 79.23 13.87
-6 -6 4 89.96 13.16
6 6 -3 79.15 13.47
-6 -6 3 97.42 13.83
-6 -6 2 105.4 14.36
6 6 -2 114.29 15.76
7 -10 1 -0.07 2.18
-7 10 -2 45.59 10.78
7 -10 2 39.47 9.32
-7 9 3 120.2 15.8
7 -9 -3 114.81 15.22
-7 9 2 0.08 3.17
7 -9 -2 1.88 3.38
-7 9 1 63.25 11.29
7 -9 -1 68.93 11.99
-7 9 0 93.64 13.38
7 -9 0 114.88 15.16
-7 9 -1 47.81 9.56
7 -9 1 33.35 8.46
-7 9 -2 177.58 17.57
7 -9 2 181.09 18.95
-7 9 -3 8.95 3.95
7 -9 3 14.9 5.61
-7 9 -4 3.37 3.55
-7 9 -4 -0.72 4.53
7 -9 4 2.21 3.67
-7 9 -5 58.2 11.35
-7 9 -5 55.34 10.06
7 -9 5 81.71 13.04
-7 9 -6 77.11 12.84
7 -9 6 83.53 13.22
-7 8 5 92.81 14.31
7 -8 -5 66.94 11.55
-7 8 4 176.1 19.12
7 -8 -4 266.44 22.53
-7 8 3 114.94 15.05
7 -8 -3 115.3 14.9
-7 8 2 310.07 24.16
7 -8 -2 274.55 22.51
-7 8 1 58.35 10.55
7 -8 -1 39.8 8.93
-7 8 0 3.07 3.74
7 -8 0 8.37 4.1
-7 8 -1 37.91 8.53
7 -8 1 35.8 8.12
-7 8 -2 145.17 15.93
7 -8 2 150.53 16.43
-7 8 -3 303.84 22.96
7 -8 3 279.99 22.38
-7 8 -4 90.37 12.94
7 -8 4 105.43 13.88
-7 8 -5 -4.61 3.97
7 -8 5 -0.98 3.64
-7 8 -6 -0.94 3.27
-7 8 -6 -1.98 2.54
-7 8 -6 3.76 4.18
7 -8 6 5.49 3.51
-7 8 -7 58.02 10.32
-7 8 -7 58.76 10.82
-7 8 -7 78.04 13.76
7 -8 7 46.35 9.68
-7 7 7 182 20.34
7 -7 -7 184.47 19.03
-7 7 6 239.26 22.64
7 -7 -6 233.33 20.97
-7 7 5 136.3 16.69
7 -7 -5 113.14 14.53
-7 7 4 59.99 10.81
7 -7 -4 46.88 9.36
-7 7 3 22.65 7.23
7 -7 -3 35.92 8.17
-7 7 2 314.13 23.72
7 -7 -2 290.09 22.13
-7 7 1 130.65 15.19
7 -7 -1 135.54 15.08
-7 7 0 213.49 19.17
7 -7 0 203.39 18.41
-7 7 -1 32.71 8.16
7 -7 1 52.18 9.22
-7 7 -2 42.7 8.91
7 -7 2 36.22 7.93
7 -7 3 61.42 8.98
-7 7 -3 51.79 9.68
7 -7 3 75.07 11.27
-7 7 -4 142.43 16.52
-7 7 -4 150.05 16.37
7 -7 4 157.23 14.67
7 -7 4 167 16.64
-7 7 -5 135.9 16.63
-7 7 -5 139.08 15.84
7 -7 5 165.26 15.45
7 -7 5 166.43 16.59
-7 7 -6 34.81 8.35
7 -7 6 37.28 7.89
7 -7 6 23.44 6.53
-7 7 -7 30.55 7.97
7 -7 7 13.57 4.97
-7 7 -7 14.43 5.77
7 -7 7 20.51 6.12
-7 7 -8 -0.2 3.33
7 -7 8 5.25 3.47
-7 7 -8 12.55 4.89
7 -7 8 5.84 3.53
-7 6 8 2.47 4.04
7 -6 -8 -6.12 4.19
-7 6 7 24.15 7.34
7 -6 -7 16.94 6.04
-7 6 6 152.24 17.91
7 -6 -6 150.6 16.43
-7 6 5 332.1 25.39
7 -6 -5 334.65 23.82
-7 6 4 88.99 13.16
7 -6 -4 71.86 11.13
-7 6 3 73.95 11.73
7 -6 -3 56.64 9.86
-7 6 2 31.35 8.09
7 -6 -2 17.86 5.68
-7 6 1 178.85 17.35
7 -6 -1 189.44 17.07
-7 6 0 242.9 20.16
7 -6 0 245.56 19.17
-7 6 -1 353.27 24.09
7 -6 1 406.34 24.56
-7 6 -2 212.5 18.22
-7 6 -2 182.44 17.45
7 -6 2 202.76 17.23
-7 6 -3 43.61 8.71
7 -6 3 43.05 8.15
-7 6 -3 46.13 9.03
7 -6 3 48.15 8.51
-7 6 -4 2.11 3.47
7 -6 4 8.89 4.02
-7 6 -4 2.29 3.14
7 -6 4 4.82 3.12
7 -6 5 107.14 12.91
-7 6 -5 89.95 12.87
7 -6 5 121.08 13.39
-7 6 -5 89.45 13.04
-7 6 -6 11.37 5.12
7 -6 6 11.27 5.11
-7 6 -6 9.92 4.83
7 -6 6 4.82 2.24
-7 6 -7 174.96 18.49
-7 6 -7 160.35 18.43
7 -6 7 165.87 16.99
7 -6 7 144.54 14.67
-7 6 -8 10.62 4.93
7 -6 8 14.89 5.67
-7 6 -8 16.52 5.75
-7 5 9 222.69 22.57
7 -5 -9 193.77 19.43
-7 5 8 247.71 23.02
7 -5 -8 262.74 21.88
-7 5 7 100.69 14.24
7 -5 -7 94.55 13.17
-7 5 6 96.31 13.94
7 -5 -6 90.14 12.61
-7 5 5 5.17 4.95
7 -5 -5 1.65 2.59
-7 5 4 119.5 14.71
7 -5 -4 121.62 13.9
-7 5 3 219.76 19.34
7 -5 -3 204.04 17.52
-7 5 2 428.83 26.6
7 -5 -2 412.03 24.39
-7 5 1 70.27 10.92
7 -5 -1 81.02 10.89
-7 5 0 27.26 6.84
7 -5 0 10.73 3.99
-7 5 -1 43.92 8.49
-7 5 -1 41.24 7.62
7 -5 1 54.02 8.76
-7 5 -2 49.69 9.39
7 -5 2 55.53 9.01
-7 5 -2 47.6 8.57
7 -5 2 48.68 8.2
-7 5 -3 146.61 15.84
-7 5 -3 137.2 14.49
7 -5 3 142.81 14.37
7 -5 3 134.97 13.44
7 -5 4 508.96 22.26
-7 5 -4 430.5 27.14
-7 5 -4 530.83 29.4
7 -5 4 471.79 26.62
7 -5 4 513.24 25.92
-7 5 -5 215.48 19.54
7 -5 5 282.49 21.17
-7 5 -5 252.02 21.08
7 -5 5 266.42 18.57
-7 5 -6 5.57 4.64
-7 5 -6 17.99 6.4
7 -5 6 11.11 4.85
7 -5 6 12.22 4.03
-7 5 -7 5.71 4.08
-7 5 -7 7.31 4.7
7 -5 7 0.4 3.73
-7 5 -8 69.82 12.38
7 -5 8 76.84 12.36
-7 5 -9 162.72 19.63
7 -5 9 198.65 20.49
-7 5 -9 193.52 19.55
-7 4 9 31.97 9
7 -4 -9 27.09 7.49
-7 4 8 110.58 15.41
7 -4 -8 150.32 16.42
-7 4 7 291.47 23.84
7 -4 -7 293.16 22.42
-7 4 6 106.95 14.32
7 -4 -6 112.1 13.51
-7 4 5 14.56 5.97
7 -4 -5 18.94 5.52
-7 4 4 212.06 19.07
7 -4 -4 217.57 18.08
-7 4 3 2.25 3.86
7 -4 -3 1.15 1.78
-7 4 2 54.73 9.79
7 -4 -2 76.04 10.21
-7 4 1 254.9 20.29
7 -4 -1 293.38 19.53
-7 4 0 102.65 11
-7 4 0 110.23 13.34
7 -4 0 108.06 11.79
-7 4 -1 181.52 17.12
-7 4 -1 194.48 15.53
7 -4 1 212.46 17.22
7 -4 1 177.34 14.87
7 -4 2 -0.12 1.73
-7 4 -2 3.46 2.86
7 -4 2 0.71 1.92
-7 4 -2 6.89 3.5
7 -4 2 1.73 2.45
-7 4 -3 0.03 2.36
7 -4 3 1.02 1.38
-7 4 -3 0.63 2.83
7 -4 3 0.65 2.49
7 -4 3 0.41 2.07
-7 4 -4 27.68 6.94
7 -4 4 24.6 5.11
-7 4 -4 34.11 7.77
7 -4 4 27.95 7
7 -4 4 20.55 5.11
-7 4 -5 393.41 26.6
7 -4 5 369.73 24.75
-7 4 -5 415.82 26.19
7 -4 5 415.96 21.81
7 -4 6 238.9 20.55
-7 4 -6 214.15 19.74
-7 4 -7 76.28 12.3
7 -4 7 53.22 10.04
-7 4 -8 9.52 5.28
7 -4 8 2.15 3.02
-7 4 -8 7.43 3.91
-7 4 -9 -0.12 3.26
-7 4 -9 2.02 1.99
-7 3 10 162.02 18.87
-7 3 9 66.71 11.9
7 -3 -9 68.93 11.68
-7 3 8 77.89 12.56
7 -3 -8 99.37 13.2
-7 3 7 48.55 9.87
7 -3 -7 46.94 9.11
-7 3 6 401.68 26.44
7 -3 -6 441.07 26.33
-7 3 5 172.85 17.19
7 -3 -5 192.8 17.11
-7 3 4 516.4 28.98
7 -3 -4 576 28.5
-7 3 3 420.63 25.71
7 -3 -3 423.48 23.94
-7 3 2 146.9 15.16
7 -3 -2 150.11 13.97
7 -3 -1 52.82 8.2
-7 3 1 49.31 9
-7 3 1 49.28 6.87
7 -3 -1 57.01 8.5
7 -3 0 107.7 11.35
-7 3 0 111.16 13.27
-7 3 0 92.53 9.94
7 -3 0 91.65 10.5
7 -3 1 267.9 17.46
-7 3 -1 244.88 19.59
7 -3 1 259.83 19.61
-7 3 -1 278.77 17.91
7 -3 1 275.18 17.77
7 -3 2 262.14 16.81
-7 3 -2 225.1 19.03
7 -3 2 256.9 19.68
-7 3 -2 240.36 17.39
7 -3 2 226.44 15.78
7 -3 3 237.13 15.67
-7 3 -3 227.84 19.64
7 -3 3 237.29 19.34
-7 3 -3 232.71 17.9
7 -3 3 238.9 15.88
7 -3 4 2.48 1.9
-7 3 -4 0.85 1.99
-7 3 -4 4.24 3.02
7 -3 4 7.71 4.48
7 -3 4 4.31 2.37
7 -3 5 11.65 5.33
-7 3 -5 25.23 6.87
7 -3 6 214.92 19.91
-7 3 -6 230.97 20.37
-7 3 -6 224.35 17.06
7 -3 7 88.24 13.26
-7 3 -7 91.83 13.62
-7 3 -7 88.5 11.31
7 -3 8 179.51 19.43
-7 3 -8 156.91 18.16
-7 3 -8 141.47 15.12
7 -2 -10 6.51 3.52
-7 2 10 -0.33 4.12
-7 2 9 215.41 20.4
7 -2 -9 166.32 17
7 -2 -8 85.02 12.12
-7 2 8 78.05 12.26
7 -2 -8 100.13 13.23
7 -2 -7 529.74 29.05
-7 2 7 510.85 29.75
7 -2 -7 558.31 29.95
7 -2 -6 40.6 8.12
-7 2 6 46.49 9.08
7 -2 -6 41.19 8.07
7 -2 -5 19.96 5.91
-7 2 5 18.66 5.83
7 -2 -5 11.83 4.57
7 -2 -4 98.26 12.04
-7 2 4 77.05 11.33
7 -2 -4 83.41 10.76
7 -2 -3 207.45 16.76
-7 2 3 196.93 17.52
7 -2 -3 255.83 18.21
-7 2 2 251.12 13.71
7 -2 -2 233.77 17.56
-7 2 2 247.55 19.51
7 -2 -2 273.13 18.43
7 -2 -1 523.89 25.44
-7 2 1 479.97 26.99
-7 2 1 482.77 20.42
7 -2 -1 515.59 24.66
-7 2 0 58.03 7.71
7 -2 0 64.09 9.03
-7 2 0 65.19 10.26
7 -2 0 66.04 10.12
7 -2 0 63.67 8.59
7 -2 1 8.45 3.83
-7 2 -1 9.39 3.59
-7 2 -1 5.93 4.6
7 -2 1 2.6 3.06
7 -2 1 6.32 3
7 -2 2 16.46 4.24
-7 2 -2 33.31 7.92
7 -2 2 28.31 7.02
-7 2 -2 18.49 5.17
7 -2 2 18.56 4.42
7 -2 3 132.64 12.01
-7 2 -3 117.39 14.42
7 -2 3 131.92 14.83
-7 2 -3 139.62 13.77
7 -2 3 123.93 10.97
7 -2 4 151.33 12.59
7 -2 4 161.06 16.73
-7 2 -4 148.68 14.91
7 -2 5 113.4 14.31
-7 2 -5 115.15 13.8
7 -2 6 10.27 5.64
-7 2 -6 6.65 3.53
7 -2 7 12.2 5.78
-7 2 -7 38.22 8.94
7 -2 8 29.55 8.5
-7 2 -8 58.01 10.96
7 -1 -10 116.61 14.65
-7 1 10 125.96 15.75
7 -1 -9 2.39 3.23
-7 1 9 5.88 3.79
7 -1 -8 -4.24 3.5
-7 1 8 1.77 3.1
7 -1 -7 271.97 20.85
-7 1 7 234.77 19.92
7 -1 -6 300.01 21.49
-7 1 6 284.3 21.33
7 -1 -6 307.09 21.5
7 -1 -5 158.53 15.34
-7 1 5 147.69 15.01
7 -1 -5 157.37 15.12
7 -1 -4 20.43 5.93
-7 1 4 15.66 5.08
7 -1 -4 14.46 4.71
7 -1 -3 4.65 3.1
-7 1 3 10.37 5
7 -1 -3 6.26 3.93
7 -1 -2 3.07 3.11
7 -1 -2 1.09 1.73
7 -1 -1 199.07 16.01
-7 1 1 202.33 17.5
-7 1 1 194.93 12.78
7 -1 -1 208.32 15.34
7 -1 0 432.28 23.33
-7 1 0 362.98 23.62
7 -1 0 429.61 25.85
-7 1 0 391.59 19.39
7 -1 0 438.25 21.47
7 -1 1 408.71 22.32
-7 1 -1 406.79 25.26
7 -1 1 400.45 25.28
-7 1 -1 382.37 20.4
7 -1 1 408.26 20
7 -1 2 100.78 11.06
-7 1 -2 88.59 12.29
7 -1 2 89.71 12.06
7 -1 2 86.02 8.92
-7 1 -2 80.88 10.03
7 -1 3 21.86 5.24
7 -1 3 31.13 7.64
-7 1 -3 17.93 5.05
-7 1 -4 64.76 10.11
7 -1 4 60.05 8.32
7 -1 4 56.89 10.15
7 -1 5 92.6 13.45
-7 1 -5 120.76 14.29
7 -1 6 137.62 16.67
-7 1 -6 131.8 15.5
-7 1 -7 98.2 14.25
7 -1 7 129.82 16.76
7 0 -10 143.95 16.15
-7 0 10 146.7 16.34
7 0 -9 141.8 15.88
-7 0 9 120.59 14.6
7 0 -8 73.42 11.34
-7 0 8 66.61 10.53
7 0 -7 30.34 7.25
-7 0 7 36.96 7.82
7 0 -6 0.39 3.12
-7 0 6 -0.29 3.1
7 0 -5 50.12 8.96
-7 0 5 47.46 8.67
7 0 -4 216.08 17.89
-7 0 4 231.02 18.32
7 0 -3 107.72 12.57
-7 0 3 84.23 11.27
7 0 -2 284.33 19.74
-7 0 2 271.79 19.98
7 0 -1 36.13 7.32
-7 0 1 41.51 8.1
7 0 -1 48.87 7.45
7 0 0 84.38 10.68
-7 0 0 81.88 11.43
7 0 0 84.3 11.68
7 0 0 85.41 9.52
-7 0 0 77.02 8.7
7 0 1 128.3 13.08
-7 0 -1 137.63 15.05
7 0 1 118.93 14.19
-7 0 -1 120.03 11.69
7 0 2 153.03 14.25
-7 0 -2 151.19 15.95
7 0 2 149.7 15.96
-7 0 -2 162.31 14.37
7 0 3 184.27 15.53
7 0 3 190.7 18.51
-7 0 -3 143.68 14.28
7 0 4 167.53 17.71
-7 0 -4 166.67 16.14
-7 0 -5 31.14 7.72
7 0 5 24.31 7.51
-7 0 -6 2.27 3.01
7 0 6 -3.42 3.7
-7 0 -7 18.25 6.6
7 0 7 40.91 9.68
7 1 -10 4.87 3.39
-7 -1 10 11.97 5.35
7 1 -9 82.9 12.23
-7 -1 9 87.65 12.26
7 1 -8 236.96 20.24
-7 -1 8 228.59 19
7 1 -7 279.65 21.55
-7 -1 7 275.76 20.42
7 1 -6 143.13 15.29
-7 -1 6 151.02 15.04
7 1 -5 113.97 13.62
-7 -1 5 111.77 12.91
7 1 -4 88.7 11.95
-7 -1 4 88.73 11.36
7 1 -3 172.53 16.11
-7 -1 3 143.26 14.45
7 1 -2 97.87 12.36
-7 -1 2 103.06 12.53
7 1 -1 221.12 18.13
-7 -1 1 207.52 17.72
7 1 0 56.48 9.43
-7 -1 0 40.95 6.47
-7 -1 0 41.39 8.42
7 1 0 61.23 10.39
7 1 1 8.65 4.16
-7 -1 -1 11.75 5.1
7 1 1 7.12 3.45
-7 -1 -1 9.2 3.6
7 1 2 28.14 6.64
-7 -1 -2 25.35 6.78
7 1 2 33.33 8.02
-7 -1 -2 33.26 6.85
7 1 3 70.89 11.56
-7 -1 -3 70.53 10.33
-7 -1 -4 242.73 19.91
7 1 4 265.04 22.63
-7 -1 -5 247.63 21.18
7 1 5 215.19 20.93
7 1 6 11.79 5.01
-7 -1 -6 14.37 5.92
7 2 -10 29.48 7.49
-7 -2 10 27.12 8.64
7 2 -9 50.26 9.76
-7 -2 9 66.94 12.3
7 2 -8 -0.53 3.46
-7 -2 8 -10.6 5.36
7 2 -7 40.74 8.74
-7 -2 7 39.2 9.03
-7 -2 7 39.31 7.72
7 2 -6 134.17 15.23
-7 -2 6 167.47 15.36
-7 -2 6 164.18 17.44
7 2 -5 281.81 21.93
-7 -2 5 260.51 18.92
7 2 -4 366.95 24.63
-7 -2 4 364.59 22.5
-7 -2 4 393.44 25.07
7 2 -3 125.42 14.47
-7 -2 3 99.42 11.83
-7 -2 3 114.32 13.2
7 2 -2 12.56 4.75
-7 -2 2 10.65 4.15
-7 -2 2 20.34 5.79
7 2 -1 88.99 12.18
-7 -2 1 77.36 11.08
-7 -2 1 84.8 10.5
7 2 0 167.94 16.52
-7 -2 0 148.18 15.26
7 2 0 166.03 17.01
-7 -2 -1 128.5 12.79
-7 -2 -1 156.42 16.07
7 2 1 161.57 17.3
-7 -2 -2 147.87 14.64
7 2 2 194.1 19.06
-7 -2 -3 6.44 3.62
7 2 3 4.44 3.23
-7 -2 -4 -0.28 3.62
7 2 4 10.72 5.4
-7 -2 -5 97.58 13.74
7 2 5 88.53 13.84
7 3 -9 74.89 12.21
-7 -3 9 66.13 12.25
7 3 -8 50.87 9.85
-7 -3 8 42.64 9.88
7 3 -7 115.38 14.85
-7 -3 7 108.43 14.94
7 3 -6 1.37 3.56
7 3 -6 3.19 2.97
-7 -3 6 -6.38 4.34
7 3 -5 138.1 17.16
7 3 -5 129.74 15.71
-7 -3 5 124.31 15.28
7 3 -4 32.66 8.56
7 3 -4 38.54 8.5
-7 -3 4 28.41 7.36
7 3 -3 176.55 18.63
7 3 -3 164.38 17.5
-7 -3 3 157.99 14.89
-7 -3 3 173.73 16.53
7 3 -2 107.99 14.28
-7 -3 2 106.85 12.52
-7 -3 2 135.04 14.05
7 3 -1 52.98 9.93
-7 -3 1 36.88 7.82
7 3 0 2.85 2.53
-7 -3 0 0.22 2.7
-7 -3 -1 0.51 2.22
7 3 1 0.23 2.94
7 3 2 62.44 11.24
7 3 3 105.88 14.67
-7 -3 -3 90.08 12.54
7 4 -7 19.77 7.21
7 4 -7 17.32 6.37
-7 -4 7 24.28 8.08
7 4 -6 284.93 25.91
7 4 -6 302.76 24.75
-7 -4 6 255.46 23.07
7 4 -5 -2.3 4.4
7 4 -5 1.11 3.27
-7 -4 5 2.01 2.79
7 4 -4 5.52 3.69
7 4 -4 1.42 3.57
-7 -4 4 9.56 4.23
7 4 -3 8.2 4.89
-7 -4 3 12.67 5.17
7 4 -2 72.77 12.35
7 4 -1 167.56 18.13
7 4 1 24.31 7.12
-8 9 -1 111.57 15.31
8 -9 1 123.59 16.32
-8 8 3 31.75 8.56
8 -8 -3 42.98 9.84
-8 8 2 136.33 17.07
8 -8 -2 175.37 18.9
-8 8 1 116.92 15.78
8 -8 -1 138.06 16.69
-8 8 0 97.37 14.24
8 -8 0 83.05 13.1
-8 8 -1 85.86 13.21
8 -8 1 98.25 14.04
-8 8 -2 3.3 2.81
8 -8 2 7.03 4.82
-8 8 -3 171.97 18.85
8 -8 3 170.43 18.43
-8 8 -4 95.75 14.28
8 -8 4 113.58 14.84
-8 8 -5 60.61 11.61
8 -8 5 60.84 11.05
-8 7 5 227.06 22.81
8 -7 -5 229.69 21.62
-8 7 4 14.98 6.66
8 -7 -4 29.64 8.06
-8 7 3 18.99 6.6
8 -7 -3 38.43 9.01
-8 7 2 28.27 7.85
8 -7 -2 41.9 9.26
-8 7 1 11.34 5.61
8 -7 -1 16.97 5.83
-8 7 0 355.45 26.68
8 -7 0 346.61 25.14
-8 7 -1 87.07 13.42
8 -7 1 69.32 11.31
-8 7 -2 30.93 8.57
8 -7 2 25.99 7.05
-8 7 -3 -1.57 5.19
8 -7 3 2.7 3.42
-8 7 -4 5.57 4.53
8 -7 4 11.35 4.87
-8 7 -4 8.74 5.15
8 -7 4 9.88 4.52
-8 7 -5 60.79 11.54
8 -7 5 48.32 9.58
-8 7 -5 44.36 10.19
8 -7 5 47.43 9.27
-8 7 -6 266.92 24.57
-8 7 -6 202.52 21.09
8 -7 6 228.05 20.53
8 -7 6 240.01 20.71
-8 6 6 32.03 8.91
8 -6 -6 34.82 8.49
-8 6 5 91.81 14.57
8 -6 -5 85.65 12.88
-8 6 4 61.87 11.42
8 -6 -4 52.92 10.39
-8 6 3 166.45 18.58
8 -6 -3 194.64 18.7
-8 6 2 111.43 15.07
8 -6 -2 97.04 13.18
-8 6 1 9.38 5.71
8 -6 -1 14.93 5.77
-8 6 0 4.44 4.42
8 -6 0 14.54 5.47
-8 6 -1 27.12 7.8
8 -6 1 38.72 8.6
-8 6 -2 136.84 15.49
-8 6 -2 127.19 15.98
8 -6 2 156.39 15.95
8 -6 3 57.16 8.58
-8 6 -3 56.9 10.73
8 -6 3 47.03 9.14
-8 6 -3 52.22 9.75
8 -6 3 83.37 11.76
-8 6 -4 24.44 7.07
8 -6 4 18.27 6
-8 6 -4 24.75 7.19
8 -6 4 35.98 7.96
-8 6 -5 70.27 12.59
8 -6 5 70.27 11.43
-8 6 -5 80.38 12.86
8 -6 5 72.22 10.84
-8 6 -6 9.8 5.43
8 -6 6 5.93 3.63
-8 6 -6 20.92 7.7
8 -6 6 15.52 4.44
-8 5 7 202.43 21.44
8 -5 -7 232.91 21.52
-8 5 6 258.43 23.91
8 -5 -6 293.43 23.74
-8 5 5 7.66 4.91
8 -5 -5 10.42 4.81
-8 5 4 49.5 10.3
8 -5 -4 32.5 7.59
-8 5 3 60.36 11.22
8 -5 -3 56.38 9.97
-8 5 2 272.9 22.92
8 -5 -2 241.17 19.96
-8 5 1 346.8 25.92
8 -5 -1 388.22 24.92
-8 5 0 79.22 12.68
8 -5 0 100.87 12.59
-8 5 -1 44.31 9.76
-8 5 -1 28.7 6.99
8 -5 1 29.67 7.01
8 -5 2 5.93 3.4
-8 5 -2 -4.05 3.56
8 -5 2 0.44 3.01
-8 5 -2 -2.77 3.17
8 -5 2 2.1 2.73
8 -5 3 274.61 18.45
-8 5 -3 228.47 21.42
-8 5 -3 268.45 21.41
8 -5 3 260.47 21.49
8 -5 3 267.53 19.92
-8 5 -4 174.64 18.87
8 -5 4 166.52 17.57
-8 5 -4 180.38 18.36
8 -5 4 174.41 15.9
-8 5 -5 148.72 17.14
-8 5 -5 134.68 17.01
8 -5 5 93.22 13.67
8 -5 5 129.35 13.74
-8 5 -6 30.83 8.51
-8 5 -6 29.26 8.57
8 -5 6 17.87 6.22
-8 5 -7 -4.46 3.47
-8 5 -7 5.05 3.35
8 -5 7 -10.4 5.41
-8 4 8 2.82 5.22
8 -4 -8 -0.32 3.44
-8 4 7 0.72 4.9
8 -4 -7 9.17 4.67
-8 4 6 243.44 22.76
8 -4 -6 260.57 22.06
-8 4 5 229.46 21.65
8 -4 -5 248.66 20.81
-8 4 4 237.5 21.66
8 -4 -4 280.24 21.84
-8 4 3 10.43 5.89
8 -4 -3 15.2 5.51
-8 4 2 -7.33 4.93
8 -4 -2 -7.33 3.79
8 -4 -1 100.91 12.37
-8 4 1 96.09 13.71
8 -4 -1 83.33 11.32
8 -4 0 212.34 17.45
-8 4 0 231.3 17.36
-8 4 0 189.42 18.78
8 -4 0 204.71 17.31
8 -4 1 161.56 14.88
-8 4 -1 140.06 13.97
-8 4 -1 129.52 15.95
8 -4 1 173.21 15.61
8 -4 2 163.95 14.73
-8 4 -2 149.53 17.18
8 -4 2 133.34 15.61
-8 4 -2 163.91 15.84
8 -4 2 145.49 14.16
8 -4 3 31.52 6.51
-8 4 -3 34.4 8.86
8 -4 3 58.51 10.71
8 -4 3 28.44 6.51
-8 4 -3 53.72 9.52
-8 4 -4 0.74 2.91
-8 4 -4 0.45 3.05
8 -4 4 0.76 2.99
8 -4 4 3.25 2.23
-8 4 -5 63.08 11.06
-8 4 -5 55.57 10.96
8 -4 5 59.6 11.33
-8 4 -6 66.81 11.63
-8 4 -6 40.61 10.1
8 -4 6 67.21 11.95
-8 4 -7 68.02 12.5
-8 4 -7 64.19 12.53
8 -4 7 70.66 12.69
8 -3 -8 100.27 13.98
-8 3 8 99.19 14.87
8 -3 -8 99.35 14.27
8 -3 -7 101.68 13.79
-8 3 7 90.67 14.11
8 -3 -7 118.15 14.91
8 -3 -6 15.66 5.77
-8 3 6 11.25 5.11
8 -3 -6 3.19 2.4
8 -3 -5 87.78 12.3
-8 3 5 115.36 15.25
8 -3 -5 94.4 12.73
8 -3 -4 152.33 15.9
-8 3 4 167.81 18.1
8 -3 -4 167.98 16.63
8 -3 -3 57 9.63
-8 3 3 68.11 11.46
8 -3 -3 57.15 9.42
8 -3 -2 84.75 11.39
-8 3 2 110.7 14.67
8 -3 -2 78.63 10.82
8 -3 -1 16.92 5.4
-8 3 1 14.97 6.14
8 -3 -1 23.23 5.92
8 -3 0 19.89 5.54
-8 3 0 9.65 5.28
-8 3 0 23.25 5.45
8 -3 0 13.46 4.79
8 -3 1 68.56 9.71
-8 3 -1 62.39 11.13
8 -3 1 66.69 10.87
8 -3 1 53.79 8.5
-8 3 -1 62.11 9.25
8 -3 2 109.08 12.15
-8 3 -2 120.56 15.46
-8 3 -2 120.18 13.26
8 -3 2 114.86 14.63
8 -3 2 105.3 11.75
8 -3 3 175.75 14.86
-8 3 -3 162.88 18.22
8 -3 3 167.45 17.94
-8 3 -3 163.51 16.1
8 -3 3 188.88 15.34
-8 3 -4 172.92 18.71
8 -3 4 190.47 19.35
-8 3 -4 207.65 18.78
-8 3 -5 5.86 4.33
-8 3 -5 5.33 3.73
8 -3 5 10.7 4.79
-8 3 -6 4.46 3.27
-8 3 -6 3.53 4.28
8 -3 6 -0.57 3.58
8 -2 -9 25.33 7.24
-8 2 9 41.16 9.95
8 -2 -8 87.79 13.14
-8 2 8 100.05 14.62
8 -2 -7 64.07 11.06
-8 2 7 82.69 13.29
8 -2 -7 84.64 12.68
8 -2 -6 169.9 17.46
-8 2 6 174.04 18.35
8 -2 -6 199.79 18.61
8 -2 -5 78.66 12.21
-8 2 5 101.16 13.75
8 -2 -5 84.9 11.9
8 -2 -4 17.78 6.26
-8 2 4 5.8 4.27
8 -2 -4 26.37 6.53
8 -2 -3 1.02 3.21
8 -2 -3 -1.09 2.06
8 -2 -2 82.08 11.47
-8 2 2 111.98 14.41
8 -2 -2 94.59 11.69
8 -2 -1 221.33 18.25
-8 2 1 232.76 20.73
8 -2 -1 257.87 18.66
8 -2 0 175.44 15.92
-8 2 0 161.56 17.57
8 -2 0 174.69 15.11
-8 2 -1 54.17 8.5
8 -2 1 55.43 8.99
-8 2 -1 46.59 9.92
8 -2 1 55.41 10.29
8 -2 1 72.55 9.54
8 -2 2 19.9 5.58
-8 2 -2 23.05 7.29
-8 2 -2 20.8 5.71
8 -2 2 34.23 8.39
8 -2 2 13.92 4.37
8 -2 3 17.82 5.18
-8 2 -3 16.17 6.47
8 -2 3 18.21 6.51
-8 2 -3 12.94 4.52
-8 2 -4 152.19 17.84
8 -2 4 165.54 18.4
-8 2 -4 118.82 14.35
-8 2 -5 175.12 20.03
8 -2 5 161.6 18.73
-8 2 -5 133.98 15.9
8 -2 6 162.48 18.98
-8 2 -6 146.86 17.38
8 -1 -9 65.89 11.77
-8 1 9 80.67 13.39
8 -1 -8 20.48 6.74
-8 1 8 18.39 6.73
8 -1 -7 64.1 11.08
-8 1 7 35.78 8.9
8 -1 -6 68.51 11.21
-8 1 6 57.49 10.65
8 -1 -5 146.93 16.08
-8 1 5 161.65 17.07
8 -1 -4 284.42 21.89
-8 1 4 264.55 21.64
8 -1 -4 326.39 22.44
8 -1 -3 33.71 7.67
-8 1 3 42.71 8.89
8 -1 -2 43.19 8.51
-8 1 2 51.63 9.77
8 -1 -2 26.43 6.49
8 -1 -1 52.29 8.98
-8 1 1 52.38 10.26
8 -1 -1 53.57 8.57
8 -1 0 43.89 8.13
-8 1 0 37.92 8.86
8 -1 0 21.88 5.5
8 -1 1 486.7 26.62
-8 1 -1 409.35 27.8
8 -1 1 472.11 29.85
8 -1 1 477.53 23.44
8 -1 2 2.73 2.4
-8 1 -2 1.98 3.23
8 -1 2 3.87 3.23
-8 1 -2 5.83 3.54
8 -1 3 60.45 9.29
-8 1 -3 68.06 12.13
8 -1 3 70.26 11.96
-8 1 -3 85.12 11.72
-8 1 -4 15.13 5.71
8 -1 4 6.08 3.84
-8 1 -4 12.26 5.21
8 -1 5 17.69 6.76
-8 1 -5 19.99 6.66
8 0 -9 29.83 8.1
-8 0 9 25.95 7.72
8 0 -8 202.19 19.99
-8 0 8 213.6 20.08
8 0 -7 111.51 14.5
-8 0 7 116.31 14.62
8 0 -6 22.75 6.58
-8 0 6 38.14 8.57
8 0 -5 0.09 2.31
-8 0 5 0.88 2.55
8 0 -4 75.83 11.64
-8 0 4 75.81 11.57
8 0 -3 217.36 19.2
-8 0 3 167.13 17.24
8 0 -2 337.05 23.58
-8 0 2 374.92 25.56
8 0 -1 86.47 11.93
-8 0 1 91.3 13.05
8 0 0 37.56 7.9
-8 0 0 51.02 10.12
8 0 1 18.57 6.33
-8 0 -1 20.04 6.73
8 0 1 15.45 6.19
8 0 2 59.88 9.8
-8 0 -2 74 12.42
8 0 2 93.6 13.96
8 0 3 139.7 14.64
8 0 3 134.97 16.83
-8 0 -3 130.53 16.56
-8 0 -3 121.82 13.98
8 0 4 129.67 16.76
-8 0 -4 123.65 14.77
8 1 -8 10.61 4.84
-8 -1 8 8.08 4.53
8 1 -7 101.25 14.22
-8 -1 7 119.54 14.69
-8 -1 6 128.19 14.85
8 1 -6 114.35 14.95
8 1 -5 71.05 11.69
-8 -1 5 74.22 11.32
8 1 -4 2.63 3.58
-8 -1 4 0.2 2.04
8 1 -3 2 3.29
-8 -1 3 -7.47 4.78
8 1 -2 -0.71 2.67
-8 -1 2 7.96 4.24
8 1 -1 139.49 15.61
-8 -1 1 140.08 16.17
8 1 0 135.3 15.54
-8 -1 0 113.41 14.6
8 1 1 67.1 10.92
-8 -1 -1 67.53 11.53
8 1 1 81.38 12.93
-8 -1 -2 14.77 5.65
8 1 2 31.67 8.45
-8 -1 -3 -8.84 4.94
8 1 3 -8.33 4.73
8 2 -7 -9.5 4.91
-8 -2 7 0.67 3.31
8 2 -6 19.11 6.03
-8 -2 6 16.2 5.75
8 2 -5 279.44 23.5
-8 -2 5 277.17 23.44
8 2 -4 80.84 12.69
-8 -2 4 110.74 14.39
-8 -2 4 105.3 13.27
8 2 -3 12.09 4.72
-8 -2 3 36.5 7.83
-8 -2 3 25.35 6.77
8 2 -2 8.27 5.35
-8 -2 2 4.2 3.56
8 2 -1 18.91 6.32
-8 -2 1 13.9 6.01
8 2 0 76.49 12.21
-8 -2 0 43.13 9.37
-8 -2 -1 69.13 11.79
8 2 1 78.84 13.09
8 3 -4 -0.62 4.99
-8 -3 4 -2.91 2.88
8 3 -3 43.34 9.45
8 3 -2 46.17 9.58
-9 7 1 10.84 4.98
9 -7 -1 -6.65 3.87
-9 7 0 71.12 12.83
9 -7 0 79.95 12.7
-9 7 -1 128.22 17.36
9 -7 1 144.34 16.99
-9 7 -2 55.04 11.78
9 -7 2 71.36 12.16
-9 6 4 64.15 12.68
9 -6 -4 61.3 11.43
-9 6 3 207.79 22.06
9 -6 -3 259.77 22.94
-9 6 2 154.9 19.01
9 -6 -2 125.14 15.88
-9 6 1 169.51 19.7
9 -6 -1 161.45 17.61
-9 6 0 5.77 4.08
9 -6 0 -8 4.41
9 -6 1 -1.26 1.41
-9 6 -1 6.49 5.34
9 -6 1 4.32 3.84
9 -6 2 44.47 8.28
-9 6 -2 51.67 10.95
9 -6 2 50.84 9.95
-9 6 -3 37.92 9.55
-9 6 -3 48.97 10.15
9 -6 3 50.29 9.7
-9 5 5 2.46 5.06
9 -5 -5 17.74 5.94
-9 5 4 5.9 4.48
9 -5 -4 4.47 2.6
-9 5 3 5.58 4.96
9 -5 -3 19.55 5.85
9 -5 -2 31.83 7.68
-9 5 2 27.53 8.52
9 -5 -2 33.73 8.33
9 -5 -1 121.48 14.58
-9 5 1 126.97 17.02
9 -5 -1 112.05 14.4
9 -5 0 61.93 10.24
-9 5 0 69.63 12.78
9 -5 0 52.05 9.66
9 -5 1 84.09 11.7
-9 5 -1 51.75 11.3
9 -5 1 59.27 10.32
9 -5 2 42.5 7.9
-9 5 -2 24.21 7.47
-9 5 -2 30.38 7.69
9 -5 2 42.54 8.55
-9 5 -3 -0.44 5.68
9 -5 3 8.37 4.19
-9 5 -3 11.49 4.92
9 -5 3 6.27 4.02
9 -5 4 1.84 4.03
-9 5 -4 1.01 3.64
9 -4 -6 12.17 5.01
-9 4 6 19.06 8.22
9 -4 -6 10.99 4.7
9 -4 -5 246.45 22.24
-9 4 5 238.86 23.5
9 -4 -5 286.83 23.73
9 -4 -4 20.72 6.52
-9 4 4 15.86 6.48
9 -4 -4 17.41 5.85
9 -4 -3 111.28 14.44
-9 4 3 103.29 15.45
9 -4 -3 107.15 14.15
9 -4 -2 49.22 9.45
-9 4 2 48.62 10.58
9 -4 -2 50.02 9.5
9 -4 -1 6.19 4.48
-9 4 1 9.25 5.89
9 -4 -1 16.26 5.18
9 -4 0 126.16 14.63
-9 4 0 128.53 17.13
9 -4 0 135.22 15.1
9 -4 1 101.13 12.71
-9 4 -1 64.7 12.48
9 -4 1 97.76 12.77
9 -4 2 144.62 15.02
-9 4 -2 165.08 19.54
-9 4 -2 151.82 16.19
9 -4 2 167.63 18.93
9 -4 2 149.85 15.31
-9 4 -3 72 12.95
9 -4 3 91.44 14.26
-9 4 -3 90.69 13.07
-9 4 -4 45.98 9.73
-9 4 -4 28.17 8.64
9 -4 4 23.23 7.59
9 -3 -6 157.13 17.89
-9 3 6 196.98 21.15
9 -3 -6 149.72 17.58
9 -3 -5 0.74 2.88
-9 3 5 1.83 4.31
9 -3 -5 -0.93 3.86
9 -3 -4 -0.02 3.64
-9 3 4 -1.95 3.64
9 -3 -4 5.51 3.26
9 -3 -3 31.34 7.92
-9 3 3 25.54 8.22
9 -3 -3 26.95 6.99
9 -3 -2 71.76 11.38
-9 3 2 67.68 12.33
9 -3 -2 79.22 11.63
9 -3 -1 147.8 16.15
-9 3 1 137.33 17.4
9 -3 0 93.09 12.52
-9 3 0 67.88 12.5
9 -3 0 79.64 11.43
9 -3 1 3.47 3.13
-9 3 -1 0.11 3.82
9 -3 1 4.71 2.95
9 -3 2 98.72 12.47
-9 3 -2 68.74 13.27
9 -3 2 83.59 13.67
-9 3 -3 35.07 8.25
-9 3 -3 34.42 9.47
9 -3 3 23.42 7.88
9 -2 -6 220.36 21.35
-9 2 6 215.93 21.83
9 -2 -6 195.94 19.72
9 -2 -5 223.64 21.26
-9 2 5 198.95 20.72
9 -2 -5 259.58 22.16
9 -2 -4 64.47 11.29
-9 2 4 65.81 12.4
9 -2 -4 72.73 11.82
9 -2 -3 12.88 6.26
-9 2 3 8.77 5.34
9 -2 -3 13.56 5.18
9 -2 -2 22.88 6.9
-9 2 2 21.5 7.13
9 -2 -2 18.83 5.35
9 -2 -1 19.44 5.95
-9 2 1 12.64 6.08
9 -2 -1 25.44 6.27
9 -2 0 128.91 14.85
-9 2 0 106.54 15.69
9 -2 0 138.72 14.39
9 -2 1 107.89 13.48
-9 2 -1 107.97 15.92
9 -2 2 45.9 8.51
-9 2 -2 54.72 11.75
9 -2 2 46.39 10.66
-9 2 -3 8.98 5.6
9 -2 3 3.22 4.11
9 -1 -6 -12.92 5.65
-9 1 6 0.66 4.08
9 -1 -5 47.78 10.18
-9 1 5 16.92 7.27
9 -1 -4 152.59 17.25
-9 1 4 127.01 16.51
9 -1 -3 118.65 15.18
-9 1 3 133.73 16.64
9 -1 -2 13.07 5.07
-9 1 2 12.01 5.61
9 -1 -1 61.1 10.65
-9 1 1 40.03 9.71
9 -1 0 -1.11 3.31
-9 1 0 0.98 4.14
9 -1 1 32.01 7.3
9 -1 1 29.62 8.58
-9 1 -1 32.6 9.61
9 -1 2 69.08 11.19
-9 1 -2 73.26 13.8
9 -1 2 74.49 13.36
9 0 -5 9.14 4.36
-9 0 5 7.32 5.01
9 0 -4 1.16 2.95
-9 0 4 5.24 4.12
9 0 -3 222.73 20.86
-9 0 3 202.61 20.51
9 0 -2 77.33 12.56
-9 0 2 76.55 12.77
9 0 -1 21.11 6.6
-9 0 1 14.61 6.49
9 0 0 93.06 13.5
-9 0 0 89.87 13.93
loop_
_exptl_oxdiff_crystal_face_indexfrac_h
_exptl_oxdiff_crystal_face_indexfrac_k
_exptl_oxdiff_crystal_face_indexfrac_l
_exptl_oxdiff_crystal_face_x
_exptl_oxdiff_crystal_face_y
_exptl_oxdiff_crystal_face_z
-1.0000 -3.0000 -13.0000 -0.1893 0.8877 -0.4328
0.0000 11.0000 -6.0000 -0.8346 -0.1166 0.4688
10.0000 -6.0000 4.0000 0.6805 0.1504 0.7569
-0.0000 -12.0000 6.0000 0.8957 0.1596 -0.5190
-9.0000 7.0000 -5.0000 -0.7481 -0.1210 -0.6204
-9.0000 -1.0000 8.0000 0.0927 -0.5490 -0.8406
9.0000 3.0000 -2.0000 -0.0525 0.1068 1.0250
1.0000 3.0000 13.0000 0.1893 -0.8877 0.4328
