#------------------------------------------------------------------------------
#$Date: 2019-05-15 08:11:08 +0300 (Wed, 15 May 2019) $
#$Revision: 215179 $
#$URL: file:///home/coder/svn-repositories/cod/cif/1/55/10/1551062.cif $
#------------------------------------------------------------------------------
#
# This file is available in the Crystallography Open Database (COD),
# http://www.crystallography.net/. The original data for this entry
# were provided by IUCr Journals, http://journals.iucr.org/.
#
# The file may be used within the scientific community so long as
# proper attribution is given to the journal article from which the
# data were obtained.
#
data_1551062
loop_
_publ_author_name
'Josey, Daniel'
'Shank, Nathaniel'
'Padgett, Clifford W.'
_publ_section_title
;
 2-Amino-5,5-dimethylthiazol-4(5<i>H</i>)-one
;
_journal_coeditor_code           SJ4204
_journal_issue                   5
_journal_name_full               IUCrData
_journal_page_first              x190613
_journal_paper_doi               10.1107/S2414314619006138
_journal_volume                  4
_journal_year                    2019
_chemical_formula_iupac          'C5 H8 N2 O S'
_chemical_formula_moiety         'C5 H8 N2 O S'
_chemical_formula_sum            'C5 H8 N2 O S'
_chemical_formula_weight         144.19
_chemical_name_systematic
;
2-Amino-5,5-dimethylthiazol-4(5<i>H</i>)-one
;
_space_group_crystal_system      monoclinic
_space_group_IT_number           14
_space_group_name_Hall           '-P 2yn'
_space_group_name_H-M_alt        'P 1 21/n 1'
_symmetry_space_group_name_Hall  '-P 2yn'
_symmetry_space_group_name_H-M   'P 1 21/n 1'
_atom_sites_solution_hydrogens   mixed
_atom_sites_solution_primary     dual
_audit_creation_method
;
Olex2 1.2
(compiled 2018.05.29 svn.r3508 for OlexSys, GUI svn.r5506)
;
_cell_angle_alpha                90.0
_cell_angle_beta                 98.888(11)
_cell_angle_gamma                90
_cell_formula_units_Z            4
_cell_length_a                   6.9440(8)
_cell_length_b                   12.1354(16)
_cell_length_c                   8.8283(11)
_cell_measurement_reflns_used    1205
_cell_measurement_temperature    173
_cell_measurement_theta_max      26.0030
_cell_measurement_theta_min      2.8550
_cell_volume                     735.01(16)
_computing_cell_refinement
;
CrysAlis PRO (Rigaku OD, 2018)
;
_computing_data_collection
;
CrysAlis PRO (Rigaku OD, 2018)
;
_computing_data_reduction
;
CrysAlis PRO (Rigaku OD, 2018)
;
_computing_molecular_graphics
;
<i>OLEX2</i> (Dolomanov <i>et al.</i>,  2009)
;
_computing_publication_material
;
<i>OLEX2</i> (Dolomanov <i>et al.</i>,  2009)
;
_computing_structure_refinement
;
SHELXL2018 (Sheldrick, 2015b)
;
_computing_structure_solution
;
SHELXT (Sheldrick, 2015a)
;
_diffrn_ambient_temperature      173
_diffrn_detector                 'Rigaku XtaLAB area detector'
_diffrn_detector_area_resol_mean 13.6612
_diffrn_measured_fraction_theta_full 1.000
_diffrn_measured_fraction_theta_max 1.000
_diffrn_measurement_device       'two-circle diffractometer'
_diffrn_measurement_device_type  'Rigaku XtaLAB mini CCD'
_diffrn_measurement_method       '\w scans'
_diffrn_radiation_monochromator  'Graphite Monochromator'
_diffrn_radiation_probe          x-ray
_diffrn_radiation_type           MoK\a
_diffrn_radiation_wavelength     0.71073
_diffrn_reflns_av_R_equivalents  0.0553
_diffrn_reflns_av_unetI/netI     0.0638
_diffrn_reflns_limit_h_max       8
_diffrn_reflns_limit_h_min       -8
_diffrn_reflns_limit_k_max       15
_diffrn_reflns_limit_k_min       -14
_diffrn_reflns_limit_l_max       10
_diffrn_reflns_limit_l_min       -11
_diffrn_reflns_number            5107
_diffrn_reflns_theta_full        25.242
_diffrn_reflns_theta_max         27.480
_diffrn_reflns_theta_min         2.876
_diffrn_source                   'fine-focus sealed X-ray tube'
_exptl_absorpt_coefficient_mu    0.363
_exptl_absorpt_correction_T_max  1.00000
_exptl_absorpt_correction_T_min  0.49661
_exptl_absorpt_correction_type   multi-scan
_exptl_absorpt_process_details
;
(CrysAlis PRO; Rigaku OD, 2018)
;
_exptl_crystal_colour            'clear bluish violet'
_exptl_crystal_density_diffrn    1.303
_exptl_crystal_description       prism
_exptl_crystal_F_000             304
_exptl_crystal_size_max          0.2
_exptl_crystal_size_mid          0.2
_exptl_crystal_size_min          0.05
_refine_diff_density_max         0.261
_refine_diff_density_min         -0.353
_refine_ls_extinction_method     none
_refine_ls_goodness_of_fit_ref   1.082
_refine_ls_hydrogen_treatment    mixed
_refine_ls_matrix_type           full
_refine_ls_number_parameters     92
_refine_ls_number_reflns         1681
_refine_ls_number_restraints     0
_refine_ls_restrained_S_all      1.082
_refine_ls_R_factor_all          0.0857
_refine_ls_R_factor_gt           0.0509
_refine_ls_shift/su_max          0.000
_refine_ls_shift/su_mean         0.000
_refine_ls_structure_factor_coef Fsqd
_refine_ls_weighting_details
'w=1/[\s^2^(Fo^2^)+(0.0472P)^2^+0.1833P] where P=(Fo^2^+2Fc^2^)/3'
_refine_ls_weighting_scheme      calc
_refine_ls_wR_factor_gt          0.1106
_refine_ls_wR_factor_ref         0.1417
_reflns_number_gt                1126
_reflns_number_total             1681
_reflns_threshold_expression     'I > 2\s(I)'
_cod_data_source_file            sj4204sup1.cif
_cod_data_source_block           I
_cod_database_code               1551062
_shelx_space_group_comment
;
The symmetry employed for this shelxl refinement is uniquely defined
by the following loop, which should always be used as a source of
symmetry information in preference to the above space-group names.
They are only intended as comments.
;
_shelx_estimated_absorpt_t_min   0.931
_shelx_estimated_absorpt_t_max   0.982
_shelx_hkl_file
;
   0   0  -1    4.03    1.00
   0   0   1    2.45    1.08
   0   0   2 3649.68   38.82
   0   0  -2 3602.56   53.83
   0   0  -3   -0.53    1.30
   0   0   3    0.27    0.48
   0   0   4 1410.95   34.90
   0   0  -4 1344.77   47.78
   0   0   5    0.51    0.69
   0   0  -5   -3.76    5.02
   0   0  -6  561.23   38.44
   0   0   6  592.03   28.35
   0   0   7    1.86    2.19
   0   0  -7   -7.87    4.91
   0   0   8  364.40   26.18
   0   0  -8  393.87   37.94
   0   0  -9    4.46   21.52
   0   0   9    0.57    1.52
   0   0 -10   44.29   16.87
   0   0 -11   -7.52    8.31
   0  -1   1  135.77    9.84
   0   1  -1  128.25    6.50
   0  -1  -1  124.06    8.20
   0   1   1  130.22    6.93
   0  -1   1  131.68    6.10
   0   1  -1  134.87    9.34
   0   1  -2 1443.01   32.70
   0  -1   2 1426.15   24.09
   0  -1  -2 1448.50   36.67
   0   1   2 1451.79   28.50
   0  -1   3 2054.36   34.00
   0   1  -3 2086.55   48.18
   0  -1  -3 2102.91   53.50
   0   1   3 2017.44   40.14
   0   1  -4    6.20    4.09
   0   1   4    3.81    3.01
   0  -1  -5  425.52   30.82
   0   1  -5  393.92   28.16
   0  -1   5  433.20   20.58
   0   1   5  421.17   23.30
   0   1  -6 1109.13   52.72
   0  -1  -6 1163.87   57.00
   0   1   6 1130.47   40.84
   0  -1   6 1079.99   36.41
   0   1  -7   83.93   15.79
   0  -1   7   97.71   12.12
   0   1   7   94.86   12.70
   0  -1  -7   71.05   15.72
   0   1   8   81.85   12.49
   0   1  -8   78.65   17.12
   0  -1  -8   66.71   15.58
   0  -1   8   82.28   12.05
   0   1  -9    5.20    2.82
   0  -1  -9    3.22    7.71
   0   1   9    1.83    1.59
   0   1 -10   13.06    7.57
   0  -1 -10   21.78    7.97
   0  -1 -11    4.53    7.35
   0   1 -11    6.34    6.90
   0  -2   0  418.83   12.46
   0   2   0  426.89   12.66
   0   2   0  419.80   14.27
   0   2  -1 9999.00   66.77
   0  -2   1 9703.68   70.23
   0  -2  -1 9614.35   82.07
   0   2   2  102.35    8.84
   0  -2   2   98.92   12.16
   0  -2   2  115.51    7.60
   0  -2  -2  111.48   10.90
   0   2  -3   27.81    5.25
   0   2   3   27.34    5.00
   0  -2   3   31.00    4.25
   0  -2  -3   28.15    6.66
   0  -2  -4   91.05   12.86
   0   2  -4   77.78   10.78
   0  -2   4   87.37    8.12
   0   2   4   66.53    9.71
   0  -2  -5  554.88   37.17
   0  -2   5  539.47   22.45
   0   2  -5  533.16   31.81
   0   2   5  591.40   29.22
   0  -2  -6    3.06    2.52
   0   2   6   12.14    4.26
   0   2  -6   10.85    4.80
   0  -2   6   12.37    3.51
   0  -2  -7  190.60   26.08
   0   2   7  171.00   17.70
   0  -2   7  174.49   15.58
   0   2  -7  176.50   22.80
   0   2   8   49.59   10.78
   0   2  -8   39.24   11.72
   0  -2  -8   49.38   14.98
   0  -2   8   60.59    9.64
   0   2   9  113.44   17.14
   0   2  -9  103.37   21.85
   0  -2  -9  116.89   24.40
   0   2 -10   -9.76    7.91
   0  -2 -10   -1.21    2.36
   0   2 -11    3.53    5.13
   0  -2 -11   11.52    9.55
   0   3   0   -1.47    1.31
   0  -3   0    1.84    1.35
   0  -3   1 3337.56   42.40
   0   3  -1 3337.83   47.92
   0  -3  -1 3300.42   53.52
   0   3   1 3319.99   52.80
   0   3  -2 3166.67   51.33
   0   3   2 3063.42   56.52
   0  -3  -2 3041.84   61.78
   0  -3   2 3184.65   64.27
   0   3   3  214.94   17.37
   0  -3   3  241.04   13.27
   0   3  -3  241.95   15.77
   0  -3  -3  254.49   20.42
   0   3  -4 1077.08   38.55
   0  -3   4 1047.72   31.12
   0  -3  -4 1082.58   47.71
   0   3   4 1079.04   38.66
   0  -3  -5  520.27   37.01
   0   3  -5  437.40   28.73
   0  -3   5  477.28   21.69
   0   3   5  440.82   27.22
   0   3   6    5.00    2.49
   0   3  -6    5.16    4.98
   0  -3  -6    7.89    4.34
   0  -3   6    5.54    2.47
   0  -3  -7  855.99   55.67
   0   3  -7  816.37   48.20
   0  -3   7  838.67   33.13
   0   3   7  832.13   42.68
   0   3  -8    3.85    3.81
   0  -3  -8   10.14    5.15
   0   3   8   13.39    6.06
   0   3   9   18.65    7.28
   0   3  -9    5.06    7.13
   0  -3  -9   18.91   11.64
   0   3 -10   11.92    7.85
   0  -3 -10   15.78    9.28
   0  -3 -11   78.56   22.28
   0   3 -11   49.29   18.55
   0   4   0 3752.04   61.86
   0  -4   0 3761.98   53.00
   0   4  -1  349.10   18.53
   0   4   1  362.97   20.13
   0  -4   1  365.37   15.50
   0  -4  -1  342.58   18.65
   0  -4   2  633.60   27.12
   0  -4  -2  681.16   31.04
   0   4   2  707.45   29.45
   0   4  -2  656.67   25.25
   0   4   3  364.35   23.00
   0   4  -3  327.99   19.79
   0  -4  -3  367.79   26.16
   0  -4   3  315.57   25.65
   0   4   4  136.36   14.57
   0   4  -4  126.05   13.27
   0  -4  -4  137.51   17.40
   0  -4   4  127.25   11.22
   0  -4   5   85.85    9.54
   0   4  -5   70.04   11.31
   0  -4  -5   85.93   15.63
   0   4   5   84.69   12.55
   0  -4  -6   15.22    7.21
   0  -4   6   11.71    3.82
   0   4   6   11.23    4.90
   0   4  -6    8.42    4.93
   0   4   7  164.91   20.39
   0  -4   7  196.76   16.03
   0   4  -7  199.74   23.47
   0   4  -8    8.90    5.33
   0  -4  -8   35.43   12.65
   0   4   8   33.44    9.19
   0   4  -9   60.27   15.79
   0   4   9   72.38   14.39
   0  -4  -9   83.14   20.69
   0   4 -10    3.14    5.15
   0  -4 -10    7.86    6.37
   0   4  10   -0.78    3.01
   0   5   0   -0.11    0.73
   0  -5   0   -0.33    1.01
   0   5   1  743.14   32.03
   0  -5  -1  750.08   30.40
   0   5  -1  704.67   30.17
   0  -5   1  740.38   25.64
   0  -5   2 2317.88   53.37
   0   5   2 2393.68   60.19
   0  -5  -2 2374.24   61.05
   0   5  -2 2381.35   54.41
   0   5   3  671.32   33.75
   0   5  -3  635.50   29.22
   0  -5   3  679.20   37.11
   0  -5  -3  634.37   35.53
   0   5  -4  115.26   13.14
   0   5   4  127.61   16.16
   0  -5   4  119.30   11.24
   0  -5  -4  120.49   17.08
   0  -5   5    4.79    2.13
   0   5   5    6.37    3.88
   0   5  -5    2.97    2.32
   0  -5  -5    8.17    6.29
   0   5   6  657.56   39.99
   0   5  -6  641.41   37.07
   0  -5   6  653.68   29.49
   0  -5  -6  648.87   48.00
   0  -5  -7   60.73   15.74
   0   5   7   52.46   11.81
   0  -5   7   42.20    7.39
   0   5  -7   43.10   10.96
   0   5   8   57.32   12.54
   0  -5  -8   76.10   19.00
   0   5  -8   45.93   12.54
   0  -5  -9   51.46   16.82
   0   5   9   25.40    9.24
   0   5  -9   44.17   13.67
   0  -5 -10    0.26    4.32
   0   5 -10    6.07    0.51
   0   5  10    9.04    5.56
   0  -6   0 1037.68   34.69
   0   6   0 1023.76   40.67
   0  -6  -1   11.20    4.54
   0   6  -1    9.35    4.66
   0  -6   1   12.05    3.60
   0   6   1   10.37    3.18
   0   6  -2   95.82   11.81
   0  -6  -2   94.35   12.92
   0  -6   2   88.91   11.44
   0   6   2   86.70   12.65
   0   6   3  468.98   30.47
   0   6  -3  435.78   25.99
   0  -6   3  449.53   30.91
   0  -6  -3  491.01   32.47
   0  -6   4  295.90   28.74
   0  -6  -4  348.46   30.48
   0   6  -4  296.07   22.87
   0   6   4  326.66   26.22
   0  -6   5  360.17   22.21
   0   6  -5  346.38   24.63
   0  -6  -5  350.31   33.26
   0   6   5  359.80   29.55
   0  -6   6   61.13    9.49
   0   6   6   72.08   13.50
   0   6  -6   68.70   11.84
   0  -6  -6   82.27   16.70
   0  -6   7    4.66    2.94
   0   6   7    4.98    2.55
   0   6  -7    7.95    4.27
   0   6  -8  137.35   20.38
   0  -6  -8  161.58   28.30
   0   6   8  115.90   19.15
   0  -6  -9   47.46   15.24
   0   6   9   31.88   10.83
   0   6  -9   30.72   11.20
   0  -6 -10    7.51    4.97
   0   6  10   16.46    8.07
   0  -7   0   -2.55    3.08
   0   7   0    1.05    3.21
   0  -7   1  108.28   11.56
   0   7  -1  120.93   15.13
   0  -7  -1  114.11   14.23
   0   7   1  121.37   15.03
   0   7  -2  715.17   37.15
   0   7   2  707.02   38.80
   0  -7  -2  694.35   37.32
   0  -7   2  729.95   35.84
   0  -7   3   55.91   10.99
   0  -7  -3   48.52   10.62
   0   7  -3   49.96    9.51
   0   7   3   37.02    8.69
   0   7   4  220.81   23.37
   0  -7  -4  240.62   26.16
   0  -7   4  196.02   24.34
   0   7  -4  216.03   20.55
   0  -7   5    6.56    2.80
   0   7   5   13.83    5.90
   0   7  -5    7.03    3.59
   0  -7  -5    4.06    6.98
   0  -7  -6   58.63   14.93
   0   7   6   43.61   11.92
   0  -7   6   51.11    8.94
   0   7  -6   46.36   10.01
   0  -7  -7   35.49   12.92
   0   7   7   38.09   11.17
   0   7  -7   39.30    9.49
   0  -7  -8   -3.30    4.43
   0   7   8   -2.53    3.66
   0   7  -8   -2.76    3.49
   0  -7  -9   -3.75    5.17
   0   7   9   -1.93    2.66
   0   7  10   17.91    8.63
   0  -7 -10   35.64   14.89
   0  -8   0  557.13   29.60
   0   8   0  561.50   37.05
   0   8  -1    9.75    4.94
   0   8   1   10.05    5.65
   0  -8  -1    8.87    4.15
   0  -8   1    7.86    3.49
   0   8   2    6.71    1.06
   0  -8   2    5.05    4.05
   0  -8  -3  172.87   20.63
   0   8   3  177.56   21.58
   0   8  -3  173.69   20.17
   0  -8   3  161.81   22.22
   0   8   4  543.29   38.98
   0   8  -4  495.32   34.00
   0  -8  -4  546.19   39.94
   0   8  -5  141.78   15.13
   0   8  -5  122.31   17.51
   0  -8   5  126.83   14.99
   0   8   5  127.57   19.97
   0  -8  -5  150.52   22.24
   0   8   6  236.46   28.24
   0   8  -6  225.42   21.90
   0  -8   6  212.30   19.62
   0  -8  -6  261.66   32.36
   0  -8  -7   44.47   13.94
   0   8   7   46.54   12.91
   0  -8  -8   34.40   13.16
   0   8   8   18.84    8.19
   0   8   9   26.07   10.01
   0  -8  -9   13.82    6.84
   0  -9   0   -3.77    2.81
   0   9   0    3.32    2.80
   0  -9   1  101.59   13.40
   0   9   1  102.86   16.30
   0   9  -1   85.28   15.56
   0  -9  -1   99.65   14.69
   0   9   2   57.88   13.32
   0  -9   2   48.29   12.23
   0  -9  -2   77.77   13.94
   0   9  -2   54.52   12.84
   0   9  -3    4.67    4.54
   0  -9  -3    6.45    4.55
   0  -9   3   -1.38    3.04
   0   9   3    0.37    1.82
   0   9  -4   27.31    9.30
   0  -9  -4   17.18    7.42
   0   9   4   36.52   10.82
   0   9  -5    2.71    2.25
   0  -9  -5    8.52    7.00
   0   9   5    1.67    3.23
   0  -9   6    9.48    4.18
   0  -9  -6    3.80    3.32
   0   9   6   12.19    7.08
   0   9   7   15.12    8.36
   0  -9  -7    9.52    7.34
   0   9   8   15.34    8.16
   0  -9  -8   26.77   11.77
   0   9   9   26.63   11.74
   0  -9  -9   42.65   16.77
   0 -10   0    7.57    3.78
   0  10   0   12.77    6.17
   0 -10  -1    4.03    1.38
   0  10  -1   10.62    4.79
   0 -10   1   -0.36    1.42
   0  10   1   10.46    5.71
   0  10   2   21.21    8.41
   0 -10   2   16.23    8.20
   0 -10  -2   26.68    9.20
   0  10  -2   14.53    5.17
   0 -10  -3  139.06   20.49
   0  10  -3  116.42   19.45
   0  10   3  122.19   20.18
   0 -10  -4   11.86    6.58
   0  10   4   19.72    7.13
   0  10  -4   20.12    7.95
   0 -10  -5  135.46   22.54
   0  10   5  135.80   23.52
   0  10  -5  129.47   21.60
   0  10   6    0.75    2.19
   0 -10   6   -3.02    2.78
   0 -10  -6   -0.66    1.65
   0 -10  -7    9.47    5.80
   0  10   7    4.23    4.65
   0 -10  -8   16.73   11.16
   0  10   8    5.78    7.57
   0  11   0    1.30    1.24
   0 -11   0    2.22    2.60
   0  11   1   19.59    9.36
   0 -11  -1   42.89    9.94
   0 -11   1   18.08    6.92
   0  11  -1   34.11   12.93
   0  11   2    5.36    5.55
   0  11  -2    8.53    4.61
   0 -11  -2   14.00    7.11
   0  11   3   16.10    7.81
   0 -11  -3   22.96    9.50
   0  11  -3    2.56    3.42
   0  11  -4    2.18    4.12
   0 -11  -4   -4.23    5.26
   0  11   4   -2.60    4.03
   0 -11  -5   14.10    8.99
   0  11   5    6.72    5.59
   0  11  -5   -0.06    2.75
   0  11   6    3.88    4.51
   0 -11  -6   12.15    8.21
   0  11   7   29.79   10.53
   0 -11  -7   35.07   12.72
   0  11   8    0.45    4.46
   0 -11  -8   17.82   10.25
   0 -12   0   49.40    9.74
   0  12   0   54.63   15.11
   0  12   1   -2.50    1.06
   0 -12  -1   -2.61    3.53
   0  12  -1   -0.23    2.37
   0  12  -2   -3.07    3.28
   0 -12  -2    5.69    2.17
   0  12   2    3.51    3.51
   0 -12  -3   -2.87    2.97
   0  12   3   -4.63    5.44
   0  12  -3   -1.14    1.58
   0  12  -4   18.02    9.96
   0  12   4   12.39    8.05
   0  12   5   -6.30    5.94
   0 -12  -5   -7.29    7.89
   0  12  -5   -2.37    3.35
   0  12   6   13.61    9.88
   0 -12  -6   21.17   10.60
   0 -12  -7   -5.82    5.60
   0  12   7    3.48    3.44
   0  13   0    0.97    3.31
   0 -13  -1    4.72    3.69
   0  13  -1    1.29    3.43
   0  13   1   -2.39    1.42
   0  13  -2   34.46   10.71
   0 -13  -2   50.79   12.70
   0  13   2   40.02   14.38
   0 -13  -3   -1.35    1.44
   0  13   3    1.26    4.07
   0  13  -3   -1.56    1.32
   0  13   4    5.23    5.14
   0 -13  -4   14.61    6.91
   0  13  -4   14.48    9.55
   0  13  -5    2.89    6.23
   0 -13  -5    0.17    4.40
   0  13   5    0.73    5.64
   0 -13  -6    8.44    6.09
   0  13   6   10.16    6.00
   0  14   0   16.47    9.80
   0  14  -1    5.74    5.21
   0  14   1    4.36    3.76
   0  14   2    0.72    3.80
   0  14  -2    0.22    1.24
   0  14  -3    6.73    7.88
   0 -14  -3   -1.05    2.89
   0  14   3   -1.55    1.73
   0  14   4    1.07    5.05
   0 -14  -4    2.81    2.83
   0  14  -4    2.78    6.91
   0  14   5   11.79    8.12
   0 -14  -5    3.20    4.55
   0  15   0    3.23    5.23
   0  15  -1   -0.89    3.67
   0  15   1    3.66    5.23
   0  15  -2    5.27    3.80
   0  15   2    3.97    6.01
   0  15   3   -7.71    8.08
   0  15  -3    0.77    3.16
   1   0 -11   66.14   18.74
   1   0 -10   -4.43    5.19
   1   0  -9   25.06   10.71
  -1   0   8    1.02    1.44
   1   0  -8   -2.32    4.98
  -1   0   7  149.01   13.63
   1   0  -7  159.27   22.69
   1   0  -6   -0.45    2.94
  -1   0   6   -2.02    1.79
   1   0  -5   99.96   15.74
  -1   0   5  131.07   10.14
  -1   0   4    1.08    1.01
   1   0  -4   -1.29    3.06
   1   0  -3 3385.99   69.52
  -1   0   3 3375.06   36.09
  -1   0   2   -0.05    0.23
   1   0  -2    0.77    0.73
  -1   0   2    0.08    0.90
  -1   0   1 1542.25   22.14
   1   0  -1 1589.03   19.46
   1   0  -1 1484.37   22.24
  -1   0   0    2.96    1.21
   1   0   0   -0.98    1.18
  -1   0  -1  930.17   23.91
   1   0   1  925.25   23.24
  -1   0  -2   -1.23    1.15
   1   0   2   -0.79    0.59
  -1   0  -3  776.73   31.51
   1   0   3  759.74   27.04
   1   0   4   -0.57    0.75
  -1   0  -4    0.48    2.82
   1   0   5  648.12   30.74
  -1   0  -5  644.37   36.93
  -1   0  -6    3.80    3.72
   1   0   6    2.09    3.52
  -1   0  -7   68.17   14.93
   1   0   7   66.55   11.34
   1   0   8    3.09    3.52
  -1   0  -8   10.28    6.85
   1   0   9  145.04   19.36
  -1   0  -9  130.22   24.81
  -1   0 -10    0.21    3.75
  -1   0 -11   -0.64    1.89
   1   1 -11   34.56   13.10
   1  -1 -11   26.58   11.76
   1   1 -10   26.32   10.95
   1  -1 -10   37.96   13.70
   1  -1  -9  109.82   23.28
   1   1  -9  104.45   22.20
  -1   1   8   14.77    4.97
   1  -1  -8   10.28    6.82
   1   1  -8    7.78    4.71
  -1  -1   7   -2.00    1.79
   1   1  -7    1.45    1.00
  -1   1   7    1.52    1.14
   1   1  -6   33.88   10.51
  -1  -1   6   48.92    6.32
  -1   1   6   55.34    8.44
   1  -1  -6   46.06   12.73
  -1   1   5 1207.42   35.85
  -1  -1   5 1188.62   26.91
   1  -1  -5 1226.56   53.40
   1   1  -5 1215.25   50.64
   1  -1  -4  153.13   17.80
  -1  -1   4  166.33    7.99
  -1   1   4  162.33   11.52
   1   1  -4  143.68   16.02
  -1   1   3   61.82    6.12
   1  -1  -3   35.57    8.40
  -1  -1   3   68.45   14.87
  -1   1   2  194.96    9.68
   1  -1  -2  199.40   13.96
  -1  -1   2  187.06   17.81
  -1  -1   1 1294.21   33.62
  -1   1   1 1210.07   41.49
  -1  -1   1 1209.78   16.11
  -1   1   1 1197.44   24.91
   1   1  -1 1200.75   15.27
   1  -1   0 1476.62   23.57
   1   1   0 1532.81   24.62
  -1   1   0 1499.58   27.39
  -1  -1   0 1511.58   30.70
  -1   1   0 1625.07   31.75
   1  -1   1 2167.63   37.30
  -1   1  -1 2142.56   30.48
  -1  -1  -1 2053.83   41.52
   1   1   1 2118.09   36.01
   1  -1   2  228.16   13.33
  -1   1  -2  223.24   12.73
  -1  -1  -2  225.43   15.80
   1   1   2  217.10   13.57
  -1   1  -3 1349.23   39.18
  -1  -1  -3 1335.22   44.18
   1   1   3 1343.87   38.02
   1  -1   3 1367.90   36.67
   1  -1   4  347.19   20.22
  -1   1  -4  362.15   23.42
  -1  -1  -4  357.37   25.98
   1   1   4  349.76   21.33
  -1   1  -5  168.29   18.32
   1   1   5  160.08   15.93
   1  -1   5  173.33   15.25
  -1  -1  -5  164.51   20.12
   1   1   6   33.68    8.14
  -1   1  -6   36.28    9.83
   1  -1   6   24.22    6.35
  -1  -1  -6   33.42   10.59
   1   1   7   63.58   11.61
   1  -1   7   65.70   10.96
  -1   1  -7   62.87   13.60
  -1  -1  -7   62.31   14.74
   1  -1   8   46.96    9.66
  -1   1  -8   35.07   12.73
   1   1   8   44.77   10.61
  -1  -1  -8   37.30   14.12
  -1   1  -9   11.41    8.64
   1   1   9   14.61    6.68
   1  -1   9   10.36    4.88
  -1  -1  -9   17.62    8.72
   1   1  10    2.61    3.20
  -1   1 -10    0.14    1.61
  -1  -1 -10   -0.44    2.77
  -1  -1 -11   49.45   16.24
  -1   1 -11   28.26   11.85
   1  -2 -11   16.48    8.77
   1   2 -11    7.48    8.23
   1   2 -10    6.20    6.24
   1  -2 -10   13.75    9.77
   1  -2  -9   10.86    4.91
   1   2  -9   16.68    7.99
  -1   2   9   13.48    5.18
   1   2  -8    3.12    4.95
  -1   2   8    7.29    3.91
   1  -2  -8   -1.38    5.41
   1  -2  -7  190.70   24.87
   1   2  -7  140.32   21.50
  -1   2   7  167.52   16.82
  -1   2   6   12.24    4.18
   1   2  -6   11.63    5.15
  -1  -2   6   12.96    2.94
  -1   2   5    3.49    1.80
  -1  -2   5    6.30    1.65
   1  -2  -5    7.32    4.89
   1   2  -5    9.95    4.75
  -1   2   4 1630.48   41.76
  -1  -2   4 1596.14   21.98
  -1  -2   4 1547.08   77.80
   1  -2  -4 1601.13   56.76
  -1  -2   3 1196.15   55.71
   1  -2  -3 1262.39   43.24
  -1   2   3 1231.54   33.13
  -1   2   2   22.57    3.90
  -1  -2   2   18.17    5.52
   1  -2  -2   22.36    4.51
  -1  -2   1 2224.36   45.30
   1  -2  -1 2212.40   39.17
   1   2  -1 2239.40   28.92
  -1   2   1 2168.40   40.67
   1  -2   0    0.16    1.00
  -1   2   0    3.02    2.40
  -1   2   0    4.88    2.02
  -1   2  -1  419.42   20.20
  -1  -2  -1  405.29   19.86
   1   2   1  393.49   17.28
  -1  -2  -2   71.58    9.59
  -1   2  -2   78.58    6.52
   1   2   2   76.05    8.51
   1  -2   2   79.18    8.44
  -1   2  -3  553.96   23.55
  -1  -2  -3  559.54   30.29
   1   2   3  574.62   26.28
   1  -2   3  574.81   24.91
  -1   2  -4 1461.71   44.99
   1   2   4 1441.52   45.96
   1  -2   4 1475.57   42.76
  -1  -2  -4 1466.16   54.32
   1  -2   5    0.33    0.46
   1   2   5   -1.49    2.60
  -1   2  -5   -0.16    0.84
  -1  -2  -5    2.99    4.43
   1  -2   6  354.24   23.53
  -1  -2  -6  336.19   31.47
   1   2   6  377.73   27.28
  -1   2  -6  347.87   28.64
   1   2   7   40.24    9.46
  -1   2  -7   31.26   10.01
   1  -2   7   40.45    8.41
  -1  -2  -7   37.58   11.83
   1  -2   8   19.57    6.66
  -1   2  -8   28.21   10.43
   1   2   8   16.21    6.29
  -1  -2  -8   11.41    7.93
   1  -2   9   16.66    6.46
  -1  -2  -9   23.35   10.30
   1   2   9   12.37    6.89
  -1   2  -9   21.08    9.97
  -1  -2 -10   33.18   14.42
  -1   2 -10   25.96   11.45
   1   2  10   31.76   10.56
   1  -3 -11  -13.00    9.42
   1   3 -11   -1.38    1.21
   1  -3 -10  116.84   25.45
   1   3 -10   84.37   21.16
   1   3  -9   -5.92    6.10
  -1   3   9    1.91    2.40
   1  -3  -9   -4.78    7.13
  -1   3   8   27.42    7.75
   1   3  -8   14.26    7.96
   1  -3  -8   26.62    9.66
   1   3  -7    5.09    3.66
   1  -3  -7    1.24    1.82
  -1   3   7    3.43    3.41
  -1   3   6   91.00   12.43
   1   3  -6   82.02   14.43
   1  -3  -6   99.33   16.01
   1   3  -5   -0.88    2.68
  -1  -3   5    1.45    0.97
   1  -3  -5   -1.24    5.97
  -1   3   5    1.91    1.40
  -1   3   4   -0.57    1.86
  -1  -3   4    1.16    0.70
  -1  -3   4   -0.96    4.17
   1  -3  -4    0.86    3.83
   1   3  -3   11.83    2.54
  -1   3   3   13.55    3.67
   1  -3  -3    4.54    3.16
  -1  -3   3    7.46    3.21
   1   3  -2 1861.82   29.85
  -1   3   2 1868.46   43.80
   1  -3  -2 1777.27   47.36
  -1  -3   2 1853.44   52.31
  -1  -3   1  106.81   10.46
   1  -3  -1   98.74    8.65
   1   3  -1  106.92    8.14
  -1   3   1  110.61   10.37
   1   3   0  314.13   15.18
   1  -3   0  304.33    9.88
  -1  -3   0  306.79   17.07
  -1   3   0  312.46   18.80
  -1   3  -1   32.89    6.39
  -1  -3  -1   37.01    6.89
   1   3   1   25.44    5.72
  -1   3  -2 4305.87   79.60
   1   3   2 4320.79   69.78
   1  -3   2 4214.51   63.42
  -1  -3  -2 4338.25   79.46
  -1   3  -2 4526.31   43.93
  -1   3  -3   23.04    4.38
   1   3   3   29.53    5.83
  -1  -3  -3   32.16    7.61
   1  -3   3   25.27    5.33
   1   3   4  983.92   39.43
  -1   3  -4  923.53   34.18
   1  -3   4 1017.84   36.55
  -1  -3  -4  915.72   44.98
  -1   3  -5   10.81    3.51
   1  -3   5   16.73    5.09
   1   3   5   17.03    5.51
  -1  -3  -5   14.81    6.65
   1  -3   6   53.77    9.59
   1   3   6   51.82   10.96
  -1  -3  -6   62.11   13.27
  -1   3  -6   63.53   12.01
   1   3   7   -3.69    4.88
  -1   3  -7    8.95    5.13
  -1  -3  -7   -7.60    5.72
   1  -3   7    6.45    2.95
   1  -3   8  359.95   26.70
  -1  -3  -8  333.14   37.08
  -1   3  -8  317.84   33.13
   1   3   8  329.23   30.16
   1   3   9    3.06    3.65
  -1   3  -9    0.56    3.96
  -1  -3  -9   -3.24    7.69
  -1   3 -10   32.21   13.50
   1   3  10   17.04    7.27
  -1  -3 -10   22.78   11.23
   1  -4 -11    8.83    5.96
   1   4 -11    8.63    8.97
   1   4 -10   -4.72    4.31
   1  -4 -10   -5.30    5.33
   1   4  -9   -1.29    4.79
   1  -4  -9   -2.43    2.97
  -1   4   9    1.09    1.56
   1   4  -8   50.74   14.11
  -1   4   8   43.95   10.04
   1  -4  -8   44.28   13.33
   1  -4  -7    2.78    4.02
  -1   4   7    2.35    2.10
   1   4  -7    8.01    4.73
   1   4  -6   66.54   13.75
  -1   4   6   86.73   13.13
   1  -4  -6  105.62   18.95
  -1   4   5   51.13    9.66
  -1  -4   5   53.67    5.78
   1  -4  -5   45.36   10.02
  -1  -4   5   53.32   16.18
  -1  -4   4  996.11   24.60
  -1   4   4 1011.70   40.28
   1  -4  -4  982.26   47.38
  -1  -4   4 1008.39   59.34
  -1  -4   3  530.77   35.62
  -1   4   3  516.96   27.47
   1  -4  -3  522.78   31.14
   1   4  -3  515.87   19.21
   1  -4  -2  520.97   26.10
   1   4  -2  508.59   19.79
  -1   4   2  491.58   25.66
  -1  -4   2  497.38   27.61
  -1  -4   1  967.28   33.27
   1  -4  -1  987.99   28.98
  -1   4   1 1021.49   35.43
   1   4  -1 1023.17   29.89
  -1  -4   0  114.52   11.95
   1  -4   0  119.13    7.58
   1   4   0  146.17   12.25
  -1   4   0  131.87   12.26
  -1   4  -1   87.84   11.11
  -1  -4  -1  116.00   12.61
   1   4   1   95.35   10.53
  -1  -4  -2 2142.63   58.97
   1   4   2 2155.82   54.00
  -1   4  -2 2199.18   58.89
  -1   4  -2 2166.83   25.48
  -1   4  -3  256.39   13.74
  -1  -4  -3  264.56   22.91
   1   4   3  255.76   19.84
   1  -4   3  249.32   17.23
  -1  -4  -4   53.86   13.62
   1  -4   4   39.98    7.74
   1   4   4   29.39    7.21
  -1   4  -4   39.90    6.92
   1   4   5   52.91   10.50
  -1   4  -5   41.35    8.29
   1  -4   5   62.25    9.82
  -1  -4  -5   45.09   11.27
  -1   4  -6  271.16   23.72
  -1  -4  -6  295.36   30.69
   1   4   6  271.46   25.15
   1  -4   6  264.86   22.14
  -1   4  -7    7.03    4.41
  -1  -4  -7   -1.32    5.91
   1   4   7    0.60    3.16
   1  -4   7    0.18    1.82
   1   4   8   -1.87    4.02
  -1   4  -8    3.49    3.55
   1  -4   8   -4.21    3.56
  -1  -4  -8   -1.07    0.91
  -1   4  -9    4.93    4.17
   1   4   9    5.57    3.85
  -1  -4  -9    5.70    4.56
  -1  -4 -10   81.34   22.13
   1   4  10  107.97   19.74
  -1   4 -10  114.87   23.26
   1  -5 -10   11.48    8.29
   1   5 -10    0.12    3.58
  -1   5   9   58.38   13.03
   1   5  -9   74.37   18.62
   1  -5  -9   62.58   20.11
  -1   5   8   10.50    5.72
   1  -5  -8   18.49    8.42
   1   5  -8    9.59    5.34
   1  -5  -7    4.66    5.30
   1   5  -7    6.64    4.22
  -1   5   7    1.98    1.17
   1   5  -6   -2.23    3.62
  -1   5   6    2.13    1.04
   1  -5  -6   -0.89    5.70
  -1  -5   5  168.97   11.77
   1  -5  -5  185.17   22.53
  -1   5   5  151.53   17.62
  -1  -5   5  137.57   25.82
   1   5  -4   18.89    4.30
  -1  -5   4   17.71    8.91
  -1   5   4   29.48    7.26
  -1   5   3  401.29   26.39
  -1  -5   3  403.14   30.99
   1  -5  -3  384.80   26.41
   1   5  -3  375.16   19.32
   1  -5  -2    1.32    2.83
   1   5  -2    1.30    1.42
  -1  -5   2    1.61    1.42
  -1   5   2   -0.11    0.98
  -1   5   1  136.73   14.55
   1  -5  -1  152.53   12.43
  -1  -5   1  138.28   13.77
   1   5  -1  136.29   12.56
   1   5   0   77.24    9.95
  -1  -5   0   80.50   10.16
   1  -5   0   66.00    6.72
  -1   5   0   71.69   10.23
   1   5   1  170.75   16.01
  -1  -5  -1  173.01   16.64
  -1  -5  -2   57.04    9.80
   1   5   2   81.36   11.20
  -1   5  -2   59.49    9.97
  -1  -5  -3 1253.99   52.19
   1  -5   3 1156.31   39.26
  -1   5  -3 1198.39   49.36
   1   5   3 1226.28   46.82
  -1   5  -3 1213.33   27.71
  -1  -5  -4   79.35   14.21
   1  -5   4   76.63   10.82
   1   5   4   82.89   12.89
  -1   5  -4   82.86    9.42
   1  -5   5   11.38    4.23
  -1  -5  -5   14.02    6.08
  -1   5  -5   12.30    3.63
   1  -5   6   13.91    4.99
  -1  -5  -6   14.41    5.40
  -1   5  -6   15.51    5.53
   1   5   6    1.01    1.91
   1  -5   7  133.21   16.46
   1   5   7  132.70   19.93
  -1   5  -7  142.92   19.26
  -1  -5  -7  126.11   21.66
  -1   5  -8  111.43   18.69
  -1  -5  -8  127.46   24.09
   1  -5   8  103.15   14.78
   1   5   8   96.24   17.54
  -1  -5  -9   -3.33    0.89
  -1   5  -9   -2.13    0.63
   1   5  10   12.81    7.24
  -1  -5 -10    2.98    2.91
   1   6 -10   -4.67    5.91
   1  -6 -10    0.97    7.55
   1  -6  -9   82.12   22.86
  -1   6   9   88.16   16.71
   1   6  -9   83.26   18.41
   1  -6  -8   13.35    5.26
   1   6  -8    6.05    3.04
  -1   6   8    4.97    3.41
  -1   6   7  175.35   22.41
   1  -6  -7  235.33   32.45
   1   6  -7  181.49   23.06
  -1   6   6    3.61    0.87
   1   6  -6    5.44    2.81
  -1  -6   5  134.20   11.44
  -1  -6   5  166.30   28.18
  -1   6   5  162.28   19.71
   1  -6  -5  150.91   21.32
  -1   6   4   92.66   14.01
   1   6  -4   91.91   10.70
   1  -6  -4  102.22   16.31
  -1  -6   4  110.95   20.03
   1  -6  -3 1684.94   58.10
  -1   6   3 1669.95   58.72
   1   6  -3 1694.31   47.44
  -1  -6   3 1725.62   65.71
   1  -6  -2  399.09   25.10
   1   6  -2  410.06   24.46
  -1   6   2  437.42   29.12
  -1  -6   2  409.83   27.95
  -1   6   1  217.81   19.80
  -1  -6   1  178.89   16.53
   1   6  -1  179.24   16.69
   1  -6  -1  184.45   14.87
  -1  -6   0  574.75   29.81
  -1   6   0  598.59   32.85
   1  -6   0  568.08   21.40
   1   6   0  554.96   29.50
  -1  -6  -1 1106.81   44.82
   1  -6   1 1116.46   23.18
   1   6   1 1096.94   43.11
  -1   6  -1 1169.72   45.60
  -1   6  -2  244.33   21.34
  -1  -6  -2  225.18   21.74
   1   6   2  256.01   21.99
  -1   6  -3   40.01    4.54
  -1   6  -3   44.94   10.60
  -1  -6  -3   43.68   10.65
   1   6   3   43.31    9.90
  -1  -6  -4   -0.59    3.21
  -1   6  -4   -0.30    1.23
   1   6   4    5.02    4.04
   1  -6   4   -1.70    2.40
   1  -6   5   99.67   13.83
   1   6   5   91.73   16.37
  -1   6  -5   99.31   12.11
  -1  -6  -5   84.92   15.07
   1  -6   6   32.93    8.67
  -1   6  -6   35.68    8.80
   1   6   6   24.10    8.26
  -1  -6  -6   30.33   10.29
   1   6   7   15.81    7.08
   1  -6   7   15.21    5.87
  -1  -6  -7   16.06    7.15
  -1   6  -7   13.23    5.55
  -1  -6  -8   -6.84    8.19
  -1   6  -8    0.90    1.92
   1  -6   8    3.13    3.41
   1   6   8   -6.56    5.98
   1   6   9  159.74   24.85
  -1  -6  -9  168.76   30.47
  -1  -6 -10   21.70   11.19
   1   6  10   18.02    9.41
   1  -7 -10   25.42   12.30
   1  -7  -9   33.90   14.60
   1   7  -9   25.62   10.41
  -1   7   9   20.81    8.81
   1   7  -8   35.97   11.73
   1  -7  -8   45.99   14.99
  -1   7   8   46.16   12.89
   1  -7  -7   11.52    9.41
  -1   7   7    3.57    3.70
   1   7  -7    2.96    2.35
   1  -7  -6   19.04    9.78
   1   7  -6    6.07    1.62
  -1   7   6   11.95    5.71
  -1  -7   5  420.59   22.12
  -1  -7   5  435.27   47.60
   1   7  -5  349.60   23.85
  -1   7   5  424.94   34.49
   1   7  -4   35.62    7.77
   1  -7  -4   39.14   10.14
  -1  -7   4   27.94   10.77
  -1   7   4   36.10    9.87
  -1  -7   3   10.11    6.24
   1   7  -3    8.48    3.57
   1  -7  -3    8.80    3.59
  -1   7   3   12.76    6.87
   1   7  -2    2.30    2.40
  -1  -7   2   -1.54    2.52
   1  -7  -2    4.55    2.96
  -1   7   2    1.67    2.01
   1   7  -1  128.39   16.03
  -1   7   1  148.98   17.84
  -1  -7   1  142.44   15.92
   1  -7  -1  136.87   13.94
   1   7   0  203.09   19.49
   1  -7   0  212.36   14.35
  -1   7   0  200.35   20.69
  -1  -7   0  195.26   18.75
   1   7   1  411.65   28.72
  -1  -7  -1  401.95   28.80
  -1   7  -1  428.21   30.51
   1  -7   1  438.58   17.34
  -1  -7  -2  501.16   34.45
   1   7   2  477.45   31.78
  -1   7  -2  418.82   31.26
  -1  -7  -3   58.30   12.38
  -1   7  -3   49.92   10.03
   1   7   3   61.10   12.24
  -1  -7  -4    1.01    1.35
   1  -7   4   -2.75    2.83
  -1   7  -4    2.50    4.33
   1   7   4    2.11    2.22
   1   7   5    4.34    1.21
   1  -7   5    3.70    2.45
  -1  -7  -5    4.07    3.66
  -1  -7  -6   34.06   11.72
   1  -7   6   25.03    6.83
   1   7   6   21.47    8.67
   1   7   7   32.74   10.51
   1  -7   7   32.29    7.96
  -1  -7  -7   36.51   12.36
  -1  -7  -8   10.39    9.76
   1   7   8   -0.77    2.73
   1   7   9   18.95    9.05
  -1  -7  -9   20.27   10.79
   1  -8  -9   10.51    4.76
  -1   8   9   10.64    6.04
   1   8  -8   34.64   11.22
   1  -8  -8   53.02   15.47
  -1   8   8   55.67   14.26
  -1   8   7   92.20   18.15
   1   8  -7   94.70   15.82
   1  -8  -7  118.04   23.42
  -1   8   6    3.76    4.41
   1  -8  -6    1.06    5.76
   1   8  -5   35.63    8.71
  -1   8   5   42.60   12.07
   1  -8  -5   45.86   12.31
  -1  -8   5   33.17   14.88
   1   8  -4  610.72   36.34
  -1  -8   4  630.15   51.40
  -1   8   4  599.68   42.02
   1  -8  -4  619.88   40.74
   1  -8  -3    4.03    2.03
  -1   8   3    7.10    4.79
   1   8  -3   17.07    6.27
  -1  -8   3   13.32    6.91
   1  -8  -2   14.40    5.26
  -1   8   2   21.39    7.48
   1   8  -2   23.70    7.33
  -1  -8   2   20.65    7.71
   1   8  -1   53.98   10.82
  -1   8   1   64.04   12.83
  -1  -8   1   48.81    9.76
   1  -8  -1   59.73   10.24
  -1  -8   0  377.15   27.98
   1   8   0  380.12   28.61
  -1   8   0  389.75   30.96
   1  -8   0  364.99   20.28
  -1  -8  -1  242.37   23.57
   1   8   1  212.23   22.23
   1  -8   1  230.03   14.40
  -1   8  -1  234.39   23.70
   1   8   2  215.29   23.08
  -1  -8  -2  233.23   24.73
  -1   8  -2  220.58   23.17
  -1   8  -3   32.81    9.72
  -1  -8  -3   36.79   10.06
   1   8   3   40.14    9.97
  -1  -8  -4  281.68   30.23
  -1   8  -4  196.00   23.41
   1   8   4  219.29   24.96
  -1  -8  -5    9.52    5.58
   1   8   5    6.82    3.83
   1  -8   5    4.64    2.31
  -1  -8  -6   43.29   13.71
   1  -8   6   33.25    8.46
   1   8   6   34.31   10.63
  -1  -8  -7   -4.49    4.33
   1   8   7    8.88    6.02
   1  -8   7   12.50    5.20
   1   8   8  100.99   20.60
  -1  -8  -8  115.51   24.90
   1   8   9    9.66    6.79
  -1  -8  -9    4.57    7.43
   1  -9  -9    7.27    4.71
  -1   9   9    1.95    3.62
   1  -9  -8   -6.04    7.80
  -1   9   8    3.93    6.15
   1  -9  -7  108.13   22.42
  -1   9   7   99.86   20.62
  -1   9   6  109.86   20.35
   1  -9  -6  102.57   20.42
  -1  -9   6  109.14   24.57
   1  -9  -5  110.48   19.46
  -1   9   5  138.76   21.45
   1   9  -5  132.48   18.89
  -1  -9   5   89.64   22.63
   1  -9  -4   19.83    7.19
  -1   9   4   18.16    7.85
   1   9  -4   22.48    7.48
  -1  -9   4   11.22    7.46
   1   9  -3   -2.10    4.28
   1  -9  -3   -0.68    1.96
  -1   9   3    1.35    2.48
  -1  -9   3   -2.22    3.09
   1  -9  -2  205.59   19.95
  -1   9   2  151.99   22.45
   1   9  -2  157.42   21.53
  -1  -9   2  180.35   24.31
   1   9  -1  138.80   19.22
  -1  -9   1  160.86   18.98
  -1   9   1  154.65   20.96
   1  -9  -1  151.59   16.74
   1   9   0  164.10   20.91
  -1   9   0  130.01   22.56
   1  -9   0  135.97   12.93
  -1  -9   0  163.67   19.74
  -1  -9  -1  221.27   23.85
   1   9   1  195.98   23.13
  -1   9  -1  223.87   25.18
  -1  -9  -2  180.66   23.26
  -1   9  -2  173.63   22.07
   1   9   2  167.08   21.58
  -1  -9  -3    3.36    6.42
   1   9   3    1.87    3.24
  -1   9  -3    6.85    2.73
   1   9   4   59.16   13.04
  -1   9  -4   62.38   15.28
  -1  -9  -4   48.52   13.27
  -1  -9  -5    4.77    3.08
   1   9   5   18.23    7.44
   1  -9   5   10.74    4.56
   1  -9   6   27.98    7.98
  -1  -9  -6   26.62   11.12
   1   9   6   18.41    7.97
  -1  -9  -7    9.08    6.47
   1   9   7    1.68    4.05
   1  -9   7   11.56    5.23
  -1  -9  -8  110.64   25.52
   1   9   8   93.50   20.66
  -1  -9  -9   43.84   17.48
   1   9   9   10.63    8.44
  -1  10   8    6.80    4.37
   1 -10  -8    7.31    4.76
  -1  10   7   -0.06    1.90
   1 -10  -7   -0.07    1.28
   1 -10  -6   54.70   14.00
  -1  10   6   65.32   16.70
   1  10  -5   26.85    9.92
  -1  10   5   28.19   10.99
   1 -10  -5   33.84   10.26
  -1 -10   5   15.47   11.18
  -1 -10   4   11.67    7.38
   1 -10  -4    2.52    3.77
   1  10  -4    4.81    3.43
  -1  10   4    4.48    3.91
   1  10  -3   19.85    8.23
   1 -10  -3   26.47    8.46
  -1  10   3   21.93    9.55
  -1 -10   3   15.47    8.70
   1  10  -2  145.79   20.56
  -1  10   2  144.27   21.53
   1 -10  -2  158.83   19.05
  -1 -10   2  125.30   20.71
  -1 -10   1   30.89    8.39
   1 -10  -1   31.12    7.66
  -1  10   1   30.13   10.39
   1  10  -1   38.14   10.44
   1 -10   0  185.61   15.23
  -1 -10   0  203.66   22.59
   1  10   0  190.85   24.49
  -1  10   0  174.81   25.35
  -1  10  -1   48.58   11.79
   1  10   1   44.00   11.76
  -1 -10  -1   46.35   11.44
  -1 -10  -2  119.54   19.81
   1  10   2   96.94   17.93
  -1  10  -2  101.24   18.67
   1  10   3   64.75   15.23
  -1  10  -3   72.46   15.03
  -1 -10  -3   76.85   16.37
  -1  10  -4   52.21   13.43
  -1 -10  -4   64.71   15.79
   1  10   4   42.31   13.29
   1  10   5   22.73    9.43
  -1 -10  -5   21.43    9.15
  -1  10  -5   16.41    8.72
   1 -10   5   18.28    7.02
  -1 -10  -6   30.12   12.67
   1 -10   6   31.69    9.14
   1  10   6   31.18   10.79
  -1 -10  -7   38.34   14.57
   1  10   7   36.75   13.34
   1  10   8    1.03    0.57
  -1 -10  -8    0.43    3.42
  -1  11   8   23.81   11.50
   1 -11  -8   26.51   12.54
   1 -11  -7   43.33   14.46
  -1  11   7   30.20   12.39
  -1  11   6   63.63   18.03
   1 -11  -6   64.74   16.74
   1  11  -5  113.49   22.57
  -1  11   5   87.51   21.38
   1 -11  -5  112.10   19.51
   1  11  -4    7.32    3.85
   1 -11  -4   -2.16    2.02
  -1  11   4    2.79    2.97
  -1  11   3   58.86   16.16
   1  11  -3   60.11   16.54
  -1 -11   3   56.27   16.43
   1 -11  -3   68.36   13.09
   1  11  -2   63.98   15.23
  -1  11   2   70.79   16.98
   1 -11  -2   83.43   13.82
  -1 -11   2   56.25   14.47
  -1 -11   1  137.76   19.41
  -1  11   1  126.93   22.63
   1  11  -1  126.93   22.52
   1 -11  -1  142.67   16.12
  -1 -11   0   55.34   12.00
  -1  11   0   40.63   14.90
   1  11   0   51.19   14.37
  -1 -11  -1   -6.70    6.81
   1  11   1   -4.06    5.86
  -1  11  -1    1.46    2.80
  -1 -11  -2   31.66   11.44
   1  11   2   35.21   10.97
  -1  11  -2   25.56    9.47
  -1  11  -3   83.34   19.74
   1  11   3   86.83   18.81
  -1 -11  -3  103.98   20.26
  -1  11  -4   28.26   10.49
  -1 -11  -4   21.71    9.11
   1  11   4   20.19   10.15
   1 -11   5   16.04    7.04
  -1 -11  -5   24.43   11.58
  -1  11  -5   18.66   10.12
   1  11   5    9.40    6.30
  -1 -11  -6   16.06   10.18
   1 -11   6   19.52    7.68
   1  11   6    6.34    3.37
  -1 -11  -7   64.08   19.28
   1  11   7   62.16   16.79
  -1  12   7   17.33    9.62
   1 -12  -7   10.73    4.57
   1 -12  -6    6.21    4.94
  -1  12   6    1.38    2.56
   1 -12  -5    4.90    3.04
  -1  12   5    5.73    5.48
   1  12  -4   10.01    7.61
  -1  12   4    5.31    6.40
   1 -12  -4    3.91    3.21
   1  12  -3    1.70    3.63
  -1  12   3    1.31    2.63
   1  12  -2   -1.46    3.71
   1 -12  -2   -1.63    2.59
  -1 -12   2   -2.88    4.07
  -1  12   2    6.44    5.58
  -1  12   1   47.47   15.21
  -1 -12   1   28.65    9.19
   1  12  -1   32.25   11.99
  -1 -12   0   13.59    6.08
  -1  12   0   11.26    6.94
   1  12   0   16.87   10.14
  -1 -12  -1  107.71   18.53
   1  12   1   52.57   16.84
  -1  12  -1   70.15   19.12
  -1  12  -2   43.92   14.50
   1  12   2   29.72   10.61
  -1 -12  -2   24.62    9.27
  -1 -12  -3    4.31    5.98
   1  12   3   -2.08    3.46
  -1  12  -3   -6.69    6.57
   1  12   4   -3.09    4.02
  -1 -12  -4    0.18    5.28
  -1  12  -4    6.17    7.17
   1  12   5   12.40    6.89
   1 -12   5    2.79    3.33
  -1  12  -5   14.83    8.10
  -1 -12  -5   11.32    7.51
   1  12   6   33.39   13.11
  -1 -12  -6   48.25   16.69
   1  12   7   -1.06    2.25
  -1 -12  -7    2.13    6.75
   1 -13  -6   26.62   11.72
  -1  13   6   37.12   15.79
   1 -13  -5   53.74   14.35
  -1  13   5   41.73   15.48
   1  13  -4    4.13    6.50
   1 -13  -4    9.70    5.97
  -1  13   4   -5.97    8.07
  -1  13   3   -1.32    1.53
   1 -13  -3    0.87    2.71
   1  13  -3    0.31    2.54
   1  13  -2   21.86   12.27
  -1  13   2   20.68   12.62
   1  13  -1   18.81    9.51
  -1  13   1   17.93   10.41
  -1 -13   0   21.25    7.63
   1  13   0   23.99   10.06
  -1  13   0   29.55   13.02
  -1  13  -1   -2.46    2.47
   1  13   1    0.18    1.14
   1  13   2   11.97    7.01
  -1  13  -2    6.62    5.36
  -1 -13  -2   10.14    5.74
  -1  13  -3   -0.24    4.18
  -1 -13  -3   -1.17    4.57
   1  13   3    4.93    6.97
   1  13   4    0.81    2.38
  -1 -13  -4    2.34    3.23
  -1  13  -4    4.00    3.78
   1 -13   5   -1.47    1.76
  -1 -13  -5    8.58    6.85
  -1  13  -5    1.85    4.42
   1  13   5   10.71    7.91
   1  13   6   16.73   10.61
  -1 -13  -6    9.91    8.86
  -1  14   5   23.65   11.39
  -1  14   4   13.91   10.55
   1  14  -3   26.30   12.99
  -1  14   3   23.96   12.84
  -1  14   2   23.64   12.93
   1  14  -2   20.74   10.11
   1  14  -1   -0.54    4.41
  -1  14   1    2.36    4.10
  -1  14   0   39.69   16.62
   1  14   0   36.27   15.55
  -1 -14  -1   28.06    9.72
   1  14   1   17.02    9.46
  -1  14  -1   22.05   11.12
   1  14   2   13.40    8.84
  -1  14  -2    7.17    5.07
  -1 -14  -2    9.82    6.89
  -1  14  -3    3.79    5.86
   1  14   3    2.31    5.04
  -1 -14  -3   -3.06    5.80
  -1 -14  -4   11.32    5.74
   1  14   4    9.93    7.78
  -1  14  -4   18.57   12.15
  -1  15   3    8.22    9.78
   1  15  -3    7.45    6.57
  -1  15   2    4.25    4.11
   1  15  -2   -3.70    1.32
  -1  15   1   -2.22    6.98
   1  15  -1    6.84    8.67
   1  15   0    0.61    2.82
  -1  15   0   -5.35    8.19
  -1  15  -1    0.79    3.10
   1  15   1    0.08    1.69
   1  15   2    2.83    0.92
  -1  15  -2   -1.45    3.77
   1  15   3   -2.63    4.38
  -1  15  -3    6.20    6.47
   2   0 -11   -6.54    7.14
   2   0 -10   16.32    6.75
   2   0  -9    1.71    5.09
   2   0  -8  432.81   40.33
   2   0  -7  -12.53    6.24
   2   0  -6  376.26   32.02
  -2   0   6  336.58   14.82
  -2   0   5   -0.33    0.74
   2   0  -5   -2.55    3.82
  -2   0   4   78.52   23.35
  -2   0   4  122.98    8.57
  -2   0   3    1.32    1.02
  -2   0   3   -1.65    2.87
   2   0  -2  233.80   10.59
  -2   0   2  243.90   22.91
   2   0  -1    0.01    0.75
  -2   0   1   -1.92    1.92
  -2   0   0 1796.19   42.26
   2   0   0 1843.75   38.13
   2   0   1   -2.31    2.08
  -2   0  -1   -1.81    1.97
  -2   0  -2  313.02   20.21
   2   0   2  318.63   19.51
  -2   0  -3    2.89    3.43
   2   0   3    0.69    0.97
  -2   0  -4  358.58   25.58
   2   0   4  375.15   24.83
  -2   0  -5   -1.19    1.45
   2   0   5    0.86    1.59
  -2   0  -6  654.03   41.74
   2   0   6  658.13   37.71
  -2   0  -7   -3.38    6.02
   2   0   7    1.55    2.45
  -2   0  -8    0.32    1.25
   2   0   8    1.86    3.26
  -2   0  -9    0.56    2.06
   2   0   9   -1.62    0.94
   2   0  10  131.80   20.93
  -2   0 -10  109.97   24.86
   2  -1 -11   27.97   13.84
   2   1 -11   24.01   13.40
   2   1 -10   -6.44    7.58
   2  -1 -10   -6.81    9.35
   2   1  -9    2.35    5.84
   2  -1  -9   -0.13    2.98
   2   1  -8   13.89    9.19
   2  -1  -8    5.86    7.57
   2  -1  -7   -6.20    6.74
   2   1  -7   -1.46    3.46
  -2   1   7    1.32    0.74
  -2   1   6    8.57    2.76
   2   1  -6   -1.76    2.55
   2  -1  -6    8.14    6.42
  -2   1   5   10.24    2.77
  -2  -1   5   11.73   10.35
   2  -1  -5    8.35    1.89
  -2   1   4   15.35    3.48
  -2  -1   4   15.75    7.19
   2  -1  -4   11.96    3.52
  -2   1   3    4.59    2.95
  -2  -1   3    1.95    4.50
  -2   1   3    8.88    2.76
  -2   1   2  648.56   41.09
   2   1  -2  668.70   15.26
  -2   1   2  714.04   26.12
   2  -1  -1  863.59   24.45
  -2   1   1  897.55   37.15
  -2   1   1  883.17   29.37
  -2  -1   1  953.04   35.94
   2   1  -1  877.60   21.68
  -2  -1   0   19.69    4.60
   2   1   0   14.04    3.37
  -2   1   0   28.34    5.32
   2  -1   0   14.31    3.56
  -2  -1  -1  657.34   31.36
   2  -1   1  743.34   27.68
  -2   1  -1  694.13   25.14
   2   1   1  715.92   26.46
  -2  -1  -2   18.67    5.94
   2   1   2   14.53    4.29
  -2   1  -2   17.87    4.98
   2  -1   2   12.56    3.81
   2  -1   3   40.64    7.80
  -2   1  -3   36.95    7.03
  -2  -1  -3   30.39    7.07
   2   1   3   38.37    7.58
   2  -1   4  261.15   20.31
  -2  -1  -4  242.90   22.37
  -2   1  -4  240.88   19.72
   2   1   4  252.68   20.72
  -2  -1  -5    1.57    3.05
  -2   1  -5    1.98    2.25
   2   1   5    4.61    3.46
   2  -1   5    5.37    2.27
  -2   1  -6   56.14   11.88
  -2  -1  -6   70.13   14.30
   2   1   6   46.29   10.42
   2  -1   6   48.34   10.44
  -2   1  -7   -7.72    5.42
   2   1   7    0.59    2.84
   2  -1   7   -0.63    2.15
  -2  -1  -7   -3.33    4.96
   2  -1   8   52.62   11.35
  -2  -1  -8   36.51   12.76
  -2   1  -8   49.21   13.77
   2   1   8   50.33   12.36
  -2   1  -9    0.18    2.91
   2  -1   9    3.67    4.06
   2   1   9    5.45    3.61
  -2  -1  -9   -6.15    2.60
   2   1  10    0.64    2.67
  -2  -1 -10    4.36    8.03
  -2   1 -10   -0.07    4.17
   2  -2 -11   16.98    9.65
   2   2 -11   11.95    7.86
   2  -2 -10   19.53    9.36
   2   2 -10   12.80   12.40
   2  -2  -9   59.41   15.09
   2   2  -9   58.15   16.18
  -2   2   8    2.76    2.12
   2   2  -8    4.20    2.52
   2   2  -7  590.00   45.26
   2  -2  -7  677.21   48.95
  -2   2   7  610.29   29.47
   2  -2  -6   -1.06    3.58
   2   2  -6   -0.11    2.14
  -2   2   6   -0.95    1.82
  -2  -2   5  299.87   41.52
  -2   2   5  339.68   20.09
   2  -2  -5  335.79   30.26
  -2   2   4   98.83   10.40
  -2  -2   4   69.95   17.98
   2  -2  -4   90.39   14.05
   2  -2  -3  485.58   29.89
  -2  -2   3  575.38   40.06
  -2   2   3  576.87   25.98
   2   2  -2    1.49    0.82
  -2   2   2    0.48    0.71
  -2  -2   2    1.11    1.20
  -2   2   1    5.05    2.96
  -2  -2   1    1.82    0.94
  -2   2   1    7.32    3.79
   2   2  -1    3.72    1.51
   2  -2   0   -0.65    2.19
  -2  -2   0    3.71    2.26
   2   2   0    2.78    1.79
  -2   2   0   -1.05    1.30
  -2   2   0    1.40    1.76
  -2  -2  -1  454.63   25.26
  -2   2  -1  400.19   17.33
   2   2   1  411.25   20.78
   2  -2   1  426.08   21.36
  -2  -2  -2    5.59    4.36
  -2   2  -2    2.34    1.93
   2   2   2    3.34    2.99
   2  -2   2    0.23    1.52
   2  -2   3  379.19   23.83
  -2  -2  -3  372.44   26.54
  -2   2  -3  390.25   20.67
   2   2   3  392.14   24.31
   2  -2   4    2.48    1.27
  -2   2  -4   -1.78    1.84
  -2  -2  -4   -1.87    4.38
   2   2   4   -0.74    2.52
   2   2   5  475.54   31.09
   2  -2   5  485.77   30.07
  -2  -2  -5  432.75   33.56
  -2   2  -5  445.60   28.67
  -2   2  -6   11.06    4.58
   2   2   6    8.37    4.76
  -2  -2  -6   12.69    6.74
   2  -2   6   15.96    6.12
  -2  -2  -7   69.63   15.13
   2   2   7   88.28   15.27
  -2   2  -7   77.18   14.89
   2  -2   7   75.81   13.09
   2   2   8    7.40    3.94
  -2  -2  -8   -0.52    3.62
   2  -2   8    0.48    1.97
  -2   2  -8    5.75    4.54
   2   2   9   11.98    6.97
  -2  -2  -9    6.27    6.11
  -2   2  -9   -1.05    4.88
   2  -2   9    7.30    4.58
  -2   2 -10   13.10    8.18
  -2  -2 -10   26.01   13.53
   2   2  10    7.06    5.04
   2  -3 -11   -2.91    6.65
   2   3 -11   -1.46    2.42
   2   3 -10   27.69   11.59
   2  -3 -10   13.04    8.32
   2  -3  -9   52.67   15.57
   2   3  -9   53.09   15.25
   2  -3  -8    5.60    2.08
   2   3  -8    1.99    3.09
  -2   3   8    3.62    2.51
   2   3  -7  132.51   20.35
   2  -3  -7  134.06   22.85
  -2   3   7  153.62   16.32
   2  -3  -6   17.70    6.25
  -2   3   6   20.18    5.46
  -2  -3   6   11.46    7.33
   2  -3  -5  346.01   31.50
  -2   3   5  388.44   24.18
  -2  -3   5  375.21   43.94
  -2   3   4   58.42    8.89
   2  -3  -4   47.06   10.34
  -2  -3   4   46.50   13.67
   2   3  -3   25.52    2.97
  -2   3   3   20.34    5.38
   2  -3  -3    9.78    5.58
  -2  -3   3   17.20    6.73
  -2   3   2  185.44   15.34
  -2  -3   2  150.67   17.10
   2   3  -2  162.03    9.42
   2  -3  -2  175.61   14.28
  -2  -3   1 3596.07   74.18
   2   3  -1 3493.64   51.85
  -2   3   1 3531.71   73.79
  -2   3   1 3497.93   89.43
  -2   3   0  209.86   18.01
  -2   3   0  163.49   14.24
  -2  -3   0  196.05   17.00
   2   3   0  183.29   13.20
   2   3   1  381.02   20.67
   2  -3   1  358.01   20.74
  -2   3  -1  427.12   27.37
  -2   3  -1  328.39   14.79
  -2  -3  -1  382.56   25.05
   2  -3   2  202.34   16.45
  -2  -3  -2  222.98   20.54
   2   3   2  200.66   16.71
  -2   3  -2  182.44   11.90
   2   3   3  219.53   18.84
  -2   3  -3  235.18   14.70
  -2  -3  -3  224.45   21.95
   2  -3   3  233.98   19.02
  -2  -3  -4   18.45    7.34
  -2   3  -4   22.29    5.48
   2   3   4   21.44    6.84
   2  -3   4   20.58    5.78
  -2  -3  -5  131.86   18.59
   2   3   5  133.74   17.75
   2  -3   5  124.20   15.96
  -2   3  -5  128.39   14.55
   2  -3   6    0.39    1.68
  -2  -3  -6   -3.32    3.20
  -2   3  -6   -0.69    2.27
   2   3   7   52.89   12.30
  -2  -3  -7   51.98   14.25
  -2   3  -7   52.06   11.72
   2  -3   7   48.80   10.60
  -2  -3  -8    3.27    4.41
  -2   3  -8   12.48    6.73
   2  -3   8    8.68    5.77
   2   3   8    6.23    4.31
   2   3   9   33.03   10.89
  -2  -3  -9   22.41   11.01
  -2   3  -9   32.48   11.44
   2  -3   9   31.69    9.32
   2   3  10    9.04    4.57
  -2  -3 -10   20.64   11.92
   2  -4 -11   12.79    9.06
   2   4 -11   -0.36    4.15
   2   4 -10   12.73    8.34
   2  -4 -10   18.52    9.86
   2  -4  -9   -4.46    6.98
   2   4  -9    2.07    5.21
  -2   4   9    0.97    1.33
   2  -4  -8   97.43   20.13
   2   4  -8   77.96   16.25
  -2   4   8   84.04   13.57
   2  -4  -7   -0.85    5.10
  -2   4   7    2.70    1.55
   2   4  -7   -2.16    4.53
  -2  -4   6  284.32   42.40
  -2   4   6  340.85   25.85
   2  -4  -6  320.17   32.92
  -2  -4   5    0.64    3.64
   2  -4  -5    1.60    4.70
  -2   4   5   -0.15    1.10
  -2  -4   4  268.28   31.53
  -2   4   4  213.63   19.52
   2  -4  -4  277.78   24.52
  -2   4   3  313.06   22.47
  -2  -4   3  292.28   29.13
   2   4  -3  287.72   13.81
   2  -4  -3  315.81   23.73
  -2   4   2   59.32    9.82
   2  -4  -2   41.84    8.49
   2   4  -2   68.62    7.40
  -2  -4   2   42.05   10.65
   2   4  -1    6.22    2.52
   2  -4  -1    4.67    2.63
  -2   4   1    6.82    3.62
  -2  -4   1    6.52    2.85
  -2   4   0   24.42    6.45
  -2  -4   0   22.62    7.12
   2  -4   0   26.53    3.73
   2   4   0   20.71    5.22
   2   4   1   51.23    8.45
  -2   4  -1   29.78    8.97
  -2  -4  -1   56.65   10.27
   2  -4   2  112.87   12.71
  -2  -4  -2  133.57   16.96
  -2   4  -2  126.27    7.06
   2   4   2  126.46   14.07
   2   4   3  361.63   25.66
  -2   4  -3  369.77   17.21
  -2  -4  -3  375.44   29.90
   2  -4   3  350.02   23.94
  -2   4  -4   15.36    4.19
   2  -4   4   11.08    4.41
   2   4   4   12.76    5.38
  -2  -4  -4   16.60    6.99
  -2  -4  -5   20.80    8.27
  -2   4  -5   12.30    4.67
   2   4   5   12.30    5.45
   2  -4   5   17.91    6.52
  -2  -4  -6  106.77   19.19
   2  -4   6  107.99   15.10
  -2   4  -6  114.27   14.97
   2   4   6  105.42   17.03
   2   4   7    1.66    1.03
  -2  -4  -7    3.31    1.61
  -2   4  -7    1.08    1.69
   2  -4   7    0.64    3.61
   2   4   8   -3.79    4.84
  -2  -4  -8   -1.40    6.57
  -2   4  -8    1.38    2.64
   2  -4   8    2.89    3.84
  -2  -4  -9    6.32    7.48
  -2   4  -9   -1.10    4.00
   2   4   9    7.51    6.29
   2  -4   9    3.67    3.55
  -2  -4 -10   38.39   15.91
   2   4  10   24.36    9.67
   2  -5 -10   36.77   13.87
   2   5 -10   11.19    9.94
  -2   5   9   55.01   12.46
   2  -5  -9   86.49   21.92
   2   5  -9   62.41   17.04
   2  -5  -8   -0.71    6.36
  -2   5   8    8.66    4.14
   2   5  -8    7.25    6.93
  -2   5   7    3.57    3.54
   2   5  -7   -2.60    3.21
   2  -5  -7    0.84    4.85
  -2   5   6  214.99   22.37
   2  -5  -6  192.24   25.60
  -2  -5   6  226.17   40.36
  -2   5   5  162.75   18.62
   2  -5  -5  173.97   22.97
  -2  -5   5  169.03   28.83
   2   5  -4  439.07   17.43
   2  -5  -4  461.47   32.77
  -2  -5   4  469.67   41.83
  -2   5   4  394.71   29.19
   2   5  -3  401.10   20.07
   2  -5  -3  437.34   28.63
  -2  -5   3  373.12   32.53
  -2   5   3  426.23   28.12
   2   5  -2  401.07   20.50
   2  -5  -2  414.77   24.75
  -2  -5   2  399.95   29.67
  -2   5   2  398.80   27.19
   2   5  -1    0.12    0.77
   2  -5  -1    1.72    1.45
  -2   5   1   -1.12    2.32
  -2  -5   1    0.28    2.40
   2  -5   0  329.36   12.67
   2   5   0  355.41   21.69
  -2  -5   0  302.66   26.03
  -2   5  -1   25.18    8.91
   2   5   1   36.28    7.45
  -2  -5  -1   35.36    8.56
  -2  -5  -2   42.93   10.49
   2   5   2   38.66    8.36
  -2   5  -2   24.61    9.47
   2   5   3   25.16    6.68
   2  -5   3   21.16    5.72
  -2  -5  -3   28.71    8.61
   2  -5   4  564.70   33.09
  -2  -5  -4  628.65   42.69
  -2   5  -4  584.92   22.89
   2   5   4  620.26   37.68
  -2  -5  -5  137.85   21.25
  -2   5  -5  122.36   12.66
   2  -5   5  129.42   16.11
   2   5   5  131.72   18.26
   2  -5   6   46.22   10.02
  -2  -5  -6   49.72   13.47
  -2   5  -6   47.77    9.60
   2   5   6   31.94    9.44
  -2   5  -7   -1.50    2.28
   2  -5   7    0.38    1.90
  -2  -5  -7    2.80    6.81
   2   5   7   -3.75    4.56
   2   5   8  106.51   19.07
  -2  -5  -8   91.63   20.76
   2  -5   8  114.58   17.20
   2   5   9   29.07   10.77
  -2  -5  -9   34.56   12.06
   2   5  10   -4.99    6.36
  -2  -5 -10    9.30   10.57
   2  -6 -10   37.71   16.56
   2   6 -10   38.92   14.76
  -2   6   9   15.15    7.52
   2   6  -9   15.72    8.15
   2  -6  -9   25.74   11.56
   2  -6  -8    3.03    3.98
  -2   6   8    7.65    4.96
   2   6  -8   -3.45    3.56
   2  -6  -7   15.36    6.31
  -2   6   7    6.82    4.44
   2   6  -7    9.61    5.81
  -2   6   6    3.36    3.33
   2  -6  -6    1.33    1.76
  -2  -6   6   -0.30    5.66
  -2  -6   5  293.64   38.85
  -2   6   5  289.70   27.35
   2  -6  -5  190.67   24.75
   2   6  -4   38.83    6.71
   2  -6  -4   39.21    8.14
  -2   6   4   50.39   10.76
  -2  -6   4   35.25   12.32
  -2  -6   3  142.99   21.22
   2   6  -3  171.76   15.12
   2  -6  -3  174.62   18.44
  -2   6   3  171.23   19.73
   2  -6  -2   60.28    9.22
  -2   6   2   72.24   12.43
   2   6  -2   57.99    9.39
  -2  -6   2   66.35   13.19
  -2   6   1   10.91    4.39
   2  -6  -1    6.04    2.14
   2   6  -1    8.37    3.22
  -2  -6   1    5.48    3.08
  -2   6   0  526.92   34.30
  -2  -6   0  493.49   32.50
   2  -6   0  486.78   16.91
   2   6   0  509.26   28.93
  -2  -6  -1   -0.81    2.98
   2   6   1    0.91    2.07
  -2   6  -1    5.93    3.19
  -2   6  -2  161.68   20.04
  -2  -6  -2  180.59   21.39
   2   6   2  167.49   18.27
   2   6   3    0.55    2.50
   2  -6   3    3.23    1.84
   2   6   4   41.14   10.42
  -2  -6  -4   46.91   10.99
   2  -6   4   35.66    8.10
  -2  -6  -5   17.02   10.29
   2  -6   5    9.77    5.23
   2   6   5   10.87    5.06
   2  -6   6  112.77   16.48
  -2  -6  -6  107.91   21.36
   2   6   6  114.43   18.61
   2   6   7   -2.54    2.46
  -2  -6  -7    9.88    7.50
   2  -6   7    6.07    4.38
   2  -6   8   18.59    6.63
  -2  -6  -8    7.82    5.46
   2   6   8    5.35    3.37
  -2  -6  -9    5.01    6.50
   2   6   9    7.84    5.72
   2   7 -10   20.59   10.50
   2  -7 -10   38.75   18.17
   2  -7  -9   29.77   16.48
  -2   7   9   51.51   14.66
   2   7  -9   29.41   13.28
   2  -7  -8   95.42   22.68
  -2   7   8   63.49   14.95
   2   7  -8   85.23   17.01
   2  -7  -7    0.74    5.07
  -2   7   7    6.34    3.84
  -2  -7   6    4.33    5.74
   2  -7  -6   -0.91    3.62
  -2   7   6    2.31    1.49
  -2  -7   5  238.25   36.66
  -2   7   5  282.88   29.04
   2  -7  -5  273.05   29.82
  -2  -7   4  205.83   30.16
   2   7  -4  223.36   19.22
   2  -7  -4  257.36   25.11
  -2   7   4  210.51   24.73
   2   7  -3  198.58   18.29
  -2  -7   3  182.53   25.30
   2  -7  -3  194.13   19.64
  -2   7   3  204.85   23.05
   2  -7  -2   24.89    6.18
  -2   7   2   28.97    8.18
   2   7  -2   27.39    7.27
  -2  -7   2   27.63    8.90
  -2   7   1  233.53   24.54
  -2  -7   1  259.45   24.73
   2   7  -1  222.30   20.18
   2  -7  -1  244.14   15.91
  -2  -7   0    7.76    4.96
  -2   7   0    5.21    2.49
   2   7   0    4.95    3.31
   2  -7   0    5.56    2.27
  -2  -7  -1   63.92   12.79
   2   7   1   94.71   13.94
  -2   7  -1   78.02   14.28
   2   7   2   12.20    5.53
  -2   7  -2    6.95    4.61
  -2  -7  -2   23.09   13.89
  -2   7  -3  100.71   17.33
   2  -7   3   93.80   14.20
   2   7   3  113.00   16.41
  -2  -7  -3  114.14   18.56
   2  -7   4  213.77   21.72
   2   7   4  255.77   26.13
  -2  -7  -4  295.64   31.99
  -2  -7  -5   30.22   10.81
   2  -7   5   18.09    6.42
   2   7   5   30.01    8.61
  -2  -7  -6    0.79    3.40
   2  -7   6    6.25    4.16
   2   7   6   -2.74    5.17
  -2  -7  -7   45.14   15.34
   2  -7   7   16.83    6.44
   2   7   7   30.06   10.39
   2  -7   8   56.14   12.32
  -2  -7  -8   56.29   18.28
   2   7   8   57.80   15.54
  -2  -7  -9   29.66   12.33
   2   7   9   18.66    8.93
   2  -8  -9    0.49    3.20
  -2   8   9   -0.40    3.83
   2   8  -9    0.99    2.55
   2  -8  -8   24.52   12.79
  -2   8   8   18.51    8.20
   2   8  -8   14.51    7.82
  -2   8   7    8.73    3.18
   2  -8  -7   12.33    6.91
  -2   8   6    7.90    5.15
   2  -8  -6   -0.72    4.01
   2  -8  -5   16.08    9.27
  -2   8   5   10.85    4.52
  -2  -8   5    9.53    7.40
   2   8  -4   55.42   11.29
   2  -8  -4   69.83   13.30
  -2   8   4   42.68   12.03
  -2  -8   4   57.16   17.26
   2   8  -3  391.09   27.99
   2  -8  -3  364.44   27.01
  -2  -8   3  363.18   38.37
  -2   8   3  401.08   34.52
  -2   8   2  168.69   22.04
   2   8  -2  152.37   17.94
  -2  -8   2  135.08   22.56
   2  -8  -2  184.31   16.99
  -2   8   1    6.49    2.27
   2  -8  -1    7.50    2.85
   2   8  -1   12.02    4.64
  -2  -8   1   12.56    6.36
   2   8   0   -1.88    2.95
  -2   8   0   -4.15    6.43
  -2  -8   0   -3.50    3.28
  -2  -8  -1  344.67   30.97
   2   8   1  364.63   29.04
  -2   8  -1  361.93   31.41
  -2   8  -2   12.93    5.62
  -2  -8  -2   11.17    5.54
   2   8   2    6.52    3.77
  -2  -8  -3   86.70   18.42
   2   8   3   77.36   15.10
  -2   8  -3   76.09   16.97
   2  -8   4   -0.33    2.29
   2   8   4    3.11    1.94
   2  -8   5  147.85   19.02
   2   8   5  147.37   22.88
  -2  -8  -5  154.22   25.69
   2   8   6   54.85   14.07
   2  -8   6   55.55   11.87
  -2  -8  -6   48.87   14.86
   2   8   7    3.80    2.98
   2  -8   7   -0.22    1.87
  -2  -8  -7   -2.26    4.41
  -2  -8  -8   29.30   14.07
   2   8   8   21.66    9.54
  -2  -8  -9   42.99   17.33
   2   8   9   37.74   13.25
  -2   9   9   34.57   12.42
   2  -9  -9   84.21   23.73
   2  -9  -8   13.42    8.39
  -2   9   8   11.16    7.16
   2   9  -8   11.89    7.22
   2  -9  -7    6.25    6.93
  -2   9   7    9.60    7.11
  -2  -9   7    5.28    6.98
   2  -9  -6   13.76    7.51
  -2   9   6   17.14    9.45
  -2  -9   6   14.91   12.43
   2  -9  -5   91.77   17.21
  -2   9   5   40.35   13.43
  -2  -9   5   56.59   21.16
  -2   9   4  206.25   27.46
   2  -9  -4  159.64   20.23
  -2  -9   4  199.65   32.82
   2   9  -4  227.61   24.84
  -2  -9   3   38.14   13.79
   2  -9  -3   50.24    9.81
  -2   9   3   30.22    9.59
   2   9  -3   28.96    8.68
  -2   9   2   43.91   14.23
   2  -9  -2   50.31    8.88
   2   9  -2   41.91   11.13
  -2  -9   2   46.86   13.42
  -2  -9   1  166.90   22.22
   2  -9  -1  178.45   15.17
  -2   9   1  203.68   25.25
   2   9  -1  155.42   20.08
  -2  -9   0   44.10   11.99
  -2   9   0   42.09   11.74
   2   9   0   52.27   11.65
  -2  -9  -1    8.86    4.00
   2   9   1   12.72    6.12
  -2   9  -1   11.41    6.30
  -2   9  -2   16.17    8.30
  -2  -9  -2   11.00    4.92
   2   9   2   11.40    5.78
   2   9   3  110.37   18.14
  -2  -9  -3  139.24   23.00
  -2   9  -3   78.43   16.73
   2  -9   4    6.06    3.39
   2   9   4    5.48    4.88
  -2   9  -4    6.06    2.27
   2  -9   5   56.57   11.96
  -2  -9  -5   55.18   16.18
   2   9   5   75.32   17.06
  -2  -9  -6    6.58    5.45
   2  -9   6    5.43    4.26
   2   9   6    6.48    5.27
  -2  -9  -7   26.95   12.02
   2  -9   7   31.47    9.92
   2   9   7   34.30   12.49
  -2  -9  -8    9.76    4.12
   2   9   8    2.79    3.79
   2 -10  -8   15.26   10.36
  -2  10   8    1.24    4.62
   2 -10  -7  107.76   21.86
  -2  10   7   78.02   19.72
  -2 -10   7   73.32   26.57
  -2 -10   6    0.50    7.50
  -2  10   6    8.13    6.53
   2 -10  -6   14.61    7.91
   2 -10  -5   -0.68    1.45
  -2  10   5   -2.96    5.25
  -2 -10   5    6.09    7.47
   2  10  -4   43.98   11.30
   2 -10  -4   45.89   10.83
  -2  10   4   36.32   12.62
  -2 -10   4   31.03   12.77
   2  10  -3  305.98   30.56
  -2 -10   3  286.86   39.05
  -2  10   3  358.73   38.09
   2 -10  -3  335.19   26.54
   2 -10  -2   73.29   11.27
  -2  10   2   93.13   18.55
   2  10  -2   91.26   16.33
  -2 -10   2   82.10   19.23
  -2 -10   1  170.04   23.78
   2  10  -1  138.08   21.41
  -2  10   1  139.89   25.58
   2  10   0   36.00   10.33
  -2 -10   0   37.11   11.05
  -2  10   0   41.80   13.01
  -2 -10  -1    6.96    3.66
   2  10   1    3.88    2.68
  -2  10  -1    9.73    6.10
  -2  10  -2  103.70   19.96
   2  10   2   97.86   18.24
  -2 -10  -2  117.31   20.95
  -2  10  -3   98.28   20.75
  -2 -10  -3  132.66   23.69
   2  10   3  118.85   20.78
  -2 -10  -4    9.36    7.50
   2 -10   4    0.35    2.36
   2  10   4   -0.46    3.03
  -2  10  -4   -2.73    5.81
   2 -10   5   28.41    9.20
  -2 -10  -5   32.88   13.53
   2  10   5   22.60    9.42
   2  10   6   15.06    8.43
   2 -10   6   11.24    6.14
  -2 -10  -6   30.57   13.58
  -2 -10  -7   70.40   20.30
   2  10   7   61.22   17.22
   2 -10   7   58.75   13.33
  -2  11   8   18.49   11.07
   2 -11  -8    6.94    6.31
   2 -11  -7   22.65    9.82
  -2  11   7   21.03   11.70
   2 -11  -6    1.31    1.98
  -2  11   6    2.85    7.53
   2 -11  -5    2.23    2.97
  -2  11   5    1.00    1.83
   2  11  -4   21.87    8.79
   2 -11  -4   17.84    6.99
  -2  11   4   26.26   12.60
  -2 -11   4   11.61    9.28
  -2 -11   3   31.75   13.08
   2 -11  -3   15.33    5.53
  -2  11   3   26.33   10.28
   2  11  -3   20.19    9.14
   2 -11  -2   59.68   10.12
  -2  11   2   64.62   16.52
   2  11  -2   54.48   13.59
  -2 -11   2   50.26   15.41
  -2 -11   1  104.17   18.78
  -2  11   1  110.33   20.91
   2  11  -1   89.81   18.74
   2  11   0   19.63    8.03
  -2 -11   0   22.96    8.74
  -2  11   0   22.70    9.55
  -2 -11  -1   21.12    9.93
   2  11   1   13.23    7.94
  -2  11  -1   14.45    8.04
  -2 -11  -2   26.49    9.54
  -2  11  -2   39.51   13.86
   2  11   2   15.89    9.13
  -2 -11  -3    7.47    6.00
  -2  11  -3    5.09    7.04
   2  11   3    3.25    3.81
   2 -11   4  141.30   23.53
   2  11   4   99.43   20.37
  -2 -11  -4  116.83   23.40
  -2  11  -4  103.18   21.80
  -2 -11  -5   12.45    9.62
   2 -11   5    9.10    5.49
   2  11   5   10.67    5.56
  -2 -11  -6   40.87   15.03
   2 -11   6   23.75    8.93
   2  11   6   21.96   10.39
   2  11   7   -0.57    1.67
  -2 -11  -7   12.72   10.26
   2 -12  -7   -2.68    3.20
  -2  12   7   -3.35    5.34
   2 -12  -6   31.12   10.69
  -2  12   6   28.40   13.59
   2 -12  -5    7.67    4.95
  -2  12   5   -0.81    6.04
   2  12  -4   -1.48    4.86
   2 -12  -4    3.85    3.93
  -2  12   4   -2.62    6.87
  -2 -12   4   -3.99    4.58
   2 -12  -3   -4.39    3.68
  -2  12   3    1.96    1.86
   2  12  -3   -2.38    3.56
  -2 -12   2  114.94   24.75
   2  12  -2   98.54   21.68
  -2  12   1    3.05    5.22
   2  12  -1    1.33    2.65
   2  12   0    0.21    0.61
  -2  12   0    1.04    2.64
  -2 -12  -1    2.21    4.93
  -2  12  -1   -3.02    2.36
   2  12   1   -6.87    5.42
  -2  12  -2   32.34   12.32
   2  12   2   23.61    9.02
  -2 -12  -2   44.53   13.63
   2  12   3    0.86    2.94
  -2 -12  -3   -3.88    7.16
  -2  12  -3   -2.86    4.55
   2  12   4    2.61    1.89
  -2 -12  -4    8.86    7.88
  -2  12  -4   13.20    9.18
  -2 -12  -5    9.69    8.19
   2 -12   5    4.62    3.34
   2  12   5    0.52    4.14
  -2 -12  -6  102.85   24.70
   2  12   6   83.88   20.17
   2 -12   6  100.87   20.15
   2 -13  -6   11.92    8.05
  -2  13   6   -5.56    6.06
  -2  13   5   -0.98    4.35
  -2  13   4    3.75    7.65
  -2  13   3    4.67    2.34
   2  13  -3    0.69    1.39
  -2  13   2   15.41   10.15
   2  13  -2   25.55   10.12
  -2 -13   2    8.88    6.15
  -2  13   1   20.61    9.55
   2  13  -1    9.83    8.55
  -2 -13   1   14.14    8.74
  -2 -13   0   24.48    9.36
   2  13   0   27.44   11.52
  -2  13   0   33.11   13.32
  -2 -13  -1   13.60    7.77
   2  13   1    8.10    7.71
  -2  13  -1    1.44    6.98
  -2  13  -2   -0.94    1.95
  -2 -13  -2   -4.72    1.18
  -2 -13  -3   16.52    8.24
   2  13   3   15.27    6.84
  -2  13  -3   36.53   13.98
  -2  13  -4   31.33   14.34
  -2 -13  -4   39.31   14.16
   2  13   4   29.60   12.64
   2 -13   5    4.54    5.26
   2  13   5    5.69    3.96
  -2 -13  -5    2.90    5.55
  -2  14   4   -3.50    3.75
   2  14  -3   13.97    8.71
  -2  14   3   30.73   12.86
  -2  14   2    5.59    4.78
   2  14  -2    0.64    4.65
  -2  14   1   10.14    6.46
   2  14  -1   -8.06    6.77
  -2 -14   0   13.05    7.84
   2  14   0    7.87    5.46
  -2  14   0   12.90    9.12
  -2 -14  -1    3.27    3.93
   2  14   1    2.35    3.82
  -2  14  -1    4.68    4.23
  -2  14  -2   -2.99    4.44
   2  14   2   -0.69    6.53
  -2 -14  -2    2.04    4.40
   2  14   3    5.85    5.30
  -2  14  -3   -1.38    3.98
  -2 -14  -3    1.06    4.54
   2  14   4    6.10    6.79
  -2  14  -4   -3.98    1.47
  -2 -14  -4   10.79    7.15
  -2  15   2   -4.65    6.90
   2  15  -2   10.29    7.73
   2  15  -1   24.69   11.95
  -2  15   1   35.13   17.08
  -2  15   0   -2.88    1.33
   2  15   0    4.13    6.38
  -2  15  -1   13.47    8.37
   2  15   1    9.77    7.13
  -2  15  -2   10.21   10.23
   2  15   2    0.31    4.90
   3   0 -11   -3.99    8.14
   3   0 -10   -6.26    3.30
   3   0  -9    6.99    4.89
   3   0  -8   -2.80    5.06
   3   0  -7  215.38   27.13
   3   0  -6   -2.36    4.58
   3   0  -5  246.77   10.91
  -3   0   5  184.43   39.59
  -3   0   4   10.77    9.55
   3   0  -4    1.59    1.15
   3   0  -3 1297.93   29.99
  -3   0   3 1427.15   69.86
   3   0  -2    0.60    0.22
  -3   0   2   -3.04    3.96
   3   0  -1   88.57    8.90
  -3   0   1   37.83   14.99
   3   0   0   -0.18    2.34
  -3   0   0   -0.66    3.06
   3   0   1 3357.40   67.96
  -3   0  -1 3232.77   71.98
  -3   0  -2    1.28    0.87
   3   0   2   -3.22    0.32
  -3   0  -3  169.26   17.97
   3   0   3  148.11   16.62
  -3   0  -4    8.84    5.67
   3   0   4   -2.04    1.68
  -3   0  -5  394.20   30.86
   3   0   5  407.36   31.25
  -3   0  -6   -3.45    4.14
   3   0   6   -3.39    2.85
   3   0   7  381.11   33.37
  -3   0  -7  340.79   33.44
  -3   0  -8   -0.61    2.31
   3   0   8    4.64    3.50
  -3   0  -9   35.45   12.10
   3   0   9   43.16   12.93
   3   0  10   -1.77    3.62
  -3   0 -10  -10.47    9.72
   3  -1 -11   -5.13    6.75
   3   1 -11    1.48    4.03
   3  -1 -10   18.19   10.05
   3   1 -10    9.19    6.39
   3  -1  -9   65.84   19.10
   3   1  -9   32.90   15.88
   3  -1  -8  283.21   33.39
   3   1  -8  172.30   33.09
   3  -1  -7   83.12   18.44
   3   1  -7  102.59   18.03
  -3   1   6   44.73    7.00
  -3  -1   6   52.75   19.21
   3  -1  -6   63.05   13.64
  -3  -1   5  393.82   50.46
  -3   1   5  495.10   24.41
  -3   1   5  405.41   50.16
  -3   1   4  236.58   35.39
  -3   1   4  199.61   17.45
  -3  -1   4  224.30   32.19
   3   1  -4  233.87    8.88
  -3   1   3  208.40   27.48
  -3   1   3  148.18   15.19
   3   1  -3  189.32   10.09
  -3  -1   3  123.20   23.77
  -3  -1   2  902.00   47.28
   3  -1  -2  840.29   28.21
   3   1  -2  811.35   24.42
  -3  -1   1  934.38   42.92
   3  -1  -1  956.56   32.13
   3   1  -1  930.72   29.15
  -3   1   1  976.35   45.78
   3  -1   0  672.42   28.89
  -3   1   0  699.03   35.31
   3   1   0  717.16   28.21
  -3   1  -1 1031.53   37.85
  -3  -1  -1  990.25   42.42
   3   1   1  934.58   35.48
   3  -1   1  910.07   35.79
   3  -1   2  334.86   23.58
  -3   1  -2  303.83   23.68
  -3  -1  -2  347.02   26.50
   3   1   2  328.64   23.03
  -3   1  -3   69.85   11.48
  -3  -1  -3   75.70   13.19
   3  -1   3   69.32   11.38
   3   1   3   73.88   11.68
  -3  -1  -4   23.69    8.12
   3   1   4   25.21    7.45
   3  -1   4   20.58    7.06
  -3   1  -4   24.21    6.88
   3   1   5  431.16   32.15
  -3   1  -5  410.21   30.63
  -3  -1  -5  407.41   33.14
   3  -1   5  409.91   31.24
  -3   1  -6   79.05   14.55
  -3  -1  -6   86.06   15.77
   3  -1   6   99.85   16.15
   3   1   6   88.64   15.12
  -3  -1  -7    6.59    5.04
   3   1   7   10.79    6.42
   3  -1   7   12.79    6.30
  -3  -1  -8   -1.75    4.54
  -3   1  -8    9.51    6.93
   3   1   8    8.70    5.46
   3  -1   8    5.55    4.20
  -3  -1  -9   63.60   16.61
  -3   1  -9   59.42   16.26
   3   1   9   69.32   16.41
   3  -1   9   68.91   15.36
  -3   1 -10    2.78    1.72
   3   1  10   11.98    7.59
   3  -1  10    6.63    5.67
  -3  -1 -10    0.16    2.33
   3  -2 -11   12.14   10.25
   3   2 -11   19.82   11.07
   3  -2 -10   -7.25    9.65
   3   2 -10    0.33    4.17
   3  -2  -9   15.83   10.00
   3   2  -9    8.12    8.42
   3  -2  -8    1.42    4.61
   3   2  -8    4.15    2.89
   3  -2  -7   83.08   18.13
   3   2  -7   94.58   18.29
  -3   2   7   82.43   11.80
   3  -2  -6  137.23   19.98
  -3   2   6  122.77   13.43
  -3  -2   6  134.19   29.36
  -3   2   5   77.08   12.26
  -3  -2   5   42.58   15.56
  -3  -2   4  301.50   35.11
  -3   2   4  311.95   21.44
  -3   2   3   76.58   12.57
  -3   2   3   49.06   21.98
   3   2  -3   88.54    6.50
  -3  -2   3   94.50   16.25
  -3   2   2  331.86   24.40
  -3   2   2  336.45   40.09
  -3  -2   2  368.07   31.48
   3   2  -2  412.82   16.68
  -3   2   1  878.75   45.72
   3  -2  -1  825.46   30.99
  -3  -2   1  767.04   43.29
   3   2  -1  794.43   26.63
  -3  -2   0  118.13   14.62
   3  -2   0  119.75   12.47
  -3   2   0   81.33   13.65
   3   2   0  128.51   12.14
   3  -2   1  197.84   16.92
  -3  -2  -1  212.17   20.41
  -3   2  -1  199.36   15.51
   3   2   1  201.74   16.40
   3  -2   2  430.84   26.63
  -3  -2  -2  433.82   30.86
   3   2   2  381.28   24.92
  -3   2  -2  397.48   24.85
   3  -2   3  537.62   31.88
  -3   2  -3  575.68   31.05
   3   2   3  556.27   32.83
  -3  -2  -3  553.23   36.91
  -3   2  -4   43.97    9.02
  -3  -2  -4   36.98    9.99
   3  -2   4   29.94    8.09
   3   2   4   33.60    8.47
   3  -2   5   12.39    5.32
  -3   2  -5   11.80    4.11
  -3  -2  -5   15.72    4.84
   3   2   5   21.60    7.33
   3  -2   6  450.99   34.65
  -3  -2  -6  465.34   38.68
  -3   2  -6  469.50   33.64
   3   2   6  480.85   36.19
  -3  -2  -7  102.23   19.44
  -3   2  -7  100.69   16.70
   3   2   7   96.78   17.45
   3  -2   7   99.44   16.32
  -3  -2  -8   -1.11    3.53
  -3   2  -8   -6.44    5.06
   3   2   8    4.20    4.06
   3  -2   8   -1.79    3.21
  -3  -2  -9    5.35    5.66
  -3   2  -9    3.46    0.50
   3   2   9    6.77    5.98
   3  -2   9    9.68    5.41
   3  -3 -11   -5.53    8.40
   3   3 -11    0.07    5.32
   3  -3 -10   14.02    5.78
   3   3 -10   20.91   10.55
   3  -3  -9   -0.54    3.66
   3   3  -9    1.94    4.98
   3  -3  -8  199.91   27.95
   3   3  -8  163.41   24.12
  -3  -3   7  168.73   38.51
   3  -3  -7   87.08   24.75
  -3   3   7  166.11   17.22
  -3   3   6   73.10   10.91
   3  -3  -6   25.75   12.38
  -3  -3   6   60.00   21.49
  -3   3   5   41.86   10.69
  -3  -3   5   52.01   17.80
   3  -3  -5   49.96   10.17
  -3  -3   4  145.95   26.25
  -3   3   4  196.39   18.63
   3  -3  -4  202.88   20.57
  -3   3   3  207.83   31.07
  -3   3   3  278.33   22.03
  -3  -3   3  229.07   26.30
   3   3  -3  227.03   11.38
  -3   3   2   -0.05    2.45
   3   3  -2    1.48    1.57
  -3   3   2    2.25    2.52
  -3  -3   2    4.97    4.28
  -3   3   1  144.55   18.94
  -3   3   1  131.32   20.84
  -3  -3   1  182.66   20.24
   3   3  -1  182.82   13.16
   3  -3   0  763.29   33.50
  -3   3   0  805.35   39.50
  -3  -3   0  848.38   42.50
   3   3   0  819.77   31.02
  -3  -3  -1  121.12   16.54
   3  -3   1  119.26   13.40
  -3   3  -1  143.27   14.25
   3   3   1  137.17   13.99
   3  -3   2  129.51   15.08
  -3  -3  -2  107.71   16.06
   3   3   2  111.26   13.58
  -3   3  -2  105.52   11.38
   3  -3   3  200.74   19.51
  -3  -3  -3  177.96   21.97
   3   3   3  205.47   20.25
  -3   3  -3  199.96   16.95
  -3   3  -4  228.37   20.10
  -3  -3  -4  231.37   26.15
   3   3   4  210.32   21.99
   3  -3   4  228.11   22.06
  -3   3  -5    5.14    2.47
  -3  -3  -5   -1.47    5.11
   3  -3   5    4.94    4.24
   3   3   5    0.76    2.86
   3  -3   6    1.01    2.47
  -3  -3  -6    3.94    4.97
  -3   3  -6   -2.80    2.59
   3   3   6    6.16    4.06
  -3  -3  -7   29.12   10.76
  -3   3  -7   36.30    9.87
   3   3   7   50.17   12.62
   3  -3   7   46.80   11.35
  -3  -3  -8  270.99   35.68
  -3   3  -8  269.66   29.96
   3  -3   8  284.32   29.67
   3   3   8  273.87   31.24
  -3  -3  -9    3.24    2.99
   3  -3   9    2.12    2.83
   3  -4 -10   99.98   23.43
   3   4 -10   71.82   21.76
   3  -4  -9    9.77    5.08
   3   4  -9   27.59   10.81
  -3   4   8    5.40    4.06
   3  -4  -8    4.47    7.30
   3   4  -8   -0.91    4.18
  -3   4   7   13.91    4.98
   3  -4  -7   21.40    9.03
  -3  -4   7   21.44   13.37
  -3   4   6  452.06   31.54
  -3  -4   6  481.76   56.61
   3  -4  -6  476.96   39.14
  -3   4   5   18.45    7.28
   3  -4  -5   15.87    7.07
  -3  -4   5    6.01    3.80
  -3   4   4   24.70    7.39
   3  -4  -4   26.90    7.84
  -3  -4   4   24.52   10.39
   3  -4  -3   16.34    4.93
  -3   4   3   18.74    6.60
  -3  -4   3   14.13    5.04
   3   4  -3   27.18    4.57
   3  -4  -2  533.75   28.79
  -3   4   2  551.86   36.26
  -3  -4   2  584.43   38.37
   3   4  -2  578.47   23.46
   3   4  -1  356.31   20.39
  -3   4   1  337.30   30.21
  -3   4   1  425.53   30.52
  -3  -4   1  361.53   28.94
  -3  -4   0  168.41   20.07
  -3   4   0  209.96   21.99
  -3   4   0  148.72   16.91
   3   4   0  152.71   14.46
  -3  -4  -1   87.50   14.69
   3  -4   1   80.15   11.30
   3   4   1   96.23   12.11
   3  -4   2  429.72   27.48
   3   4   2  429.19   28.33
  -3  -4  -2  470.86   35.14
  -3   4  -2  407.27   21.28
  -3  -4  -3   76.43   15.06
   3  -4   3   77.85   12.06
   3   4   3   73.72   12.55
  -3   4  -3   71.54    9.42
   3  -4   4  186.07   19.78
  -3   4  -4  213.36   17.58
  -3  -4  -4  193.65   24.87
   3   4   4  193.16   21.76
  -3   4  -5    2.89    3.77
  -3  -4  -5    8.01    7.97
   3   4   5    2.23    3.86
   3  -4   5    3.16    4.52
  -3   4  -6  113.97   15.08
  -3  -4  -6  104.63   20.12
   3  -4   6  106.03   16.43
   3   4   6  109.63   17.98
  -3  -4  -7   54.76   15.56
  -3   4  -7   44.60   10.87
   3   4   7   49.45   13.31
   3  -4   7   57.52   12.27
   3   4   8   34.27   10.32
  -3  -4  -8   30.18   13.50
   3  -4   8   41.99   11.92
  -3  -4  -9    1.71    8.51
   3   4   9   -5.11    4.93
   3  -4   9    3.28    3.42
   3  -5 -10   14.26    8.63
   3   5 -10    1.69    3.41
   3  -5  -9   -5.82    6.85
   3   5  -9   -1.16    4.16
  -3   5   8   11.62    5.50
   3  -5  -8    6.94    3.33
   3   5  -8    9.29    9.89
  -3  -5   7   -1.77    3.15
  -3   5   7    3.46    2.53
  -3  -5   6   89.38   24.32
   3  -5  -6   75.38   16.65
  -3   5   6   93.21   15.57
   3  -5  -5  201.07   25.14
  -3  -5   5  212.61   34.32
  -3   5   5  222.39   22.85
   3   5  -4  135.93   10.68
   3  -5  -4  117.73   17.80
  -3  -5   4  131.26   23.18
  -3   5   4   91.74   16.99
  -3  -5   3    4.05    3.85
   3  -5  -3   -2.03    1.99
   3   5  -3    2.23    1.18
  -3   5   3   -1.12    1.58
   3  -5  -2    0.34    1.36
  -3   5   2    2.32    3.41
   3   5  -2   -0.75    1.62
  -3  -5   2    2.10    2.46
   3  -5  -1  394.13   21.26
  -3   5   1  420.64   32.27
  -3  -5   1  383.22   31.09
   3   5  -1  392.48   22.70
  -3   5   0  128.73   18.13
  -3  -5   0  136.02   18.94
   3   5   0  153.03   15.36
   3  -5   0  163.14   11.00
   3   5   1   75.24   11.50
  -3  -5  -1   68.09   12.90
  -3   5  -1   37.67    6.46
   3  -5   1   67.02   11.08
  -3   5  -1   58.80   15.11
  -3  -5  -2   40.21   12.35
   3   5   2   23.18    6.89
   3  -5   2   26.40    6.46
   3  -5   3  147.78   17.32
   3   5   3  137.25   17.55
  -3  -5  -3  146.89   21.60
  -3  -5  -4   75.17   16.99
   3  -5   4   67.48   12.48
   3   5   4   68.76   12.90
  -3  -5  -5   78.55   17.20
   3   5   5   65.25   14.61
   3  -5   5   68.01   12.46
   3   5   6   -2.48    2.34
  -3  -5  -6   -1.66    3.65
   3  -5   6   -0.57    0.90
  -3  -5  -7  156.19   27.40
   3  -5   7  165.81   21.76
   3   5   7  144.30   22.75
   3   5   8   43.23   12.54
  -3  -5  -8   65.51   19.31
   3  -5   8   49.76   12.01
   3   5   9   60.97   15.83
  -3  -5  -9   60.89   18.66
   3  -5   9   69.92   15.35
   3  -6 -10  -10.15    8.75
   3   6 -10   -4.13    7.18
   3  -6  -9   56.55   16.16
   3   6  -9   26.02   13.80
  -3   6   8   32.96   10.44
   3  -6  -8   36.55   13.55
   3   6  -8   47.91   14.27
  -3  -6   7  108.54   34.27
  -3   6   7   88.92   16.49
   3  -6  -7   75.19   16.38
   3  -6  -6  -11.70    6.28
  -3  -6   6  -16.12   12.51
  -3   6   5   39.36   10.04
   3  -6  -5   48.50   11.90
  -3  -6   5   47.30   18.00
  -3   6   4   77.94   14.02
   3  -6  -4   70.40   13.35
   3   6  -4   63.92    9.03
  -3  -6   4   54.35   15.37
   3   6  -3  105.46   11.34
   3  -6  -3  111.55   16.11
  -3   6   3  139.79   18.26
  -3  -6   3  127.78   21.22
  -3   6   2    7.90    5.26
   3  -6  -2    9.41    4.06
   3   6  -2   12.60    4.51
  -3  -6   2   12.55    7.75
  -3  -6   1  376.86   31.47
   3  -6  -1  378.32   20.17
   3   6  -1  407.84   24.96
  -3  -6   0  102.38   18.96
   3   6   0  149.53   16.05
  -3   6   0   95.27   19.75
   3  -6   0  132.28    8.87
  -3   6  -1  426.70   35.36
  -3  -6  -1  460.10   36.09
   3   6   1  462.63   29.89
  -3  -6  -2    4.46    2.75
   3   6   2    2.98    2.69
   3  -6   2    3.70    2.19
   3  -6   3  450.89   31.39
  -3  -6  -3  511.83   41.06
   3   6   3  468.43   33.99
   3   6   4   81.01   15.18
  -3  -6  -4   98.57   19.38
   3  -6   4   70.45   12.83
   3   6   5    5.22    4.01
  -3  -6  -5    7.21   11.69
   3  -6   5    1.59    2.07
   3   6   6    3.50    3.76
  -3  -6  -6    8.49    4.98
   3  -6   6    1.08    1.28
   3  -6   7  193.49   23.66
  -3  -6  -7  217.21   33.73
   3   6   7  189.73   26.56
   3   6   8   17.02    8.68
   3  -6   8   10.47    6.26
  -3  -6  -8   12.88    8.91
   3   6   9    3.25    4.42
  -3  -6  -9    1.14    3.55
   3  -7 -10    2.20    4.02
   3   7 -10    2.05    1.61
  -3   7   9   19.09    7.24
   3  -7  -9   11.86    6.63
   3   7  -9    5.36    9.76
  -3   7   8    2.90    3.23
   3  -7  -8    8.72    7.44
  -3  -7   8   19.09   17.98
  -3   7   7   17.70    8.32
   3  -7  -7    8.39    7.07
  -3  -7   7   -7.70   13.64
  -3   7   6    1.66    4.08
   3  -7  -6    3.16    2.36
  -3  -7   6   12.69   13.24
  -3  -7   5  276.26   41.00
  -3   7   5  248.55   28.80
   3  -7  -5  265.68   28.67
  -3   7   4   16.90    7.59
   3   7  -4   18.77    5.81
   3  -7  -4   18.70    6.45
  -3  -7   4   20.64   10.02
  -3   7   3  162.02   21.31
  -3  -7   3  135.26   24.16
   3   7  -3  138.33   14.36
   3  -7  -3  165.08   18.09
   3  -7  -2   14.55    4.23
   3   7  -2   22.32    5.71
  -3   7   2    8.40    6.14
  -3  -7   2   10.00    8.27
  -3   7   1  116.15   21.70
  -3  -7   1  159.29   23.47
   3  -7  -1  167.44   12.73
   3   7  -1  174.51   18.78
  -3   7   0   63.32   12.95
  -3  -7   0   46.54   12.03
   3   7   0   60.11   10.58
   3   7   1  422.85   30.05
  -3   7  -1  410.80   35.32
  -3  -7  -1  401.85   35.44
   3   7   2    0.49    3.16
  -3  -7  -2   -5.36    5.81
   3  -7   2   -5.52    4.21
  -3   7  -2   -0.70    4.82
   3   7   3   17.03    5.79
  -3  -7  -3   25.47    6.78
   3  -7   3   23.02    7.90
   3   7   4   -2.31    2.17
  -3  -7  -4    1.98    4.13
   3  -7   4    1.17    0.93
   3  -7   5  223.73   24.55
  -3  -7  -5  249.38   33.58
   3   7   5  223.15   27.85
   3   7   6   14.43    7.18
   3  -7   6   17.07    5.48
  -3  -7  -6   19.45   10.98
   3   7   7    2.49    2.10
  -3  -7  -7    9.00   10.74
   3  -7   7    5.00    3.99
  -3  -7  -8   66.58   20.37
   3  -7   8   68.03   14.68
   3   7   8   66.55   17.17
  -3   8   9    4.06    4.74
   3  -8  -9   14.99    9.72
   3   8  -9   19.81   11.52
  -3   8   8    4.36    1.39
   3  -8  -8   19.84    9.95
  -3   8   7   59.78   15.35
   3  -8  -7   65.39   17.23
  -3  -8   7   58.17   25.71
  -3   8   6   55.75   14.67
   3  -8  -6   55.33   14.42
  -3  -8   6   52.00   18.93
  -3   8   5   14.47    7.16
   3  -8  -5   15.56    5.89
  -3  -8   5   13.84   12.50
  -3   8   4   -4.87    5.05
   3  -8  -4   -4.42    2.74
   3   8  -4   -0.91    1.32
  -3  -8   4   -9.17    7.53
  -3   8   3  119.04   20.72
   3   8  -3   99.79   13.63
   3  -8  -3  117.19   14.96
  -3  -8   3  101.07   22.71
   3  -8  -2   56.94    8.79
   3   8  -2   58.33   11.20
  -3   8   2   68.17   15.89
  -3  -8   2   49.04   15.47
  -3  -8   1   18.43    9.31
  -3   8   1    9.23    6.03
   3  -8  -1   17.77    4.31
   3   8  -1    9.59    3.93
  -3  -8   0    1.83    0.36
  -3   8   0    1.23    3.02
   3   8   0    4.04    4.23
  -3  -8  -1  154.71   22.65
  -3   8  -1  134.46   20.79
   3   8   1  148.33   19.42
  -3   8  -2  166.93   24.26
  -3  -8  -2  181.89   24.70
   3   8   2  191.75   22.15
  -3  -8  -3   31.99   11.05
   3  -8   3   10.63    5.55
   3   8   3   18.71    8.56
   3   8   4    8.37    5.26
   3  -8   4   10.44    6.03
  -3  -8  -4   26.64   12.49
  -3  -8  -5   30.75   12.01
   3  -8   5   34.64   10.11
   3   8   5   22.85    8.95
  -3  -8  -6  101.30   22.95
   3  -8   6   88.40   15.91
   3   8   6   86.28   17.98
   3  -8   7   17.73    7.12
   3   8   7   30.98   12.10
   3  -8   8    2.54    1.66
   3   8   8    5.46    5.25
  -3   9   9    0.91    4.56
   3  -9  -9   -3.67    5.50
  -3   9   8   89.10   20.52
   3  -9  -8  120.66   25.55
  -3  -9   8  101.79   38.17
  -3   9   7    9.86    7.24
   3  -9  -7    6.68    3.80
  -3   9   6    4.08    6.28
   3  -9  -6    6.06    6.05
  -3  -9   6    3.16    4.81
  -3   9   5   10.84    7.05
   3  -9  -5    6.09    4.07
  -3  -9   5   -1.37    5.73
   3   9  -4  125.95   18.19
  -3   9   4  126.06   24.53
   3  -9  -4  139.72   18.69
  -3  -9   4  115.61   27.75
  -3   9   3   39.74   13.11
   3  -9  -3   35.39    8.55
   3   9  -3   21.73    7.24
  -3  -9   3   25.87   13.20
  -3   9   2   88.64   18.09
   3   9  -2   79.74   14.10
   3  -9  -2   75.37   10.11
  -3  -9   2   81.35   21.72
  -3  -9   1   42.66   13.07
  -3   9   1   39.21   13.32
   3   9  -1   58.72   11.74
  -3   9   0  179.09   27.66
  -3  -9   0  200.11   26.56
   3   9   0  200.21   22.56
  -3   9  -1    0.83    3.53
  -3  -9  -1    9.42    7.61
   3   9   1    1.13    2.33
  -3  -9  -2   18.40    7.31
  -3   9  -2   15.70    9.20
   3   9   2   24.93    8.77
  -3   9  -3   13.04    8.01
  -3  -9  -3   27.67    8.72
   3   9   3   27.03    9.39
   3  -9   3   34.43   10.62
  -3  -9  -4   59.42   15.89
   3  -9   4   56.99   13.14
   3   9   4   65.41   15.79
  -3  -9  -5   84.28   20.26
   3  -9   5   58.74   13.66
   3   9   5   59.74   15.97
   3  -9   6   41.61   11.58
  -3  -9  -6   51.00   17.35
   3   9   6   48.20   14.27
  -3  -9  -7   26.45   12.93
   3  -9   7   13.02    6.88
   3   9   7   21.90    9.67
  -3  10   8   19.80   10.47
   3 -10  -8   10.51    5.17
  -3  10   7   -3.54    4.75
   3 -10  -7    5.81    6.73
  -3 -10   7   13.85   13.23
  -3  10   6  122.54   23.96
   3 -10  -6  145.99   23.68
  -3 -10   6  101.87   31.34
  -3  10   5    0.71    2.78
   3 -10  -5    5.41    5.38
  -3 -10   5    5.88    3.37
  -3  10   4   -2.04    6.15
   3 -10  -4    1.94    3.44
   3  10  -4    0.93    1.61
  -3 -10   4    1.72    2.35
  -3  10   3    1.13    4.06
   3 -10  -3   -0.49    2.91
   3  10  -3    4.07    3.40
  -3 -10   3    0.61    4.67
  -3  10   2   84.42   18.83
   3  10  -2   63.76   13.39
  -3 -10   2   63.52   18.04
  -3 -10   1    2.03    3.71
  -3  10   1    6.42    4.56
   3  10  -1    0.04    1.42
  -3 -10   0   26.31    9.77
  -3  10   0   15.84    8.74
   3  10   0   15.13    6.62
  -3  10  -1   18.13    9.10
  -3 -10  -1   26.13   10.24
   3  10   1   22.68    7.71
  -3 -10  -2    2.23    4.43
   3  10   2    9.83    6.27
  -3  10  -2   20.73    8.01
  -3 -10  -3    0.06    5.54
  -3  10  -3    3.68    1.29
   3  10   3    3.02    4.81
   3 -10   3    1.93    5.00
  -3 -10  -4   -5.10    3.91
   3  10   4    3.76    5.63
   3 -10   4   -2.50    3.78
  -3 -10  -5   14.22    9.54
   3 -10   5   16.42    8.61
   3  10   5    8.34    4.75
  -3 -10  -6   42.16   14.75
   3 -10   6   31.49    9.91
   3  10   6   27.51   11.04
  -3 -10  -7   29.28   15.81
   3 -10   7   11.97    6.53
   3  10   7   11.76    8.36
  -3  11   7   32.69   13.65
   3 -11  -7   41.31   15.20
  -3  11   6    1.05    4.60
   3 -11  -6    5.12    4.47
  -3 -11   6   -5.30    7.31
  -3  11   5   -2.66    5.77
   3 -11  -5    8.95    4.89
  -3 -11   5    1.75    5.38
  -3  11   4  -11.70    8.97
   3 -11  -4    1.65    1.68
  -3 -11   4    8.40    9.78
  -3  11   3   22.24   11.70
   3  11  -3   21.00    8.03
  -3 -11   3   14.45   10.26
  -3  11   2    0.45    4.22
   3  11  -2    3.03    2.57
  -3 -11   2    2.96    3.70
  -3  11   1   13.98    7.75
   3  11  -1    4.55    5.08
  -3 -11   1   -0.24    3.96
  -3  11   0   14.28    9.69
  -3 -11   0   22.56   11.45
   3  11   0   11.34    6.06
  -3  11  -1   63.17   16.94
  -3 -11  -1   49.56   14.53
   3  11   1   32.59   10.83
  -3 -11  -2   11.32    5.09
   3  11   2    4.75    3.37
  -3  11  -2    6.70    7.67
  -3 -11  -3    6.86    6.97
   3  11   3    2.24    4.08
  -3  11  -3   10.53    5.47
   3 -11   3    0.72    1.89
  -3 -11  -4   19.52    9.51
   3  11   4   26.60   10.50
   3 -11   4   40.05   12.84
  -3 -11  -5   76.99   21.26
   3  11   5   46.91   15.11
   3 -11   5   57.18   15.61
  -3 -11  -6   10.57    8.57
   3 -11   6   10.58    5.61
   3  11   6   14.02    7.89
  -3  12   6    2.83    3.24
   3 -12  -6    9.27    7.47
  -3  12   5   11.24    8.07
   3 -12  -5   16.81    7.29
  -3 -12   5   12.86    9.86
  -3  12   4   -6.33    9.88
  -3 -12   4    3.12    3.98
  -3  12   3   10.14    3.78
   3  12  -3    3.77    3.60
  -3 -12   2   -6.35    6.16
  -3  12   2   -1.08    3.91
   3  12  -2    2.35    2.16
  -3  12   1   80.66   23.30
   3  12  -1   85.76   17.45
  -3 -12   1   61.82   21.59
  -3  12   0    1.67    1.20
  -3 -12   0    1.54    5.02
   3  12   0   -0.86    3.37
  -3  12  -1    5.37    6.54
  -3 -12  -1    2.26    5.31
   3  12   1    2.33    3.83
  -3 -12  -2    8.09    9.45
   3  12   2   -2.43    4.47
  -3  12  -2   -2.88    6.18
  -3 -12  -3   15.47    9.47
   3  12   3   20.80    9.70
  -3  12  -3   15.18    6.33
   3 -12   4    3.42    3.97
   3  12   4   -2.06    5.38
  -3 -12  -4   -8.01    9.59
   3 -12   5   -0.99    2.62
  -3 -12  -5    1.31    7.01
   3  12   5   -2.24    2.52
  -3  13   5   12.83   10.56
  -3  13   4   -5.93    7.96
  -3  13   3   -4.49    7.29
   3  13  -3   -0.45    2.79
  -3 -13   3   -7.91    7.14
  -3  13   2    4.28    4.97
   3  13  -2    4.23    5.24
  -3 -13   2    0.34    3.27
  -3  13   1   16.16    9.17
   3  13  -1    8.69    7.01
  -3 -13   1    3.07    6.17
  -3  13   0    4.87    2.23
  -3 -13   0    8.49    5.73
   3  13   0   11.42    7.97
  -3  13  -1   20.18   11.29
  -3 -13  -1   24.40   10.31
   3  13   1   19.30    9.28
  -3 -13  -2    3.70    4.34
   3  13   2   -5.85    6.03
  -3  13  -2   -9.05    7.64
  -3 -13  -3   12.22    9.12
   3  13   3   10.26    7.76
  -3  13  -3   -1.51    7.34
  -3 -13  -4    9.85    7.59
   3 -13   4    0.36    1.19
   3  13   4    7.88    6.40
  -3  14   4    0.75    3.55
  -3  14   3   -2.91    7.68
  -3  14   2   19.06   11.52
   3  14  -2    9.21    5.99
  -3  14   1   10.37    8.16
   3  14  -1    5.56    5.54
  -3 -14   1   -4.94    1.80
  -3  14   0   11.17    7.60
  -3 -14   0    8.81    8.20
   3  14   0    4.93    4.88
  -3  14  -1    8.44    9.73
  -3 -14  -1    4.84    4.20
   3  14   1    3.60    4.27
   3  14   2    1.02    2.45
  -3  14  -2    3.92    2.19
   4   0 -10   46.70   17.10
   4   0  -9    4.72    5.62
   4   0  -8   21.11   10.13
   4   0  -7    4.60    3.40
  -4   0   6  127.28   32.60
  -4   0   5   23.18   15.98
   4   0  -5   -0.30    0.64
   4   0  -4   67.22    7.78
  -4   0   4   40.44   19.83
   4   0  -3    0.09    0.32
  -4   0   3    1.17    3.19
   4   0  -2  913.86   33.07
  -4   0   2  872.14   55.69
  -4   0   1   -2.48    3.98
   4   0  -1   -0.10    2.02
   4   0   0 2492.41   62.87
  -4   0   0 2720.96   79.57
  -4   0  -1   -0.40    1.98
   4   0   1    0.74    1.03
  -4   0  -2    5.30    4.72
   4   0   2    0.76    0.61
   4   0   3   -0.91    3.24
  -4   0  -3    0.51    1.76
  -4   0  -4  253.45   26.48
   4   0   4  231.68   24.12
  -4   0  -5    0.72    3.37
   4   0   5    3.23    1.24
  -4   0  -6   28.02   10.03
   4   0   6   19.19    7.66
  -4   0  -7    5.90    6.97
   4   0   7   -0.40    3.45
  -4   0  -8    7.91    7.29
   4   0   8   11.33    5.11
  -4   0  -9    8.73    7.89
   4   0   9    5.59    6.32
   4  -1 -10   -1.21    5.92
   4   1 -10    2.45    1.58
   4  -1  -9   12.52    7.32
   4   1  -9    6.80    9.06
   4  -1  -8  125.69   25.81
   4   1  -8  130.98   24.10
   4  -1  -7   48.49   14.97
  -4  -1   7   72.63   26.81
  -4   1   6  159.61   40.36
  -4  -1   6  159.23   36.55
   4  -1  -5    5.64    2.06
  -4   1   5   21.73   12.74
  -4  -1   5   12.50    6.36
   4  -1  -4  769.20   28.93
  -4   1   4  818.88   67.38
  -4  -1   4  763.94   64.13
   4   1  -4  756.40   23.72
   4  -1  -3  259.33   17.87
  -4   1   3  277.79   36.59
  -4  -1   3  294.31   33.16
   4   1  -3  260.21   15.51
   4  -1  -2  398.59   22.90
   4   1  -2  402.68   21.48
  -4   1   2  439.09   40.49
  -4  -1   2  451.57   38.25
   4   1  -1   -0.37    1.65
  -4   1   1    1.97    1.94
  -4  -1   1    0.53    0.99
  -4  -1   0   91.42   14.56
   4  -1   0  112.02   13.45
   4   1   0  105.04   12.76
  -4   1   0   77.75   15.63
   4  -1   1  183.99   18.08
  -4   1  -1  177.80   20.27
  -4  -1  -1  126.09   21.09
   4   1   1  192.08   18.13
   4  -1   2  231.21   21.46
  -4   1  -2  218.32   23.19
  -4  -1  -2  166.60   24.85
   4   1   2  226.46   21.27
  -4   1  -3  264.38   24.40
  -4  -1  -3  260.09   26.43
   4   1   3  272.74   24.94
   4  -1   3  241.48   23.12
  -4   1  -4  482.17   34.77
  -4  -1  -4  466.33   37.45
   4   1   4  473.34   35.15
   4  -1   4  492.55   34.98
  -4   1  -5  601.82   40.72
  -4  -1  -5  650.16   44.95
   4   1   5  645.30   43.14
   4  -1   5  644.80   42.94
  -4   1  -6  391.41   35.12
  -4  -1  -6  373.69   36.65
   4   1   6  422.35   36.85
   4  -1   6  408.01   35.85
  -4   1  -7   90.89   17.44
  -4  -1  -7   88.75   19.71
   4   1   7   83.27   17.31
   4  -1   7   87.55   17.43
  -4   1  -8    8.63    6.36
  -4  -1  -8   27.06   12.21
   4   1   8    5.63    4.05
   4  -1   8    9.26    6.68
  -4   1  -9   45.32   16.11
  -4  -1  -9   56.63   17.50
   4   1   9   44.68   14.47
   4  -1   9   50.44   14.46
   4  -2 -10   63.26   19.11
   4   2 -10   20.20   12.09
   4  -2  -9   42.42   14.11
   4   2  -9   34.91   13.82
   4  -2  -8  -11.05    7.85
   4   2  -8   -6.56    5.48
   4  -2  -7   15.56    7.09
  -4  -2   7    6.65   12.09
  -4   2   6  210.83   21.24
  -4  -2   6  232.43   40.15
   4  -2  -6  237.39   28.68
  -4  -2   5  179.94   32.80
  -4   2   5  161.77   19.10
  -4   2   5  129.96   35.63
  -4   2   4  195.85   34.64
   4  -2  -4  202.76   16.32
  -4   2   4  206.08   20.63
   4   2  -4  177.50   10.61
  -4  -2   4  185.28   28.75
   4  -2  -3  261.92   19.28
  -4   2   3  237.24   32.65
  -4  -2   3  250.92   30.36
   4   2  -3  225.10   14.07
   4  -2  -2  280.97   20.20
  -4   2   2  217.92   34.30
   4   2  -2  262.27   16.41
  -4   2   1  875.28   59.12
   4  -2  -1  937.16   38.18
  -4  -2   1  848.51   52.22
   4   2  -1  907.07   33.89
   4  -2   0  387.64   25.55
  -4   2   0  425.18   31.83
  -4  -2   0  410.73   32.75
   4   2   0  413.80   24.95
   4  -2   1  280.77   22.48
  -4   2  -1  251.05   26.79
  -4  -2  -1  327.52   29.56
   4   2   1  310.85   23.18
   4  -2   2  266.42   23.17
  -4   2  -2  275.48   22.67
  -4  -2  -2  248.36   26.11
   4   2   2  266.83   22.98
   4  -2   3  333.43   27.55
   4   2   3  328.77   28.06
  -4   2  -3  330.55   28.33
  -4  -2  -3  365.05   32.86
  -4   2  -4  261.42   25.73
  -4  -2  -4  235.86   27.14
   4   2   4  265.29   26.41
   4  -2   4  264.85   25.45
  -4   2  -5   70.34   13.20
  -4  -2  -5   79.89   16.82
   4  -2   5   55.89   12.13
   4   2   5   59.57   13.35
  -4   2  -6   20.68    8.72
  -4  -2  -6   19.15   10.46
   4   2   6   16.27    6.77
   4  -2   6    9.48    5.98
  -4   2  -7   34.30   11.02
  -4  -2  -7   18.39   10.41
   4   2   7   13.45    8.94
   4  -2   7    6.78    4.84
  -4   2  -8  125.67   22.19
  -4  -2  -8  126.08   26.03
   4  -2   8  113.75   20.83
   4   2   8  135.56   23.58
   4   2   9    3.37    4.51
   4  -2   9   -1.39    2.15
   4  -3 -10    3.44    6.84
   4   3 -10    3.09    2.98
   4  -3  -9   10.80    8.67
   4   3  -9    1.11    2.81
   4  -3  -8   -2.00    2.36
  -4   3   7   88.27   13.55
   4  -3  -7   85.30   18.62
  -4  -3   7   88.67   26.61
  -4   3   6    2.58    2.96
  -4  -3   6   -7.26   11.22
   4  -3  -6    2.76    0.39
  -4   3   5    4.45    4.29
  -4  -3   5    1.29    2.32
   4  -3  -5   -0.86    0.48
   4   3  -4   -0.02    0.52
  -4   3   4   -2.72    6.05
  -4  -3   4    1.76    2.28
  -4   3   4    0.06    2.56
  -4   3   3  198.28   26.63
  -4   3   3  214.72   38.17
  -4  -3   3  278.20   31.20
   4   3  -3  260.18   15.26
   4  -3  -2   11.83    4.10
  -4   3   2   16.95    8.27
   4   3  -2   15.94    4.19
  -4   3   2   10.08    7.22
  -4  -3   2    5.70    6.20
   4  -3  -1   19.79    5.91
   4   3  -1   16.29    4.42
  -4   3   1   23.24   10.44
  -4  -3   1   13.46    7.76
  -4  -3   0    6.08    4.84
   4   3   0    6.14    2.37
   4  -3   0    8.80    3.60
  -4   3   0    1.04    0.71
   4  -3   1  298.95   24.01
  -4   3  -1  317.56   25.59
  -4  -3  -1  290.55   29.82
   4   3   1  307.37   23.55
   4  -3   2  247.79   22.82
  -4   3  -2  302.79   22.99
  -4  -3  -2  251.62   27.28
   4   3   2  274.60   23.91
  -4  -3  -3   85.46   17.06
   4  -3   3  112.97   15.83
   4   3   3   89.99   14.81
  -4   3  -3   86.02   12.86
   4   3   4  321.33   29.64
   4  -3   4  317.83   28.41
  -4   3  -4  316.57   27.07
  -4  -3  -4  339.02   34.08
  -4   3  -5  490.33   35.22
  -4  -3  -5  462.71   42.65
   4   3   5  486.47   38.68
   4  -3   5  463.02   36.15
   4  -3   6   52.42   12.79
  -4   3  -6   56.87   12.30
  -4  -3  -6   52.49   16.42
   4   3   6   43.52   11.89
  -4   3  -7   70.96   15.36
  -4  -3  -7   57.93   16.21
   4   3   7   39.83   11.60
   4  -3   7   61.56   14.82
   4  -3   8   -1.74    4.53
  -4  -3  -8    7.27    7.16
   4   3   8    1.17    2.17
  -4  -3  -9   82.60   26.13
   4   3   9  105.04   21.65
   4  -3   9   90.46   19.26
   4  -4 -10   -4.86    8.04
   4   4 -10    8.58    7.51
   4  -4  -9   37.99   13.15
   4   4  -9   29.00   11.90
   4  -4  -8    5.60    5.60
  -4  -4   8   -2.02    9.54
  -4   4   7   13.71    7.05
   4  -4  -7   10.74    7.23
  -4  -4   7   18.91    9.94
  -4   4   6   11.15    5.02
   4  -4  -6    3.86    1.07
  -4  -4   6   14.53   10.98
  -4  -4   5  432.71   50.94
  -4   4   5  517.01   35.61
   4  -4  -5  384.77   36.47
  -4   4   4   -0.68    2.10
  -4  -4   4    1.96    1.24
  -4   4   3   42.88   16.02
   4   4  -3   49.50    7.24
  -4  -4   3   46.82   16.25
  -4   4   3   18.00   10.86
  -4   4   2  362.32   30.85
  -4   4   2  358.61   40.28
  -4  -4   2  335.37   33.52
   4   4  -2  332.89   19.83
   4  -4  -1  342.32   25.25
  -4   4   1  350.49   31.94
  -4   4   1  281.78   32.48
  -4  -4   1  327.79   32.13
   4   4  -1  328.08   20.98
   4  -4   0  502.06   31.44
  -4   4   0  410.36   35.79
  -4  -4   0  541.46   39.22
   4   4   0  491.30   27.76
  -4  -4  -1   50.47   12.58
   4   4   1   62.05   10.80
   4  -4   1   62.65   11.41
  -4   4  -1   37.22    8.65
  -4  -4  -2    6.76    5.03
   4  -4   2    9.89    5.17
   4   4   2   12.97    4.90
  -4   4  -2   12.00    5.42
   4  -4   3 1090.55   50.65
  -4   4  -3 1161.39   42.56
  -4  -4  -3 1070.42   61.47
   4   4   3 1091.60   52.25
  -4   4  -4   69.05   11.53
  -4  -4  -4   55.29   14.80
   4   4   4   74.05   13.82
   4  -4   4   65.57   12.83
  -4   4  -5    4.51    2.19
  -4  -4  -5   18.77   10.54
   4   4   5   18.06    7.89
   4  -4   5   10.59    6.01
  -4  -4  -6   -1.12    4.15
   4  -4   6    3.43    2.76
   4   4   6    5.33    1.60
  -4  -4  -7  358.70   42.34
   4   4   7  409.95   39.74
   4  -4   7  389.38   36.20
  -4  -4  -8    3.50    8.78
   4   4   8    3.02    1.74
   4  -4   8   -4.01    5.37
   4  -5 -10   14.60    8.72
   4   5 -10    1.39    1.28
   4  -5  -9   -2.63    3.87
   4   5  -9   -9.14    6.67
   4  -5  -8    3.81    5.05
  -4  -5   8   -1.93    9.26
  -4   5   7   33.64    9.86
   4  -5  -7   32.60   12.50
  -4  -5   7   33.93   13.81
  -4   5   6   50.82   11.65
   4  -5  -6   58.22   13.56
  -4  -5   6   51.48   18.40
  -4   5   5    3.69    3.20
   4  -5  -5    9.23    5.71
  -4  -5   5   -3.39    6.06
  -4   5   4  166.05   21.87
   4  -5  -4  173.74   19.55
  -4  -5   4  150.20   25.78
  -4   5   3  207.05   26.01
   4   5  -3  208.05   15.29
   4  -5  -3  222.89   20.36
  -4   5   2  149.05   20.86
  -4  -5   2  101.64   22.17
   4   5  -2  125.47   13.14
   4  -5  -2  109.94   13.32
   4   5  -1    5.05    3.30
  -4   5   1   -0.44    4.01
  -4  -5   1   -1.63    2.72
  -4  -5   0    2.05    2.48
   4  -5   0    1.07    0.81
   4   5   0    1.52    2.44
  -4   5   0    2.19    3.54
  -4   5   0    5.92    4.91
   4   5   1  771.52   39.10
   4  -5   1  763.46   41.58
  -4  -5  -1  763.44   51.00
  -4  -5  -2   45.63   11.41
   4   5   2   63.23   11.62
   4  -5   2   57.37   11.08
   4  -5   3  240.23   24.24
  -4  -5  -3  239.06   29.96
   4   5   3  239.05   25.58
  -4  -5  -4   68.25   17.85
   4   5   4   58.78   13.69
   4  -5   4   54.99   11.60
  -4  -5  -5    8.74    5.27
   4   5   5    7.43    5.17
   4  -5   5    8.80    5.78
  -4  -5  -6   35.17   13.97
   4   5   6   32.96   10.17
   4  -5   6   31.45    9.46
  -4  -5  -7   21.78   12.14
   4  -5   7   17.08    6.99
   4   5   7   15.05    6.07
  -4  -5  -8    8.53    6.97
   4   5   8   -0.06    1.36
   4  -5   8    7.71    5.61
   4  -6  -9   -0.93    6.14
   4   6  -9   -5.74    8.05
  -4   6   8   -1.71    2.94
   4  -6  -8   -2.39    5.08
  -4  -6   8  -15.21   11.98
  -4   6   7    3.97    4.97
   4  -6  -7    2.19    2.87
  -4  -6   7    1.34    6.30
  -4   6   6  201.13   26.36
   4  -6  -6  208.60   25.70
  -4  -6   6  166.06   36.01
  -4   6   5    7.02    6.32
   4  -6  -5    8.26    6.07
  -4  -6   5    9.09    6.59
  -4   6   4   62.65   17.66
   4  -6  -4   71.13   16.06
  -4  -6   4   52.69   18.73
  -4   6   3   31.67    9.74
   4  -6  -3   14.89    5.55
   4   6  -3   24.37    5.19
  -4  -6   3   23.32   10.39
  -4   6   2  118.82   19.37
   4  -6  -2  111.40   13.59
   4   6  -2  104.55   12.57
  -4  -6   2   94.99   19.47
   4   6  -1   28.61    7.16
   4  -6  -1   25.73    5.68
  -4   6   1   30.60   10.44
  -4  -6   1   16.32    8.56
  -4  -6   0   84.30   16.26
   4   6   0   77.59   11.79
   4  -6   0   82.14    8.87
  -4   6   0   87.11   18.48
  -4  -6  -1    8.24    6.47
   4  -6   1   13.84    5.72
   4   6   1   10.59    4.35
   4  -6   2  334.47   29.11
  -4  -6  -2  323.81   33.69
   4   6   2  344.12   28.36
  -4  -6  -3    3.30    4.62
   4   6   3    2.67    3.44
   4  -6   3   -0.91    2.07
   4  -6   4   99.30   16.64
  -4  -6  -4  111.76   21.99
   4   6   4  129.05   20.51
   4   6   5   -2.59    2.33
   4  -6   5   -1.07    0.96
  -4  -6  -6   69.53   18.91
   4   6   6   63.50   15.78
   4  -6   6   55.77   13.73
   4   6   7   11.55    7.22
  -4  -6  -7   13.32   10.13
   4  -6   7   12.43    6.75
   4  -6   8  121.92   20.81
   4   6   8  114.80   22.97
  -4  -6  -8  109.70   26.21
   4  -7  -9   -6.01    8.85
   4   7  -9   -9.82   10.37
  -4   7   8   50.32   12.88
   4  -7  -8   30.25   14.70
  -4  -7   8   18.24   14.67
  -4   7   7   -1.86    3.68
   4  -7  -7    1.93    1.56
  -4  -7   7    2.95    4.37
  -4   7   6   42.42   12.71
   4  -7  -6   44.65   13.47
  -4  -7   6   19.37   13.34
  -4   7   5    5.71    4.58
   4  -7  -5    6.73    5.85
  -4  -7   5   -2.36    9.11
  -4   7   4  314.44   33.17
  -4  -7   4  250.91   41.73
   4  -7  -4  348.05   29.66
  -4   7   3   50.77   13.08
   4  -7  -3   38.44    9.59
   4   7  -3   33.48    7.01
  -4  -7   3   31.30   10.84
  -4   7   2  159.28   23.87
  -4  -7   2  101.38   26.53
   4   7  -2  153.81   16.54
   4  -7  -2  155.88   16.69
   4   7  -1   42.87    9.41
   4  -7  -1   54.21    7.89
  -4   7   1   28.26   12.26
  -4  -7   1   43.14   12.41
  -4   7   0  229.16   28.67
  -4  -7   0  247.22   28.82
   4   7   0  230.35   22.30
   4   7   1    0.74    1.67
   4  -7   1    2.99    2.59
  -4   7  -1    0.66    2.29
   4  -7   2  810.89   46.83
  -4  -7  -2  788.61   54.58
   4   7   2  771.12   44.37
  -4  -7  -3   -2.12    5.71
   4   7   3   -1.50    5.36
   4  -7   3   -2.89    3.55
  -4  -7  -4   -1.49    4.70
   4   7   4   -0.14    3.00
   4  -7   4   -1.27    1.31
   4   7   5   -4.33    3.58
  -4  -7  -5    6.78    7.99
   4  -7   5    1.45    1.06
   4   7   6   73.20   17.22
  -4  -7  -6   35.35   11.90
   4  -7   6   56.26   12.78
  -4  -7  -7    5.11    3.86
   4  -7   7    0.58    1.55
   4   7   8    1.10    3.94
   4  -7   8    3.41    3.68
   4  -8  -9    2.71    2.93
  -4   8   8   -2.92    4.00
   4  -8  -8   -0.81    4.08
  -4  -8   8   11.76   16.77
  -4   8   7   -5.78    5.20
  -4  -8   7   -0.61   12.02
   4  -8  -7   -6.53    5.26
  -4   8   6   52.04   15.70
   4  -8  -6   71.04   15.68
  -4  -8   6   57.39   23.98
  -4   8   5   54.77   15.61
   4  -8  -5   41.81   11.49
  -4  -8   5   48.74   21.20
  -4   8   4   84.42   17.89
   4  -8  -4   99.83   15.90
  -4  -8   4   49.50   20.42
  -4   8   3    6.99    6.39
   4  -8  -3   -5.28    4.04
   4   8  -3    1.29    1.17
  -4  -8   3   -2.74    5.11
  -4   8   2   -0.22    5.66
   4  -8  -2   14.53    4.43
   4   8  -2   10.92    5.39
  -4  -8   2   19.93    7.73
  -4   8   1   -2.28    2.30
   4   8  -1    3.62    2.69
  -4  -8   1    1.34    5.22
  -4  -8   0  174.16   25.45
   4   8   0  145.77   19.03
  -4   8   0  149.89   23.34
   4   8   1   44.23   10.37
  -4  -8  -1   31.40   11.33
   4  -8   1   33.63   11.09
  -4   8  -1   30.22   11.08
   4   8   2   -2.33    4.42
  -4  -8  -2   -4.22    3.72
   4  -8   2   -3.22    3.28
   4   8   3   88.23   16.56
  -4  -8  -3  100.53   21.12
   4  -8   3   82.45   15.92
   4   8   4   26.14   10.11
  -4  -8  -4   23.34    9.59
   4  -8   4   29.74    9.66
   4   8   5   11.58    7.91
   4  -8   5   12.20    6.27
  -4  -8  -5   15.95    9.51
   4   8   6   -4.79    4.09
  -4  -8  -6   -0.87    5.15
   4  -8   6    1.18    3.52
   4   8   7   46.95   15.20
  -4  -8  -7   62.98   19.90
   4  -8   7   54.71   13.78
  -4   9   8   11.16    8.24
   4  -9  -8   12.87   10.09
  -4  -9   8   22.39   10.46
  -4   9   7   13.17    8.04
   4  -9  -7   20.72    9.96
  -4  -9   7   26.59   15.19
  -4   9   6   -0.19    2.62
   4  -9  -6    0.89    2.87
  -4  -9   6   -2.84   12.06
  -4   9   5    9.62    6.63
   4  -9  -5    4.11    3.64
  -4  -9   5    6.37    8.78
  -4  -9   4   -4.21    4.58
  -4   9   4    4.32    2.31
   4  -9  -4   -0.11    2.38
  -4   9   3   45.69   13.66
   4  -9  -3   44.08    8.76
   4   9  -3   34.70    8.33
  -4  -9   3   35.77   17.85
  -4   9   2   -2.01    3.03
   4   9  -2    0.21    1.76
  -4  -9   2   -1.60    3.61
  -4   9   1   23.83   10.59
   4   9  -1   29.30    8.80
  -4  -9   1    5.68    8.24
  -4  -9   0    3.24    3.53
   4   9   0    3.71    3.03
  -4   9   0    6.48    6.71
  -4   9  -1  258.00   36.35
  -4  -9  -1  337.61   37.73
   4   9   1  314.05   30.09
   4  -9   2    5.11    3.35
   4   9   2    2.31    2.01
  -4  -9  -3   -7.78    8.66
   4  -9   3    0.94    2.85
   4   9   3    3.86    3.82
  -4  -9  -4    8.27    7.43
   4  -9   4    3.26    3.66
   4   9   4    1.56    1.88
  -4  -9  -5   86.17   22.62
   4  -9   5   83.01   17.26
   4   9   5   69.57   16.95
  -4  -9  -6   -6.17    9.13
   4  -9   6   -2.25    3.83
   4   9   6   -6.56    6.29
  -4  -9  -7    9.21    6.01
   4  -9   7   -5.39    5.09
   4   9   7   -2.42    6.05
  -4  10   7   -4.24    4.37
   4 -10  -7    4.89    6.09
  -4 -10   7   -2.28   11.83
  -4  10   6   -1.78    4.61
   4 -10  -6   -0.22   21.87
  -4 -10   6   -3.31    3.62
  -4  10   5   84.16   20.82
   4 -10  -5   70.37   15.24
  -4 -10   5   42.46   22.16
  -4  10   4   -1.09    3.04
   4 -10  -4    1.21    2.87
  -4  10   3    2.56    0.79
   4  10  -3   -2.48    1.94
  -4 -10   3    0.78    5.68
  -4  10   2   10.85    7.41
   4  10  -2    4.78    4.29
  -4 -10   2    7.24   10.89
  -4  10   1   52.82   20.08
   4  10  -1   90.65   15.64
  -4 -10   1   72.29   20.14
  -4 -10   0    9.50    5.60
   4  10   0   14.22    6.88
  -4  10   0   19.01   12.11
  -4 -10  -1   21.53   10.07
   4  10   1   24.17    8.95
  -4  10  -1   31.93   11.76
  -4 -10  -2   32.45   14.90
   4 -10   2   17.12    8.38
   4  10   2   15.30    6.94
  -4  10  -2   13.62    8.38
  -4 -10  -3   85.61   20.30
   4 -10   3   99.86   20.21
   4  10   3   71.66   16.55
  -4 -10  -4   10.34    6.18
   4 -10   4    2.15    3.91
   4  10   4   -2.72    4.93
  -4 -10  -5    8.26    5.53
   4 -10   5   12.51    7.49
   4  10   5   14.67    9.30
   4 -10   6    6.08    4.52
   4  10   6   -3.06    5.77
  -4 -10  -6   15.39   10.73
  -4  11   7    2.12    6.74
   4 -11  -7   16.05    8.26
  -4 -11   7    6.69    5.41
  -4  11   6   -2.91    5.49
   4 -11  -6    7.83    5.76
  -4 -11   6  -12.79   13.90
  -4  11   5    2.65    1.94
  -4 -11   5   -6.95    8.52
  -4  11   4    3.34    4.08
  -4 -11   4    7.72    8.76
   4  11  -3    1.59    1.94
  -4 -11   3   -2.27    2.31
  -4  11   2   13.19   11.05
   4  11  -2    9.16    5.13
  -4 -11   2    5.18    6.57
  -4  11   1    7.70    9.02
   4  11  -1   -0.46    1.44
  -4 -11   1    8.71    8.23
  -4  11   0   32.67   12.21
  -4 -11   0   29.65   12.28
   4  11   0   25.69   10.18
  -4 -11  -1   12.16    7.87
   4  11   1   22.57    8.80
  -4  11  -1    8.24    7.32
  -4 -11  -2   10.36   10.09
   4 -11   2    7.20    4.80
   4  11   2    3.29    5.25
  -4  11  -2   -0.84    3.66
  -4 -11  -3   -8.01    9.41
   4  11   3   -2.14    0.93
   4 -11   3    0.18    2.35
   4 -11   4   22.90   10.29
  -4 -11  -4   26.01   11.06
   4  11   4   30.59   11.73
  -4 -11  -5   12.80    6.63
   4 -11   5   25.04   10.67
   4  11   5   14.46    8.88
  -4  12   6   12.55    6.69
  -4  12   5    2.28    4.55
  -4 -12   5    5.23    5.81
  -4  12   4    9.03   10.26
  -4 -12   4   -7.72    9.00
  -4  12   3    7.21    8.33
  -4 -12   3    4.96    2.98
  -4  12   2   23.14   10.12
   4  12  -2   19.61    8.42
  -4 -12   2   13.62   11.40
  -4  12   1    7.24    7.07
   4  12  -1    1.07    4.13
  -4 -12   1    9.09    7.41
  -4  12   0   52.19   17.66
  -4 -12   0   71.93   19.99
   4  12   0   47.10   15.40
  -4 -12  -1   -9.48    8.54
   4  12   1   -0.59   17.92
  -4  12  -1   -8.28    7.26
  -4 -12  -2   12.78   10.41
   4 -12   2    4.30    2.97
   4  12   2    7.52    5.47
  -4  12  -2    7.95    4.91
  -4 -12  -3   30.09   14.74
   4 -12   3   12.55    7.81
   4  12   3    6.77    5.88
  -4 -12  -4   15.74    7.53
   4 -12   4    6.51    5.60
   4  12   4   11.93    7.13
  -4  13   4   12.38    6.87
  -4 -13   4   -1.39    7.05
  -4  13   3   -5.75    6.01
  -4 -13   3    2.99    8.10
  -4  13   2    9.89    7.04
   4  13  -2   -2.78    3.98
  -4 -13   2    8.11   11.10
  -4  13   1    3.07    2.52
   4  13  -1   -4.07    5.62
  -4 -13   1   -0.82    2.89
  -4 -13   0    0.16    7.01
  -4  13   0   -6.71    7.08
   4  13   0   -1.80    5.25
  -4 -13  -1    6.74    7.28
   4  13   1    6.02    4.35
  -4  13  -1    1.94    3.87
  -4 -13  -2   14.07    9.90
   4  13   2   16.87    9.47
  -4  13  -2   14.06    9.71
   4 -13   2   19.74    9.89
  -4 -13  -3   18.70   11.56
   4 -13   3   34.27   14.41
   4  13   3   -0.19    3.22
  -4  14   2    3.91    7.97
  -4 -14   2   -6.03    5.53
   4  14  -1   -2.88    1.75
  -4 -14   1    1.30    5.02
  -4  14   0   -0.87    4.15
   4  14   0    2.36    5.52
  -4 -14   0  -12.17    8.53
   5   0 -10   -7.40    4.52
   5   0  -9   33.03   12.43
   5   0  -8   -3.57    4.48
  -5   0   7   -9.03   17.11
  -5   0   6  -11.91   13.13
   5   0  -5   41.43    7.15
  -5   0   5   37.18   15.85
  -5   0   4  -10.85    6.14
   5   0  -4    0.42    1.36
   5   0  -3  224.39   18.21
  -5   0   3  251.86   34.64
   5   0  -2    1.17    1.97
  -5   0   2   -2.98    6.73
   5   0  -1   29.42    7.33
  -5   0   1   12.95   12.49
   5   0   0    3.07    2.62
  -5   0   0    5.23    3.42
  -5   0  -1   48.87   11.96
   5   0   1   34.98    8.58
  -5   0  -2    0.26    2.21
   5   0   2   -5.46    4.27
  -5   0  -3  145.08   21.33
   5   0   3  132.53   19.03
  -5   0  -4   -9.80    7.28
   5   0   4   -1.81    2.26
  -5   0  -5   74.41   16.18
   5   0   5   59.02   14.11
  -5   0  -6   -0.11    2.72
   5   0   6   -2.35    3.74
  -5   0  -7   65.00   17.51
   5   0   7   60.53   15.91
  -5   0  -8   -9.05    6.59
   5   0   8   -2.55   21.16
   5  -1 -10    1.97    2.36
   5   1 -10   13.76    8.27
   5  -1  -9   13.96   10.51
   5   1  -9    1.53    2.90
   5  -1  -8    7.64    9.16
   5   1  -8   23.41   11.99
   5  -1  -7   51.04   19.27
  -5  -1   7   71.42   29.34
  -5   1   6   61.48   25.80
  -5  -1   6   66.59   22.46
   5  -1  -5  195.04   16.00
  -5   1   5  229.99   42.90
  -5  -1   5  217.72   37.70
   5   1  -4   -0.86    1.27
   5  -1  -4    1.23    1.51
  -5   1   4   -0.83    4.69
  -5  -1   4   -0.98    4.24
   5  -1  -3   78.97   11.42
  -5   1   3   30.50   17.82
  -5  -1   3   79.16   20.93
   5   1  -3   76.16    9.94
   5  -1  -2  177.31   16.93
  -5  -1   2  195.73   29.29
   5   1  -2  187.64   16.85
   5   1  -1   26.50    7.54
   5  -1  -1   32.36    7.53
  -5   1   1   30.52    9.10
  -5  -1   1   24.68   10.98
   5   1   0   20.41    6.10
   5  -1   0   19.28    5.87
  -5   1   0   17.45    6.94
  -5  -1   0   19.27    8.43
  -5  -1  -1  129.34   19.58
   5  -1   1  104.86   14.89
   5   1   1  121.98   16.48
  -5   1  -1  100.08   16.54
  -5   1  -2  342.94   30.57
  -5  -1  -2  322.85   32.71
   5   1   2  305.36   27.25
   5  -1   2  301.94   26.83
  -5   1  -3  345.83   34.69
  -5  -1  -3  395.46   36.23
   5   1   3  374.79   32.53
   5  -1   3  356.79   30.80
   5  -1   4   62.90   13.13
  -5   1  -4   78.74   16.09
  -5  -1  -4   68.33   14.85
   5   1   4   50.22   12.30
  -5   1  -5   15.73    7.58
  -5  -1  -5   11.77    7.09
   5   1   5   16.93    9.25
   5  -1   5   15.42    7.79
  -5   1  -6    6.02    4.12
  -5  -1  -6    3.58    4.13
   5   1   6    0.27    3.81
   5  -1   6    4.22    3.55
  -5   1  -7   15.29    8.39
  -5  -1  -7   23.14   11.16
   5   1   7   23.22    9.80
   5  -1   7   25.83   10.21
  -5  -1  -8    1.88    2.16
   5   1   8    4.39    4.70
   5  -1   8    3.59    4.67
   5  -2 -10   -1.17    4.87
   5   2 -10   -0.24    3.41
   5  -2  -9   43.20   15.44
   5   2  -9   10.66   12.41
   5  -2  -8    2.78    6.34
  -5  -2   8  -13.30   12.33
   5  -2  -7   -1.90    4.95
  -5  -2   7    9.63   11.64
   5  -2  -6   33.33    6.52
  -5   2   6   13.20   17.08
  -5  -2   6    4.29   11.82
   5  -2  -5   63.19    9.61
  -5  -2   5   92.58   22.65
   5  -2  -4  302.23   21.85
  -5   2   4  282.07   45.38
  -5  -2   4  219.29   36.15
   5   2  -4  275.42   17.63
   5  -2  -3  183.23   18.18
  -5   2   3  171.75   36.28
   5   2  -3  196.60   15.92
  -5  -2   3  163.86   26.72
   5  -2  -2   38.79    8.16
  -5   2   2   37.90   13.39
   5   2  -2   42.16    8.11
  -5  -2   2   38.41   11.38
   5  -2  -1   35.18    8.64
   5   2  -1   43.35    8.32
  -5  -2   1   23.28   10.81
   5  -2   0  131.17   16.09
  -5   2   0   33.93   22.34
   5   2   0  122.15   15.41
  -5  -2   0   63.33   21.25
   5  -2   1  113.29   15.94
  -5   2  -1  113.37   19.45
  -5  -2  -1  142.60   21.71
   5   2   1  127.80   16.65
  -5   2  -2    1.78    3.62
  -5  -2  -2    2.51    5.53
   5  -2   2   -3.15    3.53
   5   2   2   -4.00    5.16
  -5   2  -3    3.09    2.83
  -5  -2  -3    2.74    2.14
   5  -2   3    0.30    1.85
   5   2   3    5.76    3.38
  -5   2  -4  247.76   28.66
  -5  -2  -4  272.91   31.64
   5   2   4  285.07   30.32
   5  -2   4  285.94   28.52
   5  -2   5   27.70    8.82
  -5   2  -5   24.91    8.39
  -5  -2  -5   29.27   10.06
   5   2   5   28.26    9.60
  -5   2  -6   -3.62    4.12
  -5  -2  -6   -1.35    4.72
   5   2   6    1.79    2.25
   5  -2   6   -0.71    2.98
  -5   2  -7   10.01    6.10
  -5  -2  -7    0.68    4.71
   5   2   7    9.71    7.24
   5  -2   7    2.65    2.84
  -5  -2  -8   73.83   19.77
   5   2   8   68.02   17.64
   5  -2   8   84.56   19.10
   5  -3 -10   13.40    9.18
   5   3 -10   13.87    9.05
   5  -3  -9   -3.03    3.38
   5   3  -9    3.40    4.94
   5  -3  -8   15.47    8.84
  -5  -3   8   11.82   11.15
   5  -3  -7   -3.29    3.72
  -5  -3   7   -6.98   10.96
   5  -3  -6   41.57    8.65
   5  -3  -6   27.39   10.11
  -5  -3   6   54.54   21.53
  -5   3   6   24.75    9.79
   5  -3  -5   12.98    4.66
  -5   3   5    6.95   10.90
  -5  -3   5    4.70    8.77
  -5   3   5   11.43    5.75
   5   3  -4    1.89    2.17
  -5   3   4   12.95   11.40
   5  -3  -4    2.44    3.10
  -5  -3   4    0.36    5.11
   5  -3  -3    0.05    1.19
   5   3  -3   -0.27    0.81
  -5   3   3   -4.95    6.79
  -5  -3   3   -2.13    6.55
   5  -3  -2  144.84   16.97
  -5   3   2  170.46   29.87
   5   3  -2  129.68   14.06
   5  -3  -1    0.83    2.94
   5   3  -1   -2.10    1.31
  -5   3   1   -1.85   21.26
  -5  -3   1    6.41    6.86
  -5  -3   0   43.92   16.29
   5  -3   0   76.28   12.97
   5   3   0   80.13   12.50
  -5   3   0   43.18   13.43
  -5  -3  -1   23.81    9.50
   5   3   1   19.25    6.64
  -5   3  -1   13.57    8.00
   5  -3   1   19.87    6.70
   5  -3   2  662.00   40.17
  -5   3  -2  580.43   38.72
  -5  -3  -2  620.96   48.96
   5   3   2  670.99   41.11
  -5   3  -3   23.13    7.13
  -5  -3  -3   12.48    5.73
   5  -3   3   16.78    5.90
   5   3   3   11.34    5.14
  -5   3  -4   93.89   16.26
  -5  -3  -4   87.48   19.85
   5  -3   4   97.00   16.41
   5   3   4   98.70   18.30
  -5   3  -5   11.83    6.45
  -5  -3  -5    8.63    5.82
   5  -3   5   15.91    7.42
   5   3   5    9.15    4.55
   5  -3   6   51.41   13.19
  -5  -3  -6   51.46   14.60
   5   3   6   48.33   13.12
  -5  -3  -7   31.00   13.19
   5   3   7   16.66    8.83
   5  -3   7   34.14   11.79
  -5  -3  -8   14.44    9.10
   5   3   8    8.40    6.23
   5  -3   8   23.93    9.94
   5  -4  -9   27.68   12.57
   5   4  -9   19.45   10.48
   5  -4  -8   23.78   10.41
  -5  -4   8    8.79    5.40
   5  -4  -7   -2.84    5.61
  -5  -4   7   10.87   12.15
  -5   4   7    6.90    5.32
   5  -4  -6   14.50    4.31
  -5  -4   6   26.60   17.35
  -5   4   6   24.65    8.76
   5  -4  -5   80.75   16.50
  -5  -4   5   82.41   23.00
  -5   4   5   78.86   15.07
   5  -4  -4  474.45   31.32
  -5   4   4  371.44   38.45
  -5   4   4  321.73   56.68
  -5  -4   4  451.07   47.65
   5   4  -4  455.02   21.82
   5  -4  -3   51.85   10.47
  -5   4   3   91.64   28.99
   5   4  -3   63.95    9.66
  -5   4   3   18.42   14.30
  -5  -4   3   43.21   15.08
   5   4  -2   -0.21    0.97
   5  -4  -2    3.10    2.87
  -5   4   2   -0.59    3.65
  -5  -4   2   -3.11    5.06
   5  -4  -1   78.05   13.44
   5   4  -1   87.38   12.17
  -5   4   1   79.95   19.50
  -5  -4   1   59.72   20.98
   5  -4   0  348.36   28.73
  -5  -4   0  386.73   37.60
   5   4   0  328.00   25.34
  -5  -4  -1    0.05    2.67
   5  -4   1    3.54    3.50
   5   4   1    8.79    4.71
  -5   4  -1    4.18    3.92
  -5  -4  -2  147.78   23.79
   5  -4   2  119.35   17.82
   5   4   2  122.26   18.09
  -5  -4  -3   55.12   16.47
   5   4   3  103.62   17.32
   5  -4   3   88.84   15.79
  -5   4  -3   52.48   10.85
   5  -4   4  127.29   19.55
  -5  -4  -4  116.99   22.27
   5   4   4  125.02   20.83
  -5  -4  -5    4.34    5.16
   5  -4   5    7.41    5.60
   5   4   5    0.73    4.68
  -5  -4  -6    6.47    5.32
   5  -4   6    6.18    5.56
   5   4   6    8.53    6.38
   5  -4   7   70.17   16.57
  -5  -4  -7   55.50   20.09
   5   4   7   78.99   19.40
   5  -5  -9   -6.84    4.27
  -5  -5   9   17.83   19.30
   5  -5  -8    5.52    6.00
  -5  -5   8   16.35   17.70
  -5   5   7   12.91    6.68
   5  -5  -7   21.14    9.09
  -5  -5   7    6.41    2.48
   5  -5  -6    3.40    5.51
  -5  -5   6    8.77    9.32
  -5   5   6    4.04    4.25
   5  -5  -5   14.79    6.93
  -5  -5   5   28.40   13.27
  -5   5   5   17.13    8.08
   5  -5  -4   16.22    7.60
  -5  -5   4   22.22   10.51
  -5   5   4   10.82    8.71
   5   5  -3   27.04    6.42
  -5   5   3    5.57    9.36
  -5  -5   3   20.77   14.23
  -5   5   3    5.32   10.19
   5  -5  -2  207.06   23.58
  -5   5   2  231.75   29.36
  -5  -5   2  197.76   29.62
   5   5  -2  213.92   18.92
   5   5  -1   37.36    8.40
   5  -5  -1   34.65    9.63
  -5   5   1   11.18    9.41
  -5  -5   1   24.14   10.95
  -5  -5   0   -3.13    6.08
   5  -5   0   -1.72    2.60
   5   5   0    0.17    0.67
  -5   5   0    3.38    3.64
   5  -5   1  274.49   27.28
  -5  -5  -1  283.50   32.55
   5   5   1  267.53   24.86
  -5  -5  -2   92.58   22.47
   5  -5   2   77.19   14.56
   5   5   2   76.94   13.84
   5  -5   3  172.27   22.24
   5   5   3  184.09   23.16
   5   5   4    3.88    4.87
   5  -5   4   -1.72    1.85
  -5  -5  -5   21.16   12.43
   5   5   5   59.19   15.17
   5  -5   5   53.98   13.28
  -5  -5  -6  116.72   25.86
   5  -5   6  120.73   20.84
   5   5   6  115.28   22.48
   5  -5   7   13.42    7.00
  -5  -5  -7    7.98    6.94
   5   5   7   27.23   12.25
   5  -6  -9   18.79   11.47
  -5  -6   9   12.21    8.19
   5  -6  -8   -3.00    2.65
  -5  -6   8    6.11    7.67
  -5   6   7    1.17    1.12
   5  -6  -7    3.86    4.55
  -5  -6   7   -0.55    6.25
  -5   6   6   21.62    8.97
   5  -6  -6   22.84    8.99
  -5  -6   6   -0.34    7.89
  -5   6   5   62.75   14.64
   5  -6  -5   81.03   14.95
  -5  -6   5   48.91   18.43
   5  -6  -4   16.65    5.29
  -5  -6   4   19.23    8.98
  -5   6   4   24.55   12.19
  -5   6   3  196.04   30.37
  -5  -6   3  174.28   32.01
   5   6  -3  221.38   18.37
   5  -6  -3  211.92   21.93
   5   6  -2    2.74    2.34
   5  -6  -2    3.63    3.80
   5  -6  -2   -2.74    2.67
  -5   6   2   -0.57    4.98
  -5  -6   2    1.41    1.68
   5   6  -1   35.67    8.44
   5  -6  -1   29.83    9.43
  -5   6   1   23.27   11.26
  -5  -6   1   20.83   12.74
  -5  -6   0   -3.17    4.58
   5   6   0    0.46    1.67
   5  -6   0   -0.11    1.08
  -5  -6  -1  103.09   20.47
   5   6   1  100.78   15.62
   5  -6   1   98.67   16.67
  -5  -6  -2   37.72   14.12
   5   6   2   17.59    6.44
   5  -6   2   16.61    7.15
  -5  -6  -3    2.34    5.45
   5  -6   3    8.46    5.26
   5   6   3   -2.76    4.97
  -5  -6  -4    3.25    6.18
   5   6   4    9.45    6.13
   5  -6   4   -1.16    5.37
  -5  -6  -5    3.72    4.91
   5   6   5    6.83    6.48
   5  -6   5    2.00    2.30
  -5  -6  -6   56.31   17.83
   5   6   6   89.37   19.50
   5  -6   6   62.31   14.85
  -5  -6  -7   41.89   16.57
   5   6   7   40.58   15.14
   5  -6   7   29.67   10.49
   5  -7  -8    6.57    6.26
  -5  -7   8    2.92   12.38
  -5   7   7   27.78   11.06
   5  -7  -7   23.77    8.42
  -5  -7   7   35.89   19.98
  -5   7   6    3.62    4.35
   5  -7  -6    3.98    4.65
  -5  -7   6    8.41    9.46
  -5   7   5   21.51    9.60
   5  -7  -5   16.26    7.85
  -5  -7   5   11.96    1.57
  -5   7   4   18.53    8.91
   5  -7  -4    8.65    4.22
  -5  -7   4    8.43    7.25
  -5   7   3  178.21   26.76
   5   7  -3  166.48   16.87
   5  -7  -3  161.77   18.22
   5   7  -2    2.03    2.24
   5  -7  -2    3.08    2.82
  -5   7   2    0.06    3.07
  -5  -7   2    2.05    2.95
   5   7  -1   90.27   14.04
   5  -7  -1   64.20   13.87
  -5   7   1   87.57   19.52
  -5  -7   1   73.25   16.75
   5  -7   0  304.93   30.76
  -5  -7   0  299.57   38.14
   5   7   0  300.15   26.53
  -5  -7  -1   12.21    3.53
   5   7   1    6.62    4.09
   5  -7   1   12.53    6.95
   5  -7   2  229.94   27.17
  -5  -7  -2  200.59   30.62
   5   7   2  197.35   24.13
  -5  -7  -3   32.65   12.93
   5   7   3   39.42   12.16
   5  -7   3   38.93   11.32
   5  -7   4    3.97    2.29
  -5  -7  -4   -1.66    4.48
   5   7   4    6.84    5.76
  -5  -7  -5   94.92   23.66
   5   7   5  121.08   22.95
   5  -7   5  103.33   19.27
  -5  -7  -6   39.57   15.82
   5   7   6   35.09   13.03
   5  -7   6   30.44   10.87
   5  -8  -8    4.08    5.32
  -5  -8   8   -2.76   13.16
  -5   8   7   -0.06    0.53
  -5  -8   7    0.16    1.32
  -5   8   6    5.57    4.15
   5  -8  -6  -11.35    7.27
  -5  -8   6   12.89   10.16
  -5   8   5    0.64    2.42
   5  -8  -5   -4.48    4.22
  -5  -8   5   -0.10    2.41
  -5   8   4   38.25   16.23
   5  -8  -4   66.30   13.21
  -5  -8   4   60.52   20.34
  -5   8   3    6.34    7.96
   5  -8  -3   -0.93    0.99
   5   8  -3    1.22    1.03
  -5  -8   3    4.90    5.75
   5   8  -2   -0.15    1.28
  -5   8   2   -0.06    4.41
  -5   8   1   25.21    9.61
   5   8  -1   41.69    9.92
  -5  -8   1   25.67   11.31
  -5  -8   0   41.32   15.14
   5   8   0   34.60    8.97
  -5   8   0   49.55   16.82
   5  -8   0   29.40    9.90
  -5  -8  -1   24.79   11.81
   5   8   1    8.88    5.14
   5  -8   1   11.95    6.74
  -5  -8  -2    9.71    7.42
   5   8   2    6.01    4.00
   5  -8   2    5.22    3.55
  -5  -8  -3   37.32   14.03
   5   8   3   21.14    8.36
   5  -8   3   31.65   10.77
  -5  -8  -4    5.41    5.40
   5   8   4   15.43    8.34
   5  -8   4    6.93    3.22
   5   8   5   85.78   20.32
  -5  -8  -5   97.14   23.15
   5  -8   5   93.13   18.45
   5   8   6    9.79    5.88
  -5  -8  -6    3.52    3.27
   5  -8   6   18.61    7.44
  -5   9   7   -5.48    6.22
   5  -9  -7   -1.12    5.02
  -5  -9   7    9.01   10.07
  -5   9   6    7.12    6.54
   5  -9  -6   14.45    7.86
  -5  -9   6   13.38   13.40
   5  -9  -5   -0.58    1.83
  -5  -9   5    1.63    8.81
   5  -9  -4    5.16    1.91
  -5  -9   4    0.38    3.97
   5   9  -3   -1.73    1.07
  -5  -9   3   -2.85    5.95
  -5   9   2  205.51   31.60
   5   9  -2  192.54   21.95
  -5  -9   2  166.52   34.08
   5   9  -1  101.04   17.00
  -5   9   1   63.38   20.64
  -5  -9   1   68.12   19.92
  -5  -9   0   -6.24    6.41
   5  -9   0   -2.66    4.17
  -5   9   0   -3.08    4.17
   5   9   0   -1.12    1.32
  -5  -9  -1  194.96   29.64
   5  -9   1  216.18   27.05
   5   9   1  182.36   23.52
   5   9   2   33.62   10.24
  -5  -9  -2   51.04   16.44
   5  -9   2   41.98   13.06
   5   9   3   11.59    7.72
  -5  -9  -3    9.46    4.82
   5  -9   3    7.64    5.05
   5   9   4    7.22    4.92
  -5  -9  -4   -7.80    8.87
   5  -9   4   10.23    6.62
   5   9   5    3.00    1.30
  -5  -9  -5    2.52    1.44
  -5  10   7   -0.70    4.68
   5 -10  -7    1.37    1.21
  -5  10   6    8.04    8.19
   5 -10  -6    5.52    5.86
  -5 -10   6   11.24   11.42
  -5  10   5    1.34    6.20
  -5 -10   5    0.12    2.17
  -5  10   4   -2.75    2.45
  -5 -10   4   -2.06    5.46
  -5  10   3   -6.39    3.95
  -5 -10   3    6.48    7.54
   5  10  -2   94.83   15.95
  -5 -10   2   94.85   25.85
  -5  10   2   96.69   22.59
   5  10  -1   34.67   10.26
  -5  10   1   33.85   14.84
  -5 -10   1   12.52   10.05
  -5 -10   0  134.81   27.06
   5 -10   0  130.73   22.40
   5  10   0  138.61   21.59
  -5  10   0  105.98   24.61
  -5 -10  -1    0.07    4.13
   5 -10   1    1.28    3.36
   5  10   1    4.57    3.52
  -5 -10  -2    3.40    1.77
   5  10   2    0.74    0.58
  -5 -10  -3   20.01   12.11
   5 -10   3   10.92    6.80
   5  10   3    9.94    7.23
   5 -10   4  254.60   33.57
  -5 -10  -4  233.67   37.69
   5  10   4  223.80   31.69
   5 -10   5    5.07    5.78
  -5 -10  -5    3.97    3.98
   5  10   5   -0.41    3.93
  -5  11   6   -3.08    2.83
  -5 -11   6   -7.03   12.67
  -5  11   5    3.03    2.59
  -5 -11   5   -3.44    6.45
  -5  11   4    4.82    5.39
  -5 -11   4  -22.83   15.59
  -5  11   3   18.04   14.23
  -5 -11   3   26.04   16.04
   5  11  -2   41.05   12.01
  -5 -11   2   30.26   20.38
  -5  11   2   60.73   20.31
   5  11  -1   14.87    8.33
  -5  11   1   -0.32    8.65
  -5 -11   1    2.12    3.98
  -5 -11   0   19.02   13.44
   5  11   0   27.43    9.20
  -5  11   0   18.08   10.21
  -5 -11  -1    1.66    3.59
   5  11   1   -4.71    6.20
  -5  11  -1   -7.40    8.54
   5 -11   1    5.82    5.44
  -5 -11  -2   -3.25    3.87
   5 -11   2   -1.40    2.26
   5  11   2    3.26    4.44
  -5 -11  -3    4.38    6.09
   5  11   3    0.89    5.36
   5 -11   3   -0.06    3.11
   5 -11   4    0.86    3.20
   5  11   4    8.96    8.73
  -5  12   4    0.95    5.90
  -5 -12   4  -10.15    9.63
  -5  12   3   -5.66   31.64
  -5 -12   3    0.82    3.79
  -5  12   2    3.48    7.11
  -5 -12   2    7.51    8.57
   5  12  -1   69.28   16.07
  -5  12   1   68.90   21.20
  -5 -12   1   26.17   18.12
  -5 -12   0    4.18    8.18
   5  12   0   -2.92    3.20
  -5  12   0   -1.72    3.09
  -5 -12  -1   -3.82    4.83
   5 -12   1    0.13    3.55
   5  12   1    2.17    3.91
  -5  12  -1    5.87    9.14
  -5 -12  -2    5.67    6.18
   5  12   2   10.59    7.93
   5 -12   2    7.53    5.35
  -5  13   2   -4.89    7.53
  -5 -13   2    4.26    9.25
   5  13  -1    5.38    5.64
  -5 -13   1    4.37   11.57
  -5  13   1    8.03    7.18
   5  13   0    1.34    2.93
  -5  13   0    0.99    2.71
  -5 -13   0    5.77    3.98
   6   0  -9  -12.43    9.39
   6   0  -8  114.49   24.29
  -6   0   7   10.09    7.64
  -6   0   6   88.24   30.27
  -6   0   5    3.94    4.90
   6   0  -4   12.65    4.40
  -6   0   4   13.30    5.91
   6   0  -3   -1.55    3.07
  -6   0   3   -1.25    5.74
   6   0  -2   83.77   12.91
  -6   0   2   65.73   26.01
   6   0  -1    1.34    0.91
  -6   0   1    3.03    2.88
   6   0   0    7.42    3.17
  -6   0   0    2.67    6.17
   6   0   1   -2.87    4.04
  -6   0  -1   -2.21    2.31
  -6   0  -2   12.21    7.27
   6   0   2   18.30    6.42
  -6   0  -3    0.77    3.58
   6   0   3    0.88    2.18
  -6   0  -4   64.85   18.31
   6   0   4  107.63   19.21
  -6   0  -5   -0.06    4.00
   6   0   5   -0.43    0.44
  -6   0  -6   65.98   19.47
   6   0   6   95.28   20.01
  -6   0  -7    0.98    3.40
   6   0   7    0.93    4.87
   6  -1  -9    8.14    5.64
   6   1  -9    3.91    7.67
   6  -1  -8  -14.30   10.58
  -6  -1   8   15.14   18.44
  -6   1   7    3.89   12.94
  -6  -1   7   33.44   22.49
  -6   1   6   16.76   14.71
  -6  -1   6   32.32   20.02
   6  -1  -5   21.13    6.07
  -6   1   5   21.33   16.44
  -6  -1   5   23.24   12.76
   6  -1  -4  102.84   14.13
  -6   1   4   86.04   32.60
  -6  -1   4  146.87   31.13
   6   1  -4  131.22   14.86
   6  -1  -3  384.73   27.43
  -6   1   3  428.73   55.21
  -6  -1   3  411.32   48.58
   6   1  -3  446.39   28.28
   6  -1  -2  488.63   31.76
  -6  -1   2  400.40   46.72
   6   1  -2  470.79   30.15
   6  -1  -1  421.61   30.44
  -6  -1   1  359.73   43.37
   6   1  -1  447.07   30.88
   6   1   0   47.88   10.93
   6  -1   0   59.05   11.57
  -6   1   0   46.61   15.81
  -6  -1   0   61.10   17.34
   6  -1   1   11.14    5.87
   6   1   1   14.23    6.30
  -6   1  -1   11.25    6.18
  -6  -1  -1    3.02    3.25
  -6  -1  -2   90.41   19.58
   6  -1   2   76.43   15.14
   6   1   2   77.51   15.29
  -6   1  -2   65.93   15.18
  -6   1  -3   43.53   12.78
  -6  -1  -3   25.75   12.72
   6  -1   3   33.03    9.69
   6   1   3   26.84    8.85
  -6   1  -4   22.14    9.43
  -6  -1  -4   29.38   10.93
   6   1   4   17.43    7.68
   6  -1   4   23.97    8.99
  -6   1  -5   22.30   10.21
  -6  -1  -5   17.71    9.45
   6   1   5   11.53    7.55
   6  -1   5   11.80    6.01
  -6   1  -6   57.74   17.25
  -6  -1  -6   46.00   16.04
   6   1   6   78.36   17.45
   6  -1   6   82.42   18.51
  -6  -1  -7   36.55   14.84
   6   1   7   28.12   11.64
   6  -1   7   36.82   12.91
   6  -2  -9   24.03   11.89
   6   2  -9    5.83    6.12
   6  -2  -8    1.78    1.16
  -6  -2   8    1.26   11.17
   6  -2  -7  183.36   30.87
  -6  -2   7  116.15   36.30
  -6   2   6   12.02   18.52
  -6  -2   6   42.25   24.73
   6  -2  -5    6.22    3.19
  -6   2   5   -9.43    9.55
  -6  -2   5   20.59   16.47
   6  -2  -4   36.01    8.24
   6   2  -4   39.36    8.37
  -6   2   4   24.50   16.14
  -6  -2   4   29.05   13.92
   6  -2  -3   55.70   10.70
   6   2  -3   58.71   10.14
  -6   2   3   34.48   17.05
  -6  -2   3   29.24   15.80
   6   2  -2   30.72    7.59
  -6   2   2   20.34   13.43
   6  -2  -2   30.11    7.28
   6   2  -1   11.24    4.60
  -6   2   1    8.88    1.94
   6  -2   0  232.12   24.71
  -6   2   0  237.80   32.09
  -6  -2   0  248.00   34.60
   6   2   0  248.82   24.07
  -6  -2  -1   -0.19    2.06
   6  -2   1    1.24    1.55
   6   2   1   -0.48    2.73
  -6   2  -1   -2.07    0.91
  -6  -2  -2    2.76    3.34
   6  -2   2    4.84    4.84
   6   2   2   -2.81    3.64
  -6   2  -2    0.84    1.75
  -6   2  -3   21.99    9.23
  -6  -2  -3   35.71   12.11
   6  -2   3   27.69    8.93
   6   2   3   27.07    8.48
  -6   2  -4   67.46   15.63
  -6  -2  -4   39.12   15.58
   6  -2   4   74.52   15.51
   6   2   4   78.90   16.92
  -6   2  -5  109.22   20.37
  -6  -2  -5   97.37   22.07
   6   2   5  115.58   22.22
   6  -2   5  115.84   20.64
  -6  -2  -6   10.12    8.05
   6   2   6   31.05   12.33
   6  -2   6   26.80   10.76
  -6  -2  -7   -1.53    1.80
   6   2   7    2.19    4.58
   6  -2   7   -4.49    5.22
   6  -3  -9   23.58   12.80
  -6  -3   9  -11.02    6.85
   6  -3  -8   -5.16    7.25
  -6  -3   8   -3.88   15.12
   6  -3  -7   -1.60    2.89
  -6  -3   7    5.29    5.45
   6  -3  -6    4.73    5.55
   6  -3  -6    3.13    2.42
  -6  -3   6    5.56    1.03
   6  -3  -5   15.33    6.15
  -6   3   5   -1.74   11.81
  -6  -3   5   10.45    5.35
   6  -3  -4  140.32   17.69
  -6   3   4  157.70   37.98
   6   3  -4  178.85   17.66
  -6  -3   4  136.48   29.89
   6  -3  -3   18.54    6.05
   6   3  -3   11.07    4.02
  -6   3   3    4.00   11.88
  -6  -3   3   18.88    9.42
   6  -3  -2  275.15   26.48
  -6   3   2  181.12   42.42
  -6  -3   2  258.15   38.40
   6   3  -2  271.35   23.78
   6  -3  -1  457.55   33.80
  -6   3   1  333.08   49.10
  -6  -3   1  281.31   47.67
   6   3  -1  451.68   31.24
   6   3   0   45.10   10.54
   6  -3   0   41.04   10.63
  -6   3   0   15.04   13.65
  -6  -3   0   34.87   12.90
  -6  -3  -1   13.11    8.87
   6   3   1   26.93    8.01
   6  -3   1   20.11    7.40
  -6  -3  -2    2.36    4.95
   6  -3   2    2.02    3.03
   6   3   2   -3.35    5.81
  -6   3  -2    1.50    3.76
  -6  -3  -3   12.15    9.16
   6  -3   3    7.85    4.94
   6   3   3    9.08    4.90
  -6   3  -3    2.32    4.34
  -6   3  -4    4.97    5.11
  -6  -3  -4    9.19    7.28
   6  -3   4   -0.62    2.30
   6   3   4    0.42    4.01
  -6  -3  -5   -3.39    6.56
   6  -3   5    0.62    1.97
   6   3   5   -0.75    4.68
  -6  -3  -6    6.29    2.04
   6  -3   6    4.60    3.56
   6  -4  -9   10.53    9.48
  -6  -4   9   13.26   23.26
   6  -4  -8   68.46   18.08
  -6  -4   8   71.13   31.80
   6  -4  -7    0.07    2.87
  -6  -4   7  -18.57   15.71
   6  -4  -6   13.55    5.05
   6  -4  -6   10.12    6.01
   6  -4  -5  166.27   19.82
  -6   4   5  113.88   36.44
  -6  -4   5  153.46   33.68
   6  -4  -4    5.41    3.20
  -6  -4   4    6.11    4.04
   6   4  -3   57.11   10.59
  -6   4   3   49.45   19.79
   6  -4  -3   54.10   11.51
  -6  -4   3   44.45   14.95
   6   4  -2    2.19    1.96
   6  -4  -2    2.93    3.36
  -6   4   2    5.36    6.72
  -6  -4   2    0.94    4.49
   6  -4  -1  189.16   22.32
   6   4  -1  152.55   18.19
  -6   4   1  113.87   25.34
  -6  -4   1  180.72   30.27
   6  -4   0   50.63   12.32
   6   4   0   47.94   11.18
  -6   4   0   16.77   11.51
  -6  -4   0   23.55   15.02
   6  -4   1  188.44   23.08
  -6  -4  -1  207.97   33.94
   6   4   1  214.47   24.47
  -6  -4  -2   11.30    5.90
   6   4   2   17.90    7.69
   6  -4   2   11.38    5.21
  -6   4  -2    6.15    5.89
  -6  -4  -3   -2.07    2.77
   6   4   3    3.38    5.57
   6  -4   3   -0.50    2.26
   6  -4   4  140.37   21.69
  -6  -4  -4   78.68   24.22
   6   4   4  150.78   23.70
  -6  -4  -5   58.95   19.76
   6  -4   5   92.01   18.12
   6   4   5   88.66   19.70
   6  -4   6   45.27   13.10
  -6  -4  -6   18.54   14.30
   6   4   6   57.88   16.64
   6  -5  -8   10.96    9.30
  -6  -5   8    1.92    5.41
   6  -5  -7   30.78    9.89
  -6  -5   7   40.31   19.91
   6  -5  -6   21.79    8.50
   6  -5  -6   22.68    7.36
  -6  -5   6   10.51    1.74
  -6   5   6   19.19   10.49
   6  -5  -5   62.29   12.73
   6  -5  -5   62.76   13.94
  -6  -5   5   40.67   20.97
   6  -5  -4    3.50    1.03
   6  -5  -4    4.96    3.44
  -6  -5   4    8.60    9.04
   6   5  -3   56.07   10.66
   6  -5  -3   40.38   10.56
  -6   5   3   41.93   19.10
  -6  -5   3   20.45   17.88
   6   5  -2   76.44   12.94
  -6   5   2   44.92   18.04
  -6  -5   2   50.71   17.15
   6  -5  -2   73.75   14.02
   6   5  -1    9.95    5.51
   6  -5  -1   12.74    7.27
  -6   5   1    6.12    5.86
  -6  -5   1    2.55    7.05
   6   5   0   82.11   14.17
   6  -5   0   86.77   16.32
  -6   5   0   68.77   22.18
  -6  -5   0   58.33   21.61
  -6  -5  -1   31.21   12.35
   6  -5   1   35.36   10.86
   6   5   1   36.74   10.54
   6   5   2    2.15    4.90
   6  -5   2   -2.66    4.20
  -6  -5  -3   29.88   13.46
   6   5   3   16.99    8.03
   6  -5   3   22.46    8.21
  -6  -5  -4   14.74    9.99
   6   5   4    8.47    6.57
   6  -5   4    0.84    1.80
  -6  -5  -5   -7.84   10.14
   6  -5   5    4.69    2.66
   6   5   5    7.14    6.83
  -6  -5  -6   20.18   10.87
   6  -5   6   20.33    8.54
   6   5   6   33.91   12.68
   6  -6  -8   20.77   10.63
  -6  -6   8   25.92   17.17
   6  -6  -7    3.26    3.26
  -6  -6   7   10.88    6.98
   6  -6  -6    3.29    3.49
  -6  -6   6   23.63   14.37
  -6   6   6   14.48   10.43
   6  -6  -5   -1.24    2.38
   6  -6  -5    0.04    1.10
  -6  -6   5    5.92    6.71
  -6   6   5   -3.59    4.85
   6  -6  -4   44.37   10.88
   6  -6  -4   48.10   11.91
  -6   6   4   54.65   16.08
  -6  -6   4   27.97   13.46
   6  -6  -3   -2.81    4.94
   6   6  -3   -0.99    2.75
   6  -6  -3    4.69    3.25
  -6  -6   3   -6.10    5.63
   6   6  -2    2.47    3.94
   6  -6  -2   -1.40    3.55
  -6   6   2    0.49    3.80
  -6  -6   2    4.79    7.05
   6   6  -1   37.22    9.54
  -6   6   1   17.75   14.40
  -6  -6   1   37.90   15.09
   6  -6  -1   37.72   10.66
   6  -6   0  402.89   35.71
  -6  -6   0  360.42   42.96
   6   6   0  337.43   29.83
  -6  -6  -1    1.89    4.51
   6   6   1    6.25    4.26
   6  -6   1   -1.68    2.14
  -6  -6  -2   32.81   13.43
   6  -6   2   27.44    9.64
   6   6   2   26.90    8.69
  -6  -6  -3   63.75   19.40
   6   6   3   59.90   15.22
   6  -6   3   58.73   14.28
  -6  -6  -4   69.78   21.57
   6   6   4   87.42   19.11
   6  -6   4   50.79   13.66
  -6  -6  -5   45.62   17.35
   6   6   5   55.27   16.84
   6  -6   5   55.46   14.60
  -6  -6  -6   35.60   14.67
   6   6   6   36.44   12.92
   6  -6   6   28.59   10.94
   6  -7  -7    4.91    5.47
  -6  -7   7    6.72    9.70
   6  -7  -6   57.65   14.82
  -6  -7   6   50.33   23.88
  -6   7   6   55.40   16.37
   6  -7  -5   13.46    5.95
  -6  -7   5   15.30   12.21
  -6   7   5    0.47    5.29
   6  -7  -4    0.12    3.76
   6  -7  -4    1.53    1.97
  -6  -7   4    8.32   11.66
  -6   7   4   -3.15    2.46
   6  -7  -3    0.60    1.61
   6  -7  -3   -1.79    4.50
  -6   7   3   -0.94    3.39
  -6  -7   3    0.17    2.78
   6   7  -3   -1.78    2.33
   6   7  -2   11.12    5.41
  -6  -7   2    9.26    9.34
   6  -7  -2   17.80    6.90
   6   7  -1   81.49   14.55
   6  -7  -1   74.31   15.61
  -6  -7   1   74.01   22.04
   6   7   0   24.72    8.99
   6  -7   0   24.61    9.56
  -6  -7   0    5.12    8.49
  -6  -7  -1   -1.46    3.59
   6   7   1   -2.14    3.39
   6  -7   1    8.42    5.18
   6  -7   2  208.66   27.08
  -6  -7  -2  201.61   33.18
   6   7   2  192.86   25.29
  -6  -7  -3    5.73    6.86
   6   7   3   -2.00    4.67
   6  -7   3    3.91    4.24
  -6  -7  -4   37.27   15.81
   6   7   4   40.04   13.04
   6  -7   4   50.45   13.71
  -6  -7  -5   -9.07    7.01
   6   7   5   18.44   10.42
   6  -7   5   13.17    7.29
   6  -8  -7   25.15   11.55
  -6  -8   7    7.02   11.10
   6  -8  -6    2.94    4.83
  -6  -8   6   -9.38   10.06
  -6   8   6   -1.90    3.64
   6  -8  -5   11.11    7.06
  -6  -8   5   -2.62    7.74
  -6   8   5   13.51    9.78
   6  -8  -4    6.48    4.39
  -6  -8   4  -11.31   12.82
  -6   8   4    2.28    7.41
   6  -8  -3   36.42   10.51
  -6   8   3   31.60   14.08
  -6  -8   3   21.27   13.45
   6  -8  -2   10.19    6.68
  -6   8   2   -4.19    6.15
  -6  -8   2    9.18    8.94
   6   8  -2    3.94    1.43
   6   8  -1   17.62    7.82
   6  -8  -1   14.74    7.16
  -6  -8   1   16.92   13.15
   6   8   0    9.67    5.81
   6  -8   0    4.79    3.99
  -6  -8   0    6.15    3.21
  -6  -8  -1   91.32   25.07
   6   8   1   92.44   16.54
   6  -8   1   90.22   18.37
  -6  -8  -2   10.81    6.89
   6   8   2    8.53    4.34
   6  -8   2   16.55    7.44
  -6  -8  -3    5.30    7.25
   6   8   3   -3.56    3.75
   6  -8   3    6.83    5.53
  -6  -8  -4   11.71    9.30
   6   8   4    5.72    6.28
   6  -8   4    2.27    0.81
  -6  -8  -5   42.10   18.53
   6   8   5   36.79   14.07
   6  -8   5   35.24   11.42
  -6  -9   6  -10.57   12.82
  -6   9   6    6.65    7.82
  -6  -9   5   29.35   17.45
  -6   9   5   34.60   14.09
  -6  -9   4    2.62    7.62
  -6   9   4   -4.46    3.11
  -6   9   3    8.01    8.65
  -6  -9   3   12.46    9.42
   6  -9  -2    3.19    3.13
  -6   9   2    3.68    7.31
   6   9  -2    7.30    4.23
  -6  -9   2    3.40    4.88
   6  -9  -1   51.94   13.78
   6   9  -1   44.98   11.29
  -6  -9   1   24.99   13.62
   6   9   0    3.82    4.42
   6  -9   0    6.49    5.29
  -6  -9   0   -2.66    5.21
  -6  -9  -1   60.94   18.25
   6   9   1   65.62   14.86
   6  -9   1   65.80   15.98
  -6  -9  -2    8.69    8.97
   6   9   2    3.25    3.90
   6  -9   2    6.75    5.39
  -6  -9  -3   92.57   24.03
   6   9   3  108.71   20.79
   6  -9   3  108.12   21.15
  -6  -9  -4   12.60   12.04
   6   9   4   10.05    7.83
   6  -9   4   15.98    8.25
  -6 -10   5    4.57    6.03
  -6  10   5   10.30    8.07
  -6 -10   4    6.05    6.33
  -6  10   4    0.34    4.17
  -6 -10   3   27.29   16.20
  -6  10   3   27.78   13.97
   6 -10  -2    4.00    3.26
   6  10  -2    9.09    6.82
  -6  10   2    2.86    6.26
  -6 -10   2   21.02   11.52
   6 -10  -1   -2.92    4.77
  -6  10   1   -0.91    6.00
   6  10  -1    4.13    4.95
  -6 -10   1   -6.25    7.25
   6 -10   0   12.17    6.23
   6  10   0   19.72    8.40
  -6 -10   0   -0.27    3.34
  -6 -10  -1   18.99   13.08
   6 -10   1   14.08    5.46
   6  10   1   13.77    6.17
  -6 -10  -2    1.22   27.31
   6 -10   2   10.87    6.97
   6  10   2    1.88    2.63
  -6 -10  -3    5.98    6.51
   6 -10   3    5.51    5.58
   6  10   3    4.59    3.81
  -6 -11   4    1.97    6.55
  -6  11   4   -5.02    9.84
  -6 -11   3    2.22    7.14
  -6  11   3   -2.61    9.00
  -6  11   2    7.89    8.56
  -6 -11   2    5.94   10.52
   6 -11  -1    5.80    2.61
   6  11  -1    4.57    4.07
  -6  11   1    7.87   11.96
  -6 -11   1   15.93   11.03
   6 -11   0   -5.30    3.01
   6  11   0   -1.21    2.93
  -6 -11  -1    3.94    5.83
   6 -11   1   -5.11    4.82
   6  11   1    3.09    5.06
  -7   0   8   13.08   16.87
  -7   0   7   42.45   28.42
  -7   0   6    5.02   12.41
  -7   0   5   40.47   23.22
   7   0  -4    2.77    2.01
  -7   0   4   -2.54    1.00
  -7   0   3  436.13   55.81
   7   0  -3  475.57   33.09
   7   0  -2    0.27    0.94
  -7   0   2   -1.49    8.15
   7   0  -1   25.20    7.81
  -7   0   1   17.78   12.07
   7   0   0    1.07    4.00
  -7   0   0    0.78    6.52
  -7   0  -1  343.47   46.01
   7   0   1  462.24   37.52
   7   0   2    1.07    1.81
  -7   0  -2   -4.54    5.70
  -7   0  -3   88.98   21.46
   7   0   3   74.51   17.13
  -7   0  -4   -8.80    7.58
   7   0   4    2.59    4.95
  -7   0  -5   36.66   14.72
   7   0   5   34.09   11.69
   7  -1  -8   -9.34    9.18
  -7  -1   8    3.98    5.76
  -7   1   7   -7.84   17.19
  -7  -1   7    1.26   13.48
  -7   1   6   -7.29   13.68
  -7  -1   6  -11.31    7.02
  -7   1   5  114.99   42.10
  -7  -1   5   94.64   40.70
   7  -1  -4    1.85    0.97
  -7   1   4    1.44    5.32
  -7  -1   4    7.68   10.46
   7   1  -4    0.52    1.69
   7  -1  -3    2.44    3.38
  -7   1   3   16.77   14.15
  -7  -1   3    1.58    2.31
   7   1  -3    8.66    4.70
   7  -1  -2   -2.42    3.42
  -7   1   2  -11.68   10.60
  -7  -1   2  -10.01    7.85
   7   1  -2    3.94    4.48
   7  -1  -1   43.08   10.89
  -7   1   1   29.12   14.81
  -7  -1   1   20.99   13.14
   7   1  -1   49.02   11.17
   7  -1   0    3.66    4.06
  -7   1   0    8.55    8.77
   7   1   0   10.00    3.62
  -7  -1   0   18.17   12.29
   7  -1   1    0.56    0.95
   7   1   1   -1.17    1.61
  -7   1  -1    4.84    6.31
  -7  -1  -1    5.13    5.69
   7   1   2  106.90   19.14
   7  -1   2  117.85   20.06
  -7   1  -2   76.22   19.90
  -7  -1  -2   77.45   21.74
  -7  -1  -3  161.96   27.88
   7   1   3  165.81   24.66
   7  -1   3  159.59   24.09
  -7   1  -3  178.58   28.74
  -7   1  -4   16.87   10.38
  -7  -1  -4   24.59   11.98
   7   1   4   11.76    5.94
   7  -1   4   13.37    7.28
  -7  -1  -5    4.40    4.55
   7   1   5    5.26    2.95
   7  -1   5    8.55    5.95
   7  -2  -8   -5.28    6.06
  -7  -2   8   13.44   17.13
  -7   2   7    7.02   10.43
  -7  -2   7   15.69   12.09
  -7   2   6   -2.48    5.72
  -7  -2   6   17.91   16.70
   7  -2  -5    8.73    4.45
  -7   2   5    4.66   16.52
  -7  -2   5   17.26   11.71
   7  -2  -4  182.25   20.56
  -7   2   4  191.90   43.68
  -7  -2   4  122.53   35.51
   7  -2  -3    6.22    3.21
   7   2  -3   14.37    6.20
  -7   2   3   23.60   16.67
  -7  -2   3   -5.56    4.04
   7  -2  -2   91.27   15.11
   7   2  -2   92.26   15.08
  -7   2   2   95.36   26.13
  -7  -2   2   36.49   21.01
   7  -2  -1   21.80    7.98
   7   2  -1   21.89    7.04
  -7   2   1    9.47    5.01
  -7  -2   1    4.36    2.51
   7  -2   0   58.66   13.57
   7   2   0   75.10   14.73
  -7   2   0   54.92   18.10
  -7  -2   0   66.81   20.45
   7  -2   1   67.77   14.93
   7   2   1   71.92   14.71
  -7   2  -1   44.35   15.70
  -7  -2  -2  148.91   34.84
   7   2   2  190.71   25.33
  -7   2  -2  138.30   25.58
   7  -2   2  165.28   23.07
  -7  -2  -3   -8.15    6.48
   7  -2   3   -0.55    1.76
   7   2   3   -3.07    4.02
  -7   2  -3   -5.75    3.23
   7  -2   4    8.86    5.26
  -7  -2  -4    6.46    4.97
   7   2   4   16.70    8.99
  -7  -2  -5    8.98    8.23
   7   2   5   12.56    8.44
   7  -2   5   27.59   10.70
   7  -3  -8   -3.28    3.56
  -7  -3   8    6.18   10.14
   7  -3  -7    4.53    6.89
  -7  -3   7   -0.98    7.42
  -7   3   6   62.51   35.23
  -7  -3   6   42.74   22.49
   7  -3  -5    2.86    1.98
  -7   3   5    3.34    9.89
  -7  -3   5    0.74    9.42
   7  -3  -4  135.70   18.84
  -7   3   4  125.93   36.49
  -7  -3   4  117.14   30.45
   7   3  -3   12.44    5.93
  -7   3   3   -0.12    7.87
  -7  -3   3    4.45    9.50
   7  -3  -3    3.96    1.63
   7   3  -2   12.60    4.87
   7  -3  -2    6.96    4.08
  -7  -3   2    2.06    5.71
   7   3  -1   77.52   13.99
   7  -3  -1   85.50   15.83
  -7   3   1   77.78   25.08
  -7  -3   1   54.53   20.55
   7  -3   0   70.38   14.33
   7   3   0   72.55   14.48
  -7   3   0   69.86   21.69
  -7  -3   0   80.36   21.78
   7  -3   1   50.45   13.15
   7   3   1   53.80   12.89
  -7   3  -1   25.48   12.50
  -7  -3  -1   39.87   15.68
  -7  -3  -2   72.07   20.69
   7  -3   2   86.46   16.88
   7   3   2   89.76   17.98
  -7   3  -2   32.84   12.77
  -7  -3  -3   -1.53    5.46
   7  -3   3    3.50    1.68
   7   3   3    3.49    4.41
  -7  -3  -4   72.40   22.84
   7  -3   4   98.84   19.46
   7   3   4   91.90   20.38
   7  -3   5    4.05    4.59
  -7  -3  -5   -6.60    6.01
   7   3   5   -2.09    3.80
   7  -4  -7   -2.75    6.74
  -7  -4   7   -1.28    8.79
   7  -4  -6    1.69    5.22
  -7  -4   6   -2.39    2.33
   7  -4  -5   19.44    7.19
  -7   4   5    7.13   14.26
  -7  -4   5    0.60    2.83
   7  -4  -4   36.95   10.79
  -7   4   4   22.64   19.46
  -7  -4   4    0.63    8.05
   7  -4  -3   36.34   10.97
   7   4  -3   53.68   12.22
  -7   4   3   45.31   19.90
  -7  -4   3   24.52   17.71
   7  -4  -2    2.53    5.15
   7   4  -2   -1.43    2.92
  -7   4   2  -10.63   10.95
  -7  -4   2   -2.98    6.53
   7   4  -1    0.19   14.21
  -7   4   1   -2.57    1.93
   7  -4  -1   -4.17    4.20
  -7  -4   1    0.53    4.05
   7   4   0   79.39   15.03
   7  -4   0   72.60   15.41
  -7   4   0   30.44   17.25
  -7  -4   0   56.45   21.03
   7   4   1   67.45   15.04
   7  -4   1   73.39   15.70
  -7  -4  -1   57.23   20.12
  -7  -4  -2   26.75   13.40
   7  -4   2   39.31   12.14
   7   4   2   31.31   10.11
  -7  -4  -3    1.43    4.23
   7  -4   3    2.03    4.05
   7   4   3   -0.72    2.62
  -7  -4  -4   42.46   16.20
   7  -4   4   46.73   13.71
   7   4   4   54.31   14.40
  -7  -4  -5    3.49    6.25
   7  -4   5   13.32    6.98
   7   4   5   13.39    9.89
   7  -5  -7   10.46    8.54
  -7  -5   7    0.65    5.57
   7  -5  -6   12.90    6.33
  -7  -5   6   20.18   17.04
   7  -5  -5  178.09   23.80
   7  -5  -5  195.75   27.57
  -7  -5   5  188.93   40.73
   7  -5  -4    1.80    2.12
  -7   5   4   12.15    9.88
  -7  -5   4   -8.01    9.63
   7   5  -3   19.18    7.68
   7  -5  -3   19.43    7.97
  -7   5   3   14.29   11.28
  -7  -5   3    3.73    5.76
   7  -5  -2  131.08   21.54
  -7   5   2   80.63   27.60
   7   5  -2  138.57   19.89
   7  -5  -1   70.13   15.16
   7   5  -1   67.99   14.28
  -7   5   1   58.19   19.40
  -7  -5   1   53.41   18.38
   7   5   0   61.48   12.93
   7  -5   0   83.11   17.01
  -7  -5   0   42.82   21.00
   7   5   1   18.65    8.06
   7  -5   1   14.55    6.84
  -7  -5  -1   16.23    9.29
  -7  -5  -2   -1.24    6.13
   7  -5   2    0.16    3.66
  -7  -5  -3   81.68   22.21
   7   5   3  103.25   20.18
   7  -5   3   90.23   19.07
  -7  -5  -4    5.73    8.53
   7  -5   4    8.68    4.63
   7   5   4   12.25    8.41
   7  -6  -7    2.67    3.13
  -7  -6   7   20.93   11.19
   7  -6  -6    0.41    2.82
  -7  -6   6   13.51   12.79
   7  -6  -5   -5.39    5.61
   7  -6  -5   -3.00    3.86
  -7  -6   5   -5.70    6.89
   7  -6  -4    1.41    1.51
  -7  -6   4    8.15   10.22
   7  -6  -4   -0.60    2.60
   7  -6  -3   16.54    7.09
   7  -6  -3   35.70   11.33
  -7  -6   3   22.32   13.05
   7   6  -2    9.13    5.92
   7  -6  -2    0.10    0.99
  -7  -6   2    6.91    5.03
   7   6  -1    0.17    2.07
   7  -6  -1    3.29    3.60
  -7  -6   1    0.28    7.32
   7  -6   0    6.07    6.76
   7   6   0    4.33    5.14
  -7  -6   0    3.85    5.04
  -7  -6  -1   86.03   22.57
   7   6   1  129.70   20.88
   7  -6   1  106.20   19.32
  -7  -6  -2   -0.60    3.90
   7   6   2    1.16    3.46
   7  -6   2   -2.04    3.89
  -7  -6  -3    2.84    4.94
   7   6   3    7.51    6.34
   7  -6   3   15.92    7.01
  -7  -6  -4   -3.63    6.86
   7   6   4   -4.67    5.69
   7  -6   4    1.53    3.17
   7  -7  -6   26.80    9.93
   7  -7  -6   19.43    8.43
  -7  -7   6   28.43   19.14
   7  -7  -5   23.93    8.90
   7  -7  -5   29.89    9.94
  -7  -7   5    6.00    7.90
   7  -7  -4   38.98   12.46
  -7  -7   4   21.93   15.71
   7  -7  -3   42.17   12.14
  -7  -7   3    6.17   11.61
   7   7  -2    3.22    3.94
   7  -7  -2    2.01    0.93
  -7  -7   2    4.75    7.74
   7  -7  -1  137.11   23.07
   7   7  -1  137.32   20.59
   7   7   0   11.59    6.28
   7  -7   0    6.42    3.32
  -7  -7   0    6.24   12.27
  -7  -7  -1    5.66    6.77
   7  -7   1    6.13    4.11
   7   7   1    7.41    3.06
  -7  -7  -2    7.22    6.32
   7   7   2   12.97    7.24
   7  -7   2    3.06    2.30
  -7  -7  -3   34.43   15.71
   7   7   3   39.54   13.87
   7  -7   3   41.90   13.44
   7  -8  -5    1.19    1.25
  -7  -8   5   -1.72    1.10
   7  -8  -4   -0.29    3.36
  -7  -8   4    3.14    3.74
   7  -8  -3   60.12   14.98
  -7  -8   3   52.66   23.07
   7  -8  -2    9.94    6.88
  -7  -8   2   -5.16    6.05
   7   8  -1    0.83    1.14
   7  -8  -1   -0.49    1.42
   7   8   0    4.12    4.64
   7  -8   0    1.17    2.32
  -7  -8   0   -7.25    8.29
  -7  -8  -1   15.07    8.61
   7   8   1   29.21   10.77
   7  -8   1   22.12    9.96
  -7  -8  -2   38.32   14.80
   7  -8   2   33.22   11.75
   7   8   2   34.37   12.33
   7  -9  -4   -1.23    3.00
  -7  -9   4    1.28    7.71
   7  -9  -3    4.45    3.38
  -7  -9   3    4.05    3.04
   7  -9  -2   14.12    8.17
  -7  -9   2   10.38    6.28
   7  -9  -1    0.89    3.42
  -7  -9   1   11.03    9.31
   7   9  -1    2.06    3.68
   7   9   0   29.80   10.64
   7  -9   0   32.28   11.97
   7   9   1    2.77    1.42
   7  -9   1    2.56    3.31
  -8   0   6   14.03   19.80
  -8   0   5   -9.53    7.85
  -8   0   4    0.59    8.36
   8   0  -3    5.97    4.54
  -8   0   3    9.75   11.55
   8   0  -2  252.64   26.82
  -8   0   2  114.34   31.87
   8   0  -1    1.65    1.80
  -8   0   1    2.60    3.86
  -8   0   0   14.79   11.77
   8   0   0   26.36    9.54
   8   0   1    2.56    2.94
  -8   0  -1    3.29    8.39
   8   0   2   85.71   17.79
  -8   0  -2   62.18   23.62
   8   0   3    7.70    6.05
  -8   0  -3   -7.83    8.88
  -8   1   6   -1.45   10.86
  -8  -1   6  -14.31    8.88
  -8   1   5  -10.45   14.09
  -8  -1   5  -12.37   17.31
   8  -1  -4   93.92   15.59
  -8   1   4   44.38   27.68
  -8  -1   4   88.79   28.01
   8  -1  -3    2.02    3.10
  -8   1   3    4.46    5.60
   8   1  -3    4.81    5.10
  -8  -1   3   -3.75    5.11
   8  -1  -2    3.69    3.65
   8   1  -2    0.45    2.14
  -8  -1   2    4.01    9.47
   8  -1  -1   30.88    9.16
   8   1  -1   31.89    9.72
  -8   1   1   21.17   13.90
  -8  -1   1    5.59    5.74
   8  -1   0   82.46   16.68
   8   1   0   89.40   16.72
  -8   1   0   14.48   12.68
  -8  -1   0   20.16   11.62
   8  -1   1    5.13    5.99
   8   1   1    3.38    1.33
  -8   1  -1    2.73    3.38
  -8  -1  -1    4.96    5.82
   8   1   2    1.25    3.09
  -8   1  -2   -5.99    4.91
  -8  -1  -2   -5.47    6.01
   8  -1   2    2.52    3.65
   8   1   3   37.06   12.33
   8  -1   3   36.29   12.40
  -8  -1  -3   16.07   10.73
  -8   2   6   30.11   21.34
  -8  -2   6   15.18   13.04
  -8   2   5   20.97   14.87
  -8  -2   5   10.46   12.95
   8  -2  -4   -1.98    3.56
  -8   2   4   -3.61    8.61
  -8  -2   4   -0.13   10.50
   8  -2  -3  108.04   17.43
   8   2  -3   99.28   17.78
  -8   2   3   45.36   22.61
  -8  -2   3   60.97   23.56
   8  -2  -2   30.17    9.86
   8   2  -2   31.16    9.21
  -8   2   2   11.95   14.65
  -8  -2   2   34.33   18.02
   8  -2  -1   69.48   14.84
   8   2  -1   57.17   14.08
  -8   2   1   48.23   20.10
  -8  -2   1   39.20   16.36
   8  -2   0   -0.68    3.43
   8   2   0    8.19    6.82
  -8   2   0   10.02    9.36
  -8  -2   0    1.84    6.05
   8  -2   1   16.36    6.73
   8   2   1   14.92    8.27
  -8   2  -1   -1.43    2.10
  -8  -2  -1   10.68    8.48
   8  -2   2   38.40   12.36
   8   2   2   31.63   10.82
  -8  -2  -2   14.90   10.60
   8  -2   3   64.92   16.22
   8   2   3   77.28   18.73
  -8  -2  -3   43.80   17.03
  -8   3   6   -8.46   14.07
  -8  -3   6   13.15    9.69
  -8   3   5   33.77   24.68
  -8  -3   5   21.05   19.23
  -8   3   4   -9.36   11.23
  -8  -3   4   -7.71   12.41
   8  -3  -3   51.01   12.93
  -8   3   3   29.37   21.35
  -8  -3   3   23.76   17.98
   8  -3  -2   -2.23    4.69
   8   3  -2    7.02    5.08
  -8   3   2   13.49   12.15
  -8  -3   2   -4.82    6.10
   8  -3  -1  109.54   18.89
   8   3  -1  110.40   19.38
  -8   3   1   44.13   20.43
  -8  -3   1   33.32   17.91
   8  -3   0    8.52    6.40
   8   3   0    6.47    5.18
  -8   3   0    2.73    6.43
  -8  -3   0    5.75    4.51
   8  -3   1  104.34   19.97
   8   3   1  105.95   20.03
  -8  -3  -1  122.60   31.18
   8  -3   2   18.59    9.21
   8   3   2    8.78    5.43
  -8  -3  -2    9.73    6.84
  -8  -3  -3   15.65   10.66
   8  -3   3   37.47   12.27
   8   3   3   30.56   12.49
  -8   4   5   18.48   15.12
  -8  -4   5    1.15    2.66
  -8   4   4    9.07   11.76
   8  -4  -4   -8.01    7.93
  -8  -4   4   14.05    9.51
   8  -4  -3   58.67   13.30
  -8   4   3   63.90   27.76
  -8  -4   3    5.19   13.16
   8   4  -2   16.57    7.94
   8  -4  -2    6.33    5.81
  -8   4   2    8.61   10.81
  -8  -4   2    3.38    7.72
   8   4  -1   18.52    6.69
   8  -4  -1   15.18    7.70
  -8  -4   1   19.18   15.45
   8   4   0    6.12    5.58
   8  -4   0    7.30    6.55
  -8  -4   0    1.40    4.96
   8  -4   1   54.35   14.12
   8   4   1   58.12   14.99
  -8  -4  -1   26.40   18.64
   8  -4   2    9.54    6.57
   8   4   2   -0.12    3.38
   8  -5  -5    5.09    5.17
  -8  -5   5   -2.38    3.08
   8  -5  -4   25.37   10.17
  -8   5   4   29.41   21.59
  -8  -5   4    2.99   15.20
  -8  -5   3   11.74   13.91
   8  -5  -3    6.30    4.91
   8   5  -2    4.19    5.19
   8  -5  -2    3.31    3.20
  -8  -5   2   -6.63   10.12
   8   5  -1   24.05    8.97
   8  -5  -1   29.42   10.63
   8   5   0   49.13   13.85
   8  -5   0   46.58   13.18
  -8  -5   0   20.72   15.54
   8   5   1   39.83   13.06
   8  -5   1   24.40    9.13
   8   5   2   13.14    7.74
   8  -5   2    4.67    3.37
   8  -6  -4    1.26    3.38
  -8  -6   4    1.72    8.69
   8  -6  -3    2.70    5.07
  -8  -6   3    6.01    6.88
   8  -6  -2   90.92   19.25
  -8  -6   2   18.84   18.99
   8   6  -1   14.02    7.84
   8  -6  -1   11.40    6.64
  -8  -6   1   14.66   13.09
   8   6   0   -0.98    3.36
   8  -6   0  -13.06    7.41
  -8  -6   0   -1.02    8.00
   8   6   1    3.38    5.14
   8  -6   1    1.92    2.05
   8  -7  -2    1.43    3.56
  -8  -7   2    3.13   12.33
   8  -7  -1    6.91    3.83
   8   7  -1   11.37    6.82
  -8  -7   1   15.51   10.32
  -9   0   2   -4.10   14.40
   9   0  -2   -2.91    4.04
   0   0   0    0.00    0.00
TITL x1011a in P2(1)/n
REM P2(1)/n (#14 in standard setting)
CELL 0.71073   6.944046  12.135412   8.828325  90.0000  98.8878  90.0000
ZERR    3.00   0.000754   0.001592   0.001144   0.0000   0.0114   0.0000
LATT  1
SYMM -x+1/2, y+1/2,-z+1/2
SFAC C H N O
UNIT 33.00 30.00 3.00 3.00
TREF
HKLF 4
END
_computing_structure_solution     'SHELXT 2014/5 (Sheldrick, 2014)'
;
_shelx_hkl_checksum              28468
_shelx_res_file
;
TITL x1011a_a.res in P2(1)/n
    x1011a.res
    created by SHELXL-2018/1 at 09:16:14 on 25-Mar-2019
REM Old TITL x1011a in P2(1)/n
REM SHELXT solution in P2(1)/n
REM R1 0.323, Rweak 0.204, Alpha 0.015, Orientation as input
REM Formula found by SHELXT: C5 N2 O2
CELL 0.71073 6.944 12.1354 8.8283 90 98.888 90
ZERR 4 0.0008 0.0016 0.0011 0 0.011 0
LATT 1
SYMM 0.5-X,0.5+Y,0.5-Z
SFAC C H N O S
UNIT 20 32 8 4 4
EQIV $1 1-X,1-Y,-Z
EQIV $2 1+X,+Y,+Z
L.S. 10
PLAN  20
SIZE 0.2 0.2 0.05
TEMP -100.15
HTAB N2 N1_$1
HTAB N2 O1_$2
BOND $H
list 4
fmap 2
acta
REM <olex2.extras>
REM <HklSrc "%.\\x1011a.hkl">
REM </olex2.extras>
WGHT    0.047200    0.183300
FVAR       0.93803
S1    5    0.656264    0.331471    0.366742    11.00000    0.03587    0.06169 =
         0.03903    0.01362   -0.00427    0.00476
N1    3    0.410482    0.428965    0.150879    11.00000    0.03190    0.04511 =
         0.04089    0.00834    0.00190    0.00312
C1    1    0.597831    0.414898    0.205029    11.00000    0.03346    0.04132 =
         0.03159   -0.00181    0.00049    0.00462
O1    4    0.116204    0.377099    0.211673    11.00000    0.03054    0.07520 =
         0.07294    0.02220   -0.00132    0.00139
N2    3    0.735019    0.462467    0.141928    11.00000    0.03304    0.05599 =
         0.04477    0.01088    0.00398    0.00434
C2    1    0.294649    0.373842    0.235891    11.00000    0.03236    0.04592 =
         0.04121    0.00462   -0.00164    0.00175
C3    1    0.398003    0.302280    0.366827    11.00000    0.03836    0.04388 =
         0.03567    0.00678   -0.00015    0.00082
C4    1    0.356454    0.181473    0.326890    11.00000    0.06926    0.04550 =
         0.04977    0.00582   -0.00333   -0.00328
AFIX 137
H4A   2    0.397060    0.164898    0.227865    11.00000   -1.50000
H4B   2    0.216548    0.167200    0.320696    11.00000   -1.50000
H4C   2    0.429051    0.134683    0.406444    11.00000   -1.50000
AFIX   0
C5    1    0.333708    0.334190    0.518100    11.00000    0.06297    0.06264 =
         0.04278    0.00128    0.01430    0.00422
AFIX 137
H5A   2    0.399628    0.286989    0.600194    11.00000   -1.50000
H5B   2    0.192333    0.324760    0.510091    11.00000   -1.50000
H5C   2    0.367769    0.411367    0.541405    11.00000   -1.50000
AFIX   0
H2A   2    0.868412    0.452631    0.169756    11.00000    0.06312
H2B   2    0.695125    0.507012    0.047244    11.00000    0.07644
HKLF 4
REM  x1011a_a.res in P2(1)/n
REM R1 =  0.0509 for    1126 Fo > 4sig(Fo)  and  0.0857 for all    1681 data
REM     92 parameters refined using      0 restraints
END
WGHT      0.0472      0.1833
REM Highest difference peak  0.261,  deepest hole -0.353,  1-sigma level  0.062
Q1    1   0.3662  0.3232  0.2846  11.00000  0.05    0.26
Q2    1   0.7520  0.2537  0.2944  11.00000  0.05    0.26
Q3    1   0.6594  0.2163  0.3858  11.00000  0.05    0.23
Q4    1   0.3728  0.4590  0.0726  11.00000  0.05    0.23
Q5    1   0.6978  0.3779  0.4461  11.00000  0.05    0.22
Q6    1   0.9713  0.4744  0.3345  11.00000  0.05    0.21
Q7    1   0.7924  0.5995 -0.0051  11.00000  0.05    0.20
Q8    1   0.4417  0.4172  0.1330  11.00000  0.05    0.20
Q9    1   0.5279  0.1700  0.3910  11.00000  0.05    0.20
Q10   1   0.6182  0.2863  0.2816  11.00000  0.05    0.20
Q11   1   0.8230  0.3312  0.4167  11.00000  0.05    0.20
Q12   1   0.0833  0.2405  0.2640  11.00000  0.05    0.20
Q13   1   0.3688  0.4063  0.1824  11.00000  0.05    0.19
Q14   1  -0.0407  0.1780  0.4124  11.00000  0.05    0.19
Q15   1   0.6260  0.3791  0.2808  11.00000  0.05    0.18
Q16   1   0.6824  0.4571  0.3970  11.00000  0.05    0.18
Q17   1   0.0082  0.3746  0.5218  11.00000  0.05    0.18
Q18   1   0.0981  0.4189  0.0741  11.00000  0.05    0.18
Q19   1   0.3984  0.4308  0.4243  11.00000  0.05    0.17
Q20   1   0.2193  0.1523  0.3788  11.00000  0.05    0.17
;
_shelx_res_checksum              25635
loop_
_space_group_symop_operation_xyz
'x, y, z'
'-x+1/2, y+1/2, -z+1/2'
'-x, -y, -z'
'x-1/2, -y-1/2, z-1/2'
loop_
_atom_site_type_symbol
_atom_site_label
_atom_site_fract_x
_atom_site_fract_y
_atom_site_fract_z
_atom_site_U_iso_or_equiv
_atom_site_adp_type
_atom_site_calc_flag
_atom_site_occupancy
S S1 0.65626(10) 0.33147(7) 0.36674(8) 0.0466(3) Uani d 1
N N1 0.4105(3) 0.42897(19) 0.1509(3) 0.0397(6) Uani d 1
C C1 0.5978(4) 0.4149(2) 0.2050(3) 0.0359(6) Uani d 1
O O1 0.1162(3) 0.3771(2) 0.2117(3) 0.0605(7) Uani d 1
N N2 0.7350(4) 0.4625(2) 0.1419(3) 0.0448(6) Uani d 1
C C2 0.2946(4) 0.3738(2) 0.2359(3) 0.0406(7) Uani d 1
C C3 0.3980(4) 0.3023(2) 0.3668(3) 0.0399(7) Uani d 1
C C4 0.3565(5) 0.1815(2) 0.3269(4) 0.0562(9) Uani d 1
H H4A 0.397060 0.164898 0.227865 0.084 Uiso calc 1
H H4B 0.216548 0.167200 0.320696 0.084 Uiso calc 1
H H4C 0.429051 0.134683 0.406444 0.084 Uiso calc 1
C C5 0.3337(5) 0.3342(3) 0.5181(4) 0.0555(9) Uani d 1
H H5A 0.399628 0.286989 0.600194 0.083 Uiso calc 1
H H5B 0.192333 0.324760 0.510091 0.083 Uiso calc 1
H H5C 0.367769 0.411367 0.541405 0.083 Uiso calc 1
H H2A 0.868(5) 0.453(3) 0.170(4) 0.063(10) Uiso d 1
H H2B 0.695(5) 0.507(3) 0.047(4) 0.076(11) Uiso d 1
loop_
_atom_site_aniso_label
_atom_site_aniso_U_11
_atom_site_aniso_U_22
_atom_site_aniso_U_33
_atom_site_aniso_U_12
_atom_site_aniso_U_13
_atom_site_aniso_U_23
S1 0.0359(4) 0.0617(5) 0.0390(4) 0.0048(3) -0.0043(3) 0.0136(3)
N1 0.0319(12) 0.0451(14) 0.0409(13) 0.0031(10) 0.0019(10) 0.0083(11)
C1 0.0335(14) 0.0413(15) 0.0316(14) 0.0046(12) 0.0005(11) -0.0018(12)
O1 0.0305(11) 0.0752(16) 0.0729(16) 0.0014(10) -0.0013(11) 0.0222(13)
N2 0.0330(13) 0.0560(16) 0.0448(15) 0.0043(12) 0.0040(11) 0.0109(12)
C2 0.0324(14) 0.0459(16) 0.0412(16) 0.0017(13) -0.0016(12) 0.0046(13)
C3 0.0384(15) 0.0439(16) 0.0357(15) 0.0008(12) -0.0002(12) 0.0068(12)
C4 0.069(2) 0.0455(19) 0.0498(19) -0.0033(16) -0.0033(17) 0.0058(14)
C5 0.063(2) 0.063(2) 0.0428(18) 0.0042(17) 0.0143(16) 0.0013(15)
loop_
_atom_type_symbol
_atom_type_description
_atom_type_scat_dispersion_real
_atom_type_scat_dispersion_imag
_atom_type_scat_source
C C 0.0033 0.0016 'International Tables Vol C Tables 4.2.6.8 and 6.1.1.4'
H H 0.0000 0.0000 'International Tables Vol C Tables 4.2.6.8 and 6.1.1.4'
N N 0.0061 0.0033 'International Tables Vol C Tables 4.2.6.8 and 6.1.1.4'
O O 0.0106 0.0060 'International Tables Vol C Tables 4.2.6.8 and 6.1.1.4'
S S 0.1246 0.1234 'International Tables Vol C Tables 4.2.6.8 and 6.1.1.4'
loop_
_geom_angle_atom_site_label_1
_geom_angle_atom_site_label_2
_geom_angle_atom_site_label_3
_geom_angle
C1 S1 C3 90.49(12)
C1 N1 C2 111.7(2)
N1 C1 S1 117.4(2)
N2 C1 S1 120.7(2)
N2 C1 N1 121.8(2)
C1 N2 H2A 126(2)
C1 N2 H2B 118(2)
H2A N2 H2B 115(3)
N1 C2 C3 116.6(2)
O1 C2 N1 123.9(3)
O1 C2 C3 119.5(3)
C2 C3 S1 103.59(19)
C4 C3 S1 109.7(2)
C4 C3 C2 108.7(2)
C5 C3 S1 111.8(2)
C5 C3 C2 110.5(2)
C5 C3 C4 112.1(3)
C3 C4 H4A 109.5
C3 C4 H4B 109.5
C3 C4 H4C 109.5
H4A C4 H4B 109.5
H4A C4 H4C 109.5
H4B C4 H4C 109.5
C3 C5 H5A 109.5
C3 C5 H5B 109.5
C3 C5 H5C 109.5
H5A C5 H5B 109.5
H5A C5 H5C 109.5
H5B C5 H5C 109.5
loop_
_geom_bond_atom_site_label_1
_geom_bond_atom_site_label_2
_geom_bond_distance
S1 C1 1.746(3)
S1 C3 1.828(3)
N1 C1 1.326(3)
N1 C2 1.358(4)
C1 N2 1.310(4)
O1 C2 1.225(3)
N2 H2A 0.93(3)
N2 H2B 1.00(4)
C2 C3 1.533(4)
C3 C4 1.525(4)
C3 C5 1.522(4)
C4 H4A 0.9800
C4 H4B 0.9800
C4 H4C 0.9800
C5 H5A 0.9800
C5 H5B 0.9800
C5 H5C 0.9800
loop_
_geom_hbond_atom_site_label_D
_geom_hbond_atom_site_label_H
_geom_hbond_atom_site_label_A
_geom_hbond_site_symmetry_A
_geom_hbond_distance_DH
_geom_hbond_distance_HA
_geom_hbond_distance_DA
_geom_hbond_angle_DHA
_geom_hbond_publ_flag
N2 H2A O1 1_655 0.93(3) 1.93(4) 2.820(3) 159(3) yes
N2 H2B N1 3_665 1.00(4) 1.95(4) 2.938(3) 170(3) yes

_cod_database_fobs_code 1551062
