#------------------------------------------------------------------------------
#$Date: 2019-06-11 09:50:10 +0300 (Tue, 11 Jun 2019) $
#$Revision: 215811 $
#$URL: file:///home/coder/svn-repositories/cod/cif/1/55/13/1551314.cif $
#------------------------------------------------------------------------------
#
# This file is available in the Crystallography Open Database (COD),
# http://www.crystallography.net/
#
# All data on this site have been placed in the public domain by the
# contributors.
#
data_1551314
loop_
_publ_author_name
'Sergey V. Ovsyannikov'
'Maxim Bykov'
'Elena Bykova'
'Denis P. Kozlenko'
'Alexander A. Tsirlin'
'Alexander E. Karkin'
'Vladimir V. Shchennikov'
'Sergey E. Kichanov'
'Huiyang Gou'
'Artem M. Abakumov'
'Ricardo Egoavil'
'Johan Verbeeck'
'Catherine McCammon'
'Vadim Dyadkin'
'Dmitry Chernyshov'
'Sander van Smaalen'
'Leonid S. Dubrovinsky'
_publ_section_title
;
 Charge-ordering transition in iron oxide Fe4O5 involving competing dimer
 and trimer formation
;
_journal_name_full               'Nature Chemistry'
_journal_page_first              501
_journal_page_last               508
_journal_paper_doi               10.1038/nchem.2478
_journal_volume                  8
_journal_year                    2016
_chemical_formula_moiety         'Fe4 O5'
_chemical_formula_sum            'Fe4 O5'
_chemical_formula_weight         303.4
_chemical_name_systematic        ' iron (II,III) oxide'
_space_group_IT_number           11
_space_group_name_Hall           '-P 2yb (-1/2*x+z,1/2*x,y)'
_space_group_name_H-M_alt        'P 1 21/m 1 (c,2*a+c,b)'
_space_group_ssg_name            C21/m(\a\b0)0s
_symmetry_cell_setting           monoclinic
_cell_angle_alpha                90
_cell_angle_beta                 90
_cell_angle_gamma                90
_cell_formula_units_Z            4
_cell_length_a                   2.8610(4)
_cell_length_b                   9.8123(5)
_cell_length_c                   12.5425(11)
_cell_measurement_reflns_used    2536
_cell_measurement_temperature    4
_cell_measurement_theta_max      31.2730
_cell_measurement_theta_min      1.6160
_cell_modulation_dimension       1
_cell_volume                     352.11(6)
_computing_cell_refinement       'CrysAlis Pro (Oxford Diffraction Ltd, 2010)'
_computing_data_collection       'CrysAlis Pro (Oxford Diffraction Ltd, 2010)'
_computing_data_reduction        'CrysAlis Pro (Oxford Diffraction Ltd, 2010)'
_computing_molecular_graphics    'Diamond 3.0'
_computing_publication_material  enCIFer
_computing_structure_refinement  'Jana2006 (Praha, Czech Republic)'
_computing_structure_solution    'Jana2006 (Praha, Czech Republic)'
_diffrn_ambient_temperature      4
_diffrn_detector                 'Pilatus 2M pixel detector'
_diffrn_detector_area_resol_mean 5.8
_diffrn_measured_fraction_theta_full 0.98
_diffrn_measured_fraction_theta_max 0.73
_diffrn_measurement_device_type  'Pilatus @ SNBL'
_diffrn_measurement_method       '\f scans'
_diffrn_radiation_probe          x-ray
_diffrn_radiation_source         'Beamline BM1A, ESRF, Grenoble, France'
_diffrn_radiation_type           synchrotron
_diffrn_radiation_wavelength     0.68884
_diffrn_reflns_av_R_equivalents  0.0274
_diffrn_reflns_av_unetI/netI     0.006
_diffrn_reflns_limit_h_max       3
_diffrn_reflns_limit_h_min       -3
_diffrn_reflns_limit_index_m_1_max 1
_diffrn_reflns_limit_index_m_1_min -1
_diffrn_reflns_limit_k_max       15
_diffrn_reflns_limit_k_min       -15
_diffrn_reflns_limit_l_max       18
_diffrn_reflns_limit_l_min       -18
_diffrn_reflns_number            7052
_diffrn_reflns_theta_full        13.76
_diffrn_reflns_theta_max         31.44
_diffrn_reflns_theta_min         3.14
_diffrn_source                   synchrotron
_exptl_absorpt_coefficient_mu    14.214
_exptl_absorpt_correction_T_max  1.00000
_exptl_absorpt_correction_T_min  0.32722
_exptl_absorpt_correction_type   multi-scan
_exptl_absorpt_process_details
;
CrysAlisPro, Agilent Technologies,
Version 1.171.36.28 (release 01-02-2013 CrysAlis171 .NET)
(compiled Feb  1 2013,16:14:44)
Empirical absorption correction using spherical harmonics,
 implemented in SCALE3 ABSPACK scaling algorithm.
;
_exptl_crystal_colour            black
_exptl_crystal_density_diffrn    5.723
_exptl_crystal_description       prism
_exptl_crystal_F_000             576
_exptl_crystal_size_max          0.12
_exptl_crystal_size_mid          0.08
_exptl_crystal_size_min          0.055
_refine_diff_density_max         1.36
_refine_diff_density_min         -2.47
_refine_ls_extinction_method     none
_refine_ls_goodness_of_fit_gt    4.27
_refine_ls_goodness_of_fit_ref   3.62
_refine_ls_number_constraints    0
_refine_ls_number_parameters     59
_refine_ls_number_reflns         2241
_refine_ls_number_restraints     0
_refine_ls_R_factor_all          0.0582
_refine_ls_R_factor_gt           0.0518
_refine_ls_shift/su_max          0.0002
_refine_ls_shift/su_mean         0.0000
_refine_ls_structure_factor_coef F
_refine_ls_weighting_details     w=1/(\s^2^(F)+0.0001F^2^)
_refine_ls_weighting_scheme      sigma
_refine_ls_wR_factor_gt          0.0845
_refine_ls_wR_factor_ref         0.0850
_reflns_number_gt                1603
_reflns_number_total             2241
_reflns_threshold_expression     I>3\s(I)
_cod_data_source_file            nchem.2478-s2.cif
_cod_data_source_block           Fe4O5_4K
_cod_depositor_comments
;
The following automatic conversions were performed:

data item '_diffrn_radiation_probe' value 'X-ray' was changed to
'x-ray' in accordance with the built-in table derived from the CIF
Core dictionary named 'cif_core.dic' version 2.4.5 last updated on
2014-11-21.

Automatic conversion script
Id: cif_fix_values 6909 2019-04-08 15:41:33Z antanas 
;
_cod_database_code               1551314
loop_
_space_group_symop_id
_space_group_symop_operation_xyz
1 x,y,z
2 -x,-y,z+0.5
3 x+0.5,y+0.5,z
4 -x+0.5,-y+0.5,z+0.5
5 -x,-y,-z
6 x,y,-z+0.5
7 -x+0.5,-y+0.5,-z
8 x+0.5,y+0.5,-z+0.5
loop_
_space_group_symop_ssg_id
_space_group_symop_ssg_operation_algebraic
1 x1,x2,x3,x4
2 -x1,-x2,x3+1/2,-x4+1/2
3 -x1,-x2,-x3,-x4
4 x1,x2,-x3+1/2,x4+1/2
5 x1+1/2,x2+1/2,x3,x4
6 -x1+1/2,-x2+1/2,x3+1/2,-x4+1/2
7 -x1+1/2,-x2+1/2,-x3,-x4
8 x1+1/2,x2+1/2,-x3+1/2,x4+1/2
loop_
_atom_site_label
_atom_site_type_symbol
_atom_site_fract_x
_atom_site_fract_y
_atom_site_fract_z
_atom_site_adp_type
_atom_site_U_iso_or_equiv
_atom_site_site_symmetry_multiplicity
_atom_site_occupancy
_atom_site_calc_flag
_atom_site_refinement_flags
_atom_site_disorder_assembly
_atom_site_disorder_group
Fe1 Fe 0.7517(3) 0.25510(5) 0.25 Uani 0.0071(2) 4 1 d . . .
Fe2 Fe 0.25 0.25 0 Uani 0.0067(2) 4 1 d . . .
Fe3 Fe 0.2495(2) 0.51083(4) 0.11781(3) Uani 0.0071(2) 8 1 d . . .
O1 O -0.2610(11) 0.39105(17) 0.04391(15) Uiso 0.0063(4) 8 1 d . . .
O2 O 0.2337(15) 0.4103(3) 0.25 Uiso 0.0058(5) 4 1 d . . .
O3 O 0.2434(9) 0.15859(18) 0.14238(15) Uiso 0.0070(4) 8 1 d . . .
loop_
_atom_site_aniso_label
_atom_site_aniso_type_symbol
_atom_site_aniso_U_11
_atom_site_aniso_U_22
_atom_site_aniso_U_33
_atom_site_aniso_U_12
_atom_site_aniso_U_13
_atom_site_aniso_U_23
Fe1 Fe 0.0115(6) 0.0052(3) 0.0048(3) 0.0034(6) 0 0
Fe2 Fe 0.0128(5) 0.0041(3) 0.0032(3) -0.0009(4) -0.0008(4) 0.00027(14)
Fe3 Fe 0.0133(5) 0.0039(2) 0.0040(3) -0.0001(4) 0.0013(3) 0.00029(10)
loop_
_atom_site_displace_Fourier_atom_site_label
_atom_site_displace_Fourier_axis
_atom_site_displace_Fourier_wave_vector_seq_id
_atom_site_displace_Fourier_param_cos
_atom_site_displace_Fourier_param_sin
Fe1 x 1 0 0
Fe1 y 1 0 0
Fe1 z 1 0.00039(5) -0.00052(5)
Fe2 x 1 0 -0.0329(2)
Fe2 y 1 0 -0.00096(5)
Fe2 z 1 0 0.00132(5)
Fe3 x 1 -0.02293(15) 0.00966(13)
Fe3 y 1 -0.00072(4) 0.00283(3)
Fe3 z 1 0.00024(3) 0.00100(3)
O1 x 1 0.0035(6) -0.0005(6)
O1 y 1 0.00441(15) 0.00345(16)
O1 z 1 0.00162(15) 0.00105(15)
O2 x 1 0 0
O2 y 1 0 0
O2 z 1 -0.0007(2) -0.0010(2)
O3 x 1 0.0027(5) -0.0058(5)
O3 y 1 -0.00114(15) -0.00280(15)
O3 z 1 0.00072(16) -0.00029(15)
loop_
_atom_site_Fourier_wave_vector_seq_id
_jana_atom_site_fourier_wave_vector_q1_coeff
1 1
loop_
_atom_type_symbol
_atom_type_scat_dispersion_real
_atom_type_scat_dispersion_imag
_atom_type_scat_source
Fe 0.3436 0.8062 'International Tables Vol C tables 4.2.6.8 and 6.1.1.1'
O 0.0106 0.0058 'International Tables Vol C tables 4.2.6.8 and 6.1.1.1'
loop_
_cell_wave_vector_seq_id
_cell_wave_vector_x
_cell_wave_vector_y
_cell_wave_vector_z
1 0.333333 0.729300 0.000000
loop_
_twin_individual_id
_twin_individual_mass_fraction_refined
_twin_individual_twin_matrix_11
_twin_individual_twin_matrix_12
_twin_individual_twin_matrix_13
_twin_individual_twin_matrix_21
_twin_individual_twin_matrix_22
_twin_individual_twin_matrix_23
_twin_individual_twin_matrix_31
_twin_individual_twin_matrix_32
_twin_individual_twin_matrix_33
1 0.464(3) 1 0 0 0 1 0 0 0 1
2 0.536(3) -1 0 0 0 1 0 0 0 1
loop_
_twin_refln_datum_id
_twin_refln_individual_id
_twin_refln_index_h
_twin_refln_index_k
_twin_refln_index_l
_twin_refln_index_m_1
_twin_refln_f_squared_calc
_twin_refln_f_squared_meas
_twin_refln_f_squared_sigma
_twin_refln_include_status
1 1 0 0 1 1 0.38 0.48 0.07 o
2 2 0 0 2 0 674.28 657.77 7.25 o
2 1 0 0 2 0 674.28 657.77 7.25 o
3 1 0 0 2 1 3.37 3.59 0.27 o
4 1 0 0 3 1 5.05 4.77 0.40 o
5 2 0 0 4 0 26.28 27.71 1.54 o
5 1 0 0 4 0 26.28 27.71 1.54 o
6 1 0 0 4 1 0.76 0.79 0.31 <
7 1 0 0 5 1 9.01 9.98 1.50 o
8 2 0 0 6 0 1500.05 1741.90 19.67 o
8 1 0 0 6 0 1500.05 1741.90 19.67 o
9 1 0 0 6 1 17.19 17.26 1.65 o
10 1 0 0 7 1 1.60 1.76 0.70 <
11 2 0 0 8 0 69483.90 68052.80 134.63 o
11 1 0 0 8 0 69483.90 68052.80 134.63 o
12 1 0 0 8 1 10.42 9.98 1.40 o
13 1 0 0 9 1 0.92 0.44 0.93 <
14 2 0 0 10 0 19.14 224.54 9.66 o
14 1 0 0 10 0 19.14 224.54 9.66 o
15 1 0 0 10 1 1.92 2.04 0.71 <
16 1 0 0 11 1 1.65 1.57 0.82 <
17 1 0 0 12 1 6.40 5.17 1.45 o
18 1 0 0 13 1 6.19 7.09 1.22 o
19 2 0 0 14 0 2357.23 3185.71 32.86 o
19 1 0 0 14 0 2357.23 3185.71 32.86 o
20 1 0 0 14 1 2.35 4.03 1.72 <
21 1 0 0 15 1 4.46 3.51 1.95 <
22 2 0 0 16 0 14043.20 15081.10 64.51 o
22 1 0 0 16 0 14043.20 15081.10 64.51 o
23 1 0 0 16 1 9.17 7.72 2.28 o
24 1 0 0 17 1 0.07 0.67 1.28 <
25 1 0 0 18 1 11.18 9.46 1.65 o
26 1 0 2 1 -1 1.72 1.95 0.14 o
27 2 0 2 1 0 117.76 122.01 1.10 o
27 1 0 2 1 0 117.76 122.01 1.10 o
28 1 0 2 1 1 16.44 15.80 0.48 o
29 1 0 2 2 -1 6.37 6.72 0.35 o
30 2 0 2 2 0 336.79 374.46 2.27 o
30 1 0 2 2 0 336.79 374.46 2.27 o
31 1 0 2 2 1 10.58 10.02 0.50 o
32 1 0 2 3 -1 3.21 3.49 0.35 o
33 2 0 2 3 0 959.64 1055.40 4.58 o
33 1 0 2 3 0 959.64 1055.40 4.58 o
34 1 0 2 3 1 0.06 0.32 0.35 <
35 1 0 2 4 -1 2.95 2.79 0.57 o
36 1 0 2 4 1 5.71 4.69 0.57 o
37 1 0 2 5 -1 0.77 0.96 0.66 <
38 2 0 2 5 0 12106.40 13651.80 47.01 o
38 1 0 2 5 0 12106.40 13651.80 47.01 o
39 1 0 2 5 1 0.50 0.52 0.31 <
40 1 0 2 6 -1 0.01 0.62 0.39 <
41 2 0 2 6 0 3167.20 3269.54 23.35 o
41 1 0 2 6 0 3167.20 3269.54 23.35 o
42 1 0 2 6 1 2.33 3.10 0.63 o
43 1 0 2 7 -1 0.41 0.24 0.57 <
44 2 0 2 7 0 733.14 785.86 11.02 o
44 1 0 2 7 0 733.14 785.86 11.02 o
45 1 0 2 7 1 19.83 21.19 1.48 o
46 1 0 2 8 -1 0.95 1.24 0.57 <
47 2 0 2 8 0 185.22 184.92 4.73 o
47 1 0 2 8 0 185.22 184.92 4.73 o
48 1 0 2 8 1 13.31 21.02 3.84 o
49 1 0 2 9 -1 1.33 1.98 1.22 <
50 2 0 2 9 0 2.84 52.93 5.21 o
50 1 0 2 9 0 2.84 52.93 5.21 o
51 1 0 2 9 1 14.67 17.10 1.59 o
52 1 0 2 10 -1 7.63 8.09 1.12 o
53 2 0 2 10 0 1895.96 2294.53 27.40 o
53 1 0 2 10 0 1895.96 2294.53 27.40 o
54 1 0 2 10 1 6.66 6.93 1.12 o
55 1 0 2 11 -1 6.12 8.62 1.23 o
56 2 0 2 11 0 233.01 261.35 6.13 o
56 1 0 2 11 0 233.01 261.35 6.13 o
57 1 0 2 11 1 4.95 5.11 0.97 o
58 1 0 2 12 -1 20.07 20.42 2.42 o
59 2 0 2 12 0 26677.40 27846.90 62.63 o
59 1 0 2 12 0 26677.40 27846.90 62.63 o
60 1 0 2 12 1 14.47 14.86 1.61 o
61 1 0 2 13 -1 0.58 0.69 0.74 <
62 2 0 2 13 0 286.25 354.52 7.34 o
62 1 0 2 13 0 286.25 354.52 7.34 o
63 1 0 2 13 1 1.08 0.89 0.88 <
64 1 0 2 14 1 2.31 2.08 1.58 <
65 1 0 2 15 -1 0.08 0.26 1.25 <
66 2 0 2 15 0 313.62 377.13 8.37 o
66 1 0 2 15 0 313.62 377.13 8.37 o
67 1 0 2 15 1 1.90 2.06 1.40 <
68 1 0 2 16 -1 0.77 0.82 1.59 <
69 1 0 2 16 1 3.47 3.96 1.36 <
70 1 0 2 17 -1 0.48 0.75 1.23 <
71 2 0 2 17 0 78.13 82.78 5.01 o
71 1 0 2 17 0 78.13 82.78 5.01 o
72 1 0 2 17 1 0.75 -0.35 1.58 <
73 1 0 2 18 -1 0.39 -1.00 1.19 <
74 2 0 2 18 0 1788.84 1904.39 22.33 o
74 1 0 2 18 0 1788.84 1904.39 22.33 o
75 1 0 2 18 1 4.45 3.17 1.61 <
76 1 0 4 1 -1 3.79 3.09 0.46 o
77 1 0 4 1 1 0.33 0.60 0.22 <
78 1 0 4 2 -1 2.78 2.84 0.62 o
79 2 0 4 2 0 1.73 6.79 0.70 o
79 1 0 4 2 0 1.73 6.79 0.70 o
80 1 0 4 2 1 30.05 28.69 1.17 o
81 1 0 4 3 -1 0.11 0.26 0.37 <
82 2 0 4 3 0 184.25 204.31 3.09 o
82 1 0 4 3 0 184.25 204.31 3.09 o
83 1 0 4 3 1 50.76 51.13 1.63 o
84 1 0 4 4 -1 0.05 0.14 0.23 <
85 2 0 4 4 0 4.66 13.20 1.10 o
85 1 0 4 4 0 4.66 13.20 1.10 o
86 1 0 4 4 1 3.92 4.15 0.54 o
87 1 0 4 5 -1 0.24 0.51 0.31 <
88 2 0 4 5 0 163.05 203.37 4.37 o
88 1 0 4 5 0 163.05 203.37 4.37 o
89 1 0 4 5 1 29.81 31.81 1.51 o
90 1 0 4 6 -1 23.05 23.71 1.57 o
91 2 0 4 6 0 1057.42 1172.37 12.29 o
91 1 0 4 6 0 1057.42 1172.37 12.29 o
92 1 0 4 6 1 16.61 17.29 1.61 o
93 1 0 4 7 -1 15.20 17.16 1.31 o
94 1 0 4 7 1 0.00 0.16 0.42 <
95 1 0 4 8 -1 13.51 14.34 1.93 o
96 2 0 4 8 0 43774.10 40697.50 84.76 o
96 1 0 4 8 0 43774.10 40697.50 84.76 o
97 1 0 4 8 1 11.67 11.05 1.08 o
98 1 0 4 9 -1 2.74 3.61 0.90 o
99 1 0 4 9 1 1.97 1.49 0.51 <
100 1 0 4 10 -1 2.25 2.33 0.79 <
101 2 0 4 10 0 5782.91 6209.22 40.71 o
101 1 0 4 10 0 5782.91 6209.22 40.71 o
102 1 0 4 10 1 0.00 -0.45 0.87 <
103 1 0 4 11 -1 0.08 0.74 0.96 <
104 2 0 4 11 0 837.37 1046.90 16.86 o
104 1 0 4 11 0 837.37 1046.90 16.86 o
105 1 0 4 11 1 4.53 3.55 0.83 o
106 1 0 4 12 -1 1.54 1.12 0.91 <
107 2 0 4 12 0 687.60 675.08 9.74 o
107 1 0 4 12 0 687.60 675.08 9.74 o
108 1 0 4 12 1 1.08 1.17 0.78 <
109 1 0 4 13 -1 0.48 -0.42 1.20 <
110 2 0 4 13 0 32.83 61.79 3.03 o
110 1 0 4 13 0 32.83 61.79 3.03 o
111 1 0 4 13 1 2.75 2.70 1.57 <
112 1 0 4 14 -1 3.44 2.52 1.42 <
113 2 0 4 14 0 1235.95 1417.06 14.10 o
113 1 0 4 14 0 1235.95 1417.06 14.10 o
114 1 0 4 14 1 7.94 9.39 2.15 o
115 1 0 4 15 -1 3.54 5.05 1.43 o
116 2 0 4 15 0 403.81 468.58 9.49 o
116 1 0 4 15 0 403.81 468.58 9.49 o
117 1 0 4 15 1 0.37 0.09 1.51 <
118 1 0 4 16 -1 5.70 6.59 1.53 o
119 2 0 4 16 0 12143.60 11760.90 60.10 o
119 1 0 4 16 0 12143.60 11760.90 60.10 o
120 1 0 4 16 1 19.76 13.94 1.64 o
121 1 0 4 17 -1 0.07 -0.03 1.09 <
122 2 0 4 17 0 1.00 11.88 2.45 o
122 1 0 4 17 0 1.00 11.88 2.45 o
123 1 0 4 17 1 1.06 2.53 1.19 <
124 1 0 4 18 -1 5.71 4.26 2.08 <
125 2 0 6 0 0 156.10 133.96 3.49 o
125 1 0 6 0 0 156.10 133.96 3.49 o
126 1 0 6 1 -1 2.69 2.94 0.40 o
127 2 0 6 1 0 670.03 660.45 5.78 o
127 1 0 6 1 0 670.03 660.45 5.78 o
128 1 0 6 2 -1 9.63 10.26 0.71 o
129 2 0 6 2 0 10.61 17.19 1.09 o
129 1 0 6 2 0 10.61 17.19 1.09 o
130 1 0 6 3 -1 11.53 11.20 0.80 o
131 2 0 6 3 0 3729.80 3669.71 19.44 o
131 1 0 6 3 0 3729.80 3669.71 19.44 o
132 1 0 6 3 1 0.96 0.92 0.33 <
133 1 0 6 4 -1 3.84 4.26 0.56 o
134 1 0 6 4 1 11.27 9.71 0.85 o
135 1 0 6 5 -1 4.60 4.93 0.66 o
136 2 0 6 5 0 36.66 93.69 3.65 o
136 1 0 6 5 0 36.66 93.69 3.65 o
137 1 0 6 5 1 1.66 1.46 0.38 o
138 1 0 6 6 -1 0.03 -0.59 0.66 <
139 2 0 6 6 0 12.84 107.14 3.67 o
139 1 0 6 6 0 12.84 107.14 3.67 o
140 1 0 6 6 1 2.03 1.30 0.40 o
141 1 0 6 7 -1 0.74 0.78 0.71 <
142 2 0 6 7 0 175.27 182.40 3.88 o
142 1 0 6 7 0 175.27 182.40 3.88 o
143 1 0 6 7 1 5.39 5.48 0.75 o
144 1 0 6 8 -1 3.77 2.72 0.60 o
145 2 0 6 8 0 17.12 44.53 2.51 o
145 1 0 6 8 0 17.12 44.53 2.51 o
146 1 0 6 8 1 0.35 1.12 0.69 <
147 1 0 6 9 -1 2.77 2.71 0.59 o
148 1 0 6 9 1 13.02 12.87 1.20 o
149 1 0 6 10 -1 4.37 3.60 1.17 o
150 2 0 6 10 0 1310.22 1224.10 16.04 o
150 1 0 6 10 0 1310.22 1224.10 16.04 o
151 1 0 6 10 1 23.34 19.82 1.50 o
152 1 0 6 11 -1 0.73 1.16 0.63 <
153 2 0 6 11 0 1580.07 1482.11 14.28 o
153 1 0 6 11 0 1580.07 1482.11 14.28 o
154 1 0 6 11 1 0.53 0.63 0.64 <
155 1 0 6 12 -1 4.18 3.58 0.89 o
156 1 0 6 12 1 13.22 9.17 1.23 o
157 1 0 6 13 -1 0.52 0.76 1.10 <
158 2 0 6 13 0 169.98 159.33 4.46 o
158 1 0 6 13 0 169.98 159.33 4.46 o
159 1 0 6 13 1 2.48 2.01 1.50 <
160 1 0 6 14 -1 2.79 2.93 1.14 <
161 2 0 6 14 0 281.31 286.75 6.04 o
161 1 0 6 14 0 281.31 286.75 6.04 o
162 1 0 6 14 1 0.24 -0.10 0.91 <
163 1 0 6 15 -1 0.54 3.17 1.47 <
164 2 0 6 15 0 942.78 919.90 14.28 o
164 1 0 6 15 0 942.78 919.90 14.28 o
165 1 0 6 15 1 4.95 2.81 1.55 <
166 1 0 6 16 -1 3.01 2.51 1.64 <
167 2 0 6 16 0 563.63 580.78 11.80 o
167 1 0 6 16 0 563.63 580.78 11.80 o
168 1 0 6 16 1 7.79 7.48 1.49 o
169 1 0 6 17 -1 1.15 0.61 1.08 <
170 2 0 8 0 0 41741.50 36001.40 64.10 o
170 1 0 8 0 0 41741.50 36001.40 64.10 o
171 1 0 8 1 -1 8.32 7.00 0.72 o
172 2 0 8 1 0 6636.47 6069.41 26.83 o
172 1 0 8 1 0 6636.47 6069.41 26.83 o
173 1 0 8 1 1 5.50 5.43 0.67 o
174 1 0 8 2 -1 5.80 4.30 0.70 o
175 2 0 8 2 0 653.17 903.85 8.45 o
175 1 0 8 2 0 653.17 903.85 8.45 o
176 1 0 8 2 1 13.49 12.27 0.95 o
177 1 0 8 3 -1 7.01 7.14 0.71 o
178 2 0 8 3 0 1499.72 1418.19 10.62 o
178 1 0 8 3 0 1499.72 1418.19 10.62 o
179 1 0 8 3 1 7.82 8.83 0.82 o
180 1 0 8 4 -1 6.66 6.12 0.72 o
181 2 0 8 4 0 399.19 416.16 5.30 o
181 1 0 8 4 0 399.19 416.16 5.30 o
182 1 0 8 5 -1 5.49 5.28 0.66 o
183 2 0 8 5 0 103.37 158.87 3.42 o
183 1 0 8 5 0 103.37 158.87 3.42 o
184 1 0 8 5 1 13.32 14.17 1.08 o
185 1 0 8 6 -1 0.67 0.26 0.57 <
186 1 0 8 6 1 23.98 22.94 1.40 o
187 1 0 8 7 -1 6.76 4.66 1.29 o
188 2 0 8 7 0 2401.28 2369.46 20.87 o
188 1 0 8 7 0 2401.28 2369.46 20.87 o
189 1 0 8 7 1 1.47 1.48 0.54 <
190 1 0 8 8 -1 3.02 3.98 0.67 o
191 2 0 8 8 0 19839.80 19960.10 49.05 o
191 1 0 8 8 0 19839.80 19960.10 49.05 o
192 1 0 8 8 1 15.80 12.84 1.18 o
193 1 0 8 9 -1 3.74 3.99 0.68 o
194 2 0 8 9 0 2912.42 2771.09 15.95 o
194 1 0 8 9 0 2912.42 2771.09 15.95 o
195 1 0 8 9 1 0.07 -0.23 0.95 <
196 1 0 8 10 -1 0.19 0.97 0.67 <
197 1 0 8 10 1 3.41 2.55 0.82 o
198 1 0 8 11 -1 2.94 3.04 1.40 <
199 2 0 8 11 0 257.30 255.13 5.11 o
199 1 0 8 11 0 257.30 255.13 5.11 o
200 1 0 8 11 1 18.14 18.23 1.56 o
201 1 0 8 12 -1 1.55 0.54 0.84 <
202 2 0 8 12 0 65.95 76.85 3.01 o
202 1 0 8 12 0 65.95 76.85 3.01 o
203 1 0 8 12 1 14.39 13.13 1.70 o
204 1 0 8 13 -1 1.02 0.40 1.72 <
205 2 0 8 13 0 37.99 64.67 2.84 o
205 1 0 8 13 0 37.99 64.67 2.84 o
206 1 0 8 13 1 15.77 11.33 1.70 o
207 1 0 8 14 -1 6.49 3.84 1.18 o
208 2 0 8 14 0 1205.78 997.95 10.43 o
208 1 0 8 14 0 1205.78 997.95 10.43 o
209 1 0 8 14 1 8.89 6.76 1.33 o
210 1 0 8 15 -1 7.49 7.04 1.93 o
211 2 0 8 15 0 1658.94 1262.12 15.91 o
211 1 0 8 15 0 1658.94 1262.12 15.91 o
212 1 0 8 16 -1 16.67 11.36 2.55 o
213 2 0 10 0 0 104.19 120.40 4.03 o
213 1 0 10 0 0 104.19 120.40 4.03 o
214 2 0 10 1 0 376.61 358.78 5.01 o
214 1 0 10 1 0 376.61 358.78 5.01 o
215 1 0 10 1 1 20.70 21.16 1.31 o
216 1 0 10 2 -1 18.41 17.16 1.56 o
217 2 0 10 2 0 113.26 185.54 4.10 o
217 1 0 10 2 0 113.26 185.54 4.10 o
218 1 0 10 2 1 24.43 23.33 1.38 o
219 1 0 10 3 -1 4.04 4.85 0.64 o
220 2 0 10 3 0 1614.60 1565.11 14.42 o
220 1 0 10 3 0 1614.60 1565.11 14.42 o
221 1 0 10 3 1 0.34 0.74 1.10 <
222 1 0 10 4 -1 1.97 2.10 0.61 o
223 2 0 10 4 0 13909.90 13187.40 47.03 o
223 1 0 10 4 0 13909.90 13187.40 47.03 o
224 1 0 10 5 -1 5.10 3.98 0.80 o
225 2 0 10 5 0 1227.86 1212.64 9.65 o
225 1 0 10 5 0 1227.86 1212.64 9.65 o
226 1 0 10 5 1 0.13 -0.05 0.54 <
227 1 0 10 6 -1 2.25 2.08 0.51 o
228 2 0 10 6 0 1113.62 1073.42 12.95 o
228 1 0 10 6 0 1113.62 1073.42 12.95 o
229 1 0 10 6 1 33.42 30.50 1.68 o
230 1 0 10 7 -1 2.28 2.34 0.64 o
231 1 0 10 7 1 20.11 20.58 1.46 o
232 1 0 10 8 -1 0.02 -0.12 0.74 <
233 2 0 10 8 0 660.60 657.99 10.74 o
233 1 0 10 8 0 660.60 657.99 10.74 o
234 1 0 10 8 1 9.26 9.81 1.72 o
235 1 0 10 9 -1 1.13 1.59 0.76 <
236 2 0 10 9 0 0.45 6.14 1.01 o
236 1 0 10 9 0 0.45 6.14 1.01 o
237 1 0 10 9 1 8.63 7.85 1.17 o
238 1 0 10 10 -1 16.02 15.91 1.99 o
239 2 0 10 10 0 222.54 210.05 5.24 o
239 1 0 10 10 0 222.54 210.05 5.24 o
240 1 0 10 10 1 15.60 12.81 1.38 o
241 1 0 10 11 -1 15.69 17.20 2.70 o
242 2 0 10 11 0 2052.42 1933.77 17.97 o
242 1 0 10 11 0 2052.42 1933.77 17.97 o
243 1 0 10 11 1 0.00 0.25 1.38 <
244 1 0 10 12 -1 6.27 5.73 1.24 o
245 1 0 10 12 1 17.80 9.89 1.34 o
246 1 0 10 13 -1 6.07 6.18 1.78 o
247 2 0 10 13 0 60.95 71.23 3.94 o
247 1 0 10 13 0 60.95 71.23 3.94 o
248 1 0 10 14 -1 0.48 -0.01 1.41 <
249 2 0 12 0 0 16014.80 18583.00 54.85 o
249 1 0 12 0 0 16014.80 18583.00 54.85 o
250 1 0 12 1 -1 6.51 6.32 0.77 o
251 2 0 12 1 0 1277.18 1263.76 14.54 o
251 1 0 12 1 0 1277.18 1263.76 14.54 o
252 1 0 12 1 1 4.52 2.21 0.80 <
253 1 0 12 2 -1 4.88 4.50 0.72 o
254 2 0 12 2 0 13.16 46.61 2.37 o
254 1 0 12 2 0 13.16 46.61 2.37 o
255 1 0 12 2 1 34.23 32.40 1.69 o
256 1 0 12 3 -1 0.52 0.93 0.55 <
257 2 0 12 3 0 355.84 376.48 5.63 o
257 1 0 12 3 0 355.84 376.48 5.63 o
258 1 0 12 3 1 13.31 14.92 1.31 o
259 1 0 12 4 -1 0.49 1.10 0.61 <
260 2 0 12 4 0 194.41 200.17 4.07 o
260 1 0 12 4 0 194.41 200.17 4.07 o
261 1 0 12 4 1 0.18 0.46 0.77 <
262 1 0 12 5 -1 2.50 1.92 0.60 o
263 1 0 12 5 1 9.69 8.41 1.10 o
264 1 0 12 6 -1 27.66 27.20 1.58 o
265 2 0 12 6 0 69.81 65.71 2.40 o
265 1 0 12 6 0 69.81 65.71 2.40 o
266 1 0 12 7 -1 1.69 0.88 0.93 <
267 2 0 12 7 0 3452.67 3714.17 20.47 o
267 1 0 12 7 0 3452.67 3714.17 20.47 o
268 1 0 12 7 1 0.11 -0.67 0.74 <
269 1 0 12 8 -1 6.85 6.08 1.44 o
270 2 0 12 8 0 12137.70 10855.70 29.89 o
270 1 0 12 8 0 12137.70 10855.70 29.89 o
271 1 0 12 8 1 8.55 4.41 1.05 o
272 1 0 12 9 -1 2.58 1.73 0.84 <
273 2 0 12 9 0 189.32 138.46 3.52 o
273 1 0 12 9 0 189.32 138.46 3.52 o
274 1 0 12 10 -1 0.34 -1.22 1.07 <
275 2 0 12 10 0 158.25 126.55 4.11 o
275 1 0 12 10 0 158.25 126.55 4.11 o
276 1 0 12 11 -1 2.93 3.61 1.12 o
277 2 0 14 0 0 860.94 861.58 11.50 o
277 1 0 14 0 0 860.94 861.58 11.50 o
278 1 0 14 1 -1 1.16 0.62 0.74 <
279 2 0 14 1 0 516.60 440.24 8.71 o
279 1 0 14 1 0 516.60 440.24 8.71 o
280 1 0 14 2 -1 5.74 5.16 0.95 o
281 2 0 14 2 0 85.72 143.96 3.64 o
281 1 0 14 2 0 85.72 143.96 3.64 o
282 1 0 14 3 -1 7.95 7.52 1.13 o
283 2 0 14 3 0 3622.85 3732.96 19.40 o
283 1 0 14 3 0 3622.85 3732.96 19.40 o
284 2 0 14 4 0 8551.95 7692.75 28.98 o
284 1 0 14 4 0 8551.95 7692.75 28.98 o
285 1 0 14 5 -1 4.20 4.13 1.36 o
286 1 0 14 6 -1 8.22 7.23 1.11 o
287 1 0 14 7 -1 7.99 7.72 1.74 o
288 2 -1 -13 0 0 1569.11 1556.26 19.81 o
288 1 1 -13 0 0 1569.11 1556.26 19.81 o
289 1 1 -13 1 -1 1.25 -0.08 0.85 <
290 2 -1 -13 1 0 126.40 114.71 3.04 o
290 1 1 -13 1 0 126.40 114.71 3.04 o
291 1 1 -13 2 -1 20.91 18.20 1.42 o
292 2 -1 -13 2 0 1808.82 1740.18 11.09 o
292 1 1 -13 2 0 1808.82 1740.18 11.09 o
293 1 1 -13 2 1 0.01 -0.37 0.89 <
294 1 1 -13 3 -1 5.05 4.25 0.99 o
295 2 -1 -13 3 0 1690.96 1649.14 11.23 o
295 1 1 -13 3 0 1690.96 1649.14 11.23 o
296 1 1 -13 3 1 13.93 15.30 2.25 o
297 1 1 -13 4 -1 0.73 0.36 1.13 <
298 2 -1 -13 4 0 2174.03 2027.50 17.85 o
298 1 1 -13 4 0 2174.03 2027.50 17.85 o
299 1 1 -13 4 1 0.78 3.46 1.00 o
300 1 1 -13 5 -1 7.49 5.36 2.21 <
301 2 -1 -13 5 0 101.71 115.63 4.58 o
301 1 1 -13 5 0 101.71 115.63 4.58 o
302 1 1 -13 5 1 29.44 27.47 1.66 o
303 2 -1 -13 6 0 3963.43 3738.15 17.02 o
303 1 1 -13 6 0 3963.43 3738.15 17.02 o
304 1 1 -13 6 1 0.05 -0.82 0.95 <
305 2 -1 -13 7 0 223.60 205.67 5.92 o
305 1 1 -13 7 0 223.60 205.67 5.92 o
306 1 1 -13 7 1 0.10 0.03 0.73 <
307 1 1 -13 8 1 0.07 -0.22 0.74 <
308 1 1 -11 1 -1 10.77 8.83 1.37 o
309 1 1 -11 1 1 35.43 38.39 1.68 o
310 1 1 -11 2 -1 14.68 14.71 1.16 o
311 1 1 -11 2 1 0.66 0.75 0.53 <
312 1 1 -11 3 -1 3.43 3.24 0.71 o
313 2 -1 -11 3 0 384.45 378.81 7.44 o
313 1 1 -11 3 0 384.45 378.81 7.44 o
314 1 1 -11 3 1 0.79 0.73 0.51 <
315 1 1 -11 4 -1 3.24 3.55 0.82 o
316 2 -1 -11 4 0 2379.43 2384.98 13.44 o
316 1 1 -11 4 0 2379.43 2384.98 13.44 o
317 1 1 -11 4 1 2.35 2.25 0.98 <
318 1 1 -11 5 -1 0.91 1.43 1.03 <
319 2 -1 -11 5 0 152.22 181.54 3.88 o
319 1 1 -11 5 0 152.22 181.54 3.88 o
320 1 1 -11 5 1 1.35 0.71 0.65 <
321 1 1 -11 6 -1 4.12 3.30 1.19 <
322 2 -1 -11 6 0 3317.66 3203.25 15.72 o
322 1 1 -11 6 0 3317.66 3203.25 15.72 o
323 1 1 -11 6 1 1.08 0.29 0.82 <
324 1 1 -11 7 -1 0.02 -0.16 0.65 <
325 2 -1 -11 7 0 3847.25 3539.41 36.44 o
325 1 1 -11 7 0 3847.25 3539.41 36.44 o
326 1 1 -11 7 1 6.56 6.07 0.95 o
327 1 1 -11 8 -1 0.15 -0.28 0.74 <
328 2 -1 -11 8 0 1900.57 1687.18 25.12 o
328 1 1 -11 8 0 1900.57 1687.18 25.12 o
329 1 1 -11 8 1 1.40 1.72 1.23 <
330 1 1 -11 9 -1 2.48 1.78 1.22 <
331 2 -1 -11 9 0 881.80 791.93 8.41 o
331 1 1 -11 9 0 881.80 791.93 8.41 o
332 1 1 -11 9 1 26.88 23.20 1.69 o
333 1 1 -11 10 -1 10.96 7.53 1.15 o
334 2 -1 -11 10 0 2910.65 2555.15 14.97 o
334 1 1 -11 10 0 2910.65 2555.15 14.97 o
335 1 1 -11 10 1 0.04 0.59 0.91 <
336 2 -1 -11 11 0 593.44 505.51 6.86 o
336 1 1 -11 11 0 593.44 505.51 6.86 o
337 1 1 -11 11 1 3.19 3.83 1.14 o
338 2 -1 -9 0 0 2149.98 1994.37 15.63 o
338 1 1 -9 0 0 2149.98 1994.37 15.63 o
339 1 1 -9 1 -1 1.57 1.39 0.43 o
340 2 -1 -9 1 0 2064.53 1774.49 10.62 o
340 1 1 -9 1 0 2064.53 1774.49 10.62 o
341 1 1 -9 1 1 1.12 0.43 0.39 <
342 1 1 -9 2 -1 7.06 6.76 0.74 o
343 2 -1 -9 2 0 7569.91 7280.01 40.41 o
343 1 1 -9 2 0 7569.91 7280.01 40.41 o
344 1 1 -9 2 1 5.34 5.05 0.65 o
345 1 1 -9 3 -1 1.87 1.16 0.45 <
346 1 1 -9 3 1 42.23 40.54 1.66 o
347 1 1 -9 4 -1 1.05 0.89 0.69 <
348 2 -1 -9 4 0 1262.96 1292.70 18.50 o
348 1 1 -9 4 0 1262.96 1292.70 18.50 o
349 1 1 -9 4 1 4.37 2.02 1.11 <
350 1 1 -9 5 -1 4.73 4.26 0.67 o
351 2 -1 -9 5 0 4961.70 4662.57 26.82 o
351 1 1 -9 5 0 4961.70 4662.57 26.82 o
352 1 1 -9 5 1 57.00 60.82 2.16 o
353 1 1 -9 6 -1 23.61 20.58 1.34 o
354 2 -1 -9 6 0 9508.29 8700.52 30.61 o
354 1 1 -9 6 0 9508.29 8700.52 30.61 o
355 1 1 -9 6 1 0.16 0.80 0.66 <
356 1 1 -9 7 -1 2.90 2.09 0.63 o
357 2 -1 -9 7 0 3545.53 3291.50 19.53 o
357 1 1 -9 7 0 3545.53 3291.50 19.53 o
358 1 1 -9 7 1 2.09 4.45 0.82 o
359 1 1 -9 8 -1 11.31 12.03 1.19 o
360 2 -1 -9 8 0 1640.74 1581.11 11.73 o
360 1 1 -9 8 0 1640.74 1581.11 11.73 o
361 1 1 -9 8 1 0.42 0.97 0.63 <
362 1 1 -9 9 -1 0.37 0.76 0.75 <
363 2 -1 -9 9 0 272.62 255.68 6.79 o
363 1 1 -9 9 0 272.62 255.68 6.79 o
364 1 1 -9 9 1 3.78 3.66 0.93 o
365 1 1 -9 10 -1 2.95 3.19 0.95 o
366 2 -1 -9 10 0 2334.46 2068.75 14.09 o
366 1 1 -9 10 0 2334.46 2068.75 14.09 o
367 1 1 -9 10 1 0.48 -0.74 1.06 <
368 1 1 -9 11 -1 1.36 1.18 0.88 <
369 2 -1 -9 11 0 2614.55 2416.37 15.43 o
369 1 1 -9 11 0 2614.55 2416.37 15.43 o
370 1 1 -9 11 1 1.75 0.22 1.23 <
371 1 1 -9 12 -1 0.08 -0.14 0.87 <
372 2 -1 -9 12 0 611.23 526.33 7.46 o
372 1 1 -9 12 0 611.23 526.33 7.46 o
373 1 1 -9 12 1 4.28 3.08 1.05 <
374 1 1 -9 13 -1 2.35 0.84 0.95 <
375 2 -1 -9 13 0 311.45 239.52 5.96 o
375 1 1 -9 13 0 311.45 239.52 5.96 o
376 1 1 -9 13 1 24.45 26.56 3.76 o
377 2 -1 -9 14 0 6406.03 5487.87 46.99 o
377 1 1 -9 14 0 6406.03 5487.87 46.99 o
378 1 1 -9 14 1 0.16 -0.03 1.29 <
379 1 1 -7 1 -1 0.14 0.22 0.33 <
380 2 -1 -7 1 0 2814.26 2759.99 26.20 o
380 1 1 -7 1 0 2814.26 2759.99 26.20 o
381 1 1 -7 1 1 63.24 54.85 1.69 o
382 1 1 -7 2 -1 18.27 15.66 0.98 o
383 2 -1 -7 2 0 6914.04 6668.67 18.98 o
383 1 1 -7 2 0 6914.04 6668.67 18.98 o
384 1 1 -7 2 1 1.09 0.65 0.29 <
385 1 1 -7 3 -1 1.71 1.50 0.38 o
386 2 -1 -7 3 0 3541.97 3390.29 14.19 o
386 1 1 -7 3 0 3541.97 3390.29 14.19 o
387 1 1 -7 3 1 0.02 0.14 0.46 <
388 1 1 -7 4 -1 0.41 0.29 0.40 <
389 2 -1 -7 4 0 1114.60 1074.04 8.32 o
389 1 1 -7 4 0 1114.60 1074.04 8.32 o
390 1 1 -7 4 1 0.55 0.49 0.50 <
391 1 1 -7 5 -1 0.22 0.27 0.40 <
392 2 -1 -7 5 0 794.84 856.37 7.59 o
392 1 1 -7 5 0 794.84 856.37 7.59 o
393 1 1 -7 5 1 0.72 1.04 0.38 <
394 2 -1 -7 6 0 4574.12 4411.57 18.31 o
394 1 1 -7 6 0 4574.12 4411.57 18.31 o
395 1 1 -7 6 1 5.94 4.42 0.70 o
396 1 1 -7 7 -1 0.19 -0.56 0.97 <
397 2 -1 -7 7 0 5542.13 5715.85 30.38 o
397 1 1 -7 7 0 5542.13 5715.85 30.38 o
398 1 1 -7 7 1 31.15 33.43 1.72 o
399 1 1 -7 8 -1 0.04 -0.65 0.68 <
400 2 -1 -7 8 0 2141.77 2049.23 13.28 o
400 1 1 -7 8 0 2141.77 2049.23 13.28 o
401 1 1 -7 8 1 11.86 6.93 1.38 o
402 1 1 -7 9 -1 2.21 1.51 0.59 <
403 2 -1 -7 9 0 288.98 417.27 6.78 o
403 1 1 -7 9 0 288.98 417.27 6.78 o
404 1 1 -7 9 1 79.14 82.37 2.89 o
405 1 1 -7 10 -1 13.66 12.02 2.50 o
406 2 -1 -7 10 0 10803.70 9874.81 38.04 o
406 1 1 -7 10 0 10803.70 9874.81 38.04 o
407 1 1 -7 10 1 0.29 0.91 0.71 <
408 1 1 -7 11 -1 14.03 10.88 1.27 o
409 2 -1 -7 11 0 3715.33 3464.92 18.97 o
409 1 1 -7 11 0 3715.33 3464.92 18.97 o
410 1 1 -7 11 1 7.57 6.67 1.18 o
411 1 1 -7 12 -1 4.77 4.63 1.06 o
412 2 -1 -7 12 0 47.87 28.08 1.87 o
412 1 1 -7 12 0 47.87 28.08 1.87 o
413 1 1 -7 12 1 0.05 0.22 0.94 <
414 1 1 -7 13 -1 1.90 1.59 1.25 <
415 2 -1 -7 13 0 6.27 6.61 1.27 o
415 1 1 -7 13 0 6.27 6.61 1.27 o
416 1 1 -7 13 1 0.12 0.08 1.51 <
417 1 1 -7 14 -1 0.06 -0.05 1.38 <
418 2 -1 -7 14 0 1697.60 1351.43 12.47 o
418 1 1 -7 14 0 1697.60 1351.43 12.47 o
419 1 1 -7 14 1 0.17 -0.51 1.08 <
420 1 1 -7 15 -1 0.04 0.27 1.01 <
421 2 -1 -7 15 0 3430.62 3089.39 25.31 o
421 1 1 -7 15 0 3430.62 3089.39 25.31 o
422 1 1 -7 15 1 0.94 0.10 1.48 <
423 2 -1 -7 16 0 823.74 787.76 20.02 o
423 1 1 -7 16 0 823.74 787.76 20.02 o
424 2 -1 -5 0 0 3337.49 3158.34 20.94 o
424 1 1 -5 0 0 3337.49 3158.34 20.94 o
425 1 1 -5 1 -1 30.32 28.29 1.14 o
426 2 -1 -5 1 0 3293.49 3135.59 12.50 o
426 1 1 -5 1 0 3293.49 3135.59 12.50 o
427 1 1 -5 1 1 0.24 0.32 0.21 <
428 1 1 -5 2 -1 10.87 9.68 0.76 o
429 2 -1 -5 2 0 16507.90 15839.80 38.23 o
429 1 1 -5 2 0 16507.90 15839.80 38.23 o
430 1 1 -5 2 1 2.22 1.81 0.35 o
431 1 1 -5 3 -1 0.65 0.49 0.32 <
432 2 -1 -5 3 0 16994.10 16452.30 32.43 o
432 1 1 -5 3 0 16994.10 16452.30 32.43 o
433 1 1 -5 3 1 58.37 53.71 1.65 o
434 1 1 -5 4 -1 0.05 0.10 0.28 <
435 2 -1 -5 4 0 4829.32 4640.99 15.96 o
435 1 1 -5 4 0 4829.32 4640.99 15.96 o
436 1 1 -5 4 1 0.76 0.33 0.25 <
437 1 1 -5 5 -1 0.68 0.52 0.44 <
438 2 -1 -5 5 0 2249.27 2187.63 11.78 o
438 1 1 -5 5 0 2249.27 2187.63 11.78 o
439 1 1 -5 5 1 93.52 92.13 2.53 o
440 1 1 -5 6 -1 6.57 5.76 0.70 o
441 2 -1 -5 6 0 9627.69 9527.48 26.61 o
441 1 1 -5 6 0 9627.69 9527.48 26.61 o
442 1 1 -5 6 1 2.98 2.64 0.73 o
443 1 1 -5 7 -1 20.01 19.26 1.28 o
444 2 -1 -5 7 0 2320.23 2695.01 14.66 o
444 1 1 -5 7 0 2320.23 2695.01 14.66 o
445 1 1 -5 7 1 6.31 6.59 0.83 o
446 1 1 -5 8 -1 2.50 2.57 0.81 o
447 2 -1 -5 8 0 1687.34 1604.59 13.33 o
447 1 1 -5 8 0 1687.34 1604.59 13.33 o
448 1 1 -5 8 1 0.69 3.85 1.08 o
449 1 1 -5 9 -1 0.12 0.22 0.86 <
450 2 -1 -5 9 0 454.82 391.41 6.27 o
450 1 1 -5 9 0 454.82 391.41 6.27 o
451 1 1 -5 9 1 0.84 1.10 0.61 <
452 1 1 -5 10 -1 4.91 4.58 1.16 o
453 2 -1 -5 10 0 6286.64 5819.01 33.37 o
453 1 1 -5 10 0 6286.64 5819.01 33.37 o
454 1 1 -5 10 1 3.13 2.12 0.80 <
455 1 1 -5 11 -1 1.75 1.36 0.69 <
456 2 -1 -5 11 0 7757.28 7567.78 32.99 o
456 1 1 -5 11 0 7757.28 7567.78 32.99 o
457 1 1 -5 11 1 8.85 8.00 1.31 o
458 1 1 -5 12 -1 0.03 -0.52 0.95 <
459 2 -1 -5 12 0 597.93 600.39 18.86 o
459 1 1 -5 12 0 597.93 600.39 18.86 o
460 1 1 -5 12 1 16.18 15.68 1.73 o
461 1 1 -5 13 -1 0.05 -0.42 0.83 <
462 2 -1 -5 13 0 726.77 657.86 9.20 o
462 1 1 -5 13 0 726.77 657.86 9.20 o
463 1 1 -5 13 1 54.64 64.52 3.16 o
464 1 1 -5 14 -1 4.89 4.30 2.04 <
465 2 -1 -5 14 0 3798.26 3563.45 21.57 o
465 1 1 -5 14 0 3798.26 3563.45 21.57 o
466 1 1 -5 14 1 1.65 1.82 1.18 <
467 1 1 -5 15 -1 14.45 12.69 1.73 o
468 2 -1 -5 15 0 3422.57 3318.31 32.49 o
468 1 1 -5 15 0 3422.57 3318.31 32.49 o
469 1 1 -5 15 1 19.07 20.96 2.30 o
470 1 1 -5 16 -1 8.85 7.61 1.85 o
471 2 -1 -5 16 0 123.95 334.84 6.91 o
471 1 1 -5 16 0 123.95 334.84 6.91 o
472 1 1 -5 16 1 0.05 0.40 1.51 <
473 1 1 -5 17 -1 0.93 -0.18 1.73 <
474 2 -1 -5 17 0 363.20 382.77 13.68 o
474 1 1 -5 17 0 363.20 382.77 13.68 o
475 2 -1 -3 0 0 1489.33 1414.14 6.03 o
475 1 1 -3 0 0 1489.33 1414.14 6.03 o
476 2 -1 -3 1 0 18621.80 17410.90 19.29 o
476 1 1 -3 1 0 18621.80 17410.90 19.29 o
477 1 1 -3 1 1 156.36 145.98 1.44 o
478 1 1 -3 2 -1 7.06 6.74 0.79 o
479 2 -1 -3 2 0 37911.10 32855.80 31.91 o
479 1 1 -3 2 0 37911.10 32855.80 31.91 o
480 1 1 -3 2 1 10.26 7.60 0.40 o
481 1 1 -3 3 -1 36.11 33.32 1.27 o
482 2 -1 -3 3 0 17462.60 17159.80 35.91 o
482 1 1 -3 3 0 17462.60 17159.80 35.91 o
483 1 1 -3 3 1 6.01 5.71 0.50 o
484 1 1 -3 4 -1 10.14 11.88 0.84 o
485 2 -1 -3 4 0 665.42 621.58 7.74 o
485 1 1 -3 4 0 665.42 621.58 7.74 o
486 1 1 -3 4 1 0.01 0.03 0.39 <
487 1 1 -3 5 -1 26.01 30.27 1.44 o
488 2 -1 -3 5 0 5968.73 5681.01 19.66 o
488 1 1 -3 5 0 5968.73 5681.01 19.66 o
489 1 1 -3 5 1 1.22 1.46 0.80 <
490 1 1 -3 6 -1 0.00 -0.09 0.37 <
491 2 -1 -3 6 0 15279.40 16075.60 35.81 o
491 1 1 -3 6 0 15279.40 16075.60 35.81 o
492 1 1 -3 6 1 9.02 8.67 1.23 o
493 1 1 -3 7 -1 0.30 0.44 0.59 <
494 2 -1 -3 7 0 8565.44 9003.15 28.98 o
494 1 1 -3 7 0 8565.44 9003.15 28.98 o
495 1 1 -3 7 1 27.95 30.84 3.80 o
496 1 1 -3 8 -1 2.28 2.19 0.82 <
497 1 1 -3 8 1 10.51 9.41 2.38 o
498 1 1 -3 9 -1 0.03 -0.47 0.85 <
499 2 -1 -3 9 0 4182.65 4423.00 23.71 o
499 1 1 -3 9 0 4182.65 4423.00 23.71 o
500 1 1 -3 10 -1 4.45 3.21 0.81 o
501 2 -1 -3 10 0 9335.23 10111.80 36.95 o
501 1 1 -3 10 0 9335.23 10111.80 36.95 o
502 1 1 -3 10 1 4.12 5.35 1.42 o
503 1 1 -3 11 -1 19.24 19.60 1.95 o
504 2 -1 -3 11 0 5154.73 5905.48 29.02 o
504 1 1 -3 11 0 5154.73 5905.48 29.02 o
505 1 1 -3 11 1 13.29 14.49 2.27 o
506 1 1 -3 12 -1 7.72 8.98 1.32 o
507 2 -1 -3 12 0 1121.96 1184.18 12.96 o
507 1 1 -3 12 0 1121.96 1184.18 12.96 o
508 1 1 -3 12 1 0.31 -0.28 1.81 <
509 1 1 -3 13 -1 5.49 7.14 2.68 <
510 2 -1 -3 13 0 637.51 790.45 21.34 o
510 1 1 -3 13 0 637.51 790.45 21.34 o
511 1 1 -3 13 1 1.33 1.53 1.38 <
512 1 1 -3 14 -1 0.58 1.14 1.06 <
513 2 -1 -3 14 0 3336.69 3821.84 27.28 o
513 1 1 -3 14 0 3336.69 3821.84 27.28 o
514 1 1 -3 14 1 1.36 -0.44 1.52 <
515 1 1 -3 15 -1 2.11 1.74 2.35 <
516 2 -1 -3 15 0 3792.04 3847.55 31.42 o
516 1 1 -3 15 0 3792.04 3847.55 31.42 o
517 1 1 -3 15 1 1.48 1.83 2.83 <
518 1 1 -3 16 -1 0.87 0.57 1.26 <
519 2 -1 -3 16 0 10.44 20.57 3.10 o
519 1 1 -3 16 0 10.44 20.57 3.10 o
520 1 1 -3 16 1 12.82 13.43 1.90 o
521 1 1 -3 17 -1 2.20 2.89 2.02 <
522 2 -1 -3 17 0 8.61 5.51 2.30 <
522 1 1 -3 17 0 8.61 5.51 2.30 <
523 1 1 -3 17 1 41.90 48.44 4.44 o
524 2 -1 -1 0 0 99.65 111.41 1.19 o
524 1 1 -1 0 0 99.65 111.41 1.19 o
525 1 1 -1 1 -1 43.90 45.41 0.68 o
526 2 -1 -1 1 0 9126.10 8481.23 8.36 o
526 1 1 -1 1 0 9126.10 8481.23 8.36 o
527 1 1 -1 1 1 0.03 0.10 0.16 <
528 1 1 -1 2 -1 0.00 0.10 0.13 <
529 2 -1 -1 2 0 12717.40 12323.40 14.00 o
529 1 1 -1 2 0 12717.40 12323.40 14.00 o
530 1 1 -1 2 1 25.67 19.67 1.02 o
531 1 1 -1 3 -1 0.55 0.91 0.25 o
532 2 -1 -1 3 0 5163.81 4637.11 11.10 o
532 1 1 -1 3 0 5163.81 4637.11 11.10 o
533 1 1 -1 3 1 107.92 88.52 1.56 o
534 1 1 -1 4 -1 1.00 1.27 0.49 <
535 2 -1 -1 4 0 432.56 527.66 12.06 o
535 1 1 -1 4 0 432.56 527.66 12.06 o
536 1 1 -1 4 1 3.85 2.29 0.40 o
537 1 1 -1 5 -1 0.09 0.20 0.45 <
538 2 -1 -1 5 0 4657.77 4550.86 22.57 o
538 1 1 -1 5 0 4657.77 4550.86 22.57 o
539 1 1 -1 5 1 206.93 165.46 7.31 o
540 1 1 -1 6 -1 0.93 0.90 0.42 <
541 2 -1 -1 6 0 19805.50 20572.50 61.36 o
541 1 1 -1 6 0 19805.50 20572.50 61.36 o
542 1 1 -1 7 -1 45.03 42.95 2.21 o
543 2 -1 -1 7 0 18741.80 20457.30 48.79 o
543 1 1 -1 7 0 18741.80 20457.30 48.79 o
544 1 1 -1 7 1 14.61 10.88 2.48 o
545 1 1 -1 8 -1 4.64 5.75 1.28 o
546 2 -1 -1 8 0 486.67 550.64 11.85 o
546 1 1 -1 8 0 486.67 550.64 11.85 o
547 1 1 -1 8 1 0.00 0.59 1.29 <
548 1 1 -1 9 -1 23.59 25.14 4.06 o
549 2 -1 -1 9 0 583.07 650.87 9.73 o
549 1 1 -1 9 0 583.07 650.87 9.73 o
550 1 1 -1 9 1 0.98 1.12 0.70 <
551 1 1 -1 10 -1 5.54 5.49 1.28 o
552 2 -1 -1 10 0 7436.96 7905.50 31.82 o
552 1 1 -1 10 0 7436.96 7905.50 31.82 o
553 1 1 -1 10 1 6.80 6.46 1.27 o
554 1 1 -1 11 -1 0.17 -0.16 0.96 <
555 2 -1 -1 11 0 6746.04 7324.48 37.32 o
555 1 1 -1 11 0 6746.04 7324.48 37.32 o
556 1 1 -1 11 1 10.49 10.39 2.02 o
557 1 1 -1 12 -1 6.16 7.29 1.72 o
558 2 -1 -1 12 0 276.87 360.65 7.55 o
558 1 1 -1 12 0 276.87 360.65 7.55 o
559 1 1 -1 12 1 10.16 8.90 1.89 o
560 1 1 -1 13 -1 0.17 0.77 0.89 <
561 2 -1 -1 13 0 4.28 14.06 1.87 o
561 1 1 -1 13 0 4.28 14.06 1.87 o
562 1 1 -1 13 1 82.63 66.72 6.56 o
563 1 1 -1 14 -1 1.34 1.28 1.04 <
564 2 -1 -1 14 0 7834.54 9089.33 35.94 o
564 1 1 -1 14 0 7834.54 9089.33 35.94 o
565 1 1 -1 14 1 0.42 1.68 1.58 <
566 1 1 -1 15 -1 21.31 24.20 2.15 o
567 2 -1 -1 15 0 4573.13 5515.98 27.95 o
567 1 1 -1 15 0 4573.13 5515.98 27.95 o
568 1 1 -1 15 1 10.42 11.46 2.53 o
569 1 1 -1 16 -1 4.84 4.10 1.54 <
570 2 -1 -1 16 0 1.92 15.88 1.99 o
570 1 1 -1 16 0 1.92 15.88 1.99 o
571 1 1 -1 16 1 0.06 -0.31 1.65 <
572 1 1 -1 17 -1 8.46 12.08 2.70 o
573 2 -1 -1 17 0 107.03 270.61 6.36 o
573 1 1 -1 17 0 107.03 270.61 6.36 o
574 1 1 -1 17 1 1.49 1.74 1.80 <
575 1 1 -1 18 -1 2.14 2.51 1.82 <
576 2 -1 -1 18 0 1706.97 1650.23 32.20 o
576 1 1 -1 18 0 1706.97 1650.23 32.20 o
577 2 -1 1 0 0 101.23 108.02 1.15 o
577 1 1 1 0 0 101.23 108.02 1.15 o
578 1 1 1 1 -1 0.01 0.10 0.15 <
579 2 -1 1 1 0 9208.88 8599.26 8.27 o
579 1 1 1 1 0 9208.88 8599.26 8.27 o
580 1 1 1 1 1 250.03 236.87 1.65 o
581 1 1 1 2 -1 8.97 7.98 0.42 o
582 2 -1 1 2 0 12833.10 12238.20 13.38 o
582 1 1 1 2 0 12833.10 12238.20 13.38 o
583 1 1 1 2 1 26.06 25.78 0.67 o
584 1 1 1 3 -1 60.43 55.09 1.41 o
585 2 -1 1 3 0 5118.66 4740.91 11.56 o
585 1 1 1 3 0 5118.66 4740.91 11.56 o
586 1 1 1 3 1 1.59 1.59 0.32 o
587 1 1 1 4 -1 2.54 2.66 0.46 o
588 2 -1 1 4 0 442.55 503.11 11.16 o
588 1 1 1 4 0 442.55 503.11 11.16 o
589 1 1 1 4 1 0.17 0.25 0.31 <
590 1 1 1 5 -1 25.83 27.16 1.60 o
591 2 -1 1 5 0 4667.66 4473.43 43.15 o
591 1 1 1 5 0 4667.66 4473.43 43.15 o
592 1 1 1 6 -1 13.65 13.89 1.20 o
593 2 -1 1 6 0 19934.80 20599.40 44.56 o
593 1 1 1 6 0 19934.80 20599.40 44.56 o
594 1 1 1 6 1 18.54 17.88 1.51 o
595 1 1 1 7 -1 0.18 0.27 0.66 <
596 2 -1 1 7 0 18815.00 20843.20 48.64 o
596 1 1 1 7 0 18815.00 20843.20 48.64 o
597 1 1 1 7 1 57.26 53.91 2.73 o
598 1 1 1 8 -1 3.66 4.78 1.01 o
599 2 -1 1 8 0 476.19 511.50 12.86 o
599 1 1 1 8 0 476.19 511.50 12.86 o
600 1 1 1 8 1 7.79 7.80 1.20 o
601 1 1 1 9 -1 0.49 0.41 0.78 <
602 2 -1 1 9 0 598.52 545.88 8.24 o
602 1 1 1 9 0 598.52 545.88 8.24 o
603 1 1 1 10 -1 1.82 1.69 0.95 <
604 2 -1 1 10 0 7394.16 8213.07 38.16 o
604 1 1 1 10 0 7394.16 8213.07 38.16 o
605 1 1 1 10 1 0.59 0.27 0.86 <
606 1 1 1 11 -1 32.33 37.89 2.59 o
607 2 -1 1 11 0 6736.42 7295.06 52.86 o
607 1 1 1 11 0 6736.42 7295.06 52.86 o
608 1 1 1 11 1 10.23 9.49 1.54 o
609 1 1 1 12 -1 3.28 2.58 0.93 <
610 2 -1 1 12 0 265.45 361.43 7.36 o
610 1 1 1 12 0 265.45 361.43 7.36 o
611 1 1 1 12 1 0.61 0.25 1.10 <
612 1 1 1 13 -1 13.06 10.98 1.78 o
613 2 -1 1 13 0 4.68 15.47 2.27 o
613 1 1 1 13 0 4.68 15.47 2.27 o
614 1 1 1 13 1 2.40 2.94 1.81 <
615 1 1 1 14 -1 5.04 4.71 1.73 <
616 2 -1 1 14 0 7882.07 8746.49 40.60 o
616 1 1 1 14 0 7882.07 8746.49 40.60 o
617 1 1 1 14 1 8.31 7.99 2.19 o
618 1 1 1 15 -1 0.78 1.91 1.30 <
619 2 -1 1 15 0 4554.96 4999.79 29.74 o
619 1 1 1 15 0 4554.96 4999.79 29.74 o
620 1 1 1 15 1 1.14 1.12 1.85 <
621 1 1 1 16 -1 4.17 4.64 1.45 o
622 2 -1 1 16 0 1.89 9.56 1.59 o
622 1 1 1 16 0 1.89 9.56 1.59 o
623 1 1 1 16 1 11.82 10.80 2.45 o
624 1 1 1 17 -1 0.08 0.90 1.21 <
625 2 -1 1 17 0 113.63 248.50 6.06 o
625 1 1 1 17 0 113.63 248.50 6.06 o
626 1 1 1 17 1 44.94 41.35 3.81 o
627 1 1 1 18 -1 0.10 0.91 1.21 <
628 2 -1 1 18 0 1698.85 1671.21 25.38 o
628 1 1 1 18 0 1698.85 1671.21 25.38 o
629 2 -1 3 0 0 1510.51 1472.05 9.29 o
629 1 1 3 0 0 1510.51 1472.05 9.29 o
630 1 1 3 1 -1 42.22 42.28 0.71 o
631 2 -1 3 1 0 18659.80 17615.10 22.93 o
631 1 1 3 1 0 18659.80 17615.10 22.93 o
632 1 1 3 1 1 1.62 1.80 0.55 o
633 1 1 3 2 -1 22.12 22.57 0.61 o
634 2 -1 3 2 0 38046.00 33052.90 44.02 o
634 1 1 3 2 0 38046.00 33052.90 44.02 o
635 1 1 3 2 1 17.63 15.35 0.84 o
636 1 1 3 3 -1 0.00 0.40 0.23 <
637 2 -1 3 3 0 17350.70 17268.40 56.78 o
637 1 1 3 3 0 17350.70 17268.40 56.78 o
638 1 1 3 3 1 128.70 111.20 2.38 o
639 1 1 3 4 -1 2.69 2.11 0.67 o
640 2 -1 3 4 0 683.49 691.48 7.10 o
640 1 1 3 4 0 683.49 691.48 7.10 o
641 1 1 3 4 1 13.30 15.17 1.12 o
642 1 1 3 5 -1 0.56 0.84 0.38 <
643 2 -1 3 5 0 6010.19 5845.90 41.34 o
643 1 1 3 5 0 6010.19 5845.90 41.34 o
644 1 1 3 5 1 181.85 190.54 6.74 o
645 1 1 3 6 -1 15.71 18.57 1.43 o
646 2 -1 3 6 0 15295.80 15934.00 34.99 o
646 1 1 3 6 0 15295.80 15934.00 34.99 o
647 1 1 3 6 1 1.72 2.34 0.99 <
648 1 1 3 7 -1 51.99 64.44 2.92 o
649 2 -1 3 7 0 8643.82 8688.11 54.14 o
649 1 1 3 7 0 8643.82 8688.11 54.14 o
650 1 1 3 7 1 3.62 3.17 0.78 o
651 1 1 3 8 -1 0.35 0.61 0.74 <
652 1 1 3 9 -1 32.21 38.73 2.55 o
653 2 -1 3 9 0 4173.50 4364.55 22.53 o
653 1 1 3 9 0 4173.50 4364.55 22.53 o
654 1 1 3 9 1 7.34 6.37 1.18 o
655 1 1 3 10 -1 7.58 10.90 1.89 o
656 2 -1 3 10 0 9360.11 10069.90 36.41 o
656 1 1 3 10 0 9360.11 10069.90 36.41 o
657 1 1 3 10 1 10.83 9.29 1.43 o
658 1 1 3 11 -1 0.26 0.91 1.21 <
659 2 -1 3 11 0 5125.40 5670.26 27.90 o
659 1 1 3 11 0 5125.40 5670.26 27.90 o
660 1 1 3 11 1 14.46 10.44 1.65 o
661 1 1 3 12 -1 6.31 6.33 1.53 o
662 2 -1 3 12 0 1131.15 1115.95 12.47 o
662 1 1 3 12 0 1131.15 1115.95 12.47 o
663 1 1 3 12 1 13.73 10.18 1.65 o
664 1 1 3 13 -1 0.00 -0.18 0.82 <
665 2 -1 3 13 0 641.13 762.36 17.27 o
665 1 1 3 13 0 641.13 762.36 17.27 o
666 1 1 3 13 1 93.30 57.50 5.45 o
667 1 1 3 14 -1 4.21 5.44 1.43 o
668 2 -1 3 14 0 3327.25 3684.36 33.44 o
668 1 1 3 14 0 3327.25 3684.36 33.44 o
669 1 1 3 14 1 2.65 3.61 1.46 <
670 1 1 3 15 -1 17.78 16.93 1.92 o
671 2 -1 3 15 0 3802.47 3833.93 51.76 o
671 1 1 3 15 0 3802.47 3833.93 51.76 o
672 1 1 3 15 1 24.38 17.05 2.23 o
673 1 1 3 16 -1 1.60 1.32 1.59 <
674 2 -1 3 16 0 9.26 29.91 2.30 o
674 1 1 3 16 0 9.26 29.91 2.30 o
675 1 1 3 16 1 0.23 -0.10 1.10 <
676 1 1 3 17 -1 8.19 9.32 2.34 o
677 2 -1 3 17 0 8.93 6.06 2.65 <
677 1 1 3 17 0 8.93 6.06 2.65 <
678 1 1 3 18 -1 7.80 11.61 2.37 o
679 2 -1 3 18 0 4991.88 5126.77 33.88 o
679 1 1 3 18 0 4991.88 5126.77 33.88 o
680 2 -1 5 0 0 3380.22 3140.83 16.47 o
680 1 1 5 0 0 3380.22 3140.83 16.47 o
681 1 1 5 1 -1 4.25 4.95 0.50 o
682 2 -1 5 1 0 3301.65 3152.83 11.82 o
682 1 1 5 1 0 3301.65 3152.83 11.82 o
683 1 1 5 1 1 117.16 98.31 2.34 o
684 1 1 5 2 -1 70.11 65.48 1.89 o
685 2 -1 5 2 0 16429.00 15540.60 27.66 o
685 1 1 5 2 0 16429.00 15540.60 27.66 o
686 1 1 5 2 1 13.28 15.75 0.99 o
687 1 1 5 3 -1 70.48 88.85 2.09 o
688 2 -1 5 3 0 16975.20 16274.90 29.22 o
688 1 1 5 3 0 16975.20 16274.90 29.22 o
689 1 1 5 3 1 0.01 0.00 0.44 <
690 1 1 5 4 -1 0.91 1.31 0.35 o
691 2 -1 5 4 0 4808.20 4674.17 24.08 o
691 1 1 5 4 0 4808.20 4674.17 24.08 o
692 1 1 5 4 1 0.00 0.13 0.37 <
693 1 1 5 5 -1 42.61 52.07 1.88 o
694 2 -1 5 5 0 2217.71 2308.93 16.29 o
694 1 1 5 5 0 2217.71 2308.93 16.29 o
695 1 1 5 5 1 6.69 5.75 1.05 o
696 1 1 5 6 -1 36.25 42.83 2.04 o
697 2 -1 5 6 0 9664.99 9570.08 32.29 o
697 1 1 5 6 0 9664.99 9570.08 32.29 o
698 1 1 5 6 1 10.61 8.59 1.33 o
699 1 1 5 7 -1 0.08 0.92 0.68 <
700 2 -1 5 7 0 2315.88 2467.02 14.48 o
700 1 1 5 7 0 2315.88 2467.02 14.48 o
701 1 1 5 7 1 42.10 39.98 3.70 o
702 1 1 5 8 -1 3.18 3.99 0.69 o
703 2 -1 5 8 0 1681.91 1699.65 12.47 o
703 1 1 5 8 0 1681.91 1699.65 12.47 o
704 1 1 5 8 1 3.05 2.71 0.79 o
705 1 1 5 9 -1 0.61 0.65 0.53 <
706 2 -1 5 9 0 462.68 466.00 7.00 o
706 1 1 5 9 0 462.68 466.00 7.00 o
707 1 1 5 9 1 184.04 174.91 8.35 o
708 2 -1 5 10 0 6280.79 5759.53 27.26 o
708 1 1 5 10 0 6280.79 5759.53 27.26 o
709 1 1 5 10 1 5.72 7.18 1.44 o
710 1 1 5 11 -1 23.79 26.84 2.76 o
711 2 -1 5 11 0 7772.24 7672.60 33.23 o
711 1 1 5 11 0 7772.24 7672.60 33.23 o
712 1 1 5 11 1 21.02 17.01 3.31 o
713 1 1 5 12 -1 1.98 1.64 0.85 <
714 2 -1 5 12 0 598.59 630.85 14.68 o
714 1 1 5 12 0 598.59 630.85 14.68 o
715 1 1 5 12 1 0.01 -0.07 1.12 <
716 1 1 5 13 -1 7.33 7.92 1.34 o
717 2 -1 5 13 0 718.45 712.75 15.04 o
717 1 1 5 13 0 718.45 712.75 15.04 o
718 1 1 5 13 1 3.28 2.40 1.40 <
719 1 1 5 14 -1 29.01 34.28 2.70 o
720 2 -1 5 14 0 3834.63 3066.67 25.91 o
720 1 1 5 14 0 3834.63 3066.67 25.91 o
721 1 1 5 14 1 4.00 2.75 1.31 <
722 1 1 5 15 -1 1.03 0.63 1.02 <
723 2 -1 5 15 0 3425.38 3255.27 29.95 o
723 1 1 5 15 0 3425.38 3255.27 29.95 o
724 1 1 5 15 1 1.98 3.20 1.30 <
725 1 1 5 16 -1 11.22 10.90 1.65 o
726 2 -1 5 16 0 122.04 316.99 6.53 o
726 1 1 5 16 0 122.04 316.99 6.53 o
727 1 1 5 17 -1 0.08 0.95 1.20 <
728 2 -1 5 17 0 356.44 340.46 10.82 o
728 1 1 5 17 0 356.44 340.46 10.82 o
729 2 -1 7 0 0 458.24 450.77 7.06 o
729 1 1 7 0 0 458.24 450.77 7.06 o
730 1 1 7 1 -1 29.38 32.28 1.39 o
731 2 -1 7 1 0 2815.21 2870.14 12.80 o
731 1 1 7 1 0 2815.21 2870.14 12.80 o
732 1 1 7 1 1 2.15 1.68 0.40 o
733 1 1 7 2 -1 87.82 87.09 2.47 o
734 2 -1 7 2 0 6979.08 6624.77 22.09 o
734 1 1 7 2 0 6979.08 6624.77 22.09 o
735 1 1 7 2 1 9.36 9.26 0.85 o
736 1 1 7 3 -1 14.48 14.42 1.30 o
737 2 -1 7 3 0 3577.65 3556.02 22.04 o
737 1 1 7 3 0 3577.65 3556.02 22.04 o
738 1 1 7 3 1 119.83 111.10 2.86 o
739 1 1 7 4 -1 5.86 5.67 0.92 o
740 2 -1 7 4 0 1139.32 1093.97 8.40 o
740 1 1 7 4 0 1139.32 1093.97 8.40 o
741 1 1 7 4 1 1.04 0.60 0.48 <
742 1 1 7 5 -1 5.61 5.72 0.76 o
743 2 -1 7 5 0 802.01 767.99 7.42 o
743 1 1 7 5 0 802.01 767.99 7.42 o
744 1 1 7 5 1 171.58 158.01 7.20 o
745 1 1 7 6 -1 30.58 30.72 1.74 o
746 2 -1 7 6 0 4590.91 4458.54 18.40 o
746 1 1 7 6 0 4590.91 4458.54 18.40 o
747 1 1 7 6 1 14.78 15.17 1.16 o
748 1 1 7 7 -1 11.76 14.86 1.17 o
749 2 -1 7 7 0 5515.45 5686.72 38.02 o
749 1 1 7 7 0 5515.45 5686.72 38.02 o
750 1 1 7 7 1 1.32 0.78 0.59 <
751 1 1 7 8 -1 2.94 3.70 0.72 o
752 2 -1 7 8 0 2109.47 1991.27 19.05 o
752 1 1 7 8 0 2109.47 1991.27 19.05 o
753 1 1 7 8 1 0.00 -0.48 0.73 <
754 1 1 7 9 -1 3.49 4.50 1.08 o
755 2 -1 7 9 0 290.23 632.15 8.19 o
755 1 1 7 9 0 290.23 632.15 8.19 o
756 1 1 7 9 1 9.10 7.87 1.40 o
757 1 1 7 10 -1 50.32 59.25 2.83 o
758 2 -1 7 10 0 10900.20 9757.67 37.51 o
758 1 1 7 10 0 10900.20 9757.67 37.51 o
759 1 1 7 10 1 7.04 5.16 1.05 o
760 1 1 7 11 -1 0.88 1.72 0.75 <
761 2 -1 7 11 0 3714.37 3593.52 18.89 o
761 1 1 7 11 0 3714.37 3593.52 18.89 o
762 1 1 7 11 1 12.95 9.17 1.24 o
763 1 1 7 12 -1 9.22 9.68 1.87 o
764 2 -1 7 12 0 50.38 36.93 2.04 o
764 1 1 7 12 0 50.38 36.93 2.04 o
765 1 1 7 12 1 2.83 2.07 0.95 <
766 1 1 7 13 -1 0.23 0.30 0.93 <
767 2 -1 7 13 0 6.83 3.71 1.12 o
767 1 1 7 13 0 6.83 3.71 1.12 o
768 1 1 7 13 1 81.19 59.44 2.78 o
769 1 1 7 14 -1 13.08 14.51 2.49 o
770 2 -1 7 14 0 1696.83 1357.64 12.41 o
770 1 1 7 14 0 1696.83 1357.64 12.41 o
771 1 1 7 14 1 0.26 -0.67 0.94 <
772 1 1 7 15 -1 12.36 11.92 1.80 o
773 2 -1 7 15 0 3443.88 3029.72 39.62 o
773 1 1 7 15 0 3443.88 3029.72 39.62 o
774 1 1 7 16 -1 0.08 -0.18 0.97 <
775 2 -1 7 16 0 808.13 779.86 12.80 o
775 1 1 7 16 0 808.13 779.86 12.80 o
776 1 1 9 1 -1 2.98 2.33 0.44 o
777 1 1 9 1 1 161.49 146.29 3.41 o
778 1 1 9 2 -1 32.57 32.92 1.68 o
779 2 -1 9 2 0 7639.32 7224.57 41.38 o
779 1 1 9 2 0 7639.32 7224.57 41.38 o
780 1 1 9 2 1 0.21 -0.06 0.63 <
781 1 1 9 3 -1 4.30 7.10 0.81 o
782 2 -1 9 3 0 3446.75 3609.93 19.25 o
782 1 1 9 3 0 3446.75 3609.93 19.25 o
783 1 1 9 3 1 0.15 -0.05 0.59 <
784 1 1 9 4 -1 0.68 0.76 0.46 <
785 2 -1 9 4 0 1253.66 1348.52 11.97 o
785 1 1 9 4 0 1253.66 1348.52 11.97 o
786 1 1 9 4 1 0.65 1.05 0.52 <
787 1 1 9 5 -1 4.20 6.16 1.09 o
788 2 -1 9 5 0 4985.00 5201.01 19.74 o
788 1 1 9 5 0 4985.00 5201.01 19.74 o
789 1 1 9 5 1 9.34 8.10 1.19 o
790 1 1 9 6 -1 49.95 53.96 2.33 o
791 2 -1 9 6 0 9565.88 9341.12 27.20 o
791 1 1 9 6 0 9565.88 9341.12 27.20 o
792 1 1 9 6 1 6.26 5.89 0.91 o
793 1 1 9 7 -1 6.57 7.84 0.87 o
794 2 -1 9 7 0 3524.14 3423.45 16.81 o
794 1 1 9 7 0 3524.14 3423.45 16.81 o
795 1 1 9 7 1 40.92 28.07 1.65 o
796 1 1 9 8 -1 13.12 11.89 1.56 o
797 2 -1 9 8 0 1676.39 1579.83 11.89 o
797 1 1 9 8 0 1676.39 1579.83 11.89 o
798 1 1 9 8 1 7.94 7.98 1.13 o
799 1 1 9 9 -1 11.46 10.37 1.99 o
800 2 -1 9 9 0 275.99 295.23 5.35 o
800 1 1 9 9 0 275.99 295.23 5.35 o
801 1 1 9 9 1 91.93 77.59 5.69 o
802 1 1 9 10 -1 23.05 22.65 1.83 o
803 2 -1 9 10 0 2337.16 2049.15 14.10 o
803 1 1 9 10 0 2337.16 2049.15 14.10 o
804 1 1 9 10 1 0.01 0.11 1.26 <
805 1 1 9 11 -1 17.74 19.61 1.81 o
806 2 -1 9 11 0 2632.07 2382.66 15.17 o
806 1 1 9 11 0 2632.07 2382.66 15.17 o
807 1 1 9 11 1 1.06 1.55 1.28 <
808 1 1 9 12 -1 0.84 0.22 0.90 <
809 2 -1 9 12 0 593.97 524.06 7.39 o
809 1 1 9 12 0 593.97 524.06 7.39 o
810 1 1 9 12 1 0.24 -0.83 1.25 <
811 1 1 9 13 -1 7.84 7.55 1.40 o
812 2 -1 9 13 0 315.54 243.73 7.19 o
812 1 1 9 13 0 315.54 243.73 7.19 o
813 1 1 9 14 -1 15.67 16.74 2.40 o
814 2 -1 9 14 0 6436.66 5924.70 43.53 o
814 1 1 9 14 0 6436.66 5924.70 43.53 o
815 1 1 9 15 -1 2.93 2.07 1.49 <
816 2 -1 11 0 0 5903.59 7458.45 34.18 o
816 1 1 11 0 0 5903.59 7458.45 34.18 o
817 1 1 11 1 -1 3.17 5.50 0.70 o
818 2 -1 11 1 0 2825.57 2979.97 21.60 o
818 1 1 11 1 0 2825.57 2979.97 21.60 o
819 1 1 11 1 1 8.35 7.91 0.96 o
820 1 1 11 2 -1 42.72 46.41 2.14 o
821 2 -1 11 2 0 6312.43 6221.85 29.80 o
821 1 1 11 2 0 6312.43 6221.85 29.80 o
822 1 1 11 2 1 2.09 2.77 0.84 o
823 1 1 11 3 -1 4.12 4.15 0.70 o
824 2 -1 11 3 0 377.88 419.28 6.42 o
824 1 1 11 3 0 377.88 419.28 6.42 o
825 1 1 11 3 1 40.31 32.39 3.56 o
826 1 1 11 4 -1 0.07 0.17 0.50 <
827 2 -1 11 4 0 2407.81 2495.16 14.11 o
827 1 1 11 4 0 2407.81 2495.16 14.11 o
828 1 1 11 4 1 2.76 2.56 0.86 <
829 1 1 11 5 -1 12.94 13.21 1.55 o
830 2 -1 11 5 0 155.04 238.96 4.67 o
830 1 1 11 5 0 155.04 238.96 4.67 o
831 1 1 11 5 1 104.01 88.00 4.07 o
832 1 1 11 6 -1 60.12 63.98 2.57 o
833 2 -1 11 6 0 3323.67 3181.65 18.73 o
833 1 1 11 6 0 3323.67 3181.65 18.73 o
834 1 1 11 6 1 0.35 -0.31 0.74 <
835 1 1 11 7 -1 14.47 18.18 2.02 o
836 2 -1 11 7 0 3870.59 3784.62 17.80 o
836 1 1 11 7 0 3870.59 3784.62 17.80 o
837 1 1 11 7 1 2.72 0.64 0.84 <
838 1 1 11 8 -1 1.65 2.51 0.86 <
839 2 -1 11 8 0 1890.10 1800.26 12.38 o
839 1 1 11 8 0 1890.10 1800.26 12.38 o
840 1 1 11 8 1 1.45 0.70 0.81 <
841 1 1 11 9 -1 3.19 4.15 0.97 o
842 2 -1 11 9 0 877.10 792.78 8.40 o
842 1 1 11 9 0 877.10 792.78 8.40 o
843 1 1 11 9 1 7.37 4.28 1.06 o
844 1 1 11 10 -1 31.52 30.97 2.17 o
845 2 -1 11 10 0 2936.62 2606.56 22.94 o
845 1 1 11 10 0 2936.62 2606.56 22.94 o
846 1 1 11 10 1 1.90 0.47 1.14 <
847 1 1 11 11 -1 2.22 4.20 1.58 <
848 2 -1 11 11 0 589.03 518.02 6.88 o
848 1 1 11 11 0 589.03 518.02 6.88 o
849 1 1 11 12 -1 8.00 5.79 1.19 o
850 2 -1 13 0 0 1605.13 1538.53 23.06 o
850 1 1 13 0 0 1605.13 1538.53 23.06 o
851 1 1 13 1 -1 38.97 45.70 2.05 o
852 2 -1 13 1 0 127.37 113.04 2.98 o
852 1 1 13 1 0 127.37 113.04 2.98 o
853 1 1 13 1 1 70.77 61.32 2.47 o
854 2 -1 13 2 0 1821.50 2023.46 13.16 o
854 1 1 13 2 0 1821.50 2023.46 13.16 o
855 1 1 13 2 1 3.07 2.70 0.93 <
856 1 1 13 3 -1 3.36 4.62 1.36 o
857 2 -1 13 3 0 1690.85 1630.73 11.41 o
857 1 1 13 3 0 1690.85 1630.73 11.41 o
858 1 1 13 3 1 2.59 1.80 1.24 <
859 1 1 13 4 -1 0.04 1.43 0.89 <
860 1 1 13 5 -1 0.12 0.99 1.10 <
861 2 -1 13 5 0 103.28 258.44 6.20 o
861 1 1 13 5 0 103.28 258.44 6.20 o
862 1 1 13 6 -1 43.31 47.78 2.12 o
863 2 -1 13 6 0 4008.02 3905.97 25.16 o
863 1 1 13 6 0 4008.02 3905.97 25.16 o
864 1 1 13 7 -1 9.40 11.48 2.27 o
865 2 -1 13 7 0 223.41 202.24 8.73 o
865 1 1 13 7 0 223.41 202.24 8.73 o
866 1 1 13 8 -1 2.45 1.89 0.87 <
867 1 1 13 9 -1 7.64 5.98 1.12 o
868 1 2 -12 1 -1 16.87 21.48 1.48 o
869 1 2 -12 2 -1 0.28 0.71 0.75 <
870 1 2 -12 3 -1 0.73 0.46 0.95 <
871 1 2 -12 5 -1 0.78 -0.16 0.98 <
872 1 2 -12 6 -1 0.94 0.34 1.08 <
873 2 -2 -10 0 0 66.31 83.35 3.51 o
873 1 2 -10 0 0 66.31 83.35 3.51 o
874 1 2 -10 1 -1 0.80 0.15 0.77 <
875 2 -2 -10 1 0 181.67 198.80 3.75 o
875 1 2 -10 1 0 181.67 198.80 3.75 o
876 1 2 -10 2 -1 6.95 9.13 1.76 o
877 2 -2 -10 2 0 115.32 108.17 2.79 o
877 1 2 -10 2 0 115.32 108.17 2.79 o
878 1 2 -10 3 -1 32.89 34.69 2.39 o
879 2 -2 -10 3 0 844.61 976.98 8.68 o
879 1 2 -10 3 0 844.61 976.98 8.68 o
880 1 2 -10 4 -1 0.65 1.20 0.74 <
881 2 -2 -10 4 0 7433.48 7660.49 35.46 o
881 1 2 -10 4 0 7433.48 7660.49 35.46 o
882 1 2 -10 5 -1 36.49 38.34 1.85 o
883 2 -2 -10 5 0 694.32 685.20 13.01 o
883 1 2 -10 5 0 694.32 685.20 13.01 o
884 1 2 -10 6 -1 1.69 2.63 0.79 o
885 2 -2 -10 6 0 613.08 582.55 9.36 o
885 1 2 -10 6 0 613.08 582.55 9.36 o
886 1 2 -10 7 -1 0.11 0.23 0.73 <
887 2 -2 -10 7 0 955.66 996.04 12.52 o
887 1 2 -10 7 0 955.66 996.04 12.52 o
888 1 2 -10 8 -1 0.53 0.25 1.09 <
889 2 -2 -10 8 0 435.80 426.83 13.21 o
889 1 2 -10 8 0 435.80 426.83 13.21 o
890 2 -2 -10 9 0 2.37 2.70 1.31 <
890 1 2 -10 9 0 2.37 2.70 1.31 <
891 1 2 -10 10 -1 2.66 1.88 1.30 <
892 2 -2 -10 10 0 160.23 160.15 8.27 o
892 1 2 -10 10 0 160.23 160.15 8.27 o
893 2 -2 -8 0 0 19849.10 20819.60 49.82 o
893 1 2 -8 0 0 19849.10 20819.60 49.82 o
894 1 2 -8 1 -1 61.41 63.83 2.08 o
895 2 -2 -8 1 0 3152.64 3340.24 14.26 o
895 1 2 -8 1 0 3152.64 3340.24 14.26 o
896 1 2 -8 1 1 4.67 7.76 0.81 o
897 1 2 -8 2 -1 20.39 22.68 1.79 o
898 2 -2 -8 2 0 256.67 268.75 4.17 o
898 1 2 -8 2 0 256.67 268.75 4.17 o
899 1 2 -8 2 1 37.30 39.88 1.64 o
900 1 2 -8 3 -1 5.23 6.72 0.75 o
901 2 -2 -8 3 0 702.06 727.95 7.01 o
901 1 2 -8 3 0 702.06 727.95 7.01 o
902 1 2 -8 3 1 41.26 38.43 1.64 o
903 1 2 -8 4 -1 0.02 -0.19 0.59 <
904 2 -2 -8 4 0 226.03 219.26 5.71 o
904 1 2 -8 4 0 226.03 219.26 5.71 o
905 1 2 -8 4 1 4.67 5.67 0.99 o
906 1 2 -8 5 -1 1.21 1.63 1.25 <
907 2 -2 -8 5 0 51.04 56.30 2.12 o
907 1 2 -8 5 0 51.04 56.30 2.12 o
908 1 2 -8 6 -1 10.72 10.96 1.10 o
909 2 -2 -8 6 0 245.53 278.06 4.82 o
909 1 2 -8 6 0 245.53 278.06 4.82 o
910 1 2 -8 6 1 20.95 21.11 1.97 o
911 1 2 -8 7 -1 16.10 18.77 1.42 o
912 2 -2 -8 7 0 1262.83 1402.75 19.38 o
912 1 2 -8 7 0 1262.83 1402.75 19.38 o
913 1 2 -8 7 1 14.04 10.64 1.43 o
914 1 2 -8 8 -1 0.16 -0.18 0.67 <
915 1 2 -8 8 1 4.32 5.47 1.45 o
916 1 2 -8 9 -1 31.44 31.00 3.93 o
917 2 -2 -8 9 0 1730.37 1774.37 21.93 o
917 1 2 -8 9 0 1730.37 1774.37 21.93 o
918 1 2 -8 9 1 0.30 0.73 1.43 <
919 1 2 -8 10 -1 14.64 14.61 2.30 o
920 2 -2 -8 10 0 288.60 313.07 7.61 o
920 1 2 -8 10 0 288.60 313.07 7.61 o
921 1 2 -8 10 1 9.22 10.46 1.89 o
922 1 2 -8 11 -1 0.08 0.44 1.16 <
923 2 -2 -8 11 0 128.16 125.87 4.97 o
923 1 2 -8 11 0 128.16 125.87 4.97 o
924 2 -2 -8 12 0 40.94 48.41 3.27 o
924 1 2 -8 12 0 40.94 48.41 3.27 o
925 1 2 -8 13 -1 0.25 -0.33 1.18 <
926 2 -2 -8 13 0 32.05 26.55 2.54 o
926 1 2 -8 13 0 32.05 26.55 2.54 o
927 2 -2 -6 0 0 92.04 64.41 2.48 o
927 1 2 -6 0 0 92.04 64.41 2.48 o
928 2 -2 -6 1 0 262.00 248.24 3.43 o
928 1 2 -6 1 0 262.00 248.24 3.43 o
929 1 2 -6 1 1 104.69 90.60 1.97 o
930 1 2 -6 2 -1 16.77 21.83 1.55 o
931 2 -2 -6 2 0 23.10 54.42 1.58 o
931 1 2 -6 2 0 23.10 54.42 1.58 o
932 1 2 -6 2 1 50.16 54.42 1.63 o
933 1 2 -6 3 -1 37.90 44.37 2.32 o
934 2 -2 -6 3 0 1565.22 1771.52 14.06 o
934 1 2 -6 3 0 1565.22 1771.52 14.06 o
935 1 2 -6 3 1 14.81 15.41 0.98 o
936 1 2 -6 4 -1 0.61 0.74 0.41 <
937 2 -2 -6 4 0 31689.80 30185.50 42.49 o
937 1 2 -6 4 0 31689.80 30185.50 42.49 o
938 1 2 -6 4 1 4.58 4.89 1.01 o
939 1 2 -6 5 -1 51.05 55.23 1.97 o
940 2 -2 -6 5 0 36.41 48.04 1.88 o
940 1 2 -6 5 0 36.41 48.04 1.88 o
941 1 2 -6 5 1 2.19 3.32 0.67 o
942 1 2 -6 6 -1 48.24 59.72 2.19 o
943 2 -2 -6 6 0 15.98 18.70 1.96 o
943 1 2 -6 6 0 15.98 18.70 1.96 o
944 1 2 -6 6 1 22.24 20.27 1.46 o
945 1 2 -6 7 -1 9.00 11.41 2.25 o
946 2 -2 -6 7 0 78.14 86.85 2.81 o
946 1 2 -6 7 0 78.14 86.85 2.81 o
947 1 2 -6 7 1 36.85 33.95 2.45 o
948 1 2 -6 8 -1 4.17 5.69 0.89 o
949 2 -2 -6 8 0 13.59 18.63 1.67 o
949 1 2 -6 8 0 13.59 18.63 1.67 o
950 1 2 -6 8 1 9.95 8.38 1.44 o
951 1 2 -6 9 -1 3.07 4.71 1.19 o
952 2 -2 -6 9 0 75.73 55.32 2.72 o
952 1 2 -6 9 0 75.73 55.32 2.72 o
953 1 2 -6 9 1 61.66 56.74 3.30 o
954 1 2 -6 10 -1 6.76 6.63 1.72 o
955 2 -2 -6 10 0 784.66 759.49 11.82 o
955 1 2 -6 10 0 784.66 759.49 11.82 o
956 1 2 -6 10 1 26.11 23.01 2.30 o
957 1 2 -6 11 -1 14.92 14.65 1.61 o
958 2 -2 -6 11 0 871.39 828.76 12.59 o
958 1 2 -6 11 0 871.39 828.76 12.59 o
959 1 2 -6 11 1 13.53 9.98 1.83 o
960 1 2 -6 12 -1 0.28 0.52 1.22 <
961 2 -2 -6 12 0 10848.10 10033.30 43.51 o
961 1 2 -6 12 0 10848.10 10033.30 43.51 o
962 1 2 -6 12 1 11.11 10.94 1.96 o
963 1 2 -6 13 -1 27.33 22.80 2.52 o
964 2 -2 -6 13 0 100.98 80.28 4.19 o
964 1 2 -6 13 0 100.98 80.28 4.19 o
965 1 2 -6 13 1 0.02 -0.12 1.27 <
966 1 2 -6 14 -1 25.87 24.45 2.57 o
967 2 -2 -6 14 0 119.01 140.86 6.57 o
967 1 2 -6 14 0 119.01 140.86 6.57 o
968 1 2 -4 1 -1 35.68 38.83 1.23 o
969 2 -2 -4 1 0 13.89 14.27 0.76 o
969 1 2 -4 1 0 13.89 14.27 0.76 o
970 1 2 -4 1 1 5.51 4.65 0.39 o
971 1 2 -4 2 -1 61.48 74.07 1.78 o
972 2 -2 -4 2 0 11.84 5.52 0.71 o
972 1 2 -4 2 0 11.84 5.52 0.71 o
973 1 2 -4 2 1 60.95 49.60 1.28 o
974 1 2 -4 3 -1 9.57 14.49 0.86 o
975 2 -2 -4 3 0 77.40 81.41 2.69 o
975 1 2 -4 3 0 77.40 81.41 2.69 o
976 1 2 -4 3 1 93.28 70.93 1.36 o
977 1 2 -4 4 -1 0.27 0.42 0.35 <
978 2 -2 -4 4 0 13.05 20.81 1.08 o
978 1 2 -4 4 0 13.05 20.81 1.08 o
979 1 2 -4 4 1 2.29 2.27 0.35 o
980 1 2 -4 5 -1 13.66 18.03 2.45 o
981 2 -2 -4 5 0 61.23 74.19 2.98 o
981 1 2 -4 5 0 61.23 74.19 2.98 o
982 1 2 -4 5 1 107.61 88.64 1.85 o
983 1 2 -4 6 -1 38.58 48.34 1.95 o
984 2 -2 -4 6 0 542.30 559.87 6.54 o
984 1 2 -4 6 0 542.30 559.87 6.54 o
985 1 2 -4 7 -1 29.75 32.94 1.71 o
986 2 -2 -4 7 0 548.11 563.57 7.29 o
986 1 2 -4 7 0 548.11 563.57 7.29 o
987 1 2 -4 7 1 24.28 20.30 1.45 o
988 1 2 -4 8 -1 0.01 0.42 0.60 <
989 2 -2 -4 8 0 20024.30 21295.30 54.22 o
989 1 2 -4 8 0 20024.30 21295.30 54.22 o
990 1 2 -4 8 1 15.64 14.87 1.46 o
991 1 2 -4 9 -1 32.94 40.48 4.78 o
992 2 -2 -4 9 0 70.53 92.60 5.23 o
992 1 2 -4 9 0 70.53 92.60 5.23 o
993 1 2 -4 10 -1 54.42 65.91 2.87 o
994 2 -2 -4 10 0 2760.02 2894.34 18.80 o
994 1 2 -4 10 0 2760.02 2894.34 18.80 o
995 1 2 -4 10 1 16.30 14.00 2.06 o
996 1 2 -4 11 -1 13.02 13.58 1.75 o
997 2 -2 -4 11 0 440.63 432.24 8.40 o
997 1 2 -4 11 0 440.63 432.24 8.40 o
998 1 2 -4 11 1 33.06 38.30 3.17 o
999 1 2 -4 12 -1 5.24 6.87 1.41 o
1000 2 -2 -4 12 0 421.89 290.15 7.75 o
1000 1 2 -4 12 0 421.89 290.15 7.75 o
1001 1 2 -4 12 1 13.31 11.16 2.07 o
1002 1 2 -4 13 -1 13.36 15.46 1.77 o
1003 2 -2 -4 13 0 30.96 17.01 2.15 o
1003 1 2 -4 13 0 30.96 17.01 2.15 o
1004 1 2 -4 13 1 45.74 33.78 3.12 o
1005 1 2 -4 14 -1 8.52 6.91 1.75 o
1006 2 -2 -4 14 0 772.25 725.84 14.74 o
1006 1 2 -4 14 0 772.25 725.84 14.74 o
1007 1 2 -4 14 1 22.93 18.18 2.45 o
1008 1 2 -4 16 -1 0.00 0.79 1.31 <
1009 2 -2 -2 0 0 15.11 21.90 0.73 o
1009 1 2 -2 0 0 15.11 21.90 0.73 o
1010 1 2 -2 1 -1 57.65 67.25 1.08 o
1011 2 -2 -2 1 0 36.58 36.55 1.24 o
1011 1 2 -2 1 0 36.58 36.55 1.24 o
1012 1 2 -2 2 -1 83.50 89.28 1.69 o
1013 2 -2 -2 2 0 168.12 163.11 2.91 o
1013 1 2 -2 2 0 168.12 163.11 2.91 o
1014 1 2 -2 2 1 99.33 85.17 1.59 o
1015 1 2 -2 3 -1 24.72 28.62 0.86 o
1016 2 -2 -2 3 0 296.65 169.65 1.74 o
1016 1 2 -2 3 0 296.65 169.65 1.74 o
1017 1 2 -2 3 1 19.65 18.67 1.21 o
1018 1 2 -2 4 -1 0.32 0.91 0.37 <
1019 2 -2 -2 4 0 31681.00 27586.70 26.68 o
1019 1 2 -2 4 0 31681.00 27586.70 26.68 o
1020 1 2 -2 4 1 3.58 4.07 0.90 o
1021 1 2 -2 5 -1 27.80 35.15 3.53 o
1022 2 -2 -2 5 0 3414.73 2881.21 10.24 o
1022 1 2 -2 5 0 3414.73 2881.21 10.24 o
1023 1 2 -2 5 1 5.69 8.42 1.21 o
1024 1 2 -2 6 -1 72.09 100.91 3.06 o
1025 2 -2 -2 6 0 960.75 988.95 9.98 o
1025 1 2 -2 6 0 960.75 988.95 9.98 o
1026 1 2 -2 6 1 59.47 45.74 1.40 o
1027 1 2 -2 7 -1 26.57 40.50 3.17 o
1028 2 -2 -2 7 0 271.55 195.83 5.63 o
1028 1 2 -2 7 0 271.55 195.83 5.63 o
1029 1 2 -2 7 1 56.81 39.26 2.23 o
1030 1 2 -2 8 -1 0.57 1.10 0.73 <
1031 2 -2 -2 8 0 97.26 97.17 3.78 o
1031 1 2 -2 8 0 97.26 97.17 3.78 o
1032 1 2 -2 8 1 7.52 6.37 0.97 o
1033 1 2 -2 9 -1 27.65 42.42 3.36 o
1034 2 -2 -2 9 0 3.89 13.35 1.53 o
1034 1 2 -2 9 0 3.89 13.35 1.53 o
1035 1 2 -2 9 1 80.99 68.70 4.04 o
1036 1 2 -2 10 -1 28.23 34.44 3.17 o
1037 1 2 -2 10 1 52.32 43.59 3.41 o
1038 1 2 -2 11 -1 7.82 11.72 1.79 o
1039 2 -2 -2 11 0 119.70 119.39 4.74 o
1039 1 2 -2 11 0 119.70 119.39 4.74 o
1040 1 2 -2 11 1 26.46 17.95 2.32 o
1041 1 2 -2 12 -1 0.84 1.50 1.49 <
1042 2 -2 -2 12 0 13923.80 14226.00 59.31 o
1042 1 2 -2 12 0 13923.80 14226.00 59.31 o
1043 1 2 -2 13 -1 17.99 18.72 2.00 o
1044 2 -2 -2 13 0 178.26 165.08 6.61 o
1044 1 2 -2 13 0 178.26 165.08 6.61 o
1045 1 2 -2 13 1 1.62 0.61 1.35 <
1046 1 2 -2 14 -1 39.92 70.14 3.96 o
1047 2 -2 -2 14 0 1729.30 2079.02 24.16 o
1047 1 2 -2 14 0 1729.30 2079.02 24.16 o
1048 1 2 -2 14 1 3.77 4.37 2.24 <
1049 1 2 -2 15 -1 12.90 17.98 2.91 o
1050 2 -2 -2 15 0 251.86 264.65 8.86 o
1050 1 2 -2 15 0 251.86 264.65 8.86 o
1051 1 2 -2 15 1 13.94 12.34 2.62 o
1052 1 2 -2 16 -1 5.10 6.99 2.03 o
1053 1 2 0 1 -1 26.34 22.20 0.79 o
1054 2 -2 0 1 0 20.87 22.62 0.78 o
1054 1 2 0 1 0 20.87 22.62 0.78 o
1055 1 2 0 2 -1 102.60 114.35 2.32 o
1056 2 -2 0 2 0 100.32 109.68 1.80 o
1056 1 2 0 2 0 100.32 109.68 1.80 o
1057 1 2 0 2 1 90.38 70.54 1.44 o
1058 1 2 0 3 -1 83.43 119.52 5.26 o
1059 2 -2 0 3 0 12.86 7.51 0.97 o
1059 1 2 0 3 0 12.86 7.51 0.97 o
1060 1 2 0 3 1 85.57 65.78 2.73 o
1061 1 2 0 4 -1 1.20 1.17 0.27 o
1062 2 -2 0 4 0 16.64 29.37 2.15 o
1062 1 2 0 4 0 16.64 29.37 2.15 o
1063 1 2 0 4 1 3.40 2.85 0.86 o
1064 1 2 0 5 -1 85.50 86.30 2.04 o
1065 2 -2 0 5 0 17.47 11.88 0.70 o
1065 1 2 0 5 0 17.47 11.88 0.70 o
1066 1 2 0 5 1 109.22 74.69 5.78 o
1067 1 2 0 6 -1 52.00 56.18 3.29 o
1068 2 -2 0 6 0 694.25 722.22 9.70 o
1068 1 2 0 6 0 694.25 722.22 9.70 o
1069 1 2 0 6 1 97.35 62.86 1.86 o
1070 1 2 0 7 -1 20.60 22.25 1.55 o
1071 2 -2 0 7 0 1.29 6.05 1.53 o
1071 1 2 0 7 0 1.29 6.05 1.53 o
1072 1 2 0 7 1 27.62 18.70 1.23 o
1073 1 2 0 8 -1 2.25 2.06 0.72 <
1074 2 -2 0 8 0 29162.40 28458.20 67.13 o
1074 1 2 0 8 0 29162.40 28458.20 67.13 o
1075 1 2 0 8 1 20.60 16.63 1.45 o
1076 1 2 0 9 -1 12.80 12.57 1.37 o
1077 2 -2 0 9 0 9.17 5.05 1.33 o
1077 1 2 0 9 0 9.17 5.05 1.33 o
1078 1 2 0 9 1 2.00 0.97 0.75 <
1079 1 2 0 10 -1 64.17 74.94 3.13 o
1080 2 -2 0 10 0 23.42 18.78 2.44 o
1080 1 2 0 10 0 23.42 18.78 2.44 o
1081 1 2 0 10 1 25.09 19.40 2.90 o
1082 1 2 0 11 -1 25.71 29.53 2.08 o
1083 2 -2 0 11 0 2.17 3.32 1.05 o
1083 1 2 0 11 0 2.17 3.32 1.05 o
1084 1 2 0 11 1 28.40 23.84 2.87 o
1085 1 2 0 12 -1 2.74 5.16 1.22 o
1086 2 -2 0 12 0 1.01 3.15 1.09 <
1086 1 2 0 12 0 1.01 3.15 1.09 <
1087 1 2 0 13 -1 31.33 43.14 3.68 o
1088 2 -2 0 13 0 7.80 12.69 2.00 o
1088 1 2 0 13 0 7.80 12.69 2.00 o
1089 1 2 0 13 1 67.28 53.91 4.10 o
1090 1 2 0 14 -1 14.13 13.29 1.68 o
1091 2 -2 0 14 0 1440.70 1473.23 19.60 o
1091 1 2 0 14 0 1440.70 1473.23 19.60 o
1092 1 2 0 14 1 25.82 20.13 2.81 o
1093 1 2 0 15 -1 5.07 6.27 3.48 <
1094 2 -2 0 15 0 0.10 1.78 1.92 <
1094 1 2 0 15 0 0.10 1.78 1.92 <
1095 1 2 0 15 1 29.06 19.25 2.88 o
1096 1 2 0 16 -1 1.82 1.96 1.76 <
1097 2 -2 0 16 0 8487.37 9885.07 49.87 o
1097 1 2 0 16 0 8487.37 9885.07 49.87 o
1098 1 2 0 17 -1 1.86 -0.29 1.62 <
1099 2 -2 2 0 0 13.18 11.25 0.59 o
1099 1 2 2 0 0 13.18 11.25 0.59 o
1100 1 2 2 1 -1 169.37 169.55 1.55 o
1101 2 -2 2 1 0 39.55 47.67 0.78 o
1101 1 2 2 1 0 39.55 47.67 0.78 o
1102 1 2 2 1 1 101.38 75.61 1.38 o
1103 1 2 2 2 -1 103.94 102.96 1.29 o
1104 2 -2 2 2 0 175.94 180.32 2.02 o
1104 1 2 2 2 0 175.94 180.32 2.02 o
1105 1 2 2 2 1 106.13 85.91 1.60 o
1106 1 2 2 3 -1 12.87 11.97 0.69 o
1107 2 -2 2 3 0 289.81 280.62 2.96 o
1107 1 2 2 3 0 289.81 280.62 2.96 o
1108 1 2 2 3 1 18.13 11.63 0.68 o
1109 1 2 2 4 -1 0.18 0.29 0.35 <
1110 2 -2 2 4 0 31484.00 26564.40 33.72 o
1110 1 2 2 4 0 31484.00 26564.40 33.72 o
1111 1 2 2 4 1 8.42 6.03 0.59 o
1112 1 2 2 5 -1 5.34 6.29 0.77 o
1113 2 -2 2 5 0 3361.65 3061.52 14.81 o
1113 1 2 2 5 0 3361.65 3061.52 14.81 o
1114 1 2 2 5 1 9.42 6.48 0.84 o
1115 1 2 2 6 -1 94.23 119.53 5.38 o
1116 2 -2 2 6 0 976.14 931.71 21.86 o
1116 1 2 2 6 0 976.14 931.71 21.86 o
1117 1 2 2 7 -1 79.64 95.84 3.01 o
1118 2 -2 2 7 0 288.21 254.82 4.94 o
1118 1 2 2 7 0 288.21 254.82 4.94 o
1119 1 2 2 7 1 78.26 68.45 2.57 o
1120 1 2 2 8 -1 3.36 5.56 0.91 o
1121 2 -2 2 8 0 100.42 98.29 3.15 o
1121 1 2 2 8 0 100.42 98.29 3.15 o
1122 1 2 2 8 1 24.88 23.46 1.62 o
1123 1 2 2 9 -1 88.08 134.60 5.39 o
1124 2 -2 2 9 0 4.43 14.00 1.52 o
1124 1 2 2 9 0 4.43 14.00 1.52 o
1125 1 2 2 10 -1 24.32 29.81 2.05 o
1126 2 -2 2 10 0 1012.19 905.10 12.06 o
1126 1 2 2 10 0 1012.19 905.10 12.06 o
1127 1 2 2 10 1 53.85 48.16 5.37 o
1128 1 2 2 11 -1 4.30 5.63 1.14 o
1129 2 -2 2 11 0 115.57 130.64 4.75 o
1129 1 2 2 11 0 115.57 130.64 4.75 o
1130 1 2 2 11 1 31.96 26.18 3.21 o
1131 1 2 2 12 -1 0.08 0.19 0.90 <
1132 2 -2 2 12 0 13961.80 14056.10 45.92 o
1132 1 2 2 12 0 13961.80 14056.10 45.92 o
1133 1 2 2 12 1 29.79 24.23 3.00 o
1134 1 2 2 13 -1 0.20 0.65 1.08 <
1135 1 2 2 13 1 3.87 1.85 1.74 <
1136 1 2 2 14 -1 52.26 66.13 3.79 o
1137 1 2 2 14 1 12.90 8.14 2.44 o
1138 1 2 2 15 -1 19.07 24.65 3.21 o
1139 2 -2 2 15 0 236.34 232.28 12.32 o
1139 1 2 2 15 0 236.34 232.28 12.32 o
1140 1 2 2 15 1 21.40 19.24 4.35 o
1141 2 -2 2 16 0 133.48 183.16 7.56 o
1141 1 2 2 16 0 133.48 183.16 7.56 o
1142 1 2 2 17 -1 34.00 43.03 3.95 o
1143 2 -2 4 0 0 21826.90 22019.90 44.08 o
1143 1 2 4 0 0 21826.90 22019.90 44.08 o
1144 1 2 4 1 -1 0.44 0.62 0.38 <
1145 2 -2 4 1 0 13.55 15.83 2.25 o
1145 1 2 4 1 0 13.55 15.83 2.25 o
1146 1 2 4 1 1 23.78 20.35 1.16 o
1147 1 2 4 2 -1 66.57 80.42 1.88 o
1148 2 -2 4 2 0 12.61 4.17 0.57 o
1148 1 2 4 2 0 12.61 4.17 0.57 o
1149 1 2 4 2 1 140.62 124.18 2.83 o
1150 1 2 4 3 -1 159.50 187.97 4.95 o
1151 2 -2 4 3 0 80.36 82.76 2.47 o
1151 1 2 4 3 0 80.36 82.76 2.47 o
1152 1 2 4 3 1 102.69 92.20 2.55 o
1153 1 2 4 4 -1 4.25 5.66 0.64 o
1154 2 -2 4 4 0 14.98 11.63 0.89 o
1154 1 2 4 4 0 14.98 11.63 0.89 o
1155 1 2 4 4 1 7.39 5.80 0.85 o
1156 1 2 4 5 -1 162.28 210.01 4.71 o
1157 2 -2 4 5 0 65.24 61.02 3.17 o
1157 1 2 4 5 0 65.24 61.02 3.17 o
1158 1 2 4 5 1 89.04 79.08 2.67 o
1159 1 2 4 6 -1 17.36 23.41 1.35 o
1160 2 -2 4 6 0 559.38 576.23 6.69 o
1160 1 2 4 6 0 559.38 576.23 6.69 o
1161 1 2 4 6 1 91.16 83.44 2.69 o
1162 1 2 4 7 -1 0.15 0.37 0.47 <
1163 2 -2 4 7 0 551.78 564.70 7.16 o
1163 1 2 4 7 0 551.78 564.70 7.16 o
1164 1 2 4 7 1 21.51 15.58 1.34 o
1165 1 2 4 8 -1 0.01 -0.15 0.66 <
1166 2 -2 4 8 0 20157.70 20951.50 76.20 o
1166 1 2 4 8 0 20157.70 20951.50 76.20 o
1167 1 2 4 9 -1 0.08 1.01 0.66 <
1168 2 -2 4 9 0 79.27 99.43 6.03 o
1168 1 2 4 9 0 79.27 99.43 6.03 o
1169 1 2 4 9 1 7.60 4.83 1.90 <
1170 1 2 4 10 -1 48.96 57.21 2.78 o
1171 2 -2 4 10 0 2692.34 2775.28 18.42 o
1171 1 2 4 10 0 2692.34 2775.28 18.42 o
1172 1 2 4 10 1 38.05 29.29 3.28 o
1173 1 2 4 11 -1 47.68 57.56 2.77 o
1174 2 -2 4 11 0 463.22 462.60 7.80 o
1174 1 2 4 11 0 463.22 462.60 7.80 o
1175 1 2 4 11 1 31.53 28.99 3.62 o
1176 1 2 4 12 -1 5.21 5.81 1.25 o
1177 2 -2 4 12 0 426.53 431.86 11.07 o
1177 1 2 4 12 0 426.53 431.86 11.07 o
1178 1 2 4 12 1 11.90 11.42 2.53 o
1179 1 2 4 13 -1 83.41 125.23 4.85 o
1180 2 -2 4 13 0 35.44 21.00 2.82 o
1180 1 2 4 13 0 35.44 21.00 2.82 o
1181 1 2 4 13 1 29.91 26.25 3.44 o
1182 1 2 4 14 -1 7.30 11.01 2.98 o
1183 2 -2 4 14 0 784.79 832.22 19.90 o
1183 1 2 4 14 0 784.79 832.22 19.90 o
1184 1 2 4 15 -1 3.25 4.03 1.92 <
1185 2 -2 4 15 0 239.66 268.48 8.67 o
1185 1 2 4 15 0 239.66 268.48 8.67 o
1186 1 2 4 16 -1 2.06 2.86 1.58 <
1187 2 -2 6 0 0 102.11 58.82 4.25 o
1187 1 2 6 0 0 102.11 58.82 4.25 o
1188 1 2 6 1 -1 128.24 172.93 3.51 o
1189 2 -2 6 1 0 259.79 267.61 5.58 o
1189 1 2 6 1 0 259.79 267.61 5.58 o
1190 1 2 6 1 1 68.61 55.30 2.10 o
1191 1 2 6 2 -1 21.52 31.80 1.33 o
1192 2 -2 6 2 0 24.94 22.61 1.55 o
1192 1 2 6 2 0 24.94 22.61 1.55 o
1193 1 2 6 2 1 136.07 126.87 3.17 o
1194 1 2 6 3 -1 0.00 0.33 0.33 <
1195 2 -2 6 3 0 1583.25 1743.27 10.85 o
1195 1 2 6 3 0 1583.25 1743.27 10.85 o
1196 1 2 6 3 1 38.62 29.98 1.63 o
1197 1 2 6 4 -1 0.03 0.26 0.41 <
1198 2 -2 6 4 0 31917.70 30530.70 72.10 o
1198 1 2 6 4 0 31917.70 30530.70 72.10 o
1199 1 2 6 4 1 10.62 10.41 1.11 o
1200 1 2 6 5 -1 0.98 1.43 0.44 o
1201 2 -2 6 5 0 41.54 42.82 2.30 o
1201 1 2 6 5 0 41.54 42.82 2.30 o
1202 1 2 6 5 1 16.40 10.13 1.20 o
1203 1 2 6 6 -1 35.95 43.12 3.00 o
1204 2 -2 6 6 0 15.67 55.89 2.53 o
1204 1 2 6 6 0 15.67 55.89 2.53 o
1205 1 2 6 6 1 57.43 42.30 2.50 o
1206 1 2 6 7 -1 86.40 112.30 3.70 o
1207 1 2 6 7 1 27.58 28.71 3.00 o
1208 1 2 6 8 -1 0.94 1.83 0.63 <
1209 2 -2 6 8 0 14.09 26.51 1.78 o
1209 1 2 6 8 0 14.09 26.51 1.78 o
1210 1 2 6 8 1 6.49 6.91 1.63 o
1211 1 2 6 9 -1 149.65 199.89 5.21 o
1212 2 -2 6 9 0 68.94 59.02 2.49 o
1212 1 2 6 9 0 68.94 59.02 2.49 o
1213 1 2 6 9 1 42.04 31.81 3.30 o
1214 1 2 6 10 -1 8.93 13.95 2.16 o
1215 2 -2 6 10 0 808.97 729.14 17.17 o
1215 1 2 6 10 0 808.97 729.14 17.17 o
1216 1 2 6 10 1 73.55 60.87 4.55 o
1217 1 2 6 11 -1 8.88 10.31 1.74 o
1218 2 -2 6 11 0 874.55 839.43 21.95 o
1218 1 2 6 11 0 874.55 839.43 21.95 o
1219 1 2 6 12 -1 1.90 1.31 1.04 <
1220 1 2 6 12 1 27.37 27.40 3.62 o
1221 1 2 6 13 -1 0.43 0.97 1.74 <
1222 2 -2 6 13 0 102.62 102.45 5.77 o
1222 1 2 6 13 0 102.62 102.45 5.77 o
1223 1 2 6 14 -1 21.64 23.77 3.03 o
1224 2 -2 6 14 0 108.40 122.47 6.03 o
1224 1 2 6 14 0 108.40 122.47 6.03 o
1225 1 2 6 15 -1 26.39 25.89 3.00 o
1226 2 -2 8 0 0 19807.10 20744.60 54.35 o
1226 1 2 8 0 0 19807.10 20744.60 54.35 o
1227 1 2 8 1 -1 1.89 1.75 0.48 o
1228 2 -2 8 1 0 3161.22 3495.51 16.24 o
1228 1 2 8 1 0 3161.22 3495.51 16.24 o
1229 1 2 8 1 1 11.66 5.67 0.86 o
1230 1 2 8 2 -1 15.04 20.11 1.23 o
1231 2 -2 8 2 0 243.60 293.16 4.75 o
1231 1 2 8 2 0 243.60 293.16 4.75 o
1232 1 2 8 2 1 69.14 65.93 2.47 o
1233 1 2 8 3 -1 147.90 186.22 4.09 o
1234 2 -2 8 3 0 722.45 760.99 10.28 o
1234 1 2 8 3 0 722.45 760.99 10.28 o
1235 1 2 8 3 1 30.51 31.85 2.09 o
1236 1 2 8 4 -1 1.70 1.06 0.48 <
1237 2 -2 8 4 0 230.13 203.29 4.11 o
1237 1 2 8 4 0 230.13 203.29 4.11 o
1238 1 2 8 4 1 4.05 5.23 1.50 o
1239 1 2 8 5 -1 173.12 224.83 4.81 o
1240 2 -2 8 5 0 47.23 55.42 2.27 o
1240 1 2 8 5 0 47.23 55.42 2.27 o
1241 1 2 8 5 1 35.83 31.34 2.82 o
1242 1 2 8 6 -1 20.89 26.48 1.53 o
1243 2 -2 8 6 0 253.45 249.49 7.15 o
1243 1 2 8 6 0 253.45 249.49 7.15 o
1244 1 2 8 6 1 82.65 72.32 4.20 o
1245 1 2 8 7 -1 0.30 0.78 0.66 <
1246 2 -2 8 7 0 1251.90 1317.73 11.18 o
1246 1 2 8 7 0 1251.90 1317.73 11.18 o
1247 1 2 8 7 1 28.99 17.57 2.57 o
1248 1 2 8 8 -1 0.12 0.33 0.72 <
1249 2 -2 8 8 0 10664.70 10656.30 31.69 o
1249 1 2 8 8 0 10664.70 10656.30 31.69 o
1250 1 2 8 8 1 25.99 17.88 2.53 o
1251 1 2 8 9 -1 4.48 5.75 1.31 o
1252 2 -2 8 9 0 1733.78 1802.81 28.59 o
1252 1 2 8 9 0 1733.78 1802.81 28.59 o
1253 1 2 8 9 1 18.78 14.50 2.53 o
1254 1 2 8 10 -1 15.74 20.30 1.89 o
1255 2 -2 8 10 0 287.19 312.47 8.24 o
1255 1 2 8 10 0 287.19 312.47 8.24 o
1256 1 2 8 11 -1 54.20 54.88 3.69 o
1257 2 -2 8 11 0 136.21 116.17 8.02 o
1257 1 2 8 11 0 136.21 116.17 8.02 o
1258 1 2 8 12 -1 0.52 1.87 1.03 <
1259 1 2 8 13 -1 91.94 91.76 5.31 o
1260 2 -2 8 13 0 28.95 27.72 3.42 o
1260 1 2 8 13 0 28.95 27.72 3.42 o
1261 1 2 8 14 -1 0.25 0.28 1.86 <
1262 2 -2 10 0 0 70.07 86.00 3.89 o
1262 1 2 10 0 0 70.07 86.00 3.89 o
1263 1 2 10 1 -1 199.46 248.73 4.31 o
1264 2 -2 10 1 0 184.61 202.92 4.11 o
1264 1 2 10 1 0 184.61 202.92 4.11 o
1265 1 2 10 2 -1 0.09 0.62 0.60 <
1266 2 -2 10 2 0 129.04 133.66 3.53 o
1266 1 2 10 2 0 129.04 133.66 3.53 o
1267 1 2 10 3 -1 0.61 0.74 0.54 <
1268 2 -2 10 3 0 849.21 1113.24 14.05 o
1268 1 2 10 3 0 849.21 1113.24 14.05 o
1269 1 2 10 4 -1 0.13 0.59 0.53 <
1270 2 -2 10 4 0 7530.53 7851.49 25.80 o
1270 1 2 10 4 0 7530.53 7851.49 25.80 o
1271 1 2 10 5 -1 5.66 6.93 1.09 o
1272 2 -2 10 5 0 676.41 674.16 16.55 o
1272 1 2 10 5 0 676.41 674.16 16.55 o
1273 1 2 10 6 -1 3.83 6.45 1.73 o
1274 2 -2 10 6 0 580.77 594.91 7.29 o
1274 1 2 10 6 0 580.77 594.91 7.29 o
1275 1 2 10 7 -1 80.71 95.36 3.44 o
1276 1 2 10 8 -1 1.65 3.35 0.93 o
1277 2 -2 10 8 0 451.35 400.59 12.99 o
1277 1 2 10 8 0 451.35 400.59 12.99 o
1278 1 2 10 9 -1 103.94 125.12 4.77 o
1279 2 -2 10 9 0 2.69 4.30 1.67 <
1279 1 2 10 9 0 2.69 4.30 1.67 <
1280 1 2 10 10 -1 0.51 0.53 0.84 <
1281 2 -2 10 10 0 166.73 174.02 6.44 o
1281 1 2 10 10 0 166.73 174.02 6.44 o
1282 1 2 10 12 -1 0.26 0.89 1.46 <
1283 2 -2 12 0 0 9724.15 11666.50 45.88 o
1283 1 2 12 0 0 9724.15 11666.50 45.88 o
1284 1 2 12 1 -1 4.50 4.65 1.06 o
1285 2 -2 12 1 0 741.63 805.72 9.49 o
1285 1 2 12 1 0 741.63 805.72 9.49 o
1286 1 2 12 2 -1 0.06 0.91 0.72 <
1287 2 -2 12 2 0 39.06 38.19 2.81 o
1287 1 2 12 2 0 39.06 38.19 2.81 o
1288 1 2 12 3 -1 71.33 91.79 2.87 o
1289 2 -2 12 3 0 179.70 194.93 6.03 o
1289 1 2 12 3 0 179.70 194.93 6.03 o
1290 1 2 12 4 -1 2.05 2.62 1.21 <
1291 2 -2 12 4 0 136.60 116.93 4.68 o
1291 1 2 12 4 0 136.60 116.93 4.68 o
1292 1 2 12 5 -1 108.98 137.05 3.44 o
1293 2 -2 12 5 0 256.10 310.61 10.30 o
1293 1 2 12 5 0 256.10 310.61 10.30 o
1294 1 2 12 6 -1 7.78 4.41 1.45 o
1295 2 -2 12 6 0 75.64 65.87 3.95 o
1295 1 2 12 6 0 75.64 65.87 3.95 o
1296 1 2 12 7 -1 0.29 0.93 0.89 <
1297 2 -2 12 7 0 2212.57 2329.48 21.90 o
1297 1 2 12 7 0 2212.57 2329.48 21.90 o
1298 1 2 12 8 -1 1.46 1.54 0.90 <
1299 1 2 12 9 -1 6.05 6.39 1.85 o
1300 1 2 14 1 -1 71.34 90.42 2.98 o
1301 1 2 14 2 -1 0.26 0.75 0.90 <
1302 1 2 14 3 -1 3.38 3.37 0.98 o
1303 1 3 -3 1 -1 0.04 0.09 0.34 <
1304 1 3 -3 3 -1 151.29 207.93 4.09 o
1305 1 3 -3 4 -1 0.90 0.92 0.48 <
1306 1 3 -3 5 -1 173.70 253.88 5.53 o
1307 1 3 -3 6 -1 0.32 1.56 0.89 <
1308 1 3 -3 7 -1 3.10 4.24 1.14 o
1309 1 3 -3 8 -1 0.95 2.35 1.18 <
1310 1 3 -1 2 -1 6.98 6.25 0.35 o
1311 1 3 -1 3 -1 0.01 0.26 0.36 <
1312 1 3 -1 4 -1 0.75 1.23 0.50 <
1313 1 3 -1 5 -1 1.76 1.62 0.69 <
1314 1 3 -1 6 -1 3.20 3.91 0.94 o
1315 1 3 -1 7 -1 130.47 163.15 5.31 o
1316 1 3 -1 8 -1 0.40 0.55 1.12 <
1317 1 3 -1 9 -1 157.85 220.18 7.10 o
1318 1 3 -1 10 -1 9.22 12.49 2.18 o
1319 1 3 1 3 -1 167.14 190.19 2.55 o
1320 1 3 1 4 -1 0.19 0.82 0.74 <
1321 1 3 1 5 -1 179.68 196.48 5.42 o
1322 1 3 1 6 -1 28.74 32.64 2.61 o
1323 1 3 1 7 -1 3.53 2.66 1.13 <
1324 1 3 1 8 -1 2.51 2.64 1.33 <
1325 1 3 1 9 -1 2.37 1.20 1.40 <
1326 1 3 1 10 -1 12.65 14.34 2.46 o
1327 1 3 1 11 -1 75.57 90.83 8.40 o
1328 1 3 3 2 -1 38.91 41.51 1.38 o
1329 1 3 3 4 -1 1.84 2.15 1.25 <
1330 1 3 3 5 -1 0.00 0.01 1.24 <
1331 1 3 3 7 -1 112.48 105.63 5.27 o
1332 1 3 3 8 -1 1.52 3.02 1.61 <
1333 1 3 3 10 -1 18.59 33.13 3.46 o
1334 1 3 5 1 -1 2.81 3.09 1.02 o
1335 1 3 5 2 -1 79.67 91.85 4.23 o
1336 1 3 5 3 -1 160.90 185.30 5.90 o
1337 1 3 5 4 -1 1.99 3.82 1.45 <
1338 1 3 5 5 -1 161.75 208.15 7.44 o
1339 1 3 5 6 -1 52.02 72.27 4.77 o
1340 1 3 5 7 -1 4.42 5.79 2.08 <
1341 1 3 5 9 -1 0.05 0.26 1.78 <
1342 1 3 7 2 -1 110.60 160.38 5.61 o
1343 1 3 7 3 -1 16.73 18.65 2.34 o
1344 1 3 7 4 -1 3.88 6.77 1.70 o
1345 1 3 7 5 -1 4.22 3.75 2.26 <
1346 2 0 0 1 1 0.44 0.76 0.10 o
1347 2 0 0 2 1 3.90 3.79 0.28 o
1348 2 0 0 3 1 5.83 5.84 0.47 o
1349 2 0 0 4 1 0.88 0.78 0.33 <
1350 2 0 0 5 1 10.41 11.93 1.60 o
1351 2 0 0 6 1 19.85 22.03 1.60 o
1352 2 0 0 7 1 1.85 2.19 0.59 o
1353 2 0 0 8 1 12.04 10.07 1.38 o
1354 2 0 0 9 1 1.07 0.61 1.29 <
1355 2 0 0 10 1 2.22 2.79 1.10 <
1356 2 0 0 11 1 1.90 1.74 0.74 <
1357 2 0 0 12 1 7.39 8.57 1.83 o
1358 2 0 0 13 1 7.15 8.73 1.36 o
1359 2 0 0 14 1 2.71 2.92 1.31 <
1360 2 0 0 15 1 5.15 5.61 1.37 o
1361 2 0 0 16 1 10.60 8.60 2.28 o
1362 2 0 0 17 1 0.08 0.41 1.21 <
1363 2 0 0 18 1 12.91 11.70 1.79 o
1364 2 0 2 1 -1 1.99 2.47 0.15 o
1365 2 0 2 1 1 18.99 18.01 0.49 o
1366 2 0 2 2 -1 7.35 7.35 0.34 o
1367 2 0 2 2 1 12.22 10.62 0.48 o
1368 2 0 2 3 -1 3.71 3.80 0.33 o
1369 2 0 2 3 1 0.07 0.40 0.40 <
1370 2 0 2 4 -1 3.41 3.11 0.59 o
1371 2 0 2 4 1 6.59 5.80 0.59 o
1372 2 0 2 5 -1 0.89 1.67 0.72 <
1373 2 0 2 5 1 0.58 0.72 0.31 <
1374 2 0 2 6 -1 0.01 0.50 0.44 <
1375 2 0 2 6 1 2.69 2.85 0.62 o
1376 2 0 2 7 -1 0.48 0.61 0.52 <
1377 2 0 2 7 1 22.91 24.55 1.59 o
1378 2 0 2 8 -1 1.09 1.24 0.61 <
1379 2 0 2 8 1 15.38 15.83 1.93 o
1380 2 0 2 9 -1 1.53 1.95 1.55 <
1381 2 0 2 9 1 16.95 18.91 1.51 o
1382 2 0 2 10 -1 8.81 9.47 1.16 o
1383 2 0 2 10 1 7.69 7.74 1.07 o
1384 2 0 2 11 -1 7.06 7.83 1.16 o
1385 2 0 2 11 1 5.72 5.90 0.94 o
1386 2 0 2 12 -1 23.18 33.49 3.82 o
1387 2 0 2 12 1 16.71 14.70 1.51 o
1388 2 0 2 13 -1 0.67 1.92 0.93 <
1389 2 0 2 13 1 1.25 0.38 0.75 <
1390 2 0 2 14 1 2.67 0.59 1.49 <
1391 2 0 2 15 -1 0.09 0.11 1.04 <
1392 2 0 2 15 1 2.19 2.22 1.27 <
1393 2 0 2 16 -1 0.89 0.63 1.53 <
1394 2 0 2 16 1 4.00 3.32 2.12 <
1395 2 0 2 17 -1 0.55 0.45 1.14 <
1396 2 0 2 17 1 0.87 -0.64 1.76 <
1397 2 0 2 18 -1 0.45 -0.12 1.16 <
1398 2 0 4 1 -1 4.38 4.46 0.42 o
1399 2 0 4 1 1 0.38 0.50 0.21 <
1400 2 0 4 2 -1 3.21 3.61 0.69 o
1401 2 0 4 2 1 34.71 32.40 1.16 o
1402 2 0 4 3 -1 0.12 0.15 0.32 <
1403 2 0 4 3 1 58.63 58.61 1.66 o
1404 2 0 4 4 -1 0.06 0.69 0.31 <
1405 2 0 4 4 1 4.52 4.90 0.57 o
1406 2 0 4 5 -1 0.28 0.71 0.30 <
1407 2 0 4 5 1 34.44 34.50 1.48 o
1408 2 0 4 6 -1 26.62 25.60 1.42 o
1409 2 0 4 6 1 19.19 20.55 1.74 o
1410 2 0 4 7 -1 17.56 19.26 1.36 o
1411 2 0 4 7 1 0.00 0.32 0.48 <
1412 2 0 4 8 -1 15.60 17.52 1.87 o
1413 2 0 4 8 1 13.48 11.20 1.05 o
1414 2 0 4 9 -1 3.16 4.17 0.82 o
1415 2 0 4 9 1 2.28 1.87 0.63 <
1416 2 0 4 10 -1 2.60 2.07 0.76 <
1417 2 0 4 10 1 0.00 0.35 0.80 <
1418 2 0 4 11 -1 0.09 0.46 1.01 <
1419 2 0 4 11 1 5.24 4.71 0.93 o
1420 2 0 4 12 -1 1.78 1.22 0.75 <
1421 2 0 4 12 1 1.25 1.89 0.83 <
1422 2 0 4 13 -1 0.56 -0.03 0.75 <
1423 2 0 4 13 1 3.17 2.99 1.29 <
1424 2 0 4 14 -1 3.97 3.72 1.60 <
1425 2 0 4 14 1 9.17 9.02 1.46 o
1426 2 0 4 15 -1 4.09 5.41 1.44 o
1427 2 0 4 15 1 0.43 0.88 1.44 <
1428 2 0 4 16 -1 6.58 6.90 1.51 o
1429 2 0 4 16 1 22.83 16.95 1.80 o
1430 2 0 4 17 -1 0.08 0.35 1.42 <
1431 2 0 4 17 1 1.22 1.92 1.44 <
1432 2 0 4 18 -1 6.59 5.19 2.25 <
1433 2 0 6 1 -1 3.11 4.01 0.46 o
1434 2 0 6 2 -1 11.12 12.51 0.78 o
1435 2 0 6 3 -1 13.31 13.77 0.86 o
1436 2 0 6 3 1 1.11 1.19 0.35 o
1437 2 0 6 4 -1 4.43 4.79 0.58 o
1438 2 0 6 4 1 13.02 12.20 0.91 o
1439 2 0 6 5 -1 5.32 4.70 0.73 o
1440 2 0 6 5 1 1.91 1.64 0.38 o
1441 2 0 6 6 -1 0.04 -0.05 0.57 <
1442 2 0 6 6 1 2.34 1.60 0.38 o
1443 2 0 6 7 -1 0.85 1.17 0.52 <
1444 2 0 6 7 1 6.23 6.19 0.80 o
1445 2 0 6 8 -1 4.35 3.78 0.64 o
1446 2 0 6 8 1 0.41 1.14 0.67 <
1447 2 0 6 9 -1 3.20 3.28 0.65 o
1448 2 0 6 9 1 15.04 15.18 1.24 o
1449 2 0 6 10 -1 5.05 5.24 1.64 o
1450 2 0 6 10 1 26.97 23.80 1.58 o
1451 2 0 6 11 -1 0.85 0.88 0.59 <
1452 2 0 6 11 1 0.61 0.03 0.86 <
1453 2 0 6 12 -1 4.82 4.05 0.91 o
1454 2 0 6 12 1 15.28 7.98 2.70 <
1455 2 0 6 13 -1 0.60 0.28 0.78 <
1456 2 0 6 13 1 2.87 3.17 1.07 <
1457 2 0 6 14 -1 3.22 1.98 1.85 <
1458 2 0 6 14 1 0.27 -0.53 0.88 <
1459 2 0 6 15 -1 0.62 2.57 1.30 <
1460 2 0 6 15 1 5.72 3.62 2.02 <
1461 2 0 6 16 -1 3.48 2.18 1.53 <
1462 2 0 6 16 1 9.00 7.79 1.48 o
1463 2 0 6 17 -1 1.33 1.64 1.12 <
1464 2 0 8 1 -1 9.61 10.06 0.81 o
1465 2 0 8 1 1 6.35 5.85 0.66 o
1466 2 0 8 2 -1 6.70 5.20 0.67 o
1467 2 0 8 2 1 15.58 14.64 1.02 o
1468 2 0 8 3 -1 8.09 7.64 0.74 o
1469 2 0 8 3 1 9.04 9.88 0.86 o
1470 2 0 8 4 -1 7.70 7.41 0.78 o
1471 2 0 8 5 -1 6.34 7.12 0.74 o
1472 2 0 8 5 1 15.39 16.26 1.15 o
1473 2 0 8 6 -1 0.77 0.84 0.40 <
1474 2 0 8 6 1 27.70 22.67 1.38 o
1475 2 0 8 7 -1 7.81 8.63 1.59 o
1476 2 0 8 7 1 1.70 1.89 0.60 o
1477 2 0 8 8 -1 3.49 3.66 0.68 o
1478 2 0 8 8 1 18.25 16.05 1.24 o
1479 2 0 8 9 -1 4.32 3.28 0.69 o
1480 2 0 8 9 1 0.08 0.50 0.94 <
1481 2 0 8 10 -1 0.22 0.63 0.66 <
1482 2 0 8 10 1 3.94 4.22 1.34 o
1483 2 0 8 11 -1 3.40 5.35 2.04 <
1484 2 0 8 11 1 20.95 20.78 1.87 o
1485 2 0 8 12 -1 1.79 1.29 0.82 <
1486 2 0 8 12 1 16.62 14.60 1.53 o
1487 2 0 8 13 1 18.21 13.80 1.44 o
1488 2 0 8 14 -1 7.50 5.77 1.29 o
1489 2 0 8 14 1 10.27 7.34 1.36 o
1490 2 0 8 15 -1 8.65 7.87 1.35 o
1491 2 0 10 1 1 23.91 27.04 1.43 o
1492 2 0 10 2 -1 21.27 20.67 1.21 o
1493 2 0 10 2 1 28.22 29.20 1.50 o
1494 2 0 10 3 -1 4.67 5.22 0.64 o
1495 2 0 10 3 1 0.39 0.59 0.48 <
1496 2 0 10 4 -1 2.27 2.81 0.55 o
1497 2 0 10 5 -1 5.89 5.97 0.72 o
1498 2 0 10 5 1 0.15 0.12 0.50 <
1499 2 0 10 6 -1 2.60 2.94 0.59 o
1500 2 0 10 6 1 38.61 36.13 1.73 o
1501 2 0 10 7 -1 2.64 3.58 0.71 o
1502 2 0 10 7 1 23.23 25.80 1.51 o
1503 2 0 10 8 -1 0.02 -0.35 1.12 <
1504 2 0 10 8 1 10.70 12.49 2.62 o
1505 2 0 10 9 -1 1.30 1.81 0.72 <
1506 2 0 10 9 1 9.97 7.45 2.39 o
1507 2 0 10 10 -1 18.51 19.27 1.48 o
1508 2 0 10 10 1 18.02 16.19 1.48 o
1509 2 0 10 11 -1 18.13 19.56 2.25 o
1510 2 0 10 11 1 0.01 1.70 1.50 <
1511 2 0 10 12 -1 7.25 8.10 1.87 o
1512 2 0 10 12 1 20.57 10.03 1.69 o
1513 2 0 10 13 -1 7.02 5.84 1.70 o
1514 2 0 10 14 -1 0.55 -1.90 1.29 <
1515 2 0 12 1 -1 7.52 8.36 0.89 o
1516 2 0 12 1 1 5.22 3.17 0.80 o
1517 2 0 12 2 -1 5.64 5.68 0.80 o
1518 2 0 12 2 1 39.54 34.41 1.66 o
1519 2 0 12 3 -1 0.60 0.97 0.59 <
1520 2 0 12 3 1 15.37 14.47 1.23 o
1521 2 0 12 4 -1 0.57 1.27 0.64 <
1522 2 0 12 4 1 0.21 0.48 0.75 <
1523 2 0 12 5 -1 2.88 3.39 0.79 o
1524 2 0 12 5 1 11.20 10.58 1.14 o
1525 2 0 12 6 -1 31.95 32.84 1.76 o
1526 2 0 12 7 1 0.13 -0.09 0.76 <
1527 2 0 12 8 -1 7.92 8.20 1.07 o
1528 2 0 12 8 1 9.87 5.75 1.03 o
1529 2 0 12 9 -1 2.98 2.62 0.91 <
1530 2 0 12 10 -1 0.40 0.07 1.21 <
1531 2 0 12 11 -1 3.38 2.56 1.42 <
1532 2 0 14 1 -1 1.34 1.62 0.80 <
1533 2 0 14 2 -1 6.63 6.63 0.99 o
1534 2 0 14 3 -1 9.18 9.34 1.20 o
1535 2 0 14 5 -1 4.85 3.34 0.94 o
1536 2 0 14 6 -1 9.50 8.47 1.14 o
1537 2 0 14 7 -1 9.23 9.00 1.76 o
1538 2 1 -13 1 -1 1.44 1.38 0.82 <
1539 2 1 -13 1 1 9.30 8.76 1.08 o
1540 2 1 -13 2 -1 24.15 20.24 2.18 o
1541 2 1 -13 2 1 0.01 -0.13 0.67 <
1542 2 1 -13 3 -1 5.84 4.73 1.48 o
1543 2 1 -13 3 1 16.09 16.89 1.60 o
1544 2 1 -13 4 -1 0.84 -0.10 0.73 <
1545 2 1 -13 4 1 0.90 1.47 0.87 <
1546 2 1 -13 5 -1 8.66 4.96 2.22 <
1547 2 1 -13 5 1 34.00 33.12 2.08 o
1548 2 1 -13 6 1 0.06 0.16 1.43 <
1549 2 1 -13 7 1 0.12 -0.07 1.19 <
1550 2 1 -13 8 1 0.08 -1.07 0.95 <
1551 2 1 -11 1 -1 12.44 12.18 1.05 o
1552 2 1 -11 1 1 40.93 48.70 2.19 o
1553 2 1 -11 2 -1 16.96 16.11 1.19 o
1554 2 1 -11 2 1 0.76 0.23 0.54 <
1555 2 1 -11 3 -1 3.96 3.95 0.80 o
1556 2 1 -11 3 1 0.91 1.06 0.82 <
1557 2 1 -11 4 -1 3.74 5.19 0.93 o
1558 2 1 -11 4 1 2.71 2.22 0.67 o
1559 2 1 -11 5 1 1.56 1.16 0.86 <
1560 2 1 -11 6 -1 4.76 3.24 0.96 o
1561 2 1 -11 6 1 1.24 1.40 0.69 <
1562 2 1 -11 7 -1 0.02 -0.16 0.73 <
1563 2 1 -11 7 1 7.58 6.91 0.99 o
1564 2 1 -11 8 -1 0.17 -0.17 0.70 <
1565 2 1 -11 8 1 1.61 0.15 0.98 <
1566 2 1 -11 9 -1 2.87 1.71 1.33 <
1567 2 1 -11 9 1 31.05 30.14 2.78 o
1568 2 1 -11 10 -1 12.66 6.88 1.15 o
1569 2 1 -11 10 1 0.05 0.44 0.82 <
1570 2 1 -11 11 1 3.68 3.03 1.04 <
1571 2 1 -11 12 1 0.10 -0.48 1.14 <
1572 2 1 -9 1 -1 1.81 1.73 0.51 o
1573 2 1 -9 1 1 1.30 0.46 0.44 <
1574 2 1 -9 2 -1 8.15 10.34 0.94 o
1575 2 1 -9 2 1 6.17 5.35 0.68 o
1576 2 1 -9 3 -1 2.16 1.84 0.49 o
1577 2 1 -9 3 1 48.78 52.46 2.25 o
1578 2 1 -9 4 -1 1.21 1.33 0.49 <
1579 2 1 -9 4 1 5.05 4.10 0.90 o
1580 2 1 -9 5 -1 5.47 5.23 0.70 o
1581 2 1 -9 5 1 65.85 69.39 3.33 o
1582 2 1 -9 6 -1 27.27 21.98 1.38 o
1583 2 1 -9 6 1 0.18 0.47 0.50 <
1584 2 1 -9 7 -1 3.35 2.70 0.98 <
1585 2 1 -9 7 1 2.42 2.74 0.74 o
1586 2 1 -9 8 -1 13.06 14.58 1.31 o
1587 2 1 -9 8 1 0.48 0.32 0.65 <
1588 2 1 -9 9 -1 0.43 1.08 0.76 <
1589 2 1 -9 9 1 4.37 3.31 0.86 o
1590 2 1 -9 10 -1 3.40 3.38 0.99 o
1591 2 1 -9 10 1 0.55 -0.18 0.76 <
1592 2 1 -9 11 -1 1.58 2.01 1.01 <
1593 2 1 -9 11 1 2.03 2.10 1.25 <
1594 2 1 -9 12 -1 0.09 0.11 0.83 <
1595 2 1 -9 12 1 4.95 2.79 1.48 <
1596 2 1 -9 13 -1 2.71 1.25 0.92 <
1597 2 1 -9 13 1 28.25 26.88 2.30 o
1598 2 1 -9 14 1 0.18 -0.99 1.54 <
1599 2 1 -7 1 -1 0.16 0.35 0.32 <
1600 2 1 -7 1 1 73.05 64.60 2.77 o
1601 2 1 -7 2 -1 21.11 19.38 1.11 o
1602 2 1 -7 2 1 1.26 0.48 0.42 <
1603 2 1 -7 3 -1 1.97 2.76 0.47 o
1604 2 1 -7 3 1 0.03 0.49 0.52 <
1605 2 1 -7 4 -1 0.47 0.20 0.43 <
1606 2 1 -7 4 1 0.64 0.26 0.50 <
1607 2 1 -7 5 -1 0.25 0.62 0.54 <
1608 2 1 -7 5 1 0.83 1.14 0.43 <
1609 2 1 -7 6 -1 23.76 26.68 2.08 o
1610 2 1 -7 6 1 6.86 4.70 0.66 o
1611 2 1 -7 7 -1 0.22 0.22 0.64 <
1612 2 1 -7 7 1 35.98 37.48 2.55 o
1613 2 1 -7 8 -1 0.05 0.31 0.66 <
1614 2 1 -7 8 1 13.70 12.30 1.64 o
1615 2 1 -7 9 -1 2.55 1.74 0.72 <
1616 2 1 -7 10 -1 15.78 12.61 1.75 o
1617 2 1 -7 10 1 0.34 1.47 1.27 <
1618 2 1 -7 11 -1 16.21 14.28 1.40 o
1619 2 1 -7 11 1 8.75 8.49 1.53 o
1620 2 1 -7 12 -1 5.51 5.22 1.07 o
1621 2 1 -7 13 -1 2.20 0.96 0.89 <
1622 2 1 -7 13 1 0.14 0.38 1.23 <
1623 2 1 -7 14 -1 0.07 0.15 1.24 <
1624 2 1 -7 14 1 0.20 -0.95 1.70 <
1625 2 1 -7 15 -1 0.04 -0.16 1.06 <
1626 2 1 -7 15 1 1.08 0.80 1.14 <
1627 2 1 -5 1 -1 35.03 35.84 1.40 o
1628 2 1 -5 1 1 0.28 0.17 0.20 <
1629 2 1 -5 2 -1 12.56 11.71 0.80 o
1630 2 1 -5 2 1 2.57 1.87 0.40 o
1631 2 1 -5 3 -1 0.75 0.82 0.35 <
1632 2 1 -5 3 1 67.43 60.17 1.74 o
1633 2 1 -5 4 -1 0.06 0.18 0.41 <
1634 2 1 -5 4 1 0.87 0.61 0.35 <
1635 2 1 -5 5 -1 0.78 0.69 0.41 <
1636 2 1 -5 5 1 108.03 107.40 3.81 o
1637 2 1 -5 6 -1 7.59 6.91 0.78 o
1638 2 1 -5 6 1 3.44 3.25 0.72 o
1639 2 1 -5 7 -1 23.12 22.61 1.37 o
1640 2 1 -5 7 1 7.29 7.80 1.16 o
1641 2 1 -5 8 -1 2.89 3.44 0.60 o
1642 2 1 -5 8 1 0.79 1.60 0.70 <
1643 2 1 -5 9 1 0.97 1.49 0.80 <
1644 2 1 -5 10 -1 5.67 4.58 1.01 o
1645 2 1 -5 10 1 3.62 2.17 0.92 <
1646 2 1 -5 11 -1 2.02 1.47 0.66 <
1647 2 1 -5 12 -1 0.04 -0.25 0.89 <
1648 2 1 -5 12 1 18.68 15.56 2.51 o
1649 2 1 -5 13 -1 0.05 -0.33 0.82 <
1650 2 1 -5 13 1 63.12 68.52 5.03 o
1651 2 1 -5 14 -1 5.64 3.37 1.60 <
1652 2 1 -5 14 1 1.90 1.40 1.29 <
1653 2 1 -5 15 -1 16.69 13.09 1.79 o
1654 2 1 -5 15 1 22.03 18.49 2.34 o
1655 2 1 -5 16 -1 10.23 6.87 2.23 o
1656 2 1 -5 16 1 0.06 0.48 1.51 <
1657 2 1 -5 17 -1 1.07 0.05 1.48 <
1658 2 1 -3 1 -1 2.01 2.41 0.51 o
1659 2 1 -3 1 1 180.62 166.42 1.47 o
1660 2 1 -3 2 -1 8.15 7.58 0.58 o
1661 2 1 -3 2 1 11.86 9.26 0.49 o
1662 2 1 -3 3 -1 41.71 42.73 1.38 o
1663 2 1 -3 3 1 6.94 6.21 0.52 o
1664 2 1 -3 4 -1 11.72 13.19 0.87 o
1665 2 1 -3 4 1 0.01 0.12 0.35 <
1666 2 1 -3 5 -1 30.05 32.92 1.48 o
1667 2 1 -3 6 -1 0.00 -0.01 0.36 <
1668 2 1 -3 6 1 10.42 10.03 1.13 o
1669 2 1 -3 7 -1 0.34 0.40 0.54 <
1670 2 1 -3 7 1 32.28 31.06 1.97 o
1671 2 1 -3 8 -1 2.63 1.37 0.57 <
1672 2 1 -3 8 1 12.14 12.45 1.82 o
1673 2 1 -3 9 -1 0.04 0.00 0.55 <
1674 2 1 -3 9 1 103.67 121.71 8.92 o
1675 2 1 -3 10 -1 5.14 4.62 1.27 o
1676 2 1 -3 10 1 4.76 3.86 0.97 o
1677 2 1 -3 11 -1 22.23 20.96 1.72 o
1678 2 1 -3 11 1 15.36 14.12 1.63 o
1679 2 1 -3 12 -1 8.92 8.51 1.25 o
1680 2 1 -3 12 1 0.36 -0.18 2.07 <
1681 2 1 -3 13 -1 6.34 4.78 1.53 o
1682 2 1 -3 13 1 1.54 0.93 1.24 <
1683 2 1 -3 14 -1 0.68 0.72 1.06 <
1684 2 1 -3 14 1 1.57 1.04 1.45 <
1685 2 1 -3 15 -1 2.44 1.50 1.68 <
1686 2 1 -3 15 1 1.71 0.22 1.48 <
1687 2 1 -3 16 -1 1.00 0.99 1.31 <
1688 2 1 -3 17 -1 2.54 2.32 1.85 <
1689 2 1 -3 17 1 48.40 44.17 5.65 o
1690 2 1 -1 1 -1 50.71 52.14 0.72 o
1691 2 1 -1 1 1 0.04 0.28 0.26 <
1692 2 1 -1 2 -1 0.00 0.13 0.12 <
1693 2 1 -1 2 1 29.66 25.42 1.13 o
1694 2 1 -1 3 -1 0.63 0.64 0.22 <
1695 2 1 -1 3 1 124.66 92.60 1.66 o
1696 2 1 -1 4 -1 1.16 1.48 0.54 <
1697 2 1 -1 4 1 4.44 3.07 0.42 o
1698 2 1 -1 5 -1 0.10 0.07 0.44 <
1699 2 1 -1 5 1 239.04 224.23 6.31 o
1700 2 1 -1 6 -1 1.08 0.88 0.39 <
1701 2 1 -1 7 -1 52.01 47.31 2.24 o
1702 2 1 -1 7 1 16.87 13.17 1.61 o
1703 2 1 -1 8 -1 5.36 5.67 1.16 o
1704 2 1 -1 8 1 0.00 0.05 0.67 <
1705 2 1 -1 9 -1 27.25 32.97 3.20 o
1706 2 1 -1 9 1 1.13 1.28 0.76 <
1707 2 1 -1 10 -1 6.40 6.97 1.53 o
1708 2 1 -1 10 1 7.85 5.82 1.12 o
1709 2 1 -1 11 -1 0.19 -1.01 1.04 <
1710 2 1 -1 11 1 12.12 10.41 1.80 o
1711 2 1 -1 12 -1 7.11 8.79 1.83 o
1712 2 1 -1 12 1 11.73 8.94 1.72 o
1713 2 1 -1 13 -1 0.19 1.16 0.99 <
1714 2 1 -1 13 1 95.45 112.46 6.88 o
1715 2 1 -1 14 -1 1.55 1.78 1.01 <
1716 2 1 -1 14 1 0.48 -0.13 1.46 <
1717 2 1 -1 15 -1 24.62 25.81 2.05 o
1718 2 1 -1 15 1 12.04 10.58 2.27 o
1719 2 1 -1 16 -1 5.59 5.40 1.47 o
1720 2 1 -1 16 1 0.07 0.28 1.60 <
1721 2 1 -1 17 -1 9.77 9.17 4.12 <
1722 2 1 -1 17 1 1.73 2.41 1.73 <
1723 2 1 -1 18 -1 2.47 1.32 2.07 <
1724 2 1 1 1 -1 0.01 0.05 0.23 <
1725 2 1 1 1 1 288.82 273.96 1.89 o
1726 2 1 1 2 -1 10.36 8.23 0.42 o
1727 2 1 1 2 1 30.11 26.98 0.66 o
1728 2 1 1 3 -1 69.80 62.23 1.38 o
1729 2 1 1 3 1 1.84 1.84 0.28 o
1730 2 1 1 4 -1 2.94 2.66 0.46 o
1731 2 1 1 4 1 0.20 0.44 0.32 <
1732 2 1 1 5 -1 29.84 31.93 1.77 o
1733 2 1 1 5 1 2.83 3.33 0.65 o
1734 2 1 1 6 -1 15.77 17.09 1.40 o
1735 2 1 1 6 1 21.42 18.85 2.00 o
1736 2 1 1 7 -1 0.21 0.27 0.52 <
1737 2 1 1 7 1 66.14 63.45 3.82 o
1738 2 1 1 8 -1 4.23 3.83 0.76 o
1739 2 1 1 8 1 9.00 9.06 1.53 o
1740 2 1 1 9 -1 0.56 0.47 0.61 <
1741 2 1 1 9 1 147.99 172.75 9.39 o
1742 2 1 1 10 -1 2.11 3.05 1.18 <
1743 2 1 1 10 1 0.68 0.72 1.12 <
1744 2 1 1 11 -1 37.34 29.27 3.65 o
1745 2 1 1 11 1 11.82 9.20 1.63 o
1746 2 1 1 12 -1 3.79 0.18 2.15 <
1747 2 1 1 12 1 0.70 1.15 1.32 <
1748 2 1 1 13 -1 15.08 19.72 1.80 o
1749 2 1 1 13 1 2.77 2.86 1.63 <
1750 2 1 1 14 -1 5.82 6.89 1.86 o
1751 2 1 1 14 1 9.60 3.28 3.28 <
1752 2 1 1 15 -1 0.90 2.44 1.26 <
1753 2 1 1 15 1 1.32 1.83 2.08 <
1754 2 1 1 16 -1 4.82 4.44 1.29 o
1755 2 1 1 16 1 13.66 13.09 1.78 o
1756 2 1 1 17 -1 0.09 0.50 1.19 <
1757 2 1 1 17 1 51.91 45.00 6.52 o
1758 2 1 1 18 -1 0.11 0.78 1.30 <
1759 2 1 3 1 -1 48.77 51.94 0.75 o
1760 2 1 3 2 -1 25.56 27.64 0.67 o
1761 2 1 3 2 1 20.37 19.64 1.27 o
1762 2 1 3 3 -1 0.01 0.16 0.20 <
1763 2 1 3 3 1 148.67 116.98 5.26 o
1764 2 1 3 4 -1 3.11 2.79 0.47 o
1765 2 1 3 4 1 15.36 14.70 0.96 o
1766 2 1 3 5 -1 0.65 0.91 0.36 <
1767 2 1 3 5 1 210.07 182.34 3.58 o
1768 2 1 3 6 -1 18.15 21.02 1.31 o
1769 2 1 3 6 1 1.98 1.93 0.45 o
1770 2 1 3 7 -1 60.06 66.46 2.59 o
1771 2 1 3 7 1 4.19 4.17 0.74 o
1772 2 1 3 8 -1 0.40 0.32 0.84 <
1773 2 1 3 8 1 0.10 -0.09 0.92 <
1774 2 1 3 9 -1 37.21 41.36 2.64 o
1775 2 1 3 9 1 8.48 9.20 1.29 o
1776 2 1 3 10 -1 8.76 14.19 2.00 o
1777 2 1 3 10 1 12.51 14.07 3.32 o
1778 2 1 3 11 -1 0.30 0.34 0.91 <
1779 2 1 3 11 1 16.70 15.48 1.87 o
1780 2 1 3 12 -1 7.29 6.80 1.56 o
1781 2 1 3 12 1 15.86 12.21 1.77 o
1782 2 1 3 13 -1 0.00 -0.17 0.91 <
1783 2 1 3 13 1 107.78 108.88 3.91 o
1784 2 1 3 14 -1 4.86 5.22 1.29 o
1785 2 1 3 14 1 3.06 3.90 1.93 <
1786 2 1 3 15 -1 20.53 21.02 1.89 o
1787 2 1 3 15 1 28.16 27.33 2.34 o
1788 2 1 3 16 -1 1.85 1.23 1.61 <
1789 2 1 3 16 1 0.26 -0.31 1.67 <
1790 2 1 3 17 -1 9.46 2.83 3.83 <
1791 2 1 3 18 -1 9.01 13.00 2.70 o
1792 2 1 5 1 -1 4.91 5.55 0.48 o
1793 2 1 5 1 1 135.34 110.34 2.24 o
1794 2 1 5 2 -1 80.98 81.71 1.81 o
1795 2 1 5 2 1 15.34 17.31 0.93 o
1796 2 1 5 3 -1 81.41 83.81 1.98 o
1797 2 1 5 3 1 0.02 0.42 0.33 <
1798 2 1 5 4 -1 1.06 1.51 0.35 o
1799 2 1 5 4 1 0.00 0.21 0.52 <
1800 2 1 5 5 -1 49.22 56.12 1.88 o
1801 2 1 5 5 1 7.73 6.69 0.71 o
1802 2 1 5 6 -1 41.88 48.91 1.87 o
1803 2 1 5 6 1 12.26 11.02 1.34 o
1804 2 1 5 7 -1 0.09 0.72 0.42 <
1805 2 1 5 7 1 48.64 37.72 1.80 o
1806 2 1 5 8 -1 3.68 4.06 0.68 o
1807 2 1 5 8 1 3.53 2.24 0.66 o
1808 2 1 5 9 -1 0.70 0.33 0.87 <
1809 2 1 5 9 1 212.59 199.78 4.48 o
1810 2 1 5 10 -1 17.40 17.67 1.48 o
1811 2 1 5 10 1 6.61 7.95 1.57 o
1812 2 1 5 11 -1 27.48 29.00 2.79 o
1813 2 1 5 11 1 24.28 21.42 1.76 o
1814 2 1 5 12 -1 2.29 2.37 0.97 <
1815 2 1 5 12 1 0.02 -0.76 0.80 <
1816 2 1 5 13 -1 8.47 10.15 1.46 o
1817 2 1 5 13 1 3.79 2.86 1.21 <
1818 2 1 5 14 -1 33.51 42.51 2.64 o
1819 2 1 5 14 1 4.62 3.56 1.24 <
1820 2 1 5 15 -1 1.18 0.92 1.16 <
1821 2 1 5 16 -1 12.97 15.19 1.86 o
1822 2 1 5 17 -1 0.10 0.22 1.10 <
1823 2 1 7 1 -1 33.94 33.95 1.32 o
1824 2 1 7 1 1 2.49 0.82 0.73 <
1825 2 1 7 2 -1 101.44 109.79 2.39 o
1826 2 1 7 2 1 10.82 12.08 0.89 o
1827 2 1 7 3 -1 16.72 16.41 1.32 o
1828 2 1 7 3 1 138.42 117.26 2.70 o
1829 2 1 7 4 -1 6.77 8.57 1.36 o
1830 2 1 7 4 1 1.20 1.42 0.43 o
1831 2 1 7 5 -1 6.48 6.41 0.68 o
1832 2 1 7 5 1 198.20 163.56 3.45 o
1833 2 1 7 6 -1 35.33 35.22 1.60 o
1834 2 1 7 6 1 17.07 18.31 1.23 o
1835 2 1 7 7 -1 13.59 14.53 1.34 o
1836 2 1 7 7 1 1.53 1.53 0.73 <
1837 2 1 7 8 -1 3.40 3.81 0.76 o
1838 2 1 7 8 1 0.00 -0.20 0.59 <
1839 2 1 7 9 -1 4.03 5.96 1.14 o
1840 2 1 7 9 1 10.51 10.75 1.12 o
1841 2 1 7 10 -1 58.13 63.67 2.53 o
1842 2 1 7 10 1 8.14 10.01 1.27 o
1843 2 1 7 11 -1 1.02 1.61 0.74 <
1844 2 1 7 11 1 14.95 11.56 1.46 o
1845 2 1 7 12 -1 10.65 11.64 1.64 o
1846 2 1 7 12 1 3.27 2.85 1.01 <
1847 2 1 7 13 -1 0.26 -0.25 0.91 <
1848 2 1 7 13 1 93.78 40.42 5.03 o
1849 2 1 7 14 -1 15.11 12.23 1.65 o
1850 2 1 7 14 1 0.30 -1.31 1.25 <
1851 2 1 7 15 -1 14.28 13.14 1.65 o
1852 2 1 7 16 -1 0.09 -0.59 1.02 <
1853 2 1 9 1 -1 3.44 2.93 0.46 o
1854 2 1 9 1 1 186.54 164.76 3.38 o
1855 2 1 9 2 -1 37.63 39.27 1.58 o
1856 2 1 9 2 1 0.24 0.52 0.50 <
1857 2 1 9 3 -1 4.96 7.06 0.78 o
1858 2 1 9 3 1 0.17 0.31 0.50 <
1859 2 1 9 4 -1 0.79 0.93 0.42 <
1860 2 1 9 4 1 0.75 2.08 0.70 <
1861 2 1 9 5 -1 4.85 5.37 1.63 o
1862 2 1 9 5 1 10.79 9.36 0.89 o
1863 2 1 9 6 -1 57.70 71.57 4.37 o
1864 2 1 9 6 1 7.24 5.08 1.04 o
1865 2 1 9 7 -1 7.59 8.42 0.89 o
1866 2 1 9 7 1 47.27 36.50 3.94 o
1867 2 1 9 8 -1 15.16 14.93 1.21 o
1868 2 1 9 8 1 9.17 10.43 1.17 o
1869 2 1 9 9 -1 13.24 11.97 2.15 o
1870 2 1 9 9 1 106.19 85.32 6.27 o
1871 2 1 9 10 -1 26.63 39.56 3.77 o
1872 2 1 9 10 1 0.01 0.14 0.84 <
1873 2 1 9 11 -1 20.49 22.28 1.63 o
1874 2 1 9 11 1 1.22 1.56 0.95 <
1875 2 1 9 12 -1 0.97 1.23 0.93 <
1876 2 1 9 12 1 0.27 1.06 1.27 <
1877 2 1 9 13 -1 9.06 8.32 1.27 o
1878 2 1 9 14 -1 18.10 17.73 2.32 o
1879 2 1 9 15 -1 3.39 3.80 1.79 <
1880 2 1 11 1 -1 3.66 6.35 0.73 o
1881 2 1 11 1 1 9.65 8.04 0.93 o
1882 2 1 11 2 -1 49.35 59.04 2.06 o
1883 2 1 11 2 1 2.41 2.97 0.70 o
1884 2 1 11 3 -1 4.76 5.88 0.98 o
1885 2 1 11 3 1 46.57 39.98 1.83 o
1886 2 1 11 4 -1 0.08 0.48 0.46 <
1887 2 1 11 4 1 3.19 2.87 1.31 <
1888 2 1 11 5 -1 14.94 17.12 2.30 o
1889 2 1 11 5 1 120.15 110.61 2.96 o
1890 2 1 11 6 -1 69.45 77.75 4.65 o
1891 2 1 11 6 1 0.40 0.25 0.74 <
1892 2 1 11 7 -1 16.72 21.17 1.44 o
1893 2 1 11 7 1 3.14 2.29 1.01 <
1894 2 1 11 8 -1 1.91 2.55 0.81 o
1895 2 1 11 8 1 1.68 1.85 0.89 <
1896 2 1 11 9 -1 3.69 4.33 1.39 o
1897 2 1 11 9 1 8.51 3.53 1.48 <
1898 2 1 11 10 -1 36.41 41.20 2.08 o
1899 2 1 11 11 -1 2.56 2.23 1.35 <
1900 2 1 11 12 -1 9.24 7.72 1.15 o
1901 2 1 11 13 -1 13.29 6.87 1.85 o
1902 2 1 13 1 -1 45.02 50.45 2.85 o
1903 2 1 13 1 1 81.75 72.29 2.47 o
1904 2 1 13 2 -1 60.29 69.80 2.34 o
1905 2 1 13 2 1 3.55 4.79 1.12 o
1906 2 1 13 3 1 2.99 3.37 1.00 o
1907 2 1 13 4 -1 0.05 1.06 1.10 <
1908 2 1 13 4 1 0.14 -0.25 1.04 <
1909 2 1 13 5 -1 0.14 0.56 0.72 <
1910 2 1 13 6 -1 50.03 55.53 2.23 o
1911 2 1 13 7 -1 10.86 10.54 1.77 o
1912 2 1 13 8 -1 2.83 2.40 0.88 <
1913 2 1 13 9 -1 8.83 6.22 1.07 o
1914 2 1 15 1 -1 0.31 -0.01 0.78 <
1915 2 2 -12 1 -1 19.49 22.26 1.59 o
1916 2 2 -12 2 -1 0.32 0.53 1.16 <
1917 2 2 -12 3 -1 0.84 1.27 1.80 <
1918 2 2 -12 4 -1 0.60 -0.29 1.06 <
1919 2 2 -12 5 -1 0.90 0.65 0.82 <
1920 2 2 -10 1 -1 0.92 0.28 0.64 <
1921 2 2 -10 1 1 38.19 39.05 2.00 o
1922 2 2 -10 2 -1 8.03 11.25 1.15 o
1923 2 2 -10 2 1 39.11 43.96 3.00 o
1924 2 2 -10 3 -1 38.00 45.07 2.00 o
1925 2 2 -10 3 1 3.61 5.09 1.45 o
1926 2 2 -10 4 -1 0.75 1.69 0.80 <
1927 2 2 -10 5 -1 42.16 48.97 2.13 o
1928 2 2 -10 5 1 0.67 -0.84 1.21 <
1929 2 2 -10 6 -1 1.95 3.38 1.23 <
1930 2 2 -10 6 1 16.63 19.80 2.42 o
1931 2 2 -10 7 -1 0.12 0.44 0.80 <
1932 2 2 -10 7 1 32.70 28.55 3.01 o
1933 2 2 -10 8 -1 0.61 0.32 0.86 <
1934 2 2 -10 8 1 1.45 1.44 1.57 <
1935 2 2 -10 9 -1 0.00 0.27 1.36 <
1936 2 2 -10 10 -1 3.08 2.93 1.55 <
1937 2 2 -8 1 1 5.39 8.42 1.05 o
1938 2 2 -8 2 -1 23.55 33.17 2.38 o
1939 2 2 -8 2 1 43.08 42.44 1.87 o
1940 2 2 -8 3 -1 6.04 7.82 1.24 o
1941 2 2 -8 3 1 47.66 47.33 2.03 o
1942 2 2 -8 4 -1 0.02 -0.35 0.61 <
1943 2 2 -8 4 1 5.39 6.66 0.98 o
1944 2 2 -8 5 -1 1.39 2.66 0.65 o
1945 2 2 -8 5 1 68.43 66.87 2.54 o
1946 2 2 -8 6 -1 12.38 13.66 1.23 o
1947 2 2 -8 6 1 24.20 24.18 2.54 o
1948 2 2 -8 7 -1 18.59 20.50 2.93 o
1949 2 2 -8 7 1 16.22 14.47 2.19 o
1950 2 2 -8 8 -1 0.18 -0.42 0.80 <
1951 2 2 -8 9 -1 36.32 39.09 2.08 o
1952 2 2 -8 9 1 0.34 0.26 1.29 <
1953 2 2 -8 10 -1 16.91 17.99 1.65 o
1954 2 2 -8 10 1 10.65 10.66 2.45 o
1955 2 2 -8 11 -1 0.09 0.28 0.82 <
1956 2 2 -8 11 1 14.20 14.27 2.79 o
1957 2 2 -8 12 -1 0.08 -0.07 1.27 <
1958 2 2 -8 13 -1 0.29 0.91 1.63 <
1959 2 2 -6 1 -1 7.00 11.26 0.90 o
1960 2 2 -6 1 1 120.93 116.88 2.79 o
1961 2 2 -6 2 -1 19.37 24.65 1.29 o
1962 2 2 -6 2 1 57.94 65.45 2.06 o
1963 2 2 -6 3 -1 43.78 51.05 1.84 o
1964 2 2 -6 3 1 17.11 16.58 1.36 o
1965 2 2 -6 4 -1 0.71 0.77 0.47 <
1966 2 2 -6 4 1 5.29 7.89 1.06 o
1967 2 2 -6 5 -1 58.98 67.34 2.25 o
1968 2 2 -6 5 1 2.53 4.00 0.76 o
1969 2 2 -6 6 -1 55.73 71.05 2.42 o
1970 2 2 -6 6 1 25.69 24.19 1.53 o
1971 2 2 -6 7 -1 10.40 15.45 1.26 o
1972 2 2 -6 7 1 42.57 41.50 3.41 o
1973 2 2 -6 8 -1 4.82 6.26 0.91 o
1974 2 2 -6 8 1 11.50 12.84 2.34 o
1975 2 2 -6 9 -1 3.55 6.38 1.01 o
1976 2 2 -6 9 1 71.23 71.57 4.74 o
1977 2 2 -6 10 -1 7.81 6.93 1.09 o
1978 2 2 -6 11 -1 17.23 17.50 1.67 o
1979 2 2 -6 11 1 15.63 14.77 2.85 o
1980 2 2 -6 12 -1 0.32 0.62 1.25 <
1981 2 2 -6 13 -1 31.57 31.98 3.33 o
1982 2 2 -6 13 1 0.02 0.14 1.45 <
1983 2 2 -6 14 -1 29.88 31.05 3.39 o
1984 2 2 -4 1 -1 41.22 53.06 1.63 o
1985 2 2 -4 1 1 6.36 5.69 0.49 o
1986 2 2 -4 2 -1 71.02 83.78 2.04 o
1987 2 2 -4 2 1 70.40 70.65 1.54 o
1988 2 2 -4 3 -1 11.05 17.65 1.01 o
1989 2 2 -4 3 1 107.75 95.63 1.86 o
1990 2 2 -4 4 -1 0.31 0.46 0.37 <
1991 2 2 -4 4 1 2.64 3.30 0.63 o
1992 2 2 -4 5 -1 15.78 23.23 1.61 o
1993 2 2 -4 5 1 124.31 101.71 4.99 o
1994 2 2 -4 6 -1 44.57 54.66 2.09 o
1995 2 2 -4 6 1 80.99 69.13 2.48 o
1996 2 2 -4 7 -1 34.37 42.32 3.13 o
1997 2 2 -4 7 1 28.05 27.63 1.71 o
1998 2 2 -4 8 -1 0.01 0.63 0.53 <
1999 2 2 -4 8 1 18.07 20.32 1.99 o
2000 2 2 -4 9 -1 38.05 39.63 2.10 o
2001 2 2 -4 10 -1 62.87 67.55 2.82 o
2002 2 2 -4 10 1 18.83 20.31 2.96 o
2003 2 2 -4 11 -1 15.04 17.42 1.65 o
2004 2 2 -4 11 1 38.19 53.01 4.77 o
2005 2 2 -4 12 -1 6.06 6.24 1.28 o
2006 2 2 -4 12 1 15.38 18.05 3.14 o
2007 2 2 -4 13 -1 15.43 20.17 1.91 o
2008 2 2 -4 13 1 52.84 38.18 3.63 o
2009 2 2 -4 14 -1 9.84 9.47 2.22 o
2010 2 2 -4 14 1 26.49 24.60 2.98 o
2011 2 2 -4 15 1 23.95 24.55 4.60 o
2012 2 2 -4 16 -1 0.00 0.35 1.96 <
2013 2 2 -2 1 -1 66.59 80.27 1.32 o
2014 2 2 -2 1 1 141.76 82.03 1.17 o
2015 2 2 -2 2 -1 96.46 108.99 1.78 o
2016 2 2 -2 2 1 114.74 132.09 2.62 o
2017 2 2 -2 3 -1 28.55 33.77 1.28 o
2018 2 2 -2 3 1 22.70 14.42 2.15 o
2019 2 2 -2 4 -1 0.37 0.99 0.40 <
2020 2 2 -2 4 1 4.14 5.39 1.15 o
2021 2 2 -2 5 -1 32.11 36.84 1.56 o
2022 2 2 -2 5 1 6.57 4.03 0.42 o
2023 2 2 -2 6 -1 83.28 98.73 2.80 o
2024 2 2 -2 6 1 68.69 47.78 1.38 o
2025 2 2 -2 7 -1 30.69 40.32 1.95 o
2026 2 2 -2 7 1 65.62 51.90 3.50 o
2027 2 2 -2 8 -1 0.66 1.73 0.74 <
2028 2 2 -2 8 1 8.69 7.98 0.97 o
2029 2 2 -2 9 -1 31.94 40.93 3.55 o
2030 2 2 -2 9 1 93.56 80.88 3.67 o
2031 2 2 -2 10 -1 32.61 27.90 2.15 o
2032 2 2 -2 10 1 60.44 82.37 6.22 o
2033 2 2 -2 11 -1 9.03 8.47 1.23 o
2034 2 2 -2 11 1 30.56 19.72 4.29 o
2035 2 2 -2 12 -1 0.97 3.38 1.79 <
2036 2 2 -2 13 -1 20.78 20.48 2.20 o
2037 2 2 -2 13 1 1.87 1.48 2.05 <
2038 2 2 -2 14 -1 46.11 42.17 2.60 o
2039 2 2 -2 14 1 4.36 11.59 2.91 o
2040 2 2 -2 15 -1 14.90 19.53 2.69 o
2041 2 2 -2 15 1 16.10 11.24 2.47 o
2042 2 2 -2 16 -1 5.89 9.17 2.25 o
2043 2 2 0 1 -1 30.43 35.92 1.04 o
2044 2 2 0 2 -1 118.51 123.97 2.32 o
2045 2 2 0 2 1 104.40 83.04 1.37 o
2046 2 2 0 3 -1 96.38 79.53 1.62 o
2047 2 2 0 3 1 98.85 74.09 2.22 o
2048 2 2 0 4 -1 1.38 1.21 0.30 o
2049 2 2 0 4 1 3.93 4.53 1.39 o
2050 2 2 0 5 -1 98.77 104.05 2.22 o
2051 2 2 0 5 1 126.16 124.21 4.52 o
2052 2 2 0 6 -1 60.07 67.53 5.40 o
2053 2 2 0 6 1 112.45 67.39 1.54 o
2054 2 2 0 7 -1 23.79 31.36 1.86 o
2055 2 2 0 7 1 31.90 26.39 2.14 o
2056 2 2 0 8 -1 2.60 3.34 0.74 o
2057 2 2 0 8 1 23.79 19.15 2.06 o
2058 2 2 0 9 -1 14.79 11.70 1.21 o
2059 2 2 0 9 1 2.31 1.11 2.04 <
2060 2 2 0 10 -1 74.12 84.62 3.49 o
2061 2 2 0 10 1 28.99 14.89 3.65 o
2062 2 2 0 11 -1 29.70 30.50 2.72 o
2063 2 2 0 11 1 32.81 31.46 2.93 o
2064 2 2 0 12 -1 3.17 5.90 1.46 o
2065 2 2 0 13 -1 36.19 39.66 3.45 o
2066 2 2 0 13 1 77.72 58.42 4.15 o
2067 2 2 0 14 -1 16.32 15.51 1.79 o
2068 2 2 0 14 1 29.83 15.77 2.45 o
2069 2 2 0 15 -1 5.86 5.59 1.92 <
2070 2 2 0 15 1 33.57 20.76 4.28 o
2071 2 2 0 16 -1 2.10 1.51 1.62 <
2072 2 2 0 17 -1 2.15 -1.05 1.66 <
2073 2 2 2 1 -1 195.64 193.95 2.46 o
2074 2 2 2 1 1 117.11 85.58 1.90 o
2075 2 2 2 2 -1 120.07 112.85 2.32 o
2076 2 2 2 2 1 122.60 119.35 2.62 o
2077 2 2 2 3 -1 14.86 14.93 0.55 o
2078 2 2 2 3 1 20.94 23.10 1.45 o
2079 2 2 2 4 -1 0.20 0.56 0.29 <
2080 2 2 2 4 1 9.73 3.84 0.43 o
2081 2 2 2 5 -1 6.17 5.85 0.56 o
2082 2 2 2 5 1 10.88 6.64 0.50 o
2083 2 2 2 6 -1 108.85 128.42 4.96 o
2084 2 2 2 6 1 78.59 58.79 1.99 o
2085 2 2 2 7 -1 92.00 96.34 2.98 o
2086 2 2 2 7 1 90.40 80.11 2.59 o
2087 2 2 2 8 -1 3.88 6.28 0.90 o
2088 2 2 2 8 1 28.74 31.34 2.72 o
2089 2 2 2 9 -1 101.75 111.20 4.15 o
2090 2 2 2 9 1 96.53 84.70 4.39 o
2091 2 2 2 10 -1 28.10 26.21 2.17 o
2092 2 2 2 10 1 62.20 51.90 6.25 o
2093 2 2 2 11 -1 4.97 5.57 1.33 o
2094 2 2 2 11 1 36.92 27.43 4.89 o
2095 2 2 2 12 -1 0.09 0.14 1.12 <
2096 2 2 2 12 1 34.41 26.42 5.16 o
2097 2 2 2 13 -1 0.23 -0.42 1.42 <
2098 2 2 2 13 1 4.48 4.08 2.02 <
2099 2 2 2 14 -1 60.37 63.43 3.64 o
2100 2 2 2 14 1 14.91 6.68 3.45 <
2101 2 2 2 15 -1 22.03 23.33 3.00 o
2102 2 2 2 17 -1 39.28 50.28 3.73 o
2103 2 2 4 1 -1 0.51 1.08 0.25 o
2104 2 2 4 1 1 27.47 26.25 1.02 o
2105 2 2 4 2 -1 76.90 83.44 1.89 o
2106 2 2 4 2 1 162.43 141.33 5.13 o
2107 2 2 4 3 -1 184.24 227.05 3.10 o
2108 2 2 4 3 1 118.63 116.61 2.44 o
2109 2 2 4 4 -1 4.91 5.54 0.83 o
2110 2 2 4 4 1 8.54 8.74 0.79 o
2111 2 2 4 5 -1 187.46 224.70 3.75 o
2112 2 2 4 5 1 102.86 104.62 2.78 o
2113 2 2 4 6 -1 20.05 25.73 1.40 o
2114 2 2 4 6 1 105.30 98.43 2.85 o
2115 2 2 4 7 -1 0.17 0.83 0.53 <
2116 2 2 4 7 1 24.85 20.42 1.79 o
2117 2 2 4 8 -1 0.01 0.50 0.70 <
2118 2 2 4 9 -1 0.09 0.76 1.15 <
2119 2 2 4 9 1 8.78 5.14 1.34 o
2120 2 2 4 10 -1 56.56 69.50 4.58 o
2121 2 2 4 10 1 43.95 26.74 3.64 o
2122 2 2 4 11 -1 55.07 70.20 3.52 o
2123 2 2 4 11 1 36.42 32.25 2.87 o
2124 2 2 4 12 -1 6.02 7.86 1.77 o
2125 2 2 4 12 1 13.75 12.41 2.15 o
2126 2 2 4 13 -1 96.36 156.92 6.63 o
2127 2 2 4 13 1 34.55 24.87 2.53 o
2128 2 2 4 14 -1 8.43 8.13 2.01 o
2129 2 2 4 15 -1 3.75 5.18 1.80 <
2130 2 2 4 16 -1 2.37 2.25 1.76 <
2131 2 2 6 1 -1 148.13 183.23 2.79 o
2132 2 2 6 1 1 79.26 75.71 2.98 o
2133 2 2 6 2 -1 24.86 39.22 1.32 o
2134 2 2 6 2 1 157.18 154.16 3.05 o
2135 2 2 6 3 -1 0.00 0.33 0.29 <
2136 2 2 6 3 1 44.61 33.85 1.46 o
2137 2 2 6 4 -1 0.03 0.23 0.37 <
2138 2 2 6 4 1 12.27 10.53 1.95 o
2139 2 2 6 5 -1 1.13 1.74 0.40 o
2140 2 2 6 5 1 18.95 15.42 1.65 o
2141 2 2 6 6 -1 41.53 47.74 1.89 o
2142 2 2 6 7 -1 99.81 131.45 5.71 o
2143 2 2 6 7 1 31.86 33.52 3.74 o
2144 2 2 6 8 -1 1.09 1.32 0.64 <
2145 2 2 6 8 1 7.50 18.89 3.39 o
2146 2 2 6 9 -1 172.86 221.83 4.71 o
2147 2 2 6 10 -1 10.32 14.97 1.49 o
2148 2 2 6 10 1 84.96 65.31 5.61 o
2149 2 2 6 11 -1 10.26 12.10 1.50 o
2150 2 2 6 11 1 24.99 16.17 2.17 o
2151 2 2 6 12 -1 2.20 1.90 1.08 <
2152 2 2 6 13 -1 0.50 1.26 1.36 <
2153 2 2 6 14 -1 24.99 25.02 2.55 o
2154 2 2 6 15 -1 30.49 26.51 2.63 o
2155 2 2 8 1 -1 2.18 1.74 0.39 o
2156 2 2 8 2 -1 17.38 22.84 1.19 o
2157 2 2 8 3 -1 170.85 209.79 3.60 o
2158 2 2 8 3 1 35.25 44.50 2.79 o
2159 2 2 8 4 -1 1.96 2.06 0.49 o
2160 2 2 8 4 1 4.68 8.64 1.45 o
2161 2 2 8 5 -1 199.99 252.16 4.20 o
2162 2 2 8 5 1 41.39 37.27 2.45 o
2163 2 2 8 6 -1 24.14 32.87 3.13 o
2164 2 2 8 6 1 95.47 83.40 5.62 o
2165 2 2 8 7 -1 0.34 1.03 0.63 <
2166 2 2 8 8 -1 0.14 0.33 0.78 <
2167 2 2 8 9 -1 5.18 6.46 1.07 o
2168 2 2 8 10 -1 18.18 21.34 1.66 o
2169 2 2 8 11 -1 62.61 65.71 2.73 o
2170 2 2 8 12 -1 0.61 1.34 1.30 <
2171 2 2 8 13 -1 106.20 146.76 6.48 o
2172 2 2 8 14 -1 0.29 0.27 1.29 <
2173 2 2 10 1 -1 230.41 276.97 4.28 o
2174 2 2 10 2 -1 0.10 0.95 0.52 <
2175 2 2 10 3 -1 0.71 0.87 0.45 <
2176 2 2 10 4 -1 0.15 0.61 0.47 <
2177 2 2 10 5 -1 6.54 7.94 0.91 o
2178 2 2 10 6 -1 4.42 7.43 0.95 o
2179 2 2 10 7 -1 93.23 118.90 3.24 o
2180 2 2 10 8 -1 1.91 4.61 1.31 o
2181 2 2 10 9 -1 120.07 154.85 3.94 o
2182 2 2 10 10 -1 0.59 1.14 1.09 <
2183 2 2 10 11 -1 2.07 1.76 1.25 <
2184 2 2 10 12 -1 0.30 1.51 1.29 <
2185 2 2 12 1 -1 5.20 7.19 0.91 o
2186 2 2 12 2 -1 0.07 0.52 0.64 <
2187 2 2 12 3 -1 82.39 107.09 2.95 o
2188 2 2 12 4 -1 2.36 3.15 0.86 o
2189 2 2 12 5 -1 125.89 144.79 6.23 o
2190 2 2 12 6 -1 8.99 6.22 0.97 o
2191 2 2 12 7 -1 0.34 -0.19 0.97 <
2192 2 2 12 9 -1 6.98 6.88 1.51 o
2193 2 2 14 1 -1 82.41 107.39 4.14 o
2194 2 2 14 2 -1 0.30 -0.50 1.16 <
2195 2 2 14 3 -1 3.90 2.78 1.29 <
2196 2 2 14 4 -1 0.01 -0.66 1.21 <
2197 2 3 -5 1 -1 168.94 239.86 6.35 o
2198 2 3 -5 3 -1 0.56 1.63 1.10 <
2199 2 3 -5 4 -1 0.26 0.30 1.18 <
2200 2 3 -5 5 -1 1.01 0.96 1.25 <
2201 2 3 -5 6 -1 0.49 1.00 1.39 <
2202 2 3 -5 7 -1 99.31 139.34 8.72 o
2203 2 3 -3 1 -1 0.05 0.62 0.37 <
2204 2 3 -3 2 -1 0.00 0.33 0.35 <
2205 2 3 -3 3 -1 174.77 205.26 3.18 o
2206 2 3 -3 4 -1 1.04 0.63 1.23 <
2207 2 3 -3 6 -1 0.36 1.36 1.51 <
2208 2 3 -3 7 -1 3.58 5.46 2.02 <
2209 2 3 -3 8 -1 1.10 2.55 1.74 <
2210 2 3 -3 9 -1 3.41 4.59 2.00 <
2211 2 3 -1 2 -1 8.07 10.68 0.61 o
2212 2 3 -1 4 -1 0.87 0.78 0.97 <
2213 2 3 -1 5 -1 2.03 2.02 1.14 <
2214 2 3 -1 6 -1 3.70 5.97 1.61 o
2215 2 3 -1 7 -1 150.71 171.50 6.67 o
2216 2 3 -1 8 -1 0.47 0.59 1.80 <
2217 2 3 -1 9 -1 182.35 193.06 11.00 o
2218 2 3 -1 10 -1 10.65 12.46 3.93 o
2219 2 3 1 3 -1 193.07 223.78 2.62 o
2220 2 3 1 5 -1 207.56 339.38 8.65 o
2221 2 3 1 6 -1 33.20 37.57 2.98 o
2222 2 3 1 7 -1 4.08 6.97 1.46 o
2223 2 3 1 8 -1 2.90 2.49 1.21 <
2224 2 3 1 9 -1 2.73 1.82 1.39 <
2225 2 3 1 10 -1 14.62 18.16 2.44 o
2226 2 3 1 11 -1 87.29 71.70 7.17 o
2227 2 3 3 2 -1 44.95 54.75 1.28 o
2228 2 3 3 3 -1 2.78 4.11 0.66 o
2229 2 3 3 4 -1 2.13 3.76 0.69 o
2230 2 3 3 5 -1 0.00 0.37 0.58 <
2231 2 3 3 6 -1 41.25 54.34 3.34 o
2232 2 3 3 7 -1 129.93 193.93 6.59 o
2233 2 3 3 8 -1 1.76 3.79 1.31 <
2234 2 3 3 10 -1 21.48 24.83 4.56 o
2235 2 3 5 1 -1 3.24 3.12 0.71 o
2236 2 3 5 2 -1 92.03 132.21 3.13 o
2237 2 3 5 3 -1 185.87 228.71 5.62 o
2238 2 3 5 4 -1 2.30 3.21 0.74 o
2239 2 3 5 6 -1 60.10 120.33 5.30 o
2240 2 3 5 7 -1 5.10 9.21 1.50 o
2241 2 3 5 8 -1 5.28 8.65 2.49 o
