#------------------------------------------------------------------------------
#$Date: 2019-06-11 10:05:16 +0300 (Tue, 11 Jun 2019) $
#$Revision: 215815 $
#$URL: file:///home/coder/svn-repositories/cod/cif/1/55/13/1551318.cif $
#------------------------------------------------------------------------------
#
# This file is available in the Crystallography Open Database (COD),
# http://www.crystallography.net/
#
# All data on this site have been placed in the public domain by the
# contributors.
#
data_1551318
loop_
_publ_author_name
'Jun Harada'
'Takafumi Shimojo'
'Hideaki Oyamaguchi'
'Hiroyuki Hasegawa'
'Yukihiro Takahashi'
'Koichiro Satomi'
'Yasutaka Suzuki'
'Jun Kawamata'
'Tamotsu Inabe'
_publ_section_title
;
 Directionally tunable and mechanically deformable ferroelectric crystals
 from rotating polar globular ionic molecules
;
_journal_name_full               'Nature Chemistry'
_journal_page_first              946
_journal_page_last               952
_journal_paper_doi               10.1038/nchem.2567
_journal_volume                  8
_journal_year                    2016
_chemical_formula_moiety         '2(O2 Re0.5), 4(C2)'
_chemical_formula_sum            'C7 H14 N O4 Re'
_chemical_formula_weight         362.39
_chemical_name_systematic        'quinuclidinium perrhenate'
_space_group_crystal_system      cubic
_space_group_IT_number           221
_space_group_name_Hall           '-P 4 2 3'
_space_group_name_H-M_alt        'P m -3 m'
_atom_sites_solution_hydrogens   .
_atom_sites_solution_primary     direct
_cell_angle_alpha                90
_cell_angle_beta                 90
_cell_angle_gamma                90
_cell_formula_units_Z            1
_cell_length_a                   6.3881(11)
_cell_length_b                   6.3881(11)
_cell_length_c                   6.3881(11)
_cell_measurement_reflns_used    2436
_cell_measurement_temperature    380
_cell_measurement_theta_max      24.129
_cell_measurement_theta_min      3.189
_cell_volume                     260.68(8)
_computing_cell_refinement       'SAINT v8.34A (Bruker, 2013)'
_computing_data_collection       'Bruker APEX2 2014.1-1 (Bruker, 2014)'
_computing_data_reduction        'SAINT v8.34A (Bruker, 2013)'
_computing_molecular_graphics    'Olex2 (Dolomanov et al., 2009)'
_computing_publication_material  'Olex2 (Dolomanov et al., 2009)'
_computing_structure_refinement  'ShelXL (Sheldrick, 2008)'
_computing_structure_solution    'ShelXS (Sheldrick, 2008)'
_diffrn_ambient_temperature      380
_diffrn_detector_area_resol_mean 8.3333
_diffrn_measured_fraction_theta_full 0.986
_diffrn_measured_fraction_theta_max 0.978
_diffrn_measurement_device_type  'Bruker APEX-II CCD'
_diffrn_measurement_method       '\f and \w scans'
_diffrn_radiation_type           MoK\a
_diffrn_radiation_wavelength     0.71073
_diffrn_reflns_av_R_equivalents  0.0411
_diffrn_reflns_av_unetI/netI     0.0138
_diffrn_reflns_Laue_measured_fraction_full 0.986
_diffrn_reflns_Laue_measured_fraction_max 0.978
_diffrn_reflns_limit_h_max       8
_diffrn_reflns_limit_h_min       -8
_diffrn_reflns_limit_k_max       8
_diffrn_reflns_limit_k_min       -8
_diffrn_reflns_limit_l_max       8
_diffrn_reflns_limit_l_min       -8
_diffrn_reflns_number            3748
_diffrn_reflns_point_group_measured_fraction_full 0.986
_diffrn_reflns_point_group_measured_fraction_max 0.978
_diffrn_reflns_theta_full        25.242
_diffrn_reflns_theta_max         27.522
_diffrn_reflns_theta_min         3.189
_diffrn_source                   'rotating-anode X-ray tube'
_diffrn_standards_number         0
_exptl_absorpt_coefficient_mu    11.638
_exptl_absorpt_correction_T_max  0.1082
_exptl_absorpt_correction_T_min  0.0450
_exptl_absorpt_correction_type   multi-scan
_exptl_absorpt_process_details
'SADABS-2014/4 (Bruker,2014/4) was used for absorption correction. wR2(int) was 0.1189 before and 0.0558 after correction. The Ratio of minimum to maximum transmission is 0.4159. The \l/2 correction factor is Not present.'
_exptl_crystal_colour            colourless
_exptl_crystal_colour_primary    colourless
_exptl_crystal_density_diffrn    2.308
_exptl_crystal_description       block
_exptl_crystal_F_000             170
_exptl_crystal_preparation       'plastic crystal'
_exptl_crystal_size_max          0.3
_exptl_crystal_size_mid          0.28
_exptl_crystal_size_min          0.2
_refine_diff_density_max         0.475
_refine_diff_density_min         -0.714
_refine_diff_density_rms         0.100
_refine_ls_extinction_coef       .
_refine_ls_extinction_method     none
_refine_ls_goodness_of_fit_ref   1.179
_refine_ls_hydrogen_treatment    undef
_refine_ls_matrix_type           full
_refine_ls_number_parameters     10
_refine_ls_number_reflns         88
_refine_ls_number_restraints     2
_refine_ls_restrained_S_all      1.165
_refine_ls_R_factor_all          0.0381
_refine_ls_R_factor_gt           0.0375
_refine_ls_shift/su_max          0.000
_refine_ls_shift/su_mean         0.000
_refine_ls_structure_factor_coef Fsqd
_refine_ls_weighting_details
'w=1/[\s^2^(Fo^2^)+(0.0615P)^2^+0.0707P] where P=(Fo^2^+2Fc^2^)/3'
_refine_ls_weighting_scheme      calc
_refine_ls_wR_factor_gt          0.0994
_refine_ls_wR_factor_ref         0.1000
_reflns_Friedel_coverage         0.000
_reflns_Friedel_fraction_full    .
_reflns_Friedel_fraction_max     .
_reflns_number_gt                87
_reflns_number_total             88
_reflns_threshold_expression     'I > 2\s(I)'
_cod_data_source_file            nchem.2567-s4.cif
_cod_data_source_block           quinuclidiniumreo4_380k
_cod_original_cell_volume        260.68(13)
_cod_database_code               1551318
_shelx_space_group_comment
;
The symmetry employed for this shelxl refinement is uniquely defined
by the following loop, which should always be used as a source of
symmetry information in preference to the above space-group names.
They are only intended as comments.
;
_shelx_estimated_absorpt_t_max   0.204
_shelx_estimated_absorpt_t_min   0.128
_olex2_refinement_description
;
1. Restrained distances
 Re1-O1
 1.7 with sigma of 0.02
 Re1-O2
 1.7 with sigma of 0.02
2. Others
 Fixed Sof: O1(0.0625) O2(0.02083) C1(0.14583) C2(0.02083)
;
_shelx_res_file
;
TITL Quinuclidinium ReO4 in Pm-3m at 380 K
CELL 0.71073   6.38810   6.38810   6.38810  90.0000  90.0000  90.0000
ZERR    1.00   0.00110   0.00110   0.00110   0.0000   0.0000   0.0000
LATT  1
SYMM -X, -Y, Z
SYMM -X, Y, -Z
SYMM X, -Y, -Z
SYMM Z, X, Y
SYMM Z, -X, -Y
SYMM -Z, -X, Y
SYMM -Z, X, -Y
SYMM Y, Z, X
SYMM -Y, Z, -X
SYMM Y, -Z, -X
SYMM -Y, -Z, X
SYMM Y, X, -Z
SYMM -Y, -X, -Z
SYMM Y, -X, Z
SYMM -Y, X, Z
SYMM X, Z, -Y
SYMM -X, Z, Y
SYMM -X, -Z, -Y
SYMM X, -Z, Y
SYMM Z, Y, -X
SYMM Z, -Y, X
SYMM -Z, Y, X
SYMM -Z, -Y, -X
SFAC C H N O RE
UNIT 7 14 1 4 1
TEMP 107
LIST 4
SIZE 0.20 0.28 0.30
L.S. 5
BOND $H
CONF
ACTA
FMAP 2
PLAN 20
DFIX 1.7 Re1 O1
DFIX 1.7 Re1 O2
WGHT    0.061500    0.070700
FVAR       0.52005
RE1   5    0.000000    0.000000    0.000000    10.02083    0.12849    0.12849 =
         0.12849    0.00000    0.00000    0.00000
O1    4    0.264997    0.000000    0.000000    10.06250    0.29920
O2    4    0.153377    0.153377    0.153377    10.02083    0.29878
C1    1    0.334097    0.500000    0.334097    10.14583    0.20085
C2    1    0.500000    0.500000    0.236988    10.02083    0.20107
HKLF 4

REM  Quinuclidinium ReO4 in Pm-3m at 380 K
REM R1 =  0.0375 for      87 Fo > 4sig(Fo)  and  0.0381 for all      88 data
REM     10 parameters refined using      2 restraints

END

WGHT      0.0615      0.0707

REM Highest difference peak  0.475,  deepest hole -0.714,  1-sigma level  0.100
Q1    1   0.4246  0.5000  0.2668  10.50000  0.05    0.28
Q2    1   0.4373  0.4373  0.2500  10.50000  0.05    0.23
Q3    1   0.2859  0.1136  0.0000  10.50000  0.05    0.12
Q4    1   0.2341  0.0945  0.0945  10.50000  0.05    0.10
Q5    1   0.2413  0.0413  0.1316  11.00000  0.05    0.10
Q6    1   0.1165  0.5000  0.2861  10.50000  0.05    0.08
Q7    1   0.3756  0.5000  0.0000  10.25000  0.05    0.05
Q8    1   0.2831  0.5000  0.1631  10.50000  0.05    0.05
Q9    1   0.1366  0.5000  0.1366  10.25000  0.05    0.04
Q10   1   0.5000  0.0000  0.1596  10.25000  0.05    0.04
Q11   1   0.4142  0.4142  0.0910  10.50000  0.05    0.03
Q12   1   0.5000  0.5000  0.0000  10.06250  0.05    0.03
Q13   1   0.5000  0.2496  0.0000  10.25000  0.05    0.01
;
_shelx_res_checksum              98575
_shelx_hkl_file
;
   0  -1   0 1000.00   45.67
   0   1   0  927.57   45.58
  -1  -1   1  758.22   37.21
  -1  -1  -1  764.99   37.23
  -1   1  -1  758.34   37.08
  -1   1   1  798.04   37.18
   1   1  -1  743.22   37.10
   1   1   1  881.83   36.90
  -1  -1  -1  660.58   37.07
  -1  -1  -1  770.14   37.20
  -1  -1   1  862.77   37.34
  -1   1  -1  753.92   37.13
   1   1  -1  834.52   37.09
  -1   1  -1  811.49   37.07
  -1   1   1  834.12   37.21
   1  -1  -1  790.83   37.28
  -1   1  -1  715.16   37.01
  -1  -1  -1  741.80   37.31
   2   0   0  830.16   39.98
  -2   0   0  820.34   39.89
   0   2   0  884.82   39.93
   0   0  -2  851.68   39.78
   0   2   0  791.28   40.06
   0  -2   0  900.57   40.08
  -2   0   0  811.23   39.98
  -2   0   0  849.42   39.59
   0   0  -2  860.17   39.80
   0   0  -2  798.56   40.01
   2   0   0  909.93   40.17
   0  -2   0  744.35   40.03
   2  -1   0  666.95   32.08
   0   1  -2  616.57   31.73
   1   0  -2  702.15   31.93
   1   2   0  733.63   31.94
  -2   1   0  737.54   32.03
  -1   0  -2  679.94   31.73
   0   2  -1  709.74   32.16
   1   0  -2  602.56   31.85
   0  -1  -2  597.91   31.81
   0  -1  -2  631.42   31.82
   0  -2  -1  598.90   32.08
   1  -2   0  629.09   32.20
   1   2   0  657.77   32.10
   2   0  -1  665.85   32.24
   2   1   0  647.78   32.10
   0   1   2  700.31   31.97
   0  -1  -2  631.47   32.22
   0   1  -2  673.73   31.89
   1  -2   0  684.73   31.85
   1   2   0  738.49   32.04
   2   0  -1  676.48   32.25
  -1   0  -2  628.82   32.22
   0  -2  -1  615.24   32.04
   1   0  -2  673.67   32.10
   2  -1   0  686.12   32.22
   2   1   0  767.93   32.37
  -2   0  -1  623.69   31.51
  -2   0   1  733.40   31.95
  -1   2   0  689.33   32.14
   1  -2   0  734.50   32.06
  -2  -1   0  695.20   32.31
  -2   1   0  663.47   31.80
  -1   0  -2  635.32   31.99
   0  -2  -1  716.56   32.07
   0  -2   1  723.09   32.08
  -2  -1   0  667.89   32.21
  -2   1   0  628.75   32.05
  -1   0  -2  572.71   31.59
   0   1  -2  693.87   32.01
   0  -1  -2  632.41   31.73
   0  -2   1  647.15   32.13
   0   2  -1  637.83   32.11
   0   2   1  643.60   32.00
  -1  -2   0  691.11   32.15
  -1   0  -2  635.97   31.62
   0  -1   2  737.68   32.07
  -2   0  -1  664.08   32.11
   0   2   1  765.49   32.11
   1   0  -2  705.25   32.07
   2   1   0  663.41   31.67
  -2   0  -1  629.75   31.94
  -2   0  -1  640.99   32.00
  -2   0   1  683.34   32.18
  -1   2   0  610.67   32.17
  -2   0   1  699.08   31.96
  -1   2   1  379.96   17.78
  -1   1  -2  364.19   18.09
  -1  -2  -1  383.95   17.78
   1  -2  -1  423.38   17.99
   2   1  -1  386.62   18.45
   2   1   1  410.73   18.78
  -2   1  -1  369.56   18.17
  -1   2  -1  375.20   18.23
  -1  -1  -2  347.32   18.07
  -1  -2   1  402.54   17.79
  -1  -1  -2  362.98   18.09
  -1  -1   2  426.16   18.13
  -1  -2  -1  364.50   18.24
  -1  -1  -2  358.32   18.57
   1  -2  -1  379.88   18.28
  -2   1   1  373.80   17.94
  -2  -1  -1  360.14   18.36
  -2  -1   1  363.56   18.43
  -2   1  -1  359.60   17.76
  -2   1  -1  356.30   18.09
  -2   1   1  361.59   18.41
  -1  -2  -1  361.08   18.40
  -1  -2   1  364.66   18.57
  -1  -1  -2  332.10   17.95
  -2   1  -1  393.16   18.01
  -2   1   1  391.11   18.30
  -1   1  -2  375.59   17.75
  -1   1   2  389.25   18.32
  -1   2  -1  381.07   18.02
  -1   2   1  403.29   18.35
   1   1  -2  380.86   18.09
   1   1   2  393.04   18.04
   1   2  -1  396.47   18.31
   1   2   1  399.68   18.14
   2   1  -1  381.49   18.06
   2   1   1  372.77   17.76
   1  -1  -2  381.61   18.51
   1  -1   2  426.83   18.38
   1   1  -2  381.13   18.21
   1   2  -1  414.47   18.01
   2  -1  -1  385.12   17.78
   2  -1   1  431.59   18.57
  -2  -1  -1  374.76   17.77
  -1   1  -2  364.75   17.95
  -1   1  -2  327.11   17.97
  -1   2  -1  351.35   18.21
   2   1   1  355.65   18.19
   1  -2  -1  373.79   18.51
   1  -2   1  355.81   18.35
   1  -1  -2  387.17   18.38
   1  -1  -2  338.71   18.24
   1   1  -2  367.57   18.27
   1   1  -2  318.64   18.08
   1   2  -1  370.37   18.31
   1   2   1  363.81   18.36
   2  -1  -1  378.87   18.26
   2   1  -1  353.11   18.47
   1  -2   1  391.69   18.02
  -2  -1   1  429.41   18.62
  -2  -2   0  244.07   11.49
  -2   0  -2  235.74   11.85
  -2   0   2  260.62   11.48
  -2  -2   0  234.75   11.50
   0  -2  -2  214.69   11.96
   2   2   0  234.50   11.48
   0  -2  -2  240.57   11.44
   0  -2   2  252.31   11.48
  -2   0  -2  225.95   11.46
  -2   0  -2  235.02   11.42
  -2   2   0  257.76   11.47
   0   2  -2  246.88   11.46
   0   2   2  255.38   11.87
   2   0  -2  248.94   11.46
   2   2   0  244.55   11.65
  -2   2   0  233.74   11.48
   0  -2  -2  231.55   11.58
   2  -2   0  233.58   11.98
   2   0  -2  244.97   11.49
   2   0   2  253.53   11.50
   2   2   0  268.43   11.51
  -2   2   0  236.91   11.45
   0   2  -2  218.98   11.52
   0   2  -2  249.98   11.47
   2  -2   0  243.06   12.19
  -2   0  -2  237.16   11.50
  -2   0   2  274.35   11.93
   2   0  -2  242.79   12.04
   2   1  -2  335.45   15.68
   2   2  -1  328.54   16.27
  -2  -2  -1  332.03   15.69
  -2  -2   1  343.50   16.52
  -2  -1  -2  329.60   15.67
  -2   1   2  337.28   16.30
  -2   1  -2  319.86   15.67
  -2   1   2  329.94   15.71
  -2   2  -1  329.73   15.66
  -2   2   1  355.66   15.79
  -1  -2  -2  332.19   15.67
  -1  -2   2  348.28   15.69
  -1   2  -2  328.97   15.67
   2   1  -2  324.66   15.67
   2   1   2  334.39   15.96
   2   2  -1  360.51   15.68
   2   2   1  335.71   15.70
  -2   2  -1  340.81   15.66
  -1  -2  -2  319.62   15.69
   1  -2  -2  336.99   15.94
   1   2  -2  320.10   15.78
   2  -2  -1  334.92   15.68
   2  -2   1  337.23   16.20
   2  -1  -2  322.38   16.42
   2  -1   2  362.67   16.44
  -2   2  -1  327.81   16.30
  -2   2   1  327.16   15.68
  -2  -1   2  352.07   15.68
   2  -1  -2  338.38   16.46
   1   2  -2  337.92   15.66
   1   2   2  365.07   15.65
   2   1  -2  340.89   15.66
   2   1   2  367.96   15.77
   2   2  -1  332.02   15.65
   2   2   1  353.42   15.84
  -2   1  -2  313.10   15.93
  -1  -2  -2  318.61   16.29
  -1   2  -2  284.61   15.64
  -1   2  -2  311.69   15.66
  -1   2   2  337.29   15.67
   1  -2  -2  316.67   16.40
   1   2  -2  318.27   16.05
   1   2  -2  319.11   15.68
   2  -2  -1  331.59   16.54
   2  -2   1  323.11   16.30
  -2   1  -2  315.74   15.63
  -2   1   2  335.46   15.67
  -2  -1   2  335.59   16.46
  -2   2   1  354.51   15.68
  -1   2  -2  333.50   15.79
  -1   2   2  345.60   15.67
  -2  -2  -1  295.96   16.42
  -2  -2   1  328.81   16.64
  -2  -1  -2  310.56   16.21
   2   2   1  325.87   15.67
  -2   1  -2  318.93   15.92
  -2   2  -2  158.28    7.99
   2  -2  -2  171.10    8.73
   2  -2   2  190.32    8.01
   2   2  -2  164.63    7.99
  -2   2   2  172.23    8.02
   2  -2  -2  174.95    8.86
   2   2   2  185.82    7.98
  -2  -2  -2  159.40    8.02
  -2  -2  -2  169.62    8.01
  -2  -2   2  173.00    8.02
  -2   2  -2  167.76    8.01
   2   2  -2  167.84    8.36
  -2  -2  -2  162.77    8.03
  -2   2  -2  167.93    8.01
  -2  -2   2  169.61    8.02
  -2   2  -2  159.17    7.99
   2   2  -2  163.82    8.02
  -2   2   2  169.70    8.38
   0   0  -3  391.24   18.94
   0  -3   0  374.66   18.93
  -3   0   0  406.35   19.43
   3   0   0  404.50   19.45
   3   0   0  422.73   19.64
  -3   0   0  394.65   19.07
   0  -3   0  408.86   18.55
  -3   0   0  399.88   18.79
   0  -3   0  387.34   18.58
   0   3   0  415.17   18.55
   0   0  -3  374.32   18.59
   0   0  -3  380.98   19.32
   0   0  -3  357.97   18.59
   0   3   0  387.26   18.56
   0   0  -3  397.64   18.99
  -3   0   1  242.32   11.36
  -3   0  -1  241.77   11.32
   0  -1  -3  236.69   11.34
   0  -1   3  252.04   12.01
   1  -3   0  251.14   11.60
   0   1   3  247.44   11.36
  -3   0  -1  242.84   11.93
  -1  -3   0  238.56   11.38
   3  -1   0  242.16   11.46
   3   1   0  233.79   11.38
   0   1  -3  222.69   11.41
   0   1  -3  232.96   11.50
   1  -3   0  241.18   11.40
   1   3   0  246.95   12.13
   3   0  -1  245.31   11.95
   3   0   1  235.97   11.96
   0  -3  -1  231.43   11.37
   0  -3   1  237.08   11.40
   1   0  -3  240.61   11.39
   3  -1   0  244.86   11.40
   0   1  -3  239.44   11.36
   0   3  -1  235.43   11.60
   1   3   0  251.47   11.36
   1   0  -3  245.57   11.63
   1   0  -3  215.59   11.34
  -3  -1   0  240.29   11.38
  -3   1   0  237.97   11.71
  -1   0  -3  233.58   11.36
  -3  -1   0  235.43   12.13
  -3   1   0  240.41   11.38
   0  -3  -1  222.96   12.14
   0  -3   1  236.33   11.40
   0   3   1  250.49   11.37
   1   0  -3  242.20   11.91
   3   1   0  238.02   11.51
   0   3   1  243.38   12.00
  -3   0   1  240.04   11.35
  -1   3   0  242.85   11.38
  -1  -3   0  234.98   11.36
   0  -1  -3  234.38   11.39
   0   1  -3  236.96   11.37
   1  -3   0  238.94   11.69
  -3   0  -1  244.67   12.10
  -3   0   1  244.42   11.65
  -1  -3   0  236.09   11.62
  -1   3   0  229.89   11.39
   0  -1  -3  221.08   11.54
   0  -1  -3  227.64   11.34
   0   3  -1  260.66   11.98
  -1   0  -3  235.56   11.34
   0  -3  -1  242.36   11.36
   3   1   0  258.92   12.46
   3   0  -1  237.31   11.40
   3   0   1  265.43   11.43
   0  -3   1  248.13   11.39
  -3   1   0  259.96   11.36
  -1   0  -3  233.29   11.39
  -1   0   3  278.41   11.36
   3  -1  -1  281.79   12.99
  -1   1   3  276.32   12.96
   1   3  -1  310.37   12.94
  -3  -1   1  280.58   12.97
  -1   3  -1  276.15   12.96
   3   1   1  259.35   12.96
   3  -1  -1  279.10   13.57
  -1  -3   1  272.75   12.97
  -1  -1  -3  259.56   12.94
   1  -3   1  277.54   12.97
   1  -3   1  277.83   13.19
   1  -1  -3  277.32   12.99
   3   1  -1  279.80   12.93
  -1  -1  -3  235.98   12.92
  -1  -1  -3  256.42   13.14
  -1   1  -3  266.33   12.95
  -1   1  -3  271.59   12.97
   3  -1   1  295.53   12.99
  -1   3   1  275.61   12.98
   1  -3  -1  272.76   13.60
   1  -3   1  265.41   12.97
   1  -1  -3  248.60   12.94
  -3  -1  -1  272.90   12.98
  -3  -1   1  272.74   13.58
  -3   1  -1  266.50   12.97
   1  -3  -1  287.68   12.94
   3   1  -1  285.42   12.99
   3   1   1  295.74   13.01
  -1   1  -3  271.09   13.39
  -1  -3  -1  267.01   12.99
  -1  -3   1  282.85   13.95
  -3   1  -1  269.88   12.95
  -3   1   1  263.94   13.22
  -1  -3  -1  267.60   13.55
  -1   3  -1  260.38   12.97
  -1   1  -3  253.83   12.95
   1  -3  -1  270.87   12.99
   1  -1  -3  269.66   13.39
   3  -1   1  272.90   12.96
   1   1  -3  276.99   12.94
   1   1  -3  247.59   12.94
   1   3  -1  288.16   13.74
   1   3   1  270.45   12.97
  -3   1   1  279.12   13.51
  -3  -1  -1  275.64   12.97
   1   1  -3  269.40   12.96
   3   1  -1  267.79   12.98
   1   3   1  290.54   13.45
  -1  -1   3  302.61   12.97
  -3   1  -1  280.03   13.06
  -3   1   1  276.10   12.95
  -1  -1  -3  263.27   12.98
  -1  -3  -1  277.68   13.04
  -1   1  -3  272.87   12.96
  -1   3   1  285.38   12.96
   1   1  -3  280.58   12.95
   1   1   3  283.11   12.93
   1   3  -1  310.37   13.65
   0   2   3  216.23    9.95
   3   2   0  214.18    9.92
  -3   0  -2  210.81   10.11
  -3   0  -2  193.96    9.90
  -3  -2   0  212.86    9.97
  -3   0  -2  197.91    9.94
   0   2  -3  203.90   10.03
  -3   2   0  205.57    9.94
   2   0   3  210.93   10.81
   3  -2   0  209.39   10.53
   3   2   0  218.79   10.81
   0  -2  -3  188.45   10.44
  -3  -2   0  210.11   10.83
   2   0  -3  214.91    9.96
  -2   0   3  239.40    9.94
  -2   0  -3  202.07    9.92
   0  -3  -2  201.15   10.69
   0   3  -2  189.25   10.21
   0   3  -2  222.12    9.98
   0   3   2  213.00   10.40
   2   0  -3  220.79    9.97
   2   0  -3  184.43    9.95
   3  -2   0  214.51    9.99
   3   2   0  213.49   10.43
   3   0  -2  220.60   10.19
   0   2  -3  192.47   10.13
  -3   0   2  225.38   10.44
  -2  -3   0  207.42   10.52
   0  -2  -3  194.40    9.93
   0  -2   3  215.39    9.97
   2  -3   0  223.44    9.95
  -3   0   2  220.21    9.96
  -2   3   0  217.45    9.95
   0   2  -3  214.00    9.96
   2   3   0  222.74   10.22
  -3   2   0  219.15    9.95
  -2   0  -3  204.32   10.04
   0   3  -2  214.38   10.54
   0   3   2  218.26    9.96
   2   3   0  235.90   10.76
   3   0  -2  216.66    9.99
   3   0   2  214.36   10.94
   2   0  -3  212.46    9.98
   0  -3  -2  208.48    9.97
   2   3   0  213.81   10.70
  -3   2   0  210.54    9.98
  -2   0  -3  184.05    9.96
   0  -2  -3  210.04    9.99
   2  -3   0  216.22   10.74
   2  -3   0  215.39    9.96
   0  -3  -2  208.12    9.94
   0  -3   2  212.30    9.97
  -3   0  -2  208.95    9.96
  -3   0   2  214.72    9.98
  -2  -3   0  209.54   10.93
   0   2  -3  204.47    9.96
  -2   3   0  210.95    9.97
   0  -2  -3  202.21   10.43
  -2   0  -3  207.69   10.50
  -1   3  -2  131.98    6.33
   3   1  -2  135.42    6.36
   1   3   2  139.65    6.34
   2  -3   1  138.14    6.72
   1   2  -3  131.10    6.57
  -1   2   3  137.20    6.36
  -2  -3  -1  131.99    6.59
   3   1  -2  134.68    6.38
  -3  -2   1  137.00    6.37
  -2   1  -3  131.97    6.33
  -2   3   1  139.49    6.35
  -3   2  -1  136.62    6.34
  -2   1  -3  133.87    6.48
  -2   1  -3  136.02    6.33
   2  -3   1  135.52    6.35
  -1  -2  -3  128.78    6.36
   1   2  -3  128.77    6.35
   1   2  -3  128.53    6.35
  -3  -1  -2  117.12    6.62
   1  -3  -2  134.54    6.38
   3   2   1  129.79    6.32
   2  -1  -3  133.64    6.74
   1  -3  -2  135.15    6.38
  -3   1   2  136.59    6.36
   3  -2  -1  138.25    6.39
   2  -1  -3  145.53    6.92
   2  -1  -3  118.57    6.80
   3   2   1  141.46    6.34
  -1  -2  -3  130.09    6.38
   3  -2  -1  136.62    6.38
  -3   2  -1  131.54    6.35
  -1   3  -2  131.53    6.36
  -3   1   2  134.22    6.33
  -2  -1   3  142.03    6.36
   2   3  -1  144.50    6.41
   2   1   3  137.01    6.33
   1   3   2  131.54    6.34
   3  -1   2  139.60    6.38
   1  -3  -2  136.10    6.50
  -3  -2   1  135.80    6.35
   1  -2   3  150.18    6.64
   3   1  -2  138.72    6.35
   2   3  -1  138.79    7.04
   2   3  -1  145.62    6.34
  -2   1  -3  134.04    6.36
  -2  -3  -1  133.70    6.35
  -3  -1  -2  130.23    6.34
  -3  -1  -2  134.15    6.77
  -1  -3   2  133.73    6.50
   3   2   1  132.37    6.35
  -3   1   2  134.40    6.63
  -1   3  -2  113.68    6.34
   1   2  -3  128.04    6.33
  -1  -2  -3  130.14    6.34
  -3   2  -1  132.48    6.51
  -2   3   1  133.62    6.38
  -1  -3   2  132.78    6.36
  -2  -3   1  133.54    6.36
  -2  -1  -3  125.03    6.37
  -2  -3   1  133.57    6.80
  -1  -2   3  139.44    6.37
  -3  -1   2  138.64    6.60
  -2   1   3  135.10    6.34
  -3   1  -2  119.45    6.32
   2   3   1  142.68    6.33
  -1   2  -3  134.28    6.33
  -3  -2  -1  134.24    6.37
  -3   1  -2  129.72    6.34
  -3   1  -2  132.57    6.66
   1  -2  -3  124.52    6.36
  -3  -2  -1  137.66    6.37
   2   3   1  135.17    6.36
  -1   2  -3  123.40    6.36
  -3   2   1  133.32    6.33
  -2  -1  -3  134.14    6.66
  -2   3  -1  135.21    6.46
   3  -1  -2  138.53    6.39
  -2   1   3  141.83    6.31
  -1  -3  -2  132.26    6.68
   1  -2  -3  137.45    6.93
   1   2   3  139.72    6.64
   1  -3   2  135.34    6.45
  -2   3  -1  136.16    6.69
  -3   2   1  134.64    6.35
  -1  -3  -2  135.59    6.39
   3  -1  -2  134.43    6.36
  -1   3   2  134.63    6.33
   1   3  -2  142.30    6.36
   3   1   2  136.84    6.39
   2   1  -3  136.08    6.36
   2   3   1  137.63    6.36
   2  -3  -1  136.76    6.40
   1  -3   2  134.28    6.32
   3   2  -1  146.02    6.37
   2   1  -3  143.46    6.38
   2   1  -3  118.42    6.35
   1  -2  -3  135.57    6.39
   3  -2   1  132.52    6.76
   3   2  -1  134.23    7.02
  -1   2  -3  132.04    6.34
   2   1  -3  134.28    6.36
  -1  -3  -2  129.43    6.38
  -3  -1   2  136.12    6.37
  -2   3  -1  132.01    6.35
   2  -3  -1  136.77    6.37
  -3   2   1  135.75    6.36
  -2  -1  -3  117.24    6.33
  -1   2  -3  133.28    6.35
   1  -2  -3  114.79    6.32
   2  -3  -1  143.47    6.33
  -1   3   2  136.10    6.35
   2  -1   3  140.28    6.37
   1   3  -2  143.35    6.97
   3   2  -1  132.22    6.33
   3  -2   1  138.10    6.37
  -3   1  -2  131.71    6.36
  -2  -1  -3  131.51    6.34
   3   2  -2   87.75    4.18
  -2  -3  -2   89.89    4.19
  -2  -2  -3   87.16    4.19
   3   2   2   87.93    4.21
   3   2   2   90.68    4.21
  -3   2   2   97.31    4.18
  -2  -3  -2   86.77    4.19
  -2  -3   2   89.08    4.20
  -2  -2  -3   89.68    4.20
  -2  -2   3   85.51    4.18
  -2   2  -3   85.54    4.19
  -2   3  -2   88.62    4.19
   2  -3  -2   93.14    4.18
  -3   2  -2   84.38    4.18
  -3   2   2   87.62    4.18
  -2   2  -3   83.09    4.18
  -2   2   3   88.07    4.20
  -2   3  -2   88.98    4.18
  -2   3   2   85.43    4.18
   2   2  -3   90.75    4.18
   2  -2  -3   93.01    4.23
   2  -2  -3   88.90    4.36
  -3  -2  -2   90.75    4.22
  -3  -2   2   90.51    4.22
  -3   2  -2   83.76    4.18
  -3   2  -2   88.09    4.20
   2   2  -3   75.27    4.18
   2   3  -2   89.45    4.19
   2   3   2   86.34    4.18
   3  -2  -2   90.28    4.24
   3   2  -2   87.88    4.32
  -2   2  -3   82.72    4.19
  -2   2  -3   87.88    4.31
  -2   3  -2   79.65    4.18
  -2   3  -2   92.03    4.21
  -2   3   2   90.81    4.19
   2  -3  -2   92.37    4.21
   2  -2  -3   80.68    4.20
   2   2  -3   88.34    4.20
  -3   2   2   91.35    4.21
  -2  -3  -2   88.19    4.22
  -2  -3   2   90.59    4.22
  -2  -2  -3   86.19    4.21
   3  -2   2   91.71    4.21
  -3  -2  -2   88.32    4.20
   2  -2   3   99.86    4.21
   2   2  -3   86.49    4.19
   2   3  -2   85.58    4.18
   3  -2  -2   90.89    4.22
   2  -3  -2   89.76    4.23
   2  -3   2   89.86    4.19
  -3   2  -2   88.67    4.18
  -3  -2   2   87.55    4.38
   2   2   3   96.39    4.18
   2   3  -2   94.92    4.18
   2   3   2   93.95    4.19
   3   2  -2   90.77    4.23
  -3   0  -3   71.28    3.72
   0   3  -3   82.40    3.97
   0   3  -3   72.58    3.72
  -3   0   3   86.96    3.73
  -3   3   0   79.23    3.73
  -3   0   3   78.02    3.73
  -3   0  -3   76.03    3.73
  -3   3   0   79.55    3.73
   0  -3  -3   77.83    3.77
  -3  -3   0   80.33    3.74
  -3   0  -3   73.37    3.71
  -3  -3   0   77.90    3.73
   0  -3  -3   79.23    4.01
   3  -3   0   79.21    3.75
   3   0  -3   77.44    3.75
   3   0   3   79.13    3.74
   3   3   0   81.19    3.73
   0  -3   3   78.22    3.73
  -3   3   0   79.63    3.72
   0   3  -3   78.65    3.73
   0   3   3   80.05    3.72
   3   3   0   81.07    3.72
  -3   0  -3   78.26    3.73
   3   0  -3   82.44    3.76
   3  -3   0   83.33    3.74
   0  -3  -3   75.50    3.72
   3   3   0   82.77    3.73
   3   1  -3   74.25    3.63
  -3  -1  -3   74.80    3.79
  -3   1  -3   73.67    3.61
  -3   1  -3   75.66    3.62
  -3   1   3   83.16    3.65
   3  -1   3   76.41    3.62
  -3   1  -3   71.75    3.61
  -3   1   3   77.49    3.62
   3   3  -1   79.14    3.62
   1  -3  -3   66.86    3.61
   3   1   3   75.49    3.63
  -3  -1  -3   70.59    3.61
  -3  -3   1   78.54    3.75
  -3  -3  -1   75.98    3.63
  -3  -3   1   71.70    3.62
  -3  -1  -3   76.10    3.62
  -3  -1   3   80.70    3.62
  -3   1  -3   75.50    3.62
  -3   1   3   76.92    3.61
  -3   3  -1   75.50    3.62
  -1  -3  -3   76.97    3.62
  -1  -3   3   74.90    3.62
   1  -3   3   77.76    3.63
  -1  -3  -3   75.38    3.65
   1  -3  -3   77.15    3.65
   1  -3   3   81.53    3.61
   1   3  -3   75.53    3.62
   3  -3  -1   76.98    3.62
   3  -3   1   77.20    3.85
   3  -1  -3   76.60    3.64
   3   3  -1   77.57    3.61
   3   3   1   78.23    3.61
  -3   3  -1   77.34    3.63
  -3   3   1   78.76    3.62
  -1   3  -3   66.60    3.61
  -1  -3  -3   76.95    3.65
   1   3  -3   78.41    3.62
   1   3   3   77.38    3.62
   3   1  -3   78.73    3.62
   3   1   3   85.50    3.61
  -1   3  -3   74.87    3.62
  -1   3  -3   75.13    3.72
   1  -3  -3   78.90    3.66
   1   3  -3   76.26    3.73
   1   3  -3   73.66    3.62
   3  -3  -1   78.34    3.72
   3  -3   1   79.61    3.64
   3  -1  -3   80.00    4.07
   3   1  -3   79.10    3.65
   3   3  -1   79.93    3.63
   3   3   1   76.98    3.62
   3   3   1   76.69    3.63
  -3  -3  -1   78.50    3.64
  -3   3  -1   77.52    3.62
  -1   3   3   76.16    3.62
  -3   3   1   77.00    3.62
  -3  -2  -3   56.22    2.58
  -3   3   2   55.66    2.58
  -2  -3  -3   56.42    2.58
   3   3   2   52.45    2.58
  -2   3  -3   55.20    2.57
   2  -3  -3   56.45    2.68
  -3   3  -2   56.47    2.58
  -3   2  -3   54.19    2.57
   3   3   2   55.56    2.56
  -3  -3   2   54.47    2.58
  -2   3   3   53.77    2.57
  -3   2  -3   50.99    2.57
   2   3   3   56.01    2.57
   3   2  -3   55.11    2.57
   3   2   3   57.78    2.56
   3   3  -2   54.34    2.57
  -2  -3   3   51.22    2.58
  -2   3  -3   54.14    2.58
  -2  -3  -3   55.48    2.58
  -3   3   2   50.41    2.57
  -2   3  -3   50.18    2.57
   2   3  -3   55.50    2.57
  -3  -3  -2   53.81    2.58
  -3  -3   2   51.53    2.58
  -3  -2  -3   55.11    2.58
  -3  -2   3   51.38    2.58
  -3   2  -3   55.55    2.58
  -3   3  -2   53.47    2.57
  -2  -3  -3   55.12    2.58
  -3   2  -3   48.38    2.57
  -3   2   3   53.89    2.57
  -3   3  -2   53.59    2.57
   3  -3  -2   57.32    2.58
  -3  -3  -2   56.65    2.58
   3   3  -2   57.14    2.58
   2  -3  -3   56.55    2.58
   2  -3   3   56.64    2.60
   2   3  -3   52.78    2.56
   3  -3  -2   55.22    2.58
   3  -3   2   54.53    2.57
   3  -2  -3   54.26    2.58
   3  -2   3   56.24    2.57
   3   2  -3   53.06    2.57
   3   3  -2   53.60    2.57
   2   3  -3   55.32    2.58
  -2   3  -3   50.59    2.57
   3  -2  -3   55.72    2.58
   3   2  -3   55.18    2.58
  -3  -3   3   15.07    0.80
  -3  -3  -3   16.60    0.80
  -3   3  -3   17.31    0.79
   3  -3  -3   17.19    0.80
   3   3  -3   16.87    0.80
   3   3   3   15.23    0.80
  -3   3  -3   16.54    0.79
  -3   3  -3   15.40    0.79
  -3   3   3   15.58    0.79
   3   3  -3   16.67    0.79
  -3  -3  -3   16.58    0.80
   3  -3   3   16.52    0.78
   3   3  -3   15.32    0.78
  -4   0   0  124.08    5.82
   0  -4   0  120.27    5.80
   0   0  -4  119.47    5.83
   4   0   0  129.74    5.83
   0   0  -4  120.01    5.79
   0   4   0  126.24    5.78
   4   0   0  123.48    5.83
   0   4   0  124.43    5.79
  -4   0   0  124.27    5.78
   0  -4   0  122.54    5.79
   0   0  -4  119.22    5.79
   0  -4   0  115.25    5.84
  -4   0   0  124.14    5.80
   4   1   0  103.09    4.96
   0  -1   4  105.44    4.92
  -4   0  -1  106.21    4.92
  -4   0   1  108.52    5.14
  -1  -4   0  100.77    4.91
   1   0  -4  103.16    5.37
   0  -4   1  103.35    4.91
   1   0  -4  104.07    4.91
   4  -1   0  106.38    4.96
  -1   0  -4  103.47    5.30
   0  -4  -1  102.06    4.93
  -4   0  -1  103.76    4.89
  -4   0   1  101.18    4.91
  -1   4   0  103.08    4.91
   0   1  -4  104.40    4.92
   0   1   4  106.14    4.92
  -4   0   1  104.67    4.95
  -1  -4   0  106.12    4.96
  -1   4   0  107.93    4.92
   0  -1  -4  103.82    5.11
   0  -1  -4   95.72    4.91
   0   1  -4   98.99    4.90
   0   1  -4  104.07    4.89
  -1  -4   0  106.98    4.93
   0  -1  -4  104.18    4.95
   0   1  -4  100.43    4.92
   1  -4   0  101.89    4.92
   4   0  -1  104.40    4.96
   4   0   1  103.96    4.95
  -1   0  -4  103.31    4.91
   0   4  -1  107.04    4.91
   0   4   1  106.52    4.90
  -4   0  -1  103.37    4.94
  -4   1   0  103.54    4.94
   0  -1  -4   98.01    4.97
  -4  -1   0  106.73    4.90
   1  -4   0  101.87    4.91
   1   4   0  107.49    4.92
   1   0  -4  107.79    5.04
   1   0  -4   93.37    4.91
   1  -4   0  106.75    4.96
   1   4   0  105.34    4.93
   4   0  -1  105.95    4.95
   4   0   1  104.18    4.92
   0   4  -1  102.45    4.91
   0   4   1  104.35    4.92
  -4  -1   0  106.46    4.93
   4   1   0  103.45    4.91
   4  -1   0  105.77    4.93
  -4  -1   0  104.59    4.93
  -4   1   0  102.22    4.91
  -1   0  -4  102.53    5.12
  -1   0   4  114.64    4.92
   0  -4  -1  102.93    4.91
   0  -4   1  104.79    4.92
  -4   1   0  109.23    4.90
   0  -4   1   98.72    4.95
   0  -4  -1  102.33    4.93
  -4   1  -1   87.60    4.20
   1  -4   1   91.43    4.47
  -1  -4   1   85.40    4.19
  -1  -1  -4   87.04    4.20
  -1  -1   4   92.71    4.30
  -1   1  -4   88.62    4.19
   1  -4  -1   93.13    4.23
   1   4  -1   90.55    4.19
  -4   1   1   88.10    4.41
  -4  -1   1   89.78    4.22
  -1   4  -1   90.74    4.27
  -1   4   1   89.44    4.19
   4   1   1   85.58    4.19
   1   1  -4   89.08    4.19
   1   1   4   88.82    4.19
  -4  -1  -1   89.88    4.20
  -4  -1  -1   90.93    4.34
  -4  -1   1   91.06    4.33
  -4   1  -1   90.97    4.22
  -4   1   1   88.08    4.22
  -1  -4  -1   85.36    4.23
   4   1  -1   89.00    4.19
  -1   1   4   97.34    4.19
   1  -4  -1   90.01    4.19
   1  -4   1   87.76    4.19
  -1  -1  -4   87.14    4.23
  -1   1  -4   83.93    4.19
   1  -4  -1   88.64    4.21
   1  -4   1   88.58    4.19
   1  -1  -4   86.17    4.73
   1   1  -4   86.16    4.21
   1   4  -1   92.23    4.18
   4  -1  -1   87.76    4.21
  -1  -4  -1   88.90    4.29
   1  -1  -4   91.38    4.21
   1  -1  -4   78.60    4.36
   1   1  -4   91.22    4.35
   1   1  -4   79.13    4.19
  -4   1  -1   89.14    4.18
  -4   1   1   86.21    4.18
  -1   1  -4   89.12    4.19
  -1   1   4   89.05    4.20
  -1   4  -1   86.77    4.19
  -1   4   1   91.30    4.19
   1   4   1   87.51    4.19
  -1  -4  -1   91.36    4.23
   1   4  -1   93.50    4.19
   1   4   1   92.40    4.19
   4  -1   1   87.23    4.21
   4   1   1   90.84    4.20
  -1  -1  -4   82.21    4.21
  -1  -1  -4   85.95    4.19
   4  -1   1   91.43    4.20
   4   1  -1   89.19    4.20
   4  -1  -1   92.61    4.53
  -1  -4   1   89.30    4.23
  -4  -2   0   64.10    3.02
  -4   2   0   62.87    3.01
  -4   0  -2   63.90    3.02
  -4  -2   0   65.57    3.02
  -2  -4   0   64.74    3.02
  -2   4   0   65.67    3.02
  -4   2   0   63.86    3.02
  -2   0  -4   61.81    3.01
   0  -4  -2   65.20    3.05
   0   4  -2   68.96    3.02
   0   4   2   66.55    3.02
   2   0  -4   67.15    3.03
   0  -2  -4   60.97    3.12
  -4   2   0   65.69    3.01
  -2   0  -4   61.96    3.01
   0   4  -2   65.68    3.02
   0   4   2   64.78    3.01
   2   0  -4   61.16    3.01
   4   2   0   62.59    3.00
  -2   4   0   64.77    3.02
   0   2   4   64.67    3.01
   2   4   0   63.39    3.02
   4   0  -2   63.98    3.02
   4   0   2   61.04    3.02
  -2  -4   0   62.59    3.02
   0  -2  -4   58.20    3.00
   0  -2  -4   57.95    3.01
   0   2  -4   59.33    3.01
  -2   0  -4   62.51    3.01
  -2   0   4   73.28    3.01
   4   2   0   61.18    3.02
  -4   0   2   63.58    3.01
   0  -2   4   62.94    3.02
   0   2  -4   63.52    3.01
   2   4   0   67.30    3.01
   0  -2  -4   62.85    3.02
   0   2  -4   62.30    3.01
   2  -4   0   65.86    3.03
   0  -4  -2   64.43    3.01
   4  -2   0   63.88    3.02
   0  -4  -2   63.74    3.01
   2   0  -4   62.89    3.03
   2   0   4   62.95    3.02
   0   2  -4   60.10    3.01
   4  -2   0   64.81    3.02
  -4   0   2   65.59    3.02
  -4   0  -2   66.12    3.02
  -4   0   2   69.29    3.02
   2   0  -4   55.07    3.01
   2   4   0   66.70    3.02
   4   0  -2   66.73    3.02
   2  -4   0   64.69    3.01
   2  -4   0   65.06    3.03
   0  -4   2   64.36    3.02
   4   2   0   64.36    3.02
  -2   0  -4   56.43    3.00
   2  -4   1   53.96    2.53
  -1  -2  -4   51.02    2.53
   1   4   2   54.72    2.53
   1   2  -4   53.95    2.54
  -4  -1  -2   54.76    2.54
   4   1  -2   53.57    2.54
  -1  -2  -4   50.44    2.53
  -4  -2   1   53.03    2.54
   2  -4   1   53.18    2.54
   2   4  -1   56.18    2.54
  -2   1  -4   48.74    2.52
  -2   4   1   54.10    2.54
   4   1  -2   53.53    2.54
   1   2  -4   52.48    2.53
   2   4  -1   57.50    2.53
   4   2   1   53.27    2.54
  -1   4  -2   54.75    2.54
   1   2  -4   50.63    2.53
  -4   2  -1   54.43    2.53
   4  -2  -1   55.18    2.54
  -2   1  -4   52.56    2.53
  -2   1  -4   50.00    2.52
  -2   4   1   53.49    2.54
   4  -1   2   53.58    2.54
   2   1   4   53.12    2.52
   1  -4  -2   54.84    2.54
  -1  -2  -4   52.03    2.54
   4   1  -2   54.94    2.53
   1  -2   4   55.99    2.53
  -4   1   2   55.51    2.54
   1  -4  -2   53.72    2.53
   4  -2  -1   55.50    2.54
   2   4  -1   56.34    2.53
  -2  -4  -1   54.81    2.54
  -4   2  -1   53.43    2.53
  -2  -4  -1   52.66    2.54
  -2  -1   4   56.70    2.53
  -1   4  -2   53.33    2.54
  -4   1   2   52.16    2.53
  -4   1   2   52.45    2.53
   4   2   1   51.27    2.55
   1   4   2   54.16    2.54
   2  -1  -4   55.39    2.66
  -1   2   4   53.36    2.53
   1  -4  -2   54.78    2.54
  -4  -2   1   54.87    2.54
  -4  -1  -2   53.79    2.54
  -2   1  -4   53.10    2.54
   1   2  -4   53.70    2.53
  -1  -4   2   50.99    2.54
   2  -4   1   55.97    2.54
  -4   2  -1   54.07    2.54
   2  -1  -4   53.15    2.54
  -2  -1  -4   51.82    2.54
  -1   4   2   52.35    2.54
   4   1   2   52.60    2.55
  -2  -4   1   55.73    2.55
   2   1  -4   44.82    2.53
  -1   2  -4   51.26    2.52
   1  -2  -4   54.31    2.54
   1  -2  -4   48.92    2.53
  -4   2   1   52.55    2.53
   1  -4   2   51.34    2.54
  -2   4  -1   52.31    2.54
   2   1  -4   52.86    2.54
  -1   2  -4   51.94    2.53
   2   4   1   56.88    2.53
  -1  -2   4   54.51    2.54
  -4  -2  -1   55.14    2.54
  -1  -4  -2   53.99    2.54
  -2  -4   1   51.72    2.54
   2  -4  -1   54.04    2.53
   4  -1  -2   54.70    2.54
  -2   4  -1   55.44    2.54
   2   4   1   55.39    2.54
   2   1  -4   55.90    2.53
   2  -1   4   52.50    2.54
  -1   4   2   52.85    2.54
  -4  -1   2   54.69    2.54
  -4   1  -2   54.46    2.54
  -2   1   4   53.64    2.53
   2   1  -4   54.56    2.54
   4   2  -1   53.45    2.54
   2   4   1   55.23    2.54
   1   2   4   53.03    2.53
   1   4  -2   56.94    2.54
   1   4  -2   57.38    2.54
  -1   2  -4   52.01    2.52
  -1  -4  -2   53.66    2.53
  -1   2  -4   52.23    2.54
  -1  -4  -2   54.06    2.54
  -2  -1  -4   52.95    2.54
   1  -2  -4   53.71    2.54
   2  -4  -1   56.12    2.54
  -4  -1   2   52.72    2.53
  -4   1  -2   54.21    2.54
   4   2  -1   54.75    2.53
   4  -1  -2   54.52    2.54
  -4   2   1   53.79    2.54
  -2  -1  -4   44.84    2.52
  -2  -1  -4   52.56    2.58
   4   2  -1   55.34    2.55
  -4  -2  -1   53.31    2.54
   2  -4  -1   53.74    2.53
  -4   2   1   52.39    2.53
   4  -2   1   56.92    2.54
  -2   2  -4   38.38    1.90
  -4   2  -2   36.47    1.90
  -4   2   2   39.04    1.91
  -2   4  -2   40.52    1.92
   2   4  -2   42.71    1.91
  -4  -2  -2   41.26    1.92
  -4   2  -2   39.88    1.91
  -4   2  -2   41.82    1.91
   2  -4   2   38.82    1.92
   4   2   2   38.13    1.93
  -2   2  -4   38.68    1.90
   2   4  -2   45.44    1.92
   4  -2  -2   41.56    1.92
  -2   2  -4   38.95    1.91
  -2   2   4   38.54    1.91
   2   4   2   42.35    1.91
   4   2  -2   39.49    1.91
   2   2  -4   38.86    1.91
  -4  -2  -2   40.01    1.92
  -4  -2   2   37.71    1.92
  -4  -2   2   40.94    1.92
  -2  -4  -2   40.58    1.92
  -2  -4   2   39.30    1.92
   2  -4  -2   40.71    1.90
   4  -2  -2   41.44    1.92
   4   2  -2   40.06    1.92
  -2  -2  -4   40.15    1.92
  -2  -2  -4   40.80    1.91
  -2   4   2   38.34    1.91
   4   2  -2   40.03    1.92
  -4   2   2   40.73    1.92
  -2  -4  -2   41.43    1.92
   2   2  -4   40.67    1.91
   2   2   4   40.39    1.90
   2  -4   2   39.11    1.90
  -2   4  -2   41.99    1.92
  -2   4   2   39.32    1.92
   2  -4  -2   41.75    1.92
   2  -2  -4   41.91    1.91
   2   2  -4   40.65    1.91
   2  -2  -4   40.01    1.92
   2  -4  -2   40.76    1.91
  -4   2   2   38.91    1.90
  -2  -2   4   39.62    1.91
  -2   2  -4   39.97    1.92
   4  -2   2   40.17    1.92
   2  -2   4   41.93    1.91
  -2  -2  -4   40.25    1.91
  -2  -4  -2   42.01    1.91
   3   4   0   31.00    1.53
  -3   0  -4   30.17    1.51
  -4   0   3   31.99    1.53
  -3   4   0   31.58    1.53
  -3   0   4   36.86    1.52
  -4   0  -3   32.44    1.53
  -3   0   4   31.99    1.53
   0  -4   3   30.92    1.54
   0  -4  -3   32.96    1.53
   0   4   3   31.87    1.53
   4   3   0   31.50    1.51
  -4   0   3   33.30    1.52
   0   3  -4   32.06    1.52
   3  -4   0   32.38    1.53
   0   4  -3   33.17    1.53
   3   0  -4   33.63    1.53
   4   0  -3   32.26    1.54
   0   4  -3   32.45    1.53
  -4   3   0   31.17    1.53
   3   4   0   32.82    1.53
   4  -3   0   32.22    1.53
  -3  -4   0   31.47    1.54
   0  -3  -4   32.27    1.53
  -3   4   0   33.05    1.53
   0  -3  -4   33.09    1.53
   0  -4  -3   31.29    1.52
   0   3  -4   32.00    1.53
   0   3   4   31.82    1.52
   3   4   0   34.07    1.52
   3  -4   0   32.68    1.53
   4   0   3   30.41    1.54
  -4  -3   0   33.08    1.54
  -4   3   0   32.21    1.53
  -3   0  -4   27.59    1.51
  -3   0  -4   31.71    1.52
   0  -4  -3   32.27    1.53
   4   3   0   30.71    1.54
   3   0  -4   31.13    1.53
   3   0   4   32.66    1.54
   4  -3   0   32.38    1.53
   0  -3  -4   27.09    1.51
   0  -3   4   29.75    1.53
   3  -4   0   32.86    1.53
   4   0  -3   33.00    1.53
   0   3  -4   29.36    1.52
  -4   3   0   31.68    1.52
  -3   0  -4   32.67    1.53
  -3  -4   0   32.91    1.54
   4   3   0   33.97    1.54
  -4   0  -3   33.09    1.52
  -4  -3   0   31.78    1.54
  -4   3  -1   29.24    1.35
  -4  -1  -3   29.25    1.36
  -3  -4  -1   28.76    1.36
   4   1  -3   28.96    1.35
   1   4   3   27.75    1.34
   4  -3  -1   28.70    1.36
  -3   1  -4   28.16    1.34
  -1  -3  -4   28.57    1.35
  -3   1  -4   26.40    1.34
  -1  -3  -4   28.06    1.35
  -3  -4  -1   28.15    1.36
  -1   4  -3   28.08    1.35
  -1  -3  -4   26.02    1.34
   3   4  -1   27.52    1.35
   1  -3   4   28.15    1.36
   4   3   1   27.15    1.36
   3   1   4   26.12    1.36
  -3   4   1   29.38    1.36
  -4   3  -1   27.69    1.35
  -4  -3   1   27.23    1.36
  -4   3  -1   27.55    1.34
   3   4  -1   29.30    1.36
  -4   1   3   26.97    1.35
  -3   4   1   27.99    1.35
  -3   1  -4   26.26    1.33
  -3  -1   4   30.91    1.35
  -3   1  -4   28.62    1.35
  -1   4  -3   27.78    1.35
   1  -4  -3   30.00    1.35
   3  -4   1   28.05    1.34
   3  -1  -4   29.81    1.35
  -4  -1  -3   29.11    1.35
   4  -3  -1   28.67    1.35
   4  -1   3   26.85    1.35
   4   1  -3   27.83    1.36
   1   3  -4   28.77    1.35
   4   1  -3   28.92    1.35
  -1  -4   3   27.46    1.36
   3  -4   1   27.64    1.35
   3   4  -1   29.82    1.35
  -1   3   4   28.11    1.35
   1   3  -4   27.02    1.34
  -4  -3   1   29.34    1.36
   1  -4  -3   28.58    1.35
   3  -1  -4   27.37    1.35
   3  -4  -1   28.66    1.34
   4   3  -1   29.75    1.36
  -4  -3  -1   29.46    1.36
  -3   4  -1   28.68    1.35
   3   1  -4   29.13    1.35
  -4   1  -3   29.33    1.35
  -3  -1  -4   23.93    1.34
  -3  -4   1   28.65    1.36
  -4  -3  -1   28.07    1.36
   3   1  -4   28.94    1.35
  -1  -4  -3   28.41    1.35
  -3   1   4   28.68    1.35
  -3  -1  -4   28.20    1.35
   3  -1   4   27.48    1.35
   4  -1  -3   29.43    1.35
   1   3   4   28.10    1.34
  -4   3   1   27.73    1.35
   4  -3   1   28.02    1.35
  -1   3  -4   26.44    1.34
  -1   3  -4   28.80    1.34
   1  -3  -4   29.46    1.35
  -3  -4   1   26.40    1.36
  -1   3  -4   26.37    1.35
  -4   3   1   28.62    1.34
   3   4   1   28.84    1.34
   3  -4  -1   28.25    1.35
   4   3  -1   27.39    1.36
  -4   3   1   27.60    1.35
   3  -4  -1   29.47    1.35
   1   4  -3   29.51    1.35
  -1  -4  -3   28.65    1.35
  -4  -1   3   28.58    1.35
   4   1   3   27.05    1.36
  -3  -1  -4   28.58    1.34
   1  -4   3   26.80    1.36
  -1  -4  -3   28.34    1.35
  -4   1  -3   29.28    1.35
   1  -3  -4   28.02    1.35
  -3   4  -1   27.57    1.35
   1   4  -3   30.35    1.35
  -1  -3   4   26.81    1.35
   3   4   1   27.54    1.36
   4  -1  -3   27.72    1.36
   3   1  -4   28.88    1.35
  -1   4   3   26.33    1.35
   4   3  -1   28.36    1.34
  -3   4   2   12.49    0.69
  -4  -2  -3   14.42    0.69
   3  -4   2   13.90    0.69
  -4   3  -2   13.02    0.68
  -4  -3   2   13.30    0.69
  -3   2  -4   13.15    0.67
   4  -3  -2   14.03    0.69
  -2  -3  -4   13.20    0.69
   3   2   4   13.39    0.70
   2   4   3   13.89    0.68
   4   3   2   13.21    0.70
  -2  -3  -4   13.79    0.68
  -2   3   4   14.24    0.68
   3  -2  -4   13.42    0.69
   2   3  -4   14.90    0.69
  -2   4  -3   14.78    0.69
  -4   3  -2   14.53    0.69
  -3  -4  -2   14.01    0.70
  -3   2  -4   13.41    0.67
  -3   2  -4   14.03    0.67
  -3  -2   4   13.51    0.69
  -2   4  -3   14.51    0.69
   2  -4  -3   14.31    0.68
  -4   2   3   13.21    0.68
   3  -2  -4   14.83    0.68
   3   4  -2   14.50    0.69
  -2  -3  -4   13.68    0.69
  -3  -4  -2   15.67    0.70
   4  -3  -2   14.13    0.69
   3  -4   2   13.35    0.67
  -2  -4   3   12.84    0.69
   4   2  -3   13.91    0.68
   4  -2   3   13.40    0.69
   4   2  -3   13.78    0.69
   4   2  -3   13.86    0.69
   2  -4  -3   13.95    0.69
   2   3  -4   14.54    0.68
  -4  -2  -3   14.98    0.70
   3   4  -2   14.82    0.70
  -4   3  -2   14.52    0.69
  -3   2  -4   14.15    0.69
  -3   4  -2   13.44    0.69
  -2  -4  -3   14.17    0.69
  -3  -2  -4   14.08    0.68
  -4   3   2   12.82    0.68
   3  -4  -2   14.68    0.69
   4   2   3   13.01    0.70
   3   2  -4   14.30    0.69
   3   4   2   13.04    0.70
   4  -2  -3   13.78    0.69
  -4   2  -3   14.25    0.68
   2  -3  -4   13.72    0.69
  -3   4  -2   14.85    0.69
   2  -4   3   13.42    0.70
  -2   3  -4   13.53    0.68
   2  -3  -4   14.31    0.68
   3  -2   4   14.02    0.68
  -4  -2   3   12.88    0.69
  -4   2  -3   14.12    0.69
   4  -2  -3   14.21    0.69
   3  -4  -2   14.84    0.69
  -3  -2  -4   14.35    0.69
  -2  -4  -3   14.33    0.69
   2   3   4   13.65    0.67
  -4   2  -3   11.71    0.67
   2   4  -3   14.20    0.69
  -4  -3  -2   13.32    0.70
   3   4   2   13.52    0.67
  -2   3  -4   13.28    0.68
  -3   2   4   13.59    0.68
  -4  -3  -2   15.00    0.70
   2   4  -3   13.95    0.69
  -2  -4  -3   13.65    0.69
   3   2  -4   14.11    0.69
   4   3  -2   14.12    0.68
  -2   3  -4   13.93    0.69
   4  -3   2   13.43    0.68
   4   3  -2   13.44    0.69
   3   2  -4   13.49    0.68
  -2  -3   4   13.02    0.69
   4   3  -2   14.74    0.70
  -3  -4   2   13.06    0.69
   4   3  -3    9.87    0.51
   3   4  -3   10.55    0.51
   3   3  -4    9.95    0.51
   4  -3   3    9.64    0.50
  -4  -3  -3   10.28    0.53
  -3   4  -3   10.16    0.51
  -3  -4  -3   10.12    0.52
  -3  -4   3    9.16    0.52
  -3  -3  -4   10.06    0.52
  -3  -3   4    9.52    0.51
  -3   3  -4    9.60    0.51
   3  -4   3    9.55    0.52
   3  -3   4    9.46    0.49
   4   3  -3   10.20    0.52
  -4  -3   3    8.51    0.51
  -4   3  -3   10.17    0.51
  -4   3  -3    9.32    0.49
   4   3  -3    9.37    0.51
   4   3   3    8.90    0.53
  -3   3   4    9.51    0.50
   3  -4  -3    9.81    0.51
   3  -3  -4    9.87    0.51
  -3   4  -3   10.03    0.51
   3   3   4    9.04    0.52
   3  -3  -4   10.15    0.50
  -4   3   3    9.82    0.51
  -3   3  -4    8.89    0.50
   4  -3  -3    9.76    0.51
   3  -4  -3   10.18    0.51
  -3  -4  -3   10.63    0.51
   3   3  -4   10.00    0.51
   3   4  -3   10.87    0.52
  -3  -3  -4    9.63    0.50
   3   4   3   10.36    0.52
   4  -3  -3    9.64    0.51
  -4  -3  -3   10.12    0.51
  -4   3  -3   10.63    0.51
  -3   3  -4    9.82    0.49
   0  -4   4   10.04    0.55
   0  -4  -4   10.92    0.55
   4   4   0   10.70    0.53
   0   4  -4   10.78    0.54
  -4   0   4   10.68    0.54
  -4   0  -4   11.16    0.55
  -4   4   0   10.99    0.53
   0  -4  -4   11.05    0.54
  -4  -4   0   11.11    0.56
  -4   0  -4   11.00    0.53
  -4   4   0   11.14    0.55
  -4   4   0   10.88    0.55
   0   4  -4   10.59    0.56
   4   0  -4   10.80    0.54
   4  -4   0   10.88    0.55
   0   4   4   10.36    0.54
  -4  -4   0   10.54    0.56
   4   4   0    9.20    0.55
   4   0   4   10.61    0.56
   4   0  -4   10.86    0.56
  -1   4  -4    9.50    0.49
   1  -4  -4   10.20    0.49
   1   4  -4    9.68    0.49
   4  -1  -4   10.35    0.50
  -4  -4  -1    9.87    0.52
  -1  -4  -4    9.84    0.49
  -4   4   1    9.85    0.51
  -4   4  -1   10.19    0.51
  -1  -4  -4    9.98    0.50
   1  -4  -4   10.00    0.50
   4  -4  -1   10.07    0.50
   4  -4   1    9.27    0.49
   4  -1  -4    9.58    0.51
   4  -1   4    9.11    0.51
   4   1  -4    9.78    0.51
   4   1   4    9.42    0.52
   4   4  -1    8.53    0.50
   4   4   1    9.02    0.52
  -4  -1  -4    9.63    0.49
  -4   1  -4   10.18    0.49
  -4   1   4    9.43    0.49
  -4   4  -1    9.66    0.50
  -4   4   1    9.49    0.50
  -1   4  -4    9.79    0.51
  -1   4   4    8.92    0.49
   1   4  -4    9.76    0.51
   1   4   4    9.53    0.49
   4   1  -4    9.87    0.50
   4   4  -1   10.68    0.52
  -1  -4   4    9.18    0.51
  -4  -4  -1    9.50    0.52
  -4  -4   1    9.02    0.51
  -4  -1  -4   10.37    0.51
  -4  -1   4   10.17    0.49
  -4   1  -4    9.94    0.51
  -4   4  -1    9.48    0.49
  -1  -4  -4    9.11    0.49
   4   1  -4   10.11    0.50
   1  -4   4    8.54    0.51
   4   4  -1   10.02    0.49
  -4  -4  -2    6.98    0.39
  -4  -2  -4    7.17    0.39
  -4  -2   4    6.72    0.37
  -4   2  -4    6.96    0.38
  -4  -4   2    6.02    0.38
  -2  -4  -4    6.41    0.38
  -2  -4   4    6.15    0.39
   2  -4   4    6.40    0.39
   4   4  -2    6.99    0.37
   4  -4   2    6.22    0.36
   4  -2  -4    6.51    0.38
  -2  -4  -4    6.76    0.37
   2  -4  -4    6.68    0.37
  -4  -2  -4    6.74    0.36
  -4   2  -4    6.92    0.36
  -4   4  -2    7.10    0.39
  -2  -4  -4    7.33    0.37
  -2   4  -4    6.75    0.36
   2  -4  -4    6.86    0.36
   2   4  -4    6.86    0.37
   4  -4  -2    6.73    0.37
   4  -2  -4    7.03    0.37
  -4   4  -2    6.63    0.37
  -4  -4  -2    6.66    0.39
  -4   2   4    6.65    0.37
  -4   4  -2    6.61    0.38
  -4   4   2    6.38    0.37
  -2   4  -4    6.43    0.38
  -2   4   4    6.51    0.37
   2   4  -4    7.03    0.38
   2   4   4    6.39    0.36
   4   2  -4    6.69    0.38
   4  -4  -2    6.87    0.38
   4   2  -4    6.74    0.37
   4   4  -2    7.32    0.39
   4  -2   4    6.28    0.37
   4   2  -4    6.36    0.37
   4   2   4    5.76    0.39
   4   4   2    6.55    0.40
  -4  -4   3    2.00    0.25
  -4  -3  -4    2.39    0.25
   4  -4  -3    2.43    0.23
   4  -3  -4    2.50    0.23
  -4  -3   4    2.40    0.23
  -4   3  -4    2.39    0.24
  -4  -4  -3    2.39    0.26
  -4   3   4    2.41    0.23
  -4   4  -3    2.57    0.22
  -4   4   3    2.31    0.22
  -3   4  -4    2.29    0.23
   3   4  -4    2.41    0.25
   4   3  -4    2.31    0.25
   3  -4  -4    2.38    0.23
   4  -3   4    2.30    0.20
   4   3   4    2.16    0.25
   4   4   3    2.27    0.26
   3   4  -4    2.81    0.23
   4  -4  -3    2.38    0.22
   4  -3  -4    2.52    0.22
   4   3  -4    2.70    0.23
   4   4  -3    2.83    0.25
   3  -4  -4    2.45    0.20
  -4   4  -3    2.60    0.24
  -3  -4  -4    2.35    0.24
  -3  -4   4    2.33    0.27
   3  -4   4    2.39    0.24
  -3  -4  -4    2.86    0.21
  -3   4  -4    2.62    0.22
  -4   4  -3    2.79    0.23
  -4   3  -4    3.09    0.21
  -4  -3  -4    2.92    0.22
   4   4  -3    2.34    0.24
   3   4   4    2.73    0.25
  -4  -4  -3    2.68    0.24
  -4   4  -4    1.53    0.21
   4   4  -4    1.29    0.17
  -4   4  -4    1.66    0.24
  -4  -4  -4    1.40    0.20
  -4  -4   4    1.36    0.20
  -4  -4  -4    1.72    0.22
   4  -4  -4    1.53    0.23
   4   4   4    1.52    0.21
  -4   4  -4    1.23    0.14
  -4   4   4    1.43    0.17
   4   4  -4    1.63    0.23
   4  -4  -4    1.46    0.19
   5   0   0   26.75    1.25
  -5   0   0   26.37    1.23
   0  -5   0   25.42    1.24
   0   5   0   26.12    1.24
   0  -5   0   26.72    1.22
   0   0  -5   24.00    1.23
   0   5   0   25.83    1.23
   0   0  -5   25.70    1.23
   0  -5   0   25.25    1.24
   5   0   0   25.91    1.24
   0   0  -5   24.81    1.23
  -5   0   0   26.04    1.24
  -5   0   0   24.99    1.22
  -1  -5   0   27.03    1.28
  -5   0   1   27.14    1.28
  -5   0   1   25.63    1.27
  -1   5   0   26.28    1.28
   0   1  -5   25.93    1.28
   0   1   5   26.79    1.27
   1   5   0   26.56    1.28
   0  -1  -5   26.42    1.28
   0   1  -5   25.51    1.28
   1  -5   0   26.08    1.27
   5   1   0   25.69    1.29
   5   0   1   24.96    1.29
  -5   0   1   26.99    1.27
  -5  -1   0   27.46    1.29
  -5   1   0   27.81    1.29
   0  -5  -1   28.65    1.29
   0   5  -1   28.09    1.29
   0   5   1   28.16    1.29
   1   0  -5   26.71    1.26
   1   0  -5   24.03    1.26
   5   1   0   26.09    1.28
   0  -1  -5   24.87    1.27
   0  -1   5   26.66    1.28
   1  -5   0   26.04    1.28
   1   5   0   27.58    1.29
   5   0  -1   26.96    1.29
  -5   1   0   27.38    1.27
  -1   0  -5   26.58    1.28
  -1   0   5   28.58    1.27
   0  -5  -1   26.13    1.28
   0  -5   1   26.15    1.28
  -5  -1   0   27.50    1.28
   5   0  -1   27.86    1.29
  -5   0  -1   27.58    1.28
   0   5   1   27.20    1.28
  -1   5   0   28.49    1.29
   0  -1  -5   24.56    1.26
   0  -1  -5   26.39    1.26
   1  -5   0   27.20    1.28
  -1   0  -5   26.69    1.28
   0  -5  -1   26.75    1.27
   1   0  -5   27.03    1.28
  -1   0  -5   26.76    1.27
   0   5  -1   26.76    1.28
  -1  -5   0   25.80    1.28
   1   0  -5   25.92    1.28
  -5   1   0   26.03    1.27
   5  -1   0   27.29    1.29
  -5   0  -1   27.13    1.28
   1  -1  -5   20.05    0.93
  -1   5  -1   20.55    0.96
  -5   1   1   19.64    0.93
  -5   1   1   20.28    0.95
   1  -1  -5   17.20    0.93
   1   1  -5   20.01    0.92
   1   1  -5   17.36    0.92
  -1  -5   1   18.85    0.95
   5   1  -1   19.17    0.96
   5   1   1   20.06    0.96
  -1   1  -5   19.48    0.94
  -1   5   1   20.26    0.95
   1  -5  -1   20.02    0.95
  -1   1   5   19.36    0.94
  -1   5  -1   18.50    0.94
  -1   5   1   19.24    0.95
   1   1  -5   19.28    0.94
   1   1   5   19.47    0.93
   1   5  -1   19.73    0.95
   1   5   1   19.64    0.94
   1  -5  -1   19.65    0.94
   1  -5   1   18.14    0.95
   5  -1   1   19.75    0.96
  -5  -1   1   20.33    0.95
   5   1  -1   19.92    0.95
  -5   1  -1   19.52    0.94
  -5   1  -1   20.85    0.95
  -1   1  -5   19.22    0.94
  -1  -5  -1   19.92    0.95
  -5  -1   1   19.09    0.93
  -5   1   1   17.61    0.93
  -1  -1  -5   18.65    0.94
  -1  -1   5   20.00    0.94
  -5  -1  -1   19.96    0.95
   1  -5  -1   18.94    0.94
  -1  -5  -1   20.46    0.94
  -1  -1  -5   19.64    0.95
  -1   1  -5   18.78    0.94
  -1  -5  -1   19.34    0.95
   1   1  -5   19.53    0.94
  -5  -1   1   19.68    0.94
   1   5  -1   20.39    0.95
   1   5   1   19.08    0.95
   5  -1  -1   19.54    0.95
  -5  -1  -1   20.08    0.95
  -2  -5   0   15.51    0.75
   0  -5  -2   15.21    0.74
  -5   0  -2   16.03    0.75
   5  -2   0   15.76    0.76
   0   2  -5   14.61    0.72
   0  -2   5   14.65    0.75
   2  -5   0   14.69    0.75
   2   0  -5   15.70    0.73
   0  -2  -5   15.63    0.75
   0   2  -5   14.42    0.74
  -5  -2   0   15.60    0.76
  -5   2   0   15.60    0.75
   0  -5  -2   15.30    0.75
   0   5  -2   16.35    0.76
  -5   0   2   15.18    0.74
  -2   5   0   14.82    0.75
   0   5   2   15.11    0.75
  -5   0  -2   16.24    0.75
  -5   0   2   14.92    0.74
  -2  -5   0   14.70    0.76
   5   2   0   15.44    0.76
   0   2  -5   15.66    0.75
   0   2   5   15.05    0.74
   2   5   0   15.67    0.75
   0  -2  -5   13.92    0.73
  -2   5   0   16.14    0.76
   2   5   0   15.03    0.74
  -2   0  -5   15.12    0.75
  -5   2   0   14.46    0.74
  -2   0  -5   14.78    0.73
  -2   0   5   15.08    0.74
   2   0  -5   15.14    0.75
   0  -2  -5   15.12    0.73
   2  -5   0   14.93    0.73
   0  -5   2   14.38    0.75
   5   0  -2   15.49    0.76
   5   0   2   13.94    0.76
  -5  -2   0   15.06    0.76
  -5   2   0   15.30    0.74
  -2   0  -5   15.20    0.75
   0  -5  -2   14.73    0.74
   5   0  -2   15.20    0.75
   0   5  -2   15.47    0.75
   0   2  -5   15.56    0.72
   2   5   0   15.89    0.76
   2   1   5   14.76    0.74
  -5  -2   1   14.99    0.77
   2  -1  -5   17.50    0.75
   1   2  -5   14.92    0.75
  -5   1   2   14.71    0.74
   5   1  -2   15.74    0.77
  -5  -2   1   15.79    0.77
   1  -5  -2   17.32    0.76
  -2   1  -5   16.43    0.77
   2  -1  -5   15.39    0.77
  -5  -1  -2   16.16    0.77
   5   1  -2   15.78    0.78
   5  -2  -1   15.74    0.77
   1   2  -5   16.18    0.77
  -1   5  -2   14.46    0.77
  -5   2  -1   15.73    0.76
  -2  -1   5   16.33    0.76
  -2   5   1   15.24    0.77
  -2   5   1   15.72    0.77
   2  -5   1   14.74    0.76
  -5   2  -1   15.95    0.77
   2   5  -1   16.11    0.77
   2   5  -1   16.60    0.77
   1  -2   5   15.57    0.77
  -2   1  -5   14.88    0.75
  -1  -2  -5   15.87    0.77
  -1   2   5   15.15    0.75
   1  -2   5   15.18    0.76
   1   2  -5   15.49    0.74
  -2  -5  -1   15.78    0.77
  -5   1   2   14.73    0.75
  -2  -5  -1   15.83    0.77
   5  -1   2   14.62    0.77
  -1  -2  -5   14.21    0.75
   5   2   1   14.31    0.78
  -1  -2  -5   15.06    0.74
  -1  -5   2   14.11    0.77
   1  -5  -2   15.97    0.76
  -5  -1  -2   17.04    0.77
  -1  -2  -5   13.80    0.74
  -5   2  -1   14.48    0.75
   1  -5  -2   16.28    0.76
   1   5   2   15.37    0.76
  -1   5  -2   16.00    0.77
   5  -2  -1   15.83    0.77
  -1  -5  -2   15.87    0.76
  -5   2   1   15.35    0.75
  -1  -5  -2   15.74    0.77
  -1   5   2   14.51    0.76
   1   5  -2   16.42    0.77
   1  -2  -5   15.91    0.77
   2   1  -5   15.56    0.75
   1  -2  -5   15.60    0.75
   2   5   1   15.88    0.76
   5   2  -1   15.18    0.75
  -2   5  -1   14.75    0.77
   2   1  -5   15.57    0.76
   2  -1   5   14.62    0.76
  -2  -1  -5   14.96    0.76
  -2  -1  -5   15.12    0.73
   5  -1  -2   15.26    0.78
   2  -5  -1   16.23    0.75
  -5  -2  -1   16.25    0.77
  -2  -1  -5   14.72    0.73
  -1  -2   5   15.21    0.76
   1   5  -2   15.40    0.77
   5  -2   1   15.68    0.77
   5   2  -1   15.30    0.78
   1  -5   2   14.99    0.77
  -1   2  -5   15.56    0.76
   1   2   5   15.22    0.75
  -5   1  -2   15.96    0.76
   5   1   2   13.63    0.77
   2   1  -5   15.52    0.76
   2  -5  -1   16.19    0.76
  -5   2   1   15.84    0.77
  -5  -1   2   15.18    0.76
  -5  -1   2   15.13    0.75
  -5   2   1   13.95    0.75
  -1  -5  -2   15.78    0.76
  -2   1   5   15.18    0.75
  -5  -2  -1   15.87    0.77
   5   2  -1   15.62    0.77
  -5   1  -2   15.83    0.76
   2  -5  -1   15.13    0.76
  -2   5  -1   17.18    0.78
  -2  -5   1   16.16    0.77
  -2  -1  -5   15.92    0.77
   5  -1  -2   15.34    0.77
   2   5   1   16.23    0.77
  -2   2   5    7.75    0.41
  -2   5  -2    9.36    0.44
  -2  -2  -5    8.07    0.43
   2  -5  -2    8.10    0.42
   5  -2  -2    7.82    0.43
   2   5  -2    8.63    0.44
  -2   2  -5    8.30    0.43
   2  -5   2    7.21    0.43
  -2  -5  -2    8.40    0.43
  -2  -2  -5    7.78    0.40
  -5  -2  -2    8.13    0.44
   5   2  -2    8.01    0.43
   2  -2  -5    7.87    0.40
   2   2  -5    7.96    0.41
  -2  -5  -2    8.65    0.42
  -5  -2   2    7.19    0.43
  -5   2   2    7.29    0.41
   2  -5  -2    8.47    0.42
  -2  -5  -2    8.32    0.44
  -2  -5   2    7.18    0.43
  -2  -2  -5    7.64    0.42
  -2  -2   5    7.74    0.42
   2   5  -2    9.09    0.44
   2   5   2    7.98    0.42
   5   2  -2    8.00    0.41
  -5   2  -2    8.58    0.43
  -5   2  -2    8.41    0.43
   5  -2   2    8.06    0.43
  -2   5  -2    7.89    0.44
   2  -2   5    7.99    0.41
  -2   2  -5    7.92    0.42
   5   2   2    6.90    0.44
  -2   5   2    7.20    0.43
   2   2  -5    8.13    0.43
   2   2   5    7.77    0.40
   5  -2  -2    7.90    0.44
   2  -2  -5    7.79    0.43
  -5  -2  -2    8.23    0.44
   2   2  -5    7.81    0.41
   5   2  -2    7.94    0.44
   3   0  -5    7.96    0.43
  -5   3   0    7.87    0.40
   5   0   3    6.83    0.43
   0  -5   3    6.93    0.43
   0   5  -3    8.00    0.44
   3  -5   0    7.31    0.41
  -5   0  -3    8.36    0.42
   0  -3  -5    7.98    0.42
  -3  -5   0    7.62    0.44
  -5   3   0    7.30    0.41
  -3   0  -5    8.35    0.43
   0  -5  -3    8.52    0.42
   0   5  -3    8.49    0.43
   3   0  -5    8.24    0.41
   0   3  -5    7.29    0.39
   3   5   0    8.50    0.44
   5   0  -3    7.96    0.43
  -5  -3   0    7.52    0.44
   0   5   3    7.38    0.42
   0   3   5    8.12    0.41
   0  -5  -3    8.10    0.42
  -3   5   0    8.43    0.44
   0  -3   5    7.26    0.42
   0   3  -5    7.92    0.43
   3  -5   0    7.64    0.40
   3   5   0    7.04    0.42
   5   0  -3    8.01    0.44
  -3   0  -5    8.11    0.38
  -3   0   5    7.68    0.41
  -5   0   3    8.01    0.41
  -3   5   0    8.03    0.43
  -5   0   3    7.80    0.40
   0  -3  -5    7.83    0.40
   3   5   0    8.19    0.41
   3   0   5    7.34    0.43
  -5  -3   0    8.43    0.44
   5  -3   0    8.11    0.43
  -5   0  -3    8.14    0.43
  -5   3   0    8.09    0.43
  -3  -5   0    8.36    0.43
   5   3   0    7.23    0.44
   5   1  -3    7.09    0.40
  -1   5  -3    6.34    0.39
  -3   5   1    6.70    0.39
   3   1   5    6.05    0.39
   1   3  -5    7.02    0.36
  -1  -5   3    6.31    0.39
  -5  -1  -3    7.07    0.38
  -5  -1  -3    6.97    0.39
  -3   1  -5    7.05    0.33
  -1  -3  -5    7.57    0.36
  -1   5  -3    7.21    0.39
   1  -5  -3    7.26    0.37
   3  -5   1    6.15    0.38
  -3   5   1    7.03    0.39
   5  -3  -1    7.01    0.39
   1  -5  -3    7.21    0.38
  -1   3   5    6.91    0.37
  -5   1   3    6.64    0.37
  -3  -1   5    8.12    0.38
  -5   3  -1    6.98    0.39
   1   5   3    6.64    0.38
  -3   1  -5    7.32    0.39
  -1  -3  -5    7.28    0.38
   3   5  -1    7.04    0.39
  -5   3  -1    6.23    0.36
   5  -1   3    6.12    0.39
   3  -1  -5    6.76    0.36
   3  -1  -5    7.17    0.39
   1   3  -5    6.93    0.39
  -5   3  -1    7.21    0.37
   3   5  -1    7.23    0.38
  -3  -5  -1    7.19    0.39
   5   1  -3    7.06    0.38
   5   3   1    5.85    0.40
  -5  -3   1    6.47    0.39
   1  -3   5    6.41    0.39
  -3  -5  -1    7.00    0.40
  -3  -1  -5    6.06    0.34
  -5  -3  -1    6.48    0.39
  -1   5   3    6.58    0.38
   3   1  -5    6.81    0.36
   1  -5   3    5.83    0.39
   3   5   1    6.93    0.37
   3  -5  -1    6.82    0.37
   1  -3  -5    7.09    0.38
   1   5  -3    7.19    0.39
   3   1  -5    6.75    0.38
  -3  -1  -5    6.93    0.34
  -3   5  -1    6.98    0.40
   5   1   3    5.88    0.39
   5  -3   1    6.85    0.38
  -1  -5  -3    7.32    0.38
   5  -1  -3    6.69    0.38
   1   3   5    6.90    0.36
   5   3  -1    7.07    0.36
  -5   3   1    7.34    0.38
  -1   3  -5    7.24    0.38
   5  -1  -3    6.70    0.40
   3  -1   5    6.67    0.38
   1   5  -3    6.45    0.39
   3   5   1    6.70    0.39
  -5   3   1    6.73    0.37
  -3   1   5    6.68    0.37
  -5  -1   3    6.87    0.36
  -3   5  -1    7.48    0.40
  -1  -5  -3    7.07    0.37
  -5   1  -3    7.14    0.37
   3  -5  -1    7.09    0.37
  -5  -1   3    6.65    0.36
  -5   1  -3    7.56    0.39
  -5   3   1    6.50    0.35
  -3  -5   1    6.36    0.39
  -1  -3   5    6.27    0.38
  -1   3  -5    6.32    0.34
   5   3  -1    6.41    0.39
   1  -3  -5    7.00    0.35
  -1  -5  -3    6.71    0.38
  -5  -3  -1    6.98    0.40
   3   1  -5    6.79    0.37
   5   3  -1    7.42    0.39
  -1   3  -5    6.59    0.34
  -3  -1  -5    7.03    0.39
   2  -5  -3    5.11    0.30
  -2   5  -3    4.98    0.33
  -2  -5   3    4.56    0.32
   2   3  -5    5.02    0.32
   2   5   3    4.75    0.29
   5  -3  -2    4.98    0.32
   3   5  -2    5.09    0.31
  -5  -2  -3    5.15    0.31
   3   5  -2    5.33    0.33
  -2  -3  -5    4.94    0.30
  -5   3  -2    5.23    0.32
   3  -5   2    4.48    0.31
   2  -5  -3    5.38    0.29
  -2  -3  -5    4.20    0.29
  -5   2   3    4.66    0.29
   3  -2  -5    4.65    0.31
  -3   5   2    4.39    0.31
  -5  -2  -3    4.94    0.32
  -2   3   5    4.84    0.29
   3  -2  -5    4.80    0.28
  -5  -3   2    4.49    0.31
   5  -2   3    4.41    0.30
   5   2  -3    5.01    0.31
  -3  -2   5    5.06    0.30
   2   3  -5    4.92    0.28
   2  -3   5    4.43    0.31
   5   2  -3    4.81    0.32
  -2  -3  -5    5.05    0.27
  -2   5  -3    5.25    0.31
   3   2   5    4.25    0.32
  -3   2  -5    4.04    0.25
  -3   2  -5    4.54    0.27
   5   3   2    4.06    0.33
  -5   3  -2    5.18    0.30
  -3  -5  -2    4.97    0.32
  -3   2  -5    4.87    0.25
  -3   2  -5    5.06    0.32
  -3  -5  -2    5.31    0.31
   5   2  -3    4.92    0.30
  -3  -2  -5    5.11    0.27
   3  -2   5    4.77    0.29
  -2   3  -5    4.75    0.30
   5   3  -2    4.64    0.32
  -2  -5  -3    5.02    0.31
  -2   5   3    4.45    0.30
  -5  -3  -2    4.67    0.32
   3   5   2    4.98    0.32
   5  -2  -3    4.79    0.30
   3   2  -5    4.74    0.28
   2  -5   3    4.19    0.31
  -2  -5  -3    5.33    0.30
  -5  -3  -2    5.01    0.32
  -3  -5   2    4.34    0.31
  -5   3   2    4.45    0.29
  -2  -3   5    4.74    0.31
   3  -5  -2    5.11    0.29
   2  -3  -5    4.79    0.27
  -3   5  -2    5.55    0.32
   2   5  -3    5.25    0.33
  -2   3  -5    4.60    0.26
  -5   2  -3    5.29    0.30
   5   3  -2    5.30    0.29
   3   5   2    4.73    0.28
  -3   5  -2    5.08    0.32
   3  -5  -2    4.97    0.30
   5  -2  -3    4.64    0.31
  -5   2  -3    5.12    0.31
  -3   2   5    5.37    0.29
   5   3  -2    5.12    0.31
   2   3   5    4.85    0.27
   5   2   3    3.91    0.32
   5  -3   2    4.83    0.30
   3   2  -5    4.49    0.30
   3   2  -5    4.69    0.29
   2  -3  -5    4.77    0.30
  -3  -2  -5    4.96    0.31
  -5  -2   3    4.57    0.30
   2   5  -3    5.23    0.32
  -2  -5  -3    5.31    0.29
   3   5  -3    2.12    0.26
  -3  -5  -3    1.92    0.24
  -3   5  -3    2.51    0.25
   5  -3  -3    1.87    0.21
   5   3  -3    2.28    0.23
   3  -5  -3    2.15    0.22
   5  -3   3    1.86    0.21
  -3  -3  -5    2.14    0.23
  -5  -3  -3    1.98    0.23
  -5  -3  -3    1.97    0.25
  -5   3   3    1.78    0.22
  -3   3  -5    2.11    0.19
  -3   3   5    1.93    0.21
  -3   5  -3    1.92    0.26
  -3   5   3    1.80    0.22
  -5  -3   3    1.92    0.23
  -3  -5  -3    2.52    0.22
  -5   3  -3    2.01    0.23
  -3  -5   3    2.01    0.25
   5  -3  -3    2.06    0.23
   3   3  -5    2.11    0.20
   3   5  -3    2.55    0.25
   3   3  -5    1.83    0.24
   5   3  -3    1.93    0.21
   3   3   5    1.85    0.23
   3   5   3    2.49    0.24
   3  -3  -5    1.94    0.21
   3  -5   3    1.80    0.23
   3  -5  -3    2.11    0.19
   5   3  -3    1.69    0.23
   5   3   3    1.57    0.25
  -5   3  -3    2.16    0.24
  -3   3  -5    2.09    0.16
  -3   3  -5    2.15    0.24
   3  -3  -5    1.92    0.18
  -3  -3   5    2.18    0.25
  -3  -3  -5    1.93    0.19
  -5  -4   0    3.75    0.28
   5   0  -4    3.62    0.26
  -4   0  -5    3.82    0.21
   4   5   0    3.74    0.23
  -4   5   0    3.70    0.27
  -5  -4   0    3.62    0.28
   5   4   0    2.75    0.26
  -5   4   0    3.53    0.28
   0   4  -5    3.19    0.28
   0  -4   5    3.30    0.27
   5   0  -4    3.47    0.28
   5  -4   0    3.64    0.27
  -5   4   0    3.69    0.26
  -4   0   5    3.68    0.26
   0   5  -4    3.13    0.29
   0   5   4    3.59    0.27
   4   0   5    3.29    0.28
  -5   4   0    3.56    0.23
  -5   0  -4    3.72    0.27
  -5   0   4    3.71    0.25
  -4   5   0    3.57    0.28
  -5   0  -4    3.55    0.24
   4   0  -5    3.41    0.24
   0  -4  -5    3.51    0.26
   0   4  -5    3.32    0.23
   4  -5   0    3.44    0.24
   0   4   5    3.44    0.26
   0   5  -4    3.63    0.26
   4  -5   0    3.59    0.24
   0  -5  -4    3.90    0.26
   4   0  -5    3.59    0.27
  -4  -5   0    3.45    0.28
   0  -5   4    3.00    0.26
  -4   0  -5    4.01    0.29
   0  -5  -4    3.35    0.25
   0  -4  -5    3.73    0.24
   5   0   4    3.00    0.28
  -5   4  -1    2.57    0.21
   1  -5  -4    2.41    0.22
   4   5  -1    3.20    0.27
   4   1   5    1.96    0.25
  -5  -1  -4    2.57    0.24
  -5  -1  -4    2.23    0.20
  -4   1  -5    2.50    0.26
  -1  -5   4    2.17    0.25
   1   4  -5    2.06    0.25
  -1  -4  -5    2.53    0.19
   4  -1  -5    2.20    0.20
   4   5  -1    2.49    0.21
  -5  -4   1    3.02    0.27
  -5   4  -1    2.81    0.22
   5   1  -4    2.41    0.22
  -4  -5  -1    2.50    0.27
  -1   5  -4    2.11    0.26
  -4  -5  -1    2.88    0.24
   1  -4   5    1.92    0.23
   5  -1   4    2.15    0.24
   1   4  -5    2.37    0.20
  -1   5  -4    2.46    0.23
   1  -5  -4    2.62    0.20
  -1  -4  -5    2.38    0.22
  -5   1   4    2.59    0.22
   4  -5   1    2.15    0.19
  -5   4  -1    2.70    0.26
  -4   5   1    2.29    0.25
  -4   1  -5    2.48    0.17
  -1   4   5    2.58    0.24
   4  -5   1    2.40    0.22
   4  -1  -5    2.41    0.24
   5   1  -4    2.18    0.25
   1   5   4    2.62    0.22
   5   4   1    1.90    0.24
   4   1  -5    2.15    0.22
   4  -1   5    2.56    0.23
   1  -4  -5    2.33    0.22
  -5   4   1    2.26    0.23
  -4  -1  -5    2.73    0.25
   1   5  -4    2.00    0.25
   5  -1  -4    2.44    0.25
  -1   4  -5    2.31    0.19
  -4   1   5    2.23    0.21
   1  -5   4    2.16    0.23
  -5  -1   4    2.32    0.22
   5  -1  -4    2.25    0.22
  -5  -4  -1    2.62    0.26
   4   1  -5    2.15    0.20
  -5   1  -4    2.56    0.21
  -1   5   4    2.14    0.23
   4  -5  -1    2.47    0.21
   1   5  -4    2.65    0.23
  -1  -5  -4    2.46    0.22
  -5   1  -4    2.76    0.24
   4   1  -5    2.38    0.23
   5  -4   1    2.11    0.22
  -1  -4   5    2.03    0.22
   5   1   4    1.93    0.24
   5   4  -1    1.89    0.23
   1   4   5    2.23    0.21
  -5  -4  -1    2.31    0.25
  -4   5  -1    2.35    0.25
  -4  -1  -5    2.37    0.18
  -1   4  -5    2.11    0.25
   1  -4  -5    2.52    0.18
  -4  -5   1    2.19    0.24
  -4   5  -1    2.68    0.25
   5  -4  -2    2.02    0.24
  -5   4  -2    2.02    0.26
  -5   4  -2    2.18    0.21
   5   4   2    1.76    0.23
  -2  -5   4    2.01    0.26
  -4   2  -5    1.93    0.25
   5   2  -4    2.05    0.23
   4   5  -2    1.82    0.23
  -2  -4  -5    2.05    0.21
   2   4  -5    1.57    0.18
   2  -4   5    1.74    0.20
  -2  -4  -5    2.25    0.20
   2  -5  -4    2.03    0.22
   4  -2  -5    2.08    0.24
   2   4  -5    1.69    0.20
   4   2   5    1.52    0.24
   5  -2   4    1.67    0.21
   4   5  -2    2.46    0.27
  -5   2   4    1.75    0.24
   5   2  -4    1.78    0.22
   4  -5   2    1.62    0.22
  -5  -2  -4    2.08    0.25
   2   5   4    1.72    0.20
  -2   5  -4    1.99    0.27
  -2   5  -4    2.01    0.21
  -5  -4   2    1.71    0.25
  -5   4  -2    2.29    0.23
   4  -2  -5    1.84    0.19
  -4  -2   5    2.23    0.21
  -2   4   5    1.98    0.23
  -4  -5  -2    2.24    0.22
   5   2  -4    1.62    0.23
  -4   2  -5    1.85    0.16
   2  -5  -4    1.90    0.19
  -5  -2  -4    1.85    0.21
  -4   5   2    1.48    0.17
   5   2   4    1.61    0.24
   4  -5  -2    1.87    0.22
   5  -2  -4    1.66    0.20
   5  -2  -4    1.80    0.24
  -2  -5  -4    1.49    0.22
   5  -4   2    1.80    0.21
  -4  -2  -5    2.04    0.25
  -4   5  -2    1.96    0.25
   2  -5   4    1.59    0.22
  -2   5   4    1.77    0.22
   4   2  -5    1.90    0.20
  -2   4  -5    1.59    0.18
   2  -4  -5    2.08    0.21
  -4  -5   2    1.74    0.23
  -2  -4   5    1.91    0.26
   5   4  -2    2.41    0.25
  -5   2  -4    1.99    0.24
  -2   4  -5    1.84    0.18
  -4   5  -2    2.27    0.26
   4   5   2    1.79    0.26
  -2  -5  -4    2.08    0.21
   4  -2   5    1.55    0.20
  -5  -4  -2    1.74    0.25
  -4   2   5    2.10    0.23
   5   4  -2    1.75    0.20
  -5  -2   4    1.72    0.20
   2   5  -4    1.60    0.19
   4   2  -5    1.92    0.24
  -5  -4  -2    1.91    0.24
  -2  -5  -4    2.27    0.22
  -4  -2  -5    1.71    0.18
   2  -4  -5    2.07    0.17
  -5   2  -4    2.01    0.21
   4  -5  -2    1.75    0.20
  -5   4   2    1.97    0.24
   2   5  -4    2.17    0.23
  -5  -3  -4    0.95    0.20
  -5  -4   3    1.05    0.19
  -3   5  -4    0.75    0.17
  -4   3  -5    1.00    0.18
   5  -3   4    0.90    0.15
  -5   4  -3    1.10    0.17
  -5   3   4    0.85    0.15
   5   4   3    0.69    0.21
  -4   5   3    0.77    0.15
   4  -5   3    0.87    0.17
  -3   4   5    0.62    0.15
   3   4  -5    0.93    0.17
   4   5  -3    1.03    0.16
   5   3  -4    0.80    0.15
  -3  -4  -5    1.55    0.21
  -4   3  -5    1.18    0.17
  -5   4  -3    1.15    0.18
   3   4  -5    0.87    0.15
   3  -4   5    0.78    0.17
  -4  -3   5    1.27    0.18
   5   3  -4    1.03    0.16
   5  -4  -3    0.64    0.14
  -3  -4  -5    0.86    0.17
   3  -5  -4    1.04    0.14
   4   5  -3    1.50    0.25
   3  -5  -4    1.23    0.18
  -5  -3  -4    0.95    0.16
   4  -3  -5    1.08    0.18
   4   3   5    0.87    0.18
   5  -4  -3    1.01    0.19
   4  -3  -5    0.81    0.14
   3   5   4    1.37    0.20
  -3   5  -4    1.02    0.16
  -4  -5  -3    1.13    0.20
  -3  -5   4    1.20    0.20
  -4  -3  -5    1.03    0.19
  -3   4  -5    1.25    0.17
  -5   4   3    0.71    0.15
  -4   3   5    0.97    0.15
  -5  -4  -3    0.70    0.19
   3  -4  -5    1.10    0.14
   4  -5  -3    1.27    0.18
   4   3  -5    0.71    0.16
   4   5   3    1.14    0.22
   4   3  -5    0.97    0.15
   3  -4  -5    0.96    0.17
   5   4  -3    1.01    0.17
   3  -5   4    0.95    0.18
  -3   4  -5    0.78    0.14
  -5  -4  -3    1.07    0.18
  -3  -4   5    1.22    0.21
  -4  -3  -5    0.93    0.14
  -5  -3   4    0.88    0.18
  -5   3  -4    1.09    0.19
   5   3   4    0.74    0.19
  -4  -5   3    0.86    0.20
   5  -3  -4    1.13    0.19
   4  -5  -3    0.97    0.15
  -5   3  -4    1.10    0.16
   3   4   5    1.14    0.19
  -4   5  -3    1.08    0.17
  -4   5  -3    0.67    0.15
   3   5  -4    0.83    0.18
   3   5  -4    1.08    0.17
   5   4  -3    0.94    0.15
  -3  -5  -4    0.73    0.18
   5  -3  -4    0.84    0.15
  -3   5   4    0.52    0.14
  -4   5  -4    0.25    0.15
  -4   5   4    0.29    0.15
  -4  -5  -4    0.92    0.17
  -4  -4  -5    0.42    0.15
  -4   4   5    0.31    0.16
   5   4  -4    0.36    0.16
  -4   4  -5    0.50    0.13
  -4   5  -4    0.57    0.17
   4   4  -5    0.32    0.18
   4   5  -4    0.14    0.18
   5   4  -4    0.64    0.17
  -5  -4  -4    0.24    0.20
  -5  -4   4    0.40    0.20
  -5   4  -4    0.53    0.20
  -4  -5  -4    0.26    0.19
  -4  -5   4    0.53    0.21
  -4  -4  -5    0.18    0.19
  -4  -4   5    0.60    0.20
  -4   4  -5    0.44    0.19
   4  -5   4    0.34    0.16
   4  -4  -5    0.30    0.13
   4   5   4    0.48    0.21
   5  -4  -4    0.65    0.19
   5   4   4    0.25    0.20
   4  -5  -4    0.49    0.19
   4  -4  -5    0.47    0.19
   4   4   5    0.46    0.19
   4   4  -5    0.56    0.16
   4   5  -4    0.55    0.17
   5  -4  -4    0.25    0.14
  -5  -4  -4    0.46    0.17
  -5   4  -4    0.47    0.16
   4  -5  -4    0.25    0.14
  -5   4   4    0.24    0.16
  -5  -5   0    1.00    0.19
   5   0  -5    0.79    0.14
  -5   0   5    0.83    0.15
   0  -5  -5    1.00    0.17
   5  -5   0    0.95    0.16
  -5   0  -5    0.82    0.13
  -5   5   0    1.04    0.17
   0   5  -5    0.35    0.17
   0  -5  -5    0.85    0.15
  -5   5   0    0.77    0.15
   0   5   5    0.67    0.15
  -5   0  -5    1.01    0.20
   0  -5   5    0.84    0.17
   0   5  -5    0.80    0.14
   5   0  -5    0.95    0.20
   5   0   5    0.83    0.19
  -5   1   5    1.17    0.15
  -1  -5  -5    1.36    0.16
  -1   5  -5    0.97    0.15
   1   5  -5    1.02    0.15
   5  -1  -5    0.91    0.15
   5   1  -5    0.97    0.15
  -1  -5   5    1.33    0.21
  -5   5  -1    1.08    0.19
   1   5  -5    0.57    0.17
  -5   1  -5    1.00    0.14
   5  -1   5    1.02    0.18
  -5   5  -1    0.89    0.16
  -5   5   1    1.01    0.16
  -1   5  -5    0.86    0.18
  -1   5   5    0.69    0.15
  -5  -1   5    0.94    0.15
  -5  -5   1    1.24    0.20
  -5  -1  -5    0.96    0.20
  -5   1  -5    1.08    0.20
   5   1  -5    1.27    0.20
   5   1   5    0.83    0.20
   5  -5   1    0.88    0.16
  -5  -1  -5    1.01    0.14
  -1  -5  -5    1.21    0.18
   1  -5  -5    1.31    0.18
   5  -5  -1    1.30    0.18
  -5  -5  -1    1.17    0.18
   5  -1  -5    1.12    0.20
  -5  -5  -1    1.09    0.21
   5  -5   1    1.03    0.16
   1   5   5    0.79    0.14
   5   5   1    0.54    0.17
   1  -5   5    0.78    0.18
  -5   2  -5    0.46    0.13
  -5  -5  -2    0.74    0.17
  -5   2   5    0.36    0.15
  -5   5  -2    0.55    0.15
  -5   5   2    0.22    0.15
  -2   5  -5    0.47    0.17
  -2   5   5    0.53    0.15
   2   5  -5    0.35    0.17
   5   2  -5    0.61    0.15
   5   5  -2    0.56    0.17
   2  -5   5    0.22    0.16
  -5  -2  -5    0.41    0.14
  -2  -5  -5    0.58    0.17
   2  -5  -5    0.71    0.18
   5  -5  -2    0.53    0.18
   5  -2  -5    0.62    0.19
   5  -2   5    0.46    0.16
   5   2   5    0.33    0.18
   5   5   2    0.30    0.21
   2  -5  -5    0.48    0.13
   2   5  -5    0.53    0.16
  -5   5  -2    0.47    0.17
  -2  -5  -5    0.86    0.15
  -2   5  -5    0.48    0.14
   5  -5   2    0.32    0.15
  -2  -5   5    0.88    0.21
   5  -2  -5    0.27    0.13
   5   2  -5    0.43    0.14
  -5   2  -5    0.58    0.19
  -5  -5  -2    0.56    0.20
  -5  -5   2    0.75    0.21
  -5  -2  -5    0.44    0.20
  -3   5  -5    0.25    0.16
   5   3  -5    0.19    0.17
  -5   5   3    0.25    0.17
   3   5  -5    0.31    0.19
   5   5   3    0.18    0.22
   3  -5  -5    0.56    0.19
   5  -5  -3    0.46    0.19
   5   5  -3    0.38    0.16
  -3  -5   5    0.56    0.23
   3  -5   5    0.20    0.18
   5  -5   3    0.13    0.16
  -5  -3  -5    0.33    0.16
  -5   3  -5    0.37    0.14
  -5   5  -3    0.28    0.17
  -3  -5  -5    0.69    0.16
  -3   5  -5    0.49    0.14
   3  -5  -5    0.34    0.14
   3   5  -5    0.54    0.17
   5  -3  -5    0.18    0.14
   5   3  -5    0.28    0.16
   5   5  -3    0.42    0.18
  -5  -5  -3    0.68    0.17
  -3   5   5    0.43    0.16
  -5   3  -5    0.51    0.20
  -5  -3  -5    0.16    0.20
  -5   3   5    0.21    0.16
  -5  -5   3    0.44    0.21
  -5  -5  -3    0.13    0.19
   5   3   5    0.22    0.19
   5  -3  -5    0.46    0.20
   5  -4  -5    0.00    0.14
   5  -5  -4    0.05    0.14
   4   5  -5    0.34    0.18
   4  -5  -5    0.16    0.15
  -4   5  -5    0.29    0.16
  -5   5  -4    0.14    0.18
  -5   4  -5    0.26    0.15
   5  -4  -5    0.11    0.20
  -4  -5  -5    0.61    0.18
  -5  -5  -4    0.45    0.18
  -5  -5  -4   -0.27    0.21
  -5  -5   4    0.10    0.23
  -5  -4  -5   -0.21    0.22
  -5  -4   5    0.14    0.20
  -5   4  -5    0.34    0.22
  -4  -5  -5   -0.39    0.20
  -4  -5   5    0.19    0.23
   4  -5   5    0.09    0.17
   5  -5   4   -0.06    0.17
   5   5   4    0.04    0.22
   5   5  -4    0.15    0.18
   5   4  -5   -0.03    0.18
  -4   5   5    0.17    0.17
   5   4  -5    0.20    0.17
  -5  -4  -5    0.13    0.17
   4  -5  -5    0.30    0.20
   4   5   5    0.19    0.21
   5  -5  -4    0.32    0.22
  -5   4   5    0.22    0.18
  -5   5   4    0.27    0.18
   5   4   5    0.00    0.22
   4   5  -5    0.18    0.21
   5   5  -4    0.32    0.18
   0   0   6    5.82    0.33
   0   0  -6    6.20    0.34
   0   6   0    6.18    0.36
   0   6   0    5.67    0.34
  -6   0   0    6.24    0.34
   0   0  -6    5.84    0.34
  -6   0   0    6.13    0.35
   6   0   0    5.66    0.36
   0  -6   0    5.99    0.35
   1   6   0    5.16    0.33
  -6   0  -1    5.52    0.32
  -6   0   1    5.26    0.30
  -6   0   1    5.16    0.32
  -1  -6   0    5.18    0.33
   0  -1   6    5.37    0.31
   1  -6   0    5.14    0.31
  -1   6   0    4.82    0.33
   0   1  -6    5.47    0.32
   0   1   6    5.24    0.30
  -1   0  -6    5.38    0.30
  -1   0   6    5.00    0.31
   0   6  -1    5.17    0.33
   0   6   1    5.11    0.33
  -6  -1   0    5.26    0.33
  -6   1   0    5.51    0.33
   0  -6  -1    5.37    0.32
   0   6  -1    5.60    0.35
   1   0  -6    5.30    0.26
   0  -6  -1    5.50    0.29
  -6   0  -1    5.46    0.33
   0  -1  -6    5.30    0.32
  -6  -1   0    5.60    0.33
  -6   1   0    5.31    0.30
  -1   0  -6    4.97    0.31
   0  -6  -1    5.18    0.31
   0  -6   1    5.39    0.33
   1   6   0    5.65    0.34
   6   0  -1    5.16    0.34
  -1   6   0    5.96    0.35
   1   0  -6    5.41    0.32
   6  -1   0    5.07    0.34
   6   1   0    4.87    0.34
  -1   0  -6    5.37    0.32
   6   0   1    4.62    0.33
   0   1  -6    5.10    0.30
   1  -6  -1    4.38    0.29
  -6   1   1    4.65    0.30
   6  -1   1    4.32    0.31
   1   6   1    4.45    0.30
   1  -6   1    4.64    0.30
  -6  -1  -1    5.08    0.31
  -6   1  -1    5.45    0.31
   1  -1  -6    4.86    0.24
  -1  -1   6    4.82    0.28
  -6  -1  -1    5.13    0.31
   1  -6  -1    4.90    0.27
  -1  -6  -1    5.24    0.27
  -1  -1  -6    4.90    0.31
  -1   1  -6    4.43    0.28
   6   1  -1    4.57    0.33
   1   6  -1    4.65    0.31
   1  -1  -6    4.04    0.24
   1   1  -6    4.68    0.23
   1   6  -1    5.00    0.32
  -6   1   1    4.91    0.27
  -1  -6  -1    4.90    0.30
  -1  -6   1    4.49    0.31
   6   1   1    3.78    0.30
  -1   1  -6    4.93    0.30
   1   1   6    4.89    0.27
  -1   1  -6    5.06    0.29
  -1   1   6    4.58    0.28
  -1   6  -1    4.29    0.31
  -1  -6  -1    4.79    0.29
  -1   6  -1    5.22    0.33
   1  -6  -1    5.02    0.29
   1  -1  -6    5.06    0.30
   1   1  -6    4.66    0.29
  -1   6   1    4.38    0.30
  -6  -1   1    4.89    0.29
  -6   1  -1    4.84    0.29
   1   1  -6    5.13    0.31
  -1  -1  -6    4.38    0.28
   6  -1  -1    4.69    0.32
   0  -2   6    3.21    0.26
   2  -6   0    3.22    0.25
  -6  -2   0    3.69    0.27
  -2   0   6    3.28    0.25
  -2   6   0    3.99    0.29
   0  -2  -6    3.76    0.20
   6   0  -2    3.39    0.26
   6  -2   0    3.55    0.28
   0   2   6    3.64    0.23
  -6   0  -2    3.83    0.28
   0  -6  -2    3.63    0.25
   0  -6   2    3.94    0.27
   6   0  -2    3.56    0.30
   6   0   2    3.05    0.26
   2   6   0    3.83    0.27
   0   2  -6    3.60    0.27
   0   6  -2    3.95    0.30
   2   0  -6    3.47    0.20
   0   6  -2    3.23    0.27
   0   6   2    3.09    0.27
   0  -6  -2    3.79    0.26
   6   2   0    3.06    0.28
   2   0   6    3.26    0.22
   0  -6  -2    3.63    0.23
   2   0  -6    3.43    0.26
  -6   2   0    3.75    0.24
  -2   0  -6    3.53    0.27
  -2   0  -6    3.46    0.26
  -6   0   2    3.11    0.22
  -2   6   0    3.22    0.28
  -6   0  -2    4.19    0.28
  -6   0   2    3.30    0.23
  -6   2   0    3.30    0.26
  -2  -6   0    3.57    0.28
  -6  -2   0    3.65    0.27
   0  -2  -6    3.47    0.26
   2  -6   1    2.60    0.24
   6  -2  -1    3.35    0.28
  -2   6   1    3.02    0.26
   2  -1  -6    2.89    0.19
   1   2  -6    3.06    0.26
  -6  -1  -2    3.28    0.26
   6  -1   2    2.74    0.25
   6   1  -2    3.13    0.28
  -1   2   6    3.47    0.23
  -2  -6  -1    3.41    0.26
  -6  -1  -2    3.31    0.26
  -1  -2  -6    3.05    0.17
  -1   6  -2    2.66    0.26
   1   2  -6    3.14    0.17
  -2  -6  -1    3.27    0.23
  -6   2  -1    3.02    0.26
  -1  -2  -6    3.20    0.17
  -1   6  -2    3.34    0.28
   1  -6  -2    3.65    0.23
   1  -2   6    2.81    0.25
   1   2  -6    3.06    0.17
   2   6  -1    3.36    0.26
  -2   1  -6    3.28    0.22
   6   1  -2    3.04    0.25
  -1  -6   2    2.82    0.26
   1   6   2    3.08    0.25
  -6  -2   1    3.28    0.26
  -6   2  -1    3.30    0.24
  -1  -2  -6    3.40    0.26
  -2   1  -6    3.27    0.26
   2   1   6    2.91    0.20
  -6   1   2    2.76    0.21
   2  -1  -6    3.56    0.25
   2   6  -1    3.24    0.27
   6   2   1    2.51    0.27
   1  -6  -2    3.32    0.22
  -2  -1  -6    3.01    0.24
   6   2  -1    2.90    0.27
   1   2   6    3.25    0.21
  -2   1   6    3.05    0.23
  -1  -2   6    3.02    0.24
  -6   1  -2    3.05    0.26
  -2   6  -1    3.72    0.29
   2   6   1    2.97    0.25
   2   1  -6    3.29    0.24
  -2   6  -1    2.78    0.26
  -6  -1   2    3.28    0.23
   1  -2  -6    3.33    0.25
  -6  -2  -1    3.64    0.27
  -6  -2  -1    3.33    0.26
   6  -1  -2    2.83    0.28
   2  -1   6    2.53    0.24
   6  -2   1    3.20    0.27
  -6   2   1    2.87    0.21
   6   1   2    2.93    0.25
   2   1  -6    2.99    0.23
  -1  -6  -2    3.31    0.25
  -1   2  -6    3.39    0.25
  -6   1  -2    3.37    0.25
  -1  -6  -2    3.33    0.24
  -2  -6   1    2.83    0.26
  -1   6   2    2.58    0.26
   1   6  -2    3.28    0.27
   2  -6  -1    3.27    0.21
   1  -6   2    2.59    0.25
  -2  -1  -6    3.35    0.26
  -1  -6  -2    3.35    0.21
  -6   2   1    2.92    0.20
   2   1  -6    2.95    0.19
   1  -2  -6    3.24    0.19
   6  -1  -2    3.03    0.24
   1   6  -2    2.87    0.26
  -6   2  -2    2.58    0.25
  -2  -2  -6    2.43    0.24
  -2  -6  -2    2.01    0.25
   6  -2   2    1.94    0.25
  -6  -2   2    1.81    0.23
   2   6   2    2.06    0.22
  -6  -2  -2    2.15    0.25
   2   6  -2    1.80    0.19
  -2  -2  -6    2.22    0.13
  -2   6  -2    2.67    0.27
   2  -2  -6    1.99    0.16
   2   2  -6    1.81    0.16
  -6   2  -2    2.17    0.24
  -2  -2  -6    2.04    0.13
  -2  -6   2    2.10    0.23
  -2  -2  -6    1.80    0.20
  -2   2   6    2.17    0.21
  -2   6  -2    2.08    0.26
   6   2  -2    2.25    0.22
  -2  -6  -2    2.45    0.22
  -6   2   2    1.79    0.19
  -2   2  -6    2.24    0.21
  -6  -2  -2    1.93    0.24
  -2   2  -6    2.42    0.25
  -2   6   2    1.49    0.18
   2   2  -6    2.14    0.23
   6  -2  -2    2.00    0.25
   6   2  -2    2.26    0.26
   6   2   2    1.56    0.25
   2   6  -2    2.45    0.25
   2  -6  -2    2.09    0.20
   2  -2  -6    2.20    0.23
   2  -6   2    1.63    0.22
  -2  -2   6    2.38    0.22
   0  -3  -6    2.38    0.23
  -3   6   0    2.30    0.26
  -6   3   0    1.88    0.19
   6  -3   0    2.32    0.26
   3   0  -6    2.13    0.23
  -6   0   3    2.21    0.19
   0   3  -6    1.99    0.25
   0   3   6    2.19    0.21
   0  -3   6    1.57    0.22
  -3   6   0    1.59    0.19
   3   0   6    1.82    0.24
  -6  -3   0    1.72    0.25
  -6  -3   0    1.89    0.25
   0   6   3    1.83    0.18
   0  -6  -3    2.15    0.20
   0  -6  -3    2.06    0.24
  -6   0  -3    2.04    0.24
  -3  -6   0    2.10    0.25
  -3   0   6    1.90    0.21
   3  -6   0    1.68    0.20
  -6   3   0    1.70    0.23
  -6   0  -3    2.29    0.23
   6   3   0    1.49    0.24
   0   3  -6    1.79    0.13
   6   0  -3    2.13    0.26
   6   0   3    1.55    0.23
  -3   0  -6    2.19    0.25
   0  -6   3    1.85    0.24
   3   0  -6    1.95    0.17
   6   0  -3    1.94    0.22
   3   6   0    1.91    0.23
   0   6  -3    2.19    0.26
   0   6  -3    1.81    0.25
   0  -3  -6    2.05    0.17
   6   1  -3    1.50    0.22
  -6  -3   1    1.55    0.20
  -6   3  -1    1.47    0.24
   3   1   6    1.48    0.20
  -1   3   6    1.62    0.22
   1   6   3    1.39    0.16
  -6  -1  -3    1.41    0.17
  -1   6  -3    0.96    0.16
   1   3  -6    1.20    0.17
   6   1  -3    1.54    0.22
   6  -3  -1    1.68    0.21
   1  -3   6    1.43    0.19
  -6   1   3    1.46    0.19
  -6   3  -1    1.55    0.21
   1  -6  -3    1.71    0.21
   3  -1  -6    1.65    0.23
   3   6  -1    1.45    0.17
   6  -1   3    1.31    0.18
  -6  -1  -3    1.80    0.20
  -3  -6  -1    1.74    0.25
  -3   1  -6    1.78    0.26
  -3   6   1    1.49    0.18
   3  -1  -6    1.32    0.15
  -1  -3  -6    1.47    0.22
   6   3   1    1.15    0.20
   3  -6   1    1.46    0.17
  -3  -6  -1    1.92    0.22
   3   6  -1    1.57    0.23
  -1  -6   3    1.41    0.19
   1   3  -6    1.16    0.14
   1   6  -3    1.21    0.17
  -1   6   3    1.10    0.16
  -6  -1   3    1.38    0.18
   6  -1  -3    1.42    0.21
  -6   1  -3    1.77    0.24
   6   1   3    1.14    0.18
   1  -3  -6    1.64    0.21
  -1   3  -6    1.45    0.16
  -3   6  -1    1.17    0.17
  -1  -3   6    1.74    0.20
   3   6   1    1.38    0.15
  -1  -6  -3    1.64    0.22
  -3   6  -1    1.86    0.27
   1   6  -3    1.57    0.24
   1   3   6    1.48    0.19
   3   1  -6    1.53    0.21
  -6  -1   3    1.36    0.18
  -6   1  -3    1.49    0.22
   1  -3  -6    1.77    0.15
  -3  -6   1    1.64    0.24
  -3  -1  -6    1.59    0.23
   6  -1  -3    1.36    0.20
   3   1  -6    1.58    0.20
   1  -6   3    1.21    0.18
   6  -3   1    1.66    0.20
   3   1  -6    1.18    0.16
  -3   1   6    1.45    0.19
   6   3  -1    1.32    0.20
  -6  -3  -1    1.52    0.19
  -6  -3  -1    1.54    0.19
   3  -6  -1    1.34    0.17
  -6   3   1    1.83    0.19
   3  -1   6    1.36    0.21
  -1  -6  -3    1.71    0.19
   3   6  -2    0.96    0.17
  -3   2  -6    1.44    0.20
   6  -3  -2    1.27    0.21
   6   2  -3    1.37    0.22
  -6   3  -2    1.36    0.18
  -6   3  -2    1.21    0.18
  -6   2   3    0.94    0.14
   3  -2  -6    1.25    0.18
  -2   3   6    1.16    0.15
  -2  -3  -6    1.52    0.22
  -2  -3  -6    1.10    0.16
   2   3  -6    0.92    0.17
   3   6  -2    1.24    0.17
  -6  -2  -3    1.08    0.19
  -2  -6   3    1.20    0.19
   2   3  -6    1.02    0.16
   2  -3   6    1.12    0.18
   3  -6   2    0.96    0.16
   6   2  -3    1.09    0.16
   2   6   3    0.97    0.14
   3   2   6    1.23    0.20
  -2   6  -3    1.67    0.25
  -6  -3   2    1.19    0.19
   6   3   2    1.32    0.21
   2  -6  -3    1.15    0.18
  -3   6   2    0.80    0.16
  -2   6  -3    1.04    0.18
   6  -2   3    1.20    0.18
  -6  -2  -3    1.17    0.17
   3  -2  -6    0.94    0.16
  -3  -6  -2    1.61    0.20
   2  -6  -3    1.38    0.17
   2   6  -3    1.65    0.26
  -6  -3  -2    1.11    0.20
   6  -2  -3    0.96    0.15
  -3  -2  -6    1.34    0.19
  -2  -3   6    1.49    0.19
  -6   2  -3    1.22    0.17
   2   6  -3    0.93    0.19
  -3   6  -2    1.73    0.28
   2  -3  -6    1.27    0.18
   3  -6  -2    1.19    0.19
   3   6   2    1.24    0.20
  -2  -6  -3    1.60    0.19
  -6  -2   3    1.33    0.18
   6   2   3    0.91    0.18
  -3   6  -2    1.01    0.18
  -6   2  -3    1.59    0.20
  -3   2   6    1.03    0.14
   2  -3  -6    1.14    0.15
   3   2  -6    0.94    0.16
  -2   6   3    0.82    0.16
  -6  -3  -2    1.23    0.19
   6  -2  -3    1.30    0.20
   2  -6   3    1.14    0.18
   6   3  -2    1.13    0.20
   3   2  -6    1.02    0.17
   6   3  -2    1.41    0.19
  -6   3   2    0.89    0.14
  -2   3  -6    0.92    0.14
  -2  -6  -3    1.44    0.20
  -3  -2  -6    1.14    0.12
  -6  -2   3    1.08    0.17
  -2  -6  -3    1.48    0.23
   6  -3   2    1.37    0.19
  -3  -6   2    1.17    0.19
  -6  -3   3    0.57    0.18
   3  -6   3    0.40    0.16
   3  -3  -6    0.52    0.12
  -3   6   3    0.26    0.15
  -6   3   3    0.47    0.14
   3   6  -3    0.40    0.18
   6   3  -3    0.57    0.16
   6   3   3    0.45    0.19
   3   3  -6    0.33    0.13
   3  -6  -3    0.59    0.16
   3   3   6    0.45    0.18
   3   6   3    0.67    0.19
   6  -3  -3    0.39    0.14
   6  -3   3    0.64    0.16
   3  -6  -3    0.51    0.14
   3   6  -3    0.67    0.18
  -3  -6  -3    0.75    0.16
  -3  -3  -6    0.52    0.12
  -3   6  -3    0.65    0.18
  -6  -3  -3    0.65    0.20
   3  -3  -6    0.58    0.18
  -6  -3  -3    0.46    0.17
  -3   3   6    0.37    0.14
  -3   6  -3    0.42    0.18
  -3  -3  -6    0.41    0.17
  -3  -3   6    0.62    0.18
  -3   3  -6    0.69    0.19
  -6   3  -3    0.58    0.18
   3   3  -6    0.51    0.16
  -3  -6   3    0.57    0.19
   6   3  -3    0.34    0.19
  -6   3  -3    0.62    0.20
  -3  -6  -3    0.67    0.19
   6  -3  -3    0.51    0.19
   0   6  -4    0.41    0.17
  -6   0  -4    0.77    0.19
   0   6   4    0.70    0.15
   6   0   4    0.58    0.18
   0   6  -4    0.60    0.17
   6   0  -4    0.66    0.20
  -4   0   6    0.57    0.14
   0   4  -6    0.54    0.10
   6   0  -4    0.55    0.15
   0  -4  -6    0.81    0.17
  -4  -6   0    0.87    0.19
  -6   0  -4    0.85    0.16
  -4   6   0    0.73    0.17
   6  -4   0    0.85    0.19
   0  -6  -4    0.84    0.17
   4   0  -6    0.56    0.13
   6   4   0    0.42    0.17
  -6   4   0    0.63    0.18
   0  -6  -4    0.84    0.16
   0  -6   4    0.86    0.18
   4   0   6    0.77    0.19
   0  -4  -6    0.72    0.13
  -4   6   0    0.56    0.17
   0   4  -6    0.54    0.17
  -6   4   0    0.58    0.13
   0  -4   6    0.52    0.16
  -4   0  -6    0.86    0.20
   4   0  -6    0.79    0.18
  -6  -4   0    0.74    0.20
  -6   0   4    0.69    0.14
   0   4   6    0.72    0.14
  -1  -6   4    0.56    0.18
   1  -4   6    0.51    0.17
   4  -1  -6    0.96    0.20
   6  -1   4    0.81    0.17
   4   6  -1    0.58    0.14
   6   1  -4    0.67    0.21
  -6   4  -1    0.95    0.16
  -6   1   4    0.69    0.15
  -1  -4  -6    0.83    0.18
  -4  -6  -1    0.89    0.20
   1  -6  -4    0.88    0.16
  -6  -4   1    0.80    0.21
  -4  -1   6    0.51    0.15
   6   1  -4    0.67    0.15
   1   4  -6    0.63    0.12
  -6   4  -1    0.83    0.18
   4  -1  -6    0.58    0.13
  -1   6  -4    0.84    0.18
   4   1   6    0.69    0.20
  -1   6  -4    0.60    0.18
  -1   4   6    0.72    0.15
  -6  -1  -4    0.77    0.16
   1  -6  -4    1.05    0.18
  -4   1  -6    1.05    0.21
  -4   6   1    0.69    0.17
  -1  -4  -6    1.00    0.13
   1   4  -6    0.59    0.18
   6  -4  -1    0.95    0.21
   1   6   4    0.66    0.15
   4  -6   1    0.73    0.15
   6   4   1    0.35    0.19
  -6  -1  -4    0.77    0.19
  -4   6  -1    0.63    0.17
   6  -1  -4    1.17    0.23
  -4   6  -1    0.84    0.18
  -1   4  -6    0.60    0.17
  -1   4  -6    0.58    0.09
   1  -4  -6    0.77    0.14
  -4  -6   1    0.98    0.19
   1   6  -4    0.72    0.17
   6   4  -1    0.59    0.18
  -4  -1  -6    0.94    0.20
  -1  -4   6    0.83    0.16
   6   1   4    0.43    0.18
   4  -1   6    0.86    0.18
  -1  -6  -4    1.06    0.17
  -6  -1   4    0.77    0.14
  -1   6   4    0.59    0.16
   1  -4  -6    0.83    0.18
   4  -6  -1    0.80    0.15
  -6   1  -4    0.93    0.20
  -6  -4  -1    0.81    0.19
   6  -4   1    0.90    0.18
  -4  -1  -6    0.81    0.12
  -1  -6  -4    1.18    0.17
  -6   4   1    0.64    0.14
   1  -6   4    0.58    0.17
  -4   1   6    0.72    0.14
   6  -1  -4    0.71    0.15
   4   1  -6    0.74    0.14
   1   4   6    0.71    0.13
   1   6  -4    0.46    0.17
  -6  -4  -1    0.85    0.20
   4   1  -6    0.81    0.17
  -6   1  -4    0.82    0.16
  -2  -6   4    0.50    0.22
  -4  -6  -2    0.28    0.20
  -4   2  -6    0.57    0.20
   4   6  -2    0.31    0.16
   6   2  -4    0.32    0.15
  -2   6  -4    0.10    0.19
   2   4  -6    0.36    0.13
   6  -4  -2    0.44    0.20
  -6   2   4    0.39    0.15
   4   6  -2    0.53    0.18
   2  -6  -4    0.59    0.13
   4  -2  -6    0.24    0.12
  -2  -4  -6    0.52    0.18
  -2   6  -4    0.50    0.17
   6   4   2    0.27    0.20
  -4  -6  -2    0.76    0.17
   4  -6   2    0.34    0.16
  -6  -4   2    0.33    0.20
  -4   6   2    0.21    0.16
  -6  -2  -4    0.43    0.20
  -2  -4  -6    0.70    0.13
   2   4  -6    0.19    0.17
   2  -4   6    0.23    0.18
  -6  -2  -4    0.32    0.16
  -6   4  -2    0.44    0.18
  -6   4  -2    0.36    0.18
   6   2  -4    0.23    0.20
   6  -2   4    0.47    0.16
   2  -6  -4    0.64    0.18
   4  -2  -6    0.59    0.20
   4   2   6    0.40    0.20
  -2   4   6    0.35    0.16
  -6   2  -4    0.44    0.20
  -4  -6   2    0.54    0.18
  -4  -2  -6    0.32    0.20
  -6  -4  -2    0.42    0.18
  -6  -2   4    0.41    0.13
   2  -4  -6    0.47    0.12
  -2  -6  -4    0.52    0.16
  -4   6  -2    0.31    0.17
   6   2   4    0.19    0.19
   4  -6  -2    0.53    0.16
   2   6  -4    0.17    0.18
   4   2  -6    0.32    0.16
   6  -2  -4    0.43    0.20
   6  -4   2    0.51    0.17
  -4   2   6    0.33    0.14
  -2  -6  -4    0.64    0.17
  -2  -4   6    0.51    0.21
  -2   4  -6    0.23    0.15
   2  -6   4    0.35    0.16
   4   6   2    0.16    0.19
  -4  -2  -6    0.30    0.10
  -6   4   2    0.21    0.14
   6  -2  -4    0.26    0.14
   2  -4  -6    0.51    0.18
  -2   6   4    0.24    0.16
  -4   6  -2    0.44    0.18
  -2   4  -6    0.31    0.08
  -6  -4  -2    0.15    0.19
  -6   2  -4    0.37    0.16
   2   6  -4    0.39    0.17
   4   2  -6    0.31    0.14
   3   6   4    0.46    0.20
   4   6  -3    0.26    0.18
   6   3  -4    0.31    0.16
   6  -4  -3    0.31    0.22
   6   3  -4    0.08    0.16
   4   6  -3    0.64    0.19
  -4   6   3    0.19    0.16
  -3   6  -4    0.08    0.19
  -4   3  -6    0.49    0.09
  -3  -4  -6    0.37    0.14
   4  -3  -6    0.36    0.19
  -6   3   4    0.40    0.16
   4  -3  -6    0.19    0.13
  -3   6  -4    0.43    0.18
  -6   4  -3    0.50    0.21
  -4  -6  -3    0.13    0.20
  -4   3  -6    0.44    0.20
   6   4   3    0.07    0.21
   3  -4   6    0.22    0.18
   4  -6   3    0.21    0.16
  -4  -6  -3    0.66    0.18
  -6  -3  -4    0.02    0.21
   3  -6  -4    0.24    0.13
  -6  -3  -4    0.22    0.17
   3  -6  -4    0.53    0.19
  -3  -6   4    0.44    0.22
  -6  -4   3    0.16    0.21
  -3   4   6    0.21    0.16
   3   4  -6    0.26    0.15
   6  -3   4    0.24    0.16
   4   3   6    0.17    0.18
  -6   4  -3    0.29    0.18
   3   4  -6    0.38    0.19
  -4   6  -3    0.35    0.19
  -3  -4   6    0.59    0.22
   3   6  -4   -0.08    0.20
  -4   6  -3    0.26    0.18
   4   3  -6    0.25    0.15
  -3   4  -6    0.16    0.14
   6  -3  -4    0.45    0.21
  -6   3  -4    0.11    0.17
   6   3   4    0.21    0.21
   6   4  -3    0.42    0.17
  -6  -3   4    0.24    0.18
   3   4   6    0.43    0.20
  -6  -4  -3   -0.04    0.20
   3  -4  -6    0.26    0.13
   3  -6   4    0.14    0.16
  -3  -6  -4    0.58    0.17
   4   3  -6    0.24    0.18
  -6  -4  -3    0.32    0.18
  -6   3  -4    0.28    0.22
   3   6  -4    0.44    0.18
  -6   4   3    0.23    0.16
   3  -4  -6    0.41    0.18
  -4  -6   3    0.48    0.22
  -4  -3  -6    0.31    0.13
  -3   4  -6    0.33    0.09
  -4  -3  -6    0.20    0.20
  -4   3   6    0.16    0.15
   6  -3  -4    0.16    0.15
   4  -6  -3    0.31    0.18
  -3   6   4    0.23    0.16
   4   6   3    0.37    0.22
   4   6  -4    0.15    0.21
   4  -6  -4    0.22    0.21
  -4   6  -4   -0.21    0.18
   4  -6  -4   -0.01    0.13
   6  -4  -4    0.01    0.15
  -6   4   4    0.05    0.18
  -4   4   6    0.09    0.17
   4   6   4    0.13    0.22
   4  -4  -6    0.14    0.20
  -6  -4  -4    0.07    0.18
  -6   4  -4    0.11    0.18
   4  -4   6    0.05    0.19
  -4  -4  -6    0.21    0.15
  -4  -6  -4    0.48    0.19
   6   4  -4   -0.03    0.17
  -6  -4  -4   -0.19    0.22
  -6  -4   4    0.22    0.22
  -6   4  -4    0.24    0.23
  -4  -6  -4   -0.21    0.20
  -4  -6   4    0.32    0.25
  -4  -4   6    0.11    0.21
   4  -6   4    0.11    0.17
   6   4  -4    0.28    0.18
   4   4  -6    0.05    0.20
   6  -4  -4    0.05    0.22
   4  -4  -6   -0.03    0.14
  -4   4  -6    0.24    0.11
  -4   6  -4    0.21    0.20
   4   6  -4    0.27    0.19
  -4   6   4    0.17    0.17
   4   4  -6    0.14    0.17
   6   4   4   -0.14    0.22
   4   4   6    0.04    0.20
   6   0   5    0.37    0.19
   0  -5  -6    0.47    0.19
  -5   0  -6    0.40    0.23
  -5   0  -6    0.15    0.10
   0  -6  -5    0.38    0.19
   0  -6   5    0.42    0.22
   6   0  -5    0.09    0.23
   0  -5  -6    0.23    0.16
  -6  -5   0    0.48    0.22
  -6   0  -5    0.28    0.21
  -5  -6   0    0.27    0.21
   0  -5   6    0.27    0.16
   0   5   6    0.22    0.15
  -6   0  -5    0.10    0.15
   0   6   5    0.35    0.16
  -5   6   0    0.36    0.18
   6   0  -5    0.21    0.15
   0   5  -6   -0.05    0.18
  -6   0   5    0.40    0.16
   5   0  -6    0.41    0.20
   5   0   6    0.25    0.19
   6  -5   0    0.44    0.19
  -6   5   0    0.34    0.15
  -5   0   6    0.25    0.16
   0   6  -5   -0.02    0.19
   5   0  -6    0.07    0.15
   0   5  -6    0.18    0.12
   0   6  -5    0.22    0.16
   0  -6  -5    0.19    0.17
   6   1  -5    0.16    0.15
   1   5  -6    0.24    0.14
   1  -6  -5    0.31    0.20
  -6   5  -1    0.07    0.18
   1   5  -6   -0.21    0.19
  -1  -6   5    0.27    0.23
   5   1   6    0.25    0.21
  -6  -5   1    0.38    0.22
  -6   1   5    0.26    0.17
  -5   1  -6    0.38    0.22
  -1  -5  -6    0.39    0.20
   1   6   5    0.31    0.15
   6   5   1   -0.12    0.18
  -1   6  -5    0.37    0.16
   6  -5  -1    0.34    0.20
  -6  -1  -5    0.24    0.21
  -6  -1  -5    0.14    0.15
  -1   6  -5    0.19    0.19
  -1   5   6    0.24    0.17
  -5   1  -6    0.23    0.08
  -5  -6  -1    0.23    0.21
   6   1  -5    0.01    0.22
   1  -5   6    0.11    0.17
  -5   6   1    0.05    0.17
  -1  -5  -6    0.40    0.16
  -5  -1   6    0.23    0.16
   1  -6  -5    0.12    0.17
   6  -1   5    0.23    0.19
   5  -1  -6    0.47    0.21
   5  -1  -6    0.00    0.14
   1  -5  -6    0.14    0.16
   5  -6  -1    0.25    0.16
   6  -1  -5    0.15    0.23
   1   6  -5   -0.05    0.19
  -5  -1  -6    0.32    0.23
   6   1   5    0.22    0.21
  -1   5  -6    0.21    0.11
  -6   1  -5    0.10    0.22
   5   1  -6    0.24    0.18
  -5  -1  -6    0.22    0.11
  -1  -6  -5    0.45    0.20
   1  -5  -6    0.34    0.20
  -1   6   5    0.14    0.17
  -6  -1   5    0.33    0.16
   6  -5   1    0.20    0.17
   6  -1  -5    0.16    0.15
   1  -6   5    0.14    0.16
   5   1  -6    0.12    0.15
  -5   6  -1    0.32    0.19
  -5  -6   1    0.42    0.21
  -1  -5   6    0.25    0.25
   5  -1   6    0.20    0.19
   1   6  -5    0.30    0.16
  -5   6  -1    0.23    0.17
  -5   1   6    0.39    0.16
  -1  -6  -5    0.22    0.17
  -1   5  -6   -0.05    0.19
  -6   1  -5    0.14    0.16
  -6  -5  -1    0.27    0.21
  -6   5   1    0.15    0.16
   6   2  -5    0.05    0.16
   2   5  -6    0.18    0.16
  -2  -5  -6    0.50    0.15
  -5  -6  -2    0.58    0.18
  -6  -5   2    0.13    0.24
   5  -6   2   -0.02    0.16
   6   5   2   -0.02    0.20
  -2  -6   5    0.56    0.26
  -2   6  -5   -0.07    0.20
   5  -2  -6    0.28    0.22
  -2   6  -5    0.40    0.17
  -6   5  -2    0.04    0.19
   6  -2   5    0.16    0.17
   2  -6  -5    0.50    0.14
  -5   2  -6    0.21    0.09
   5   2   6    0.03    0.22
  -5   6   2   -0.01    0.17
  -5   2  -6    0.35    0.23
   6  -5  -2    0.26    0.22
   2   5  -6   -0.09    0.20
  -6   5  -2    0.27    0.19
   2  -6  -5    0.43    0.22
  -6  -2  -5    0.12    0.21
  -2  -5  -6    0.49    0.21
  -5  -6  -2    0.30    0.22
  -2   5   6    0.23    0.18
   5  -2  -6   -0.02    0.15
  -6  -2  -5   -0.02    0.16
  -6   2   5    0.20    0.18
   2  -5   6   -0.05    0.17
  -2   5  -6    0.26    0.12
   2  -5  -6    0.30    0.14
   5  -6  -2    0.26    0.18
   5   6   2   -0.04    0.21
  -2  -6  -5    0.37    0.19
  -2   6   5    0.21    0.18
   2   6  -5    0.32    0.18
  -6   5   2    0.12    0.16
  -5  -6   2    0.38    0.23
  -6  -2   5    0.13    0.16
  -2   5  -6    0.14    0.18
  -5   2   6    0.28    0.17
   2  -6   5    0.07    0.17
  -5   6  -2    0.24    0.19
   2   6  -5    0.08    0.21
  -5  -2  -6    0.13    0.23
  -6   2  -5    0.11    0.16
  -6   2  -5    0.32    0.22
   2  -5  -6    0.31    0.21
   6   2   5    0.07    0.21
  -2  -6  -5    0.42    0.18
  -6  -5  -2    0.06    0.22
   6  -2  -5    0.07    0.15
  -6  -5  -2    0.30    0.18
   6  -2  -5    0.31    0.23
   5   2  -6    0.14    0.16
  -2  -5   6    0.43    0.24
  -5   6  -2    0.25    0.18
  -5  -2  -6    0.24    0.13
   0   0  -7    1.59    0.18
   7   0   0    1.36    0.21
  -7   0   0    1.19    0.18
  -7   0   0    1.71    0.23
   0  -7   0    1.49    0.18
   0   0   7    1.42    0.17
   0   7   0    1.00    0.17
  -1  -7   0    1.27    0.18
   1  -7   0    1.17    0.17
   0  -1  -7    1.24    0.19
   7   0  -1    1.10    0.21
   7   1   0    1.06    0.20
   1   0   7    0.82    0.14
   7  -1   0    1.22    0.21
   0   1   7    1.15    0.14
  -7  -1   0    1.45    0.19
  -7   1   0    1.14    0.16
   0  -7  -1    1.24    0.17
   0  -7   1    1.22    0.19
   1   0  -7    1.15    0.17
   7   0   1    0.79    0.19
   1   7   0    0.96    0.17
  -7   0  -1    1.02    0.19
  -7   0  -1    1.18    0.18
   0   7  -1    0.85    0.16
   0   7   1    1.02    0.17
  -1   0  -7    1.23    0.17
  -7  -1   0    0.94    0.17
  -1   0   7    1.07    0.16
  -7   0   1    1.15    0.16
  -1   7   0    0.87    0.15
   0   1  -7    1.04    0.16
  -7   1   0    1.07    0.17
   0   7  -1    0.89    0.18
   7   1   1    0.69    0.19
  -1  -1  -7    1.27    0.20
   1   1  -7    0.96    0.16
   1   1   7    0.97    0.13
   1  -1   7    0.90    0.17
   1   7  -1    1.00    0.17
  -1   7  -1    0.66    0.16
  -1  -7  -1    0.94    0.17
  -1   7   1    0.74    0.17
  -7  -1  -1    1.21    0.19
  -7  -1   1    1.10    0.17
  -7   1  -1    1.39    0.18
  -1   1  -7    0.99    0.15
   7  -1   1    1.12    0.20
   1   7   1    0.81    0.16
   7   1  -1    0.93    0.22
   1  -7   1    0.81    0.18
  -7  -1  -1    1.03    0.18
  -7   1  -1    0.83    0.17
  -1   7  -1    1.04    0.19
  -1  -7   1    1.20    0.18
   1   7  -1    0.96    0.18
   7  -1  -1    1.24    0.22
  -1   1  -7    1.00    0.17
   1  -1  -7    1.30    0.19
  -7   1   1    0.97    0.15
  -1   1   7    1.08    0.15
   0   7   2    0.51    0.16
   0   2   7    0.99    0.14
   2   7   0    0.83    0.17
  -2   0   7    0.71    0.16
   7   0   2    0.51    0.18
   0   7  -2    0.60    0.19
   0   2  -7    0.80    0.16
   2   0   7    0.68    0.19
   7  -2   0    1.01    0.22
   0   7  -2    0.41    0.16
   7   0  -2    0.85    0.22
  -2   7   0    0.59    0.17
  -7   0  -2    0.90    0.19
  -2  -7   0    1.03    0.18
   0  -2   7    0.72    0.17
   2  -7   0    0.80    0.16
   2   0  -7    0.93    0.18
   2   0  -7    0.63    0.10
  -7   0  -2    0.80    0.18
   0  -7  -2    0.81    0.16
   7   2   0    0.58    0.20
  -7  -2   0    1.02    0.20
  -7   2   0    0.88    0.15
  -2   0  -7    0.69    0.17
   0  -7   2    0.93    0.19
   0  -2  -7    0.96    0.19
  -7   2   0    0.54    0.16
   1   2  -7    0.86    0.17
  -7  -1  -2    0.80    0.20
   7   2   1    0.37    0.19
   2  -1  -7    0.86    0.19
  -1  -7   2    0.81    0.19
   7  -1   2    0.63    0.19
   1  -2   7    0.85    0.18
  -1   2   7    0.74    0.15
  -7   2  -1    0.50    0.17
   2  -1  -7    0.57    0.08
  -2   1  -7    0.73    0.18
   2  -7   1    0.66    0.17
  -7  -1  -2    0.58    0.17
  -1   7  -2    0.37    0.17
   1   7   2    0.49    0.16
   7   1  -2    0.59    0.23
   7  -2  -1    0.95    0.22
  -7   2  -1    0.81    0.18
  -1   7  -2    0.65    0.19
  -1  -2  -7    1.00    0.20
  -2   7   1    0.58    0.16
  -2  -7  -1    0.77    0.18
  -7  -2   1    0.96    0.19
   2   7  -1    0.69    0.17
   1  -7   2    0.76    0.18
  -1  -7  -2    0.98    0.17
   1  -2  -7    0.97    0.20
   7   2  -1    0.59    0.21
  -7  -2  -1    0.64    0.20
   2   1  -7    0.52    0.07
  -2   7  -1    0.49    0.17
  -2   1   7    0.54    0.15
  -7   1  -2    0.60    0.17
  -1  -7  -2    0.84    0.16
  -2  -1  -7    0.91    0.19
  -1   7   2    0.46    0.16
   1   7  -2    0.39    0.17
   2  -1   7    0.55    0.16
   7   1   2    0.53    0.18
   2   1  -7    0.92    0.15
   7  -2   1    0.64    0.20
   2   7   1    0.55    0.16
  -7  -1   2    0.65    0.15
  -2   7  -1    0.92    0.20
  -1   2  -7    0.79    0.15
  -7  -2  -1    0.48    0.17
   7  -1  -2    0.83    0.22
   1   2   7    0.68    0.12
   1  -2  -7    0.58    0.09
  -7   1  -2    0.74    0.19
  -2  -7   1    0.88    0.19
   1   7  -2    0.57    0.17
   2   2  -7    0.32    0.16
  -2   2   7    0.53    0.15
   2   7   2    0.33    0.14
  -2  -7  -2    0.75    0.16
   7   2   2    0.08    0.19
   2  -2   7    0.36    0.18
  -2  -2  -7    0.69    0.20
   2  -2  -7    0.64    0.20
   7  -2  -2    0.49    0.21
   2  -7   2    0.36    0.16
  -7  -2  -2    0.36    0.18
  -2   7  -2    0.60    0.20
   2  -2  -7    0.40    0.09
  -2   7   2    0.08    0.16
   7   2  -2    0.45    0.22
  -7   2  -2    0.50    0.20
  -2  -7  -2    0.55    0.18
  -2   7  -2    0.33    0.17
  -7  -2   2    0.38    0.17
   2   2  -7    0.32    0.07
   2   7  -2    0.40    0.17
  -2   2  -7    0.81    0.14
  -7  -2  -2    0.59    0.21
  -2  -7   2    0.58    0.18
  -7   2  -2    0.35    0.19
   2   7  -2    0.30    0.19
   7  -2   2    0.54    0.19
   7   0  -3    0.37    0.22
   7  -3   0    0.45    0.22
   7   3   0    0.18    0.19
  -7   3   0    0.11    0.17
  -7   0  -3    0.62    0.21
  -3  -7   0    0.61    0.19
   0  -3   7    0.38    0.17
   3   0  -7    0.33    0.09
   3   0   7    0.23    0.18
   0   7   3    0.17    0.16
   0  -3  -7    0.40    0.10
  -7  -3   0    0.22    0.21
   0  -7  -3    0.39    0.17
  -3   0   7    0.14    0.15
   0  -3  -7    0.54    0.20
  -3   7   0    0.40    0.18
   0   3  -7    0.37    0.17
   0   3   7    0.43    0.14
   3   7   0    0.27    0.15
   0   7  -3    0.39    0.18
   0   7  -3    0.07    0.17
  -3   0  -7    0.24    0.19
   0  -7   3    0.29    0.18
   7   0   3    0.33    0.18
  -7   0  -3    0.24    0.17
   0  -7  -3    0.61    0.15
   3   0  -7    0.56    0.18
   3   1   7    0.24    0.18
   3  -1  -7    0.48    0.19
  -7  -1  -3    0.18    0.18
  -3   1  -7    0.54    0.21
   1   7   3    0.14    0.15
   7   3   1    0.12    0.20
  -3   7   1    0.23    0.17
  -7  -1  -3    0.52    0.21
  -1   3   7    0.43    0.15
  -1   7  -3    0.18    0.17
   1  -7  -3    0.55    0.16
   3   7  -1    0.18    0.17
   3  -1  -7    0.27    0.10
   1  -3   7    0.30    0.17
  -3  -7  -1    0.54    0.20
  -1  -3  -7    0.40    0.09
  -1   7  -3    0.37    0.19
  -1  -3  -7    0.62    0.20
   7  -3  -1    0.41    0.23
   1   3  -7    0.38    0.17
   3  -7   1    0.35    0.15
   7   1  -3    0.33    0.23
   7  -1   3    0.45    0.19
  -7  -3   1    0.13    0.20
   1   3  -7    0.29    0.05
  -3  -1   7   -0.09    0.15
  -7   3  -1    0.29    0.18
  -7   3  -1    0.34    0.17
   1  -7  -3    0.14    0.15
  -1  -7   3    0.41    0.19
   7   1   3    0.15    0.17
   7  -1  -3    0.20    0.22
   1   7  -3    0.35    0.18
  -3  -7   1    0.42    0.18
  -1  -7  -3    0.34    0.16
  -3   1   7    0.49    0.15
  -1  -3   7    0.28    0.16
  -1   7   3    0.26    0.17
   1   7  -3    0.15    0.18
   7   3  -1    0.20    0.20
   1  -3  -7    0.66    0.20
  -3  -1  -7    0.22    0.18
   1  -7   3    0.43    0.19
  -7  -3  -1    0.19    0.21
  -7  -3  -1    0.08    0.18
   1  -3  -7    0.31    0.11
  -3   7  -1    0.55    0.20
   3   1  -7    0.24    0.10
  -1   3  -7    0.44    0.16
  -1  -7  -3    0.61    0.15
   3  -1   7    0.31    0.16
  -3   7  -1    0.26    0.18
   7  -3   1    0.54    0.21
  -7   1  -3    0.14    0.18
  -7   1  -3    0.56    0.22
  -7  -2  -3    0.10    0.21
   3  -7   2    0.19    0.16
  -7  -2  -3    0.11    0.18
  -3  -7  -2    0.37    0.20
   2   3  -7    0.05    0.17
   3   7  -2   -0.02    0.18
  -2   3   7    0.21    0.17
   7   3   2   -0.02    0.20
   2  -3   7    0.12    0.18
  -3   7   2    0.09    0.17
  -7  -3   2   -0.01    0.21
  -7   3  -2    0.11    0.19
  -2   7  -3    0.26    0.19
   2  -7  -3    0.38    0.13
  -3   2  -7    0.27    0.21
  -2  -3  -7    0.47    0.21
   3   2   7    0.18    0.20
  -3  -7  -2    0.50    0.17
   2   3  -7    0.12    0.09
   3   7  -2    0.19    0.17
  -2   7  -3    0.10    0.19
   3  -2  -7    0.20    0.11
  -2  -7   3    0.40    0.18
  -2  -3  -7    0.33    0.08
   7   2  -3    0.13    0.23
   2  -7  -3    0.40    0.17
   3  -2  -7    0.39    0.19
  -7   3  -2   -0.13    0.19
   7  -2   3    0.11    0.19
   7  -3  -2   -0.02    0.23
   2   7  -3    0.07    0.20
   7  -2  -3    0.14    0.22
  -7  -3  -2    0.11    0.18
   2  -7   3    0.18    0.16
  -2  -7  -3    0.48    0.17
  -3   2   7    0.16    0.15
  -2   3  -7    0.14    0.14
  -7   2  -3    0.13    0.19
   2  -3  -7    0.24    0.19
   7  -3   2    0.13    0.19
   7   3  -2    0.04    0.20
  -7  -3  -2   -0.01    0.21
   2  -3  -7    0.30    0.11
  -3   7  -2    0.29    0.20
  -2   7   3    0.08    0.17
  -3  -7   2    0.39    0.19
   3   2  -7    0.16    0.10
   3   2  -7    0.24    0.16
   7   2   3    0.02    0.19
   2   7  -3    0.30    0.18
  -3   7  -2    0.13    0.19
  -7   2  -3    0.36    0.23
   7   3   3   -0.13    0.21
   3   3  -7    0.08    0.12
  -3   3   7    0.27    0.18
   3  -3  -7    0.09    0.13
  -3   7  -3   -0.13    0.20
   3   7  -3   -0.11    0.20
  -7   3  -3   -0.07    0.20
   3  -7   3    0.20    0.17
  -3   7   3    0.23    0.18
  -7   3   3    0.17    0.15
  -3  -7  -3    0.35    0.18
  -3  -3  -7    0.19    0.09
  -3   7  -3    0.22    0.20
   3  -3  -7    0.20    0.20
  -7   3  -3    0.40    0.24
  -3  -7  -3    0.07    0.20
  -3  -7   3    0.18    0.20
  -7  -3  -3   -0.17    0.21
  -7  -3  -3   -0.02    0.19
   3   3   7    0.38    0.21
   7  -3   3    0.24    0.18
  -7  -3   3   -0.13    0.21
   3  -7  -3    0.29    0.17
   3   3  -7    0.17    0.19
   3  -3   7   -0.06    0.19
   3   7  -3    0.23    0.19
   7  -3  -3    0.07    0.22
   7   0   4    0.04    0.20
  -7   0  -4   -0.02    0.18
   0  -4  -7    0.17    0.13
   4   0  -7    0.21    0.20
   7   0  -4   -0.10    0.23
  -4   0  -7    0.21    0.22
   0   7  -4    0.00    0.19
   0  -4   7    0.20    0.17
   0  -4  -7    0.26    0.21
   0   7  -4    0.23    0.19
   0   4  -7    0.08    0.04
  -4   0   7    0.17    0.16
  -7   0  -4    0.39    0.22
  -4  -7   0    0.48    0.21
  -7  -4   0    0.12    0.22
  -4   7   0    0.07    0.19
   7  -4   0    0.13    0.22
   0   7   4    0.09    0.17
   0  -7  -4    0.16    0.18
   0  -7   4    0.31    0.20
   4   0  -7    0.10    0.12
   0   4  -7   -0.08    0.18
   4   0   7    0.20    0.20
   7   4   0   -0.04    0.19
   7   0  -4    0.06    0.15
   0   4   7    0.21    0.15
   0  -7  -4    0.39    0.18
  -4   1  -7    0.26    0.23
   7   1  -4    0.19    0.15
   7  -1   4    0.19    0.19
   7   4   1   -0.10    0.20
  -1   7  -4    0.30    0.18
  -7  -4   1    0.31    0.25
   4  -1  -7    0.17    0.21
  -4   7   1    0.00    0.19
   4   1   7    0.12    0.21
   7   1  -4   -0.19    0.23
   4  -1  -7    0.08    0.13
  -4  -7  -1    0.30    0.21
   1  -7  -4   -0.01    0.17
  -1   7  -4    0.04    0.19
  -7  -1  -4    0.03    0.19
  -7   4  -1   -0.02    0.20
  -4  -1   7   -0.09    0.17
  -1  -4  -7    0.36    0.12
   1   7   4    0.08    0.16
   1  -4   7    0.05    0.18
  -7  -1  -4    0.21    0.22
  -1  -7   4    0.11    0.20
  -1  -4  -7    0.33    0.21
  -7   1   4    0.00    0.15
   1  -7  -4    0.33    0.18
  -1   4   7    0.41    0.17
   1   4  -7    0.01    0.08
   1   4  -7    0.06    0.19
   7  -4  -1    0.37    0.25
  -1   4  -7    0.04    0.18
   7   1   4    0.07    0.21
  -1  -4   7    0.28    0.24
  -7   1  -4    0.45    0.24
  -4   7  -1    0.27    0.20
  -1  -7  -4    0.12    0.18
   7  -4   1    0.25    0.21
  -4  -1  -7    0.09    0.23
   1   7  -4    0.18    0.19
  -4   1   7    0.11    0.16
   1  -4  -7    0.19    0.20
  -1   7   4    0.10    0.19
   1   7  -4   -0.04    0.20
   1  -4  -7    0.01    0.14
  -1  -7  -4    0.36    0.17
   7  -1  -4    0.02    0.15
  -4  -7   1    0.34    0.21
  -7   1  -4    0.05    0.18
   7  -1  -4   -0.16    0.23
   4  -1   7    0.25    0.18
   7   4  -1    0.08    0.19
   4   1  -7    0.09    0.13
   1  -7   4    0.21    0.20
  -7  -4  -1   -0.17    0.22
  -4   7  -1    0.09    0.19
   7   2  -4   -0.21    0.24
   0   8   0    0.08    0.18
   0   0   8    0.38    0.18
   0   0  -8    0.40    0.19
  -8   0   0    0.28    0.19
   0  -8   0    0.52    0.18
   8   0   0    0.16    0.21
   1   8   0   -0.02    0.18
  -8   0  -1    0.24    0.20
  -1  -8   0    0.32    0.19
  -8   0  -1   -0.02    0.19
   0  -8   1    0.31    0.19
  -1   0   8    0.20    0.19
   0   8  -1    0.03    0.18
   8   1   0    0.20    0.21
  -1   8   0    0.06    0.18
   0   1  -8    0.32    0.16
   0   1   8    0.09    0.16
   0  -1  -8    0.27    0.21
   8   0  -1    0.22    0.23
   8   0   1    0.23    0.20
   0   8   1    0.01    0.17
   1   0   8    0.10    0.16
  -8  -1   0    0.31    0.21
  -1   0  -8    0.11    0.18
   1   0  -8    0.25    0.19
   8  -1   0    0.23    0.22
  -8   1   0    0.18    0.17
  -1  -1  -8    0.31    0.21
  -8   1  -1    0.29    0.21
   8  -1  -1    0.26    0.23
   8  -1   1    0.19    0.22
   8   1  -1    0.20    0.23
   8   1   1    0.06    0.20
  -1   1  -8    0.60    0.16
  -1   1   8    0.26    0.17
  -1   8  -1    0.11    0.18
  -1   8   1    0.09    0.18
   1   8  -1    0.08    0.20
   1   8   1    0.17    0.18
  -8  -1  -1    0.13    0.20
  -8   1  -1    0.02    0.19
   1  -1  -8    0.36    0.21
   1  -8   1    0.26    0.19
  -8  -1  -1    0.29    0.22
  -8  -1   1    0.12    0.19
  -1  -8   1    0.36    0.19
  -1  -8  -1    0.41    0.17
   0   8  -2    0.15    0.20
  -8   0  -2   -0.08    0.20
  -2   8   0    0.27    0.18
   0   2  -8    0.16    0.18
   0   2   8    0.38    0.16
   2   8   0    0.09    0.19
   8   0  -2    0.05    0.24
   8   0   2    0.20    0.21
  -8   0  -2    0.39    0.23
  -2  -8   0    0.26    0.19
   2   0   8    0.16    0.19
   8  -2   0    0.27    0.24
   8   2   0    0.17    0.21
  -8  -2   0    0.04    0.22
   0  -8   2    0.23    0.20
   0  -2  -8    0.19    0.22
  -2   0   8    0.20    0.20
   0   8  -2   -0.03    0.19
   0   8   2   -0.06    0.18
   0   0   0    0.00    0.00
;
_shelx_hkl_checksum              46644
_olex2_submission_special_instructions 'No special instructions were received'
loop_
_space_group_symop_operation_xyz
'x, y, z'
'-x, -y, z'
'-x, y, -z'
'x, -y, -z'
'z, x, y'
'z, -x, -y'
'-z, -x, y'
'-z, x, -y'
'y, z, x'
'-y, z, -x'
'y, -z, -x'
'-y, -z, x'
'y, x, -z'
'-y, -x, -z'
'y, -x, z'
'-y, x, z'
'x, z, -y'
'-x, z, y'
'-x, -z, -y'
'x, -z, y'
'z, y, -x'
'z, -y, x'
'-z, y, x'
'-z, -y, -x'
'-x, -y, -z'
'x, y, -z'
'x, -y, z'
'-x, y, z'
'-z, -x, -y'
'-z, x, y'
'z, x, -y'
'z, -x, y'
'-y, -z, -x'
'y, -z, x'
'-y, z, x'
'y, z, -x'
'-y, -x, z'
'y, x, z'
'-y, x, -z'
'y, -x, -z'
'-x, -z, y'
'x, -z, -y'
'x, z, y'
'-x, z, -y'
'-z, -y, x'
'-z, y, -x'
'z, -y, -x'
'z, y, x'
loop_
_atom_site_label
_atom_site_type_symbol
_atom_site_fract_x
_atom_site_fract_y
_atom_site_fract_z
_atom_site_U_iso_or_equiv
_atom_site_adp_type
_atom_site_occupancy
_atom_site_site_symmetry_order
_atom_site_calc_flag
_atom_site_refinement_flags_posn
_atom_site_refinement_flags_adp
_atom_site_refinement_flags_occupancy
_atom_site_disorder_assembly
_atom_site_disorder_group
Re1 Re 0.0000 0.0000 0.0000 0.1285(9) Uani 1 48 d DS T P . .
O1 O 0.265(3) 0.0000 0.0000 0.30(4) Uiso 0.5 8 d DS T P . .
O2 O 0.1534(19) 0.1534(19) 0.1534(19) 0.30(13) Uiso 0.125 6 d DS T P . .
C1 C 0.334(5) 0.5000 0.334(5) 0.201(13) Uiso 0.5833 4 d S T P . .
C2 C 0.5000 0.5000 0.24(4) 0.20(7) Uiso 0.1666 8 d S T P . .
loop_
_atom_site_aniso_label
_atom_site_aniso_U_11
_atom_site_aniso_U_22
_atom_site_aniso_U_33
_atom_site_aniso_U_23
_atom_site_aniso_U_13
_atom_site_aniso_U_12
Re1 0.1285(9) 0.1285(9) 0.1285(9) 0.000 0.000 0.000
loop_
_atom_type_symbol
_atom_type_description
_atom_type_scat_dispersion_real
_atom_type_scat_dispersion_imag
_atom_type_scat_source
C C 0.0033 0.0016 'International Tables Vol C Tables 4.2.6.8 and 6.1.1.4'
H H 0.0000 0.0000 'International Tables Vol C Tables 4.2.6.8 and 6.1.1.4'
N N 0.0061 0.0033 'International Tables Vol C Tables 4.2.6.8 and 6.1.1.4'
O O 0.0106 0.0060 'International Tables Vol C Tables 4.2.6.8 and 6.1.1.4'
Re Re -1.0185 7.2310 'International Tables Vol C Tables 4.2.6.8 and 6.1.1.4'
loop_
_geom_angle_atom_site_label_1
_geom_angle_atom_site_label_2
_geom_angle_atom_site_label_3
_geom_angle
_geom_angle_site_symmetry_1
_geom_angle_site_symmetry_3
O1 Re1 O1 90.000(1) . 33
O1 Re1 O1 90.000(1) 25 5
O1 Re1 O1 90.000(1) 25 29
O1 Re1 O1 90.0 9 5
O1 Re1 O1 90.0 33 29
O1 Re1 O1 90.0 9 29
O1 Re1 O1 180.0 . 25
O1 Re1 O1 90.000(1) . 9
O1 Re1 O1 90.0 33 25
O1 Re1 O1 90.000(1) . 29
O1 Re1 O1 90.0 9 25
O1 Re1 O1 180.0 33 9
O1 Re1 O1 90.000(1) . 5
O1 Re1 O1 90.0 33 5
O1 Re1 O1 180.0 5 29
O1 Re1 O2 54.7 29 2
O1 Re1 O2 125.3 9 26
O1 Re1 O2 125.3 33 2
O1 Re1 O2 54.7 33 25
O1 Re1 O2 125.3 29 26
O1 Re1 O2 125.3 9 25
O1 Re1 O2 125.3 . 3
O1 Re1 O2 54.736(1) 25 25
O1 Re1 O2 125.3 25 26
O1 Re1 O2 125.3 5 25
O1 Re1 O2 125.3 9 4
O1 Re1 O2 54.7 29 25
O1 Re1 O2 125.264(1) 5 4
O1 Re1 O2 54.7 . 26
O1 Re1 O2 54.736(1) 33 26
O1 Re1 O2 125.264(1) . 25
O1 Re1 O2 54.7 25 2
O1 Re1 O2 54.736(1) 25 28
O1 Re1 O2 125.3 9 3
O1 Re1 O2 125.264(1) 29 28
O1 Re1 O2 125.3 . 2
O1 Re1 O2 54.7 33 4
O1 Re1 O2 125.264(1) . 28
O1 Re1 O2 125.264(1) 25 4
O1 Re1 O2 54.7 5 26
O1 Re1 O2 54.736(1) 29 4
O1 Re1 O2 54.7 9 28
O1 Re1 O2 54.7 33 3
O1 Re1 O2 54.736(1) 9 2
O1 Re1 O2 54.7 25 3
O1 Re1 O2 54.736(1) 5 28
O1 Re1 O2 125.3 29 3
O1 Re1 O2 54.7 5 3
O1 Re1 O2 125.3 5 2
O1 Re1 O2 54.736(1) . 4
O1 Re1 O2 125.3 33 28
O2 Re1 O2 109.471(2) 25 28
O2 Re1 O2 70.529(1) 25 2
O2 Re1 O2 109.471(1) 4 3
O2 Re1 O2 70.529(1) 28 3
O2 Re1 O2 180.0(14) 26 2
O2 Re1 O2 109.5 2 4
O2 Re1 O2 70.529(1) 25 3
O2 Re1 O2 70.529(1) 26 3
O2 Re1 O2 109.471(1) 2 3
O2 Re1 O2 180.0(7) 28 4
O2 Re1 O2 109.5 26 28
O2 Re1 O2 109.471(1) 25 26
O2 Re1 O2 70.529(2) 25 4
O2 Re1 O2 70.5 2 28
O2 Re1 O2 70.5 26 4
O2 O1 Re1 62.8(10) 27 .
O2 O1 Re1 62.8(10) . .
O2 O1 Re1 62.8(10) 4 .
O2 O1 Re1 62.8(10) 26 .
O2 O1 O2 77.9(8) 26 .
O2 O1 O2 125.5(19) 4 .
O2 O1 O2 77.9(8) 27 .
O2 O1 O2 125.5(19) 27 26
O2 O1 O2 77.9(8) 4 26
O2 O1 O2 77.9(8) 4 27
O1 O2 Re1 62.5(10) 5 .
O1 O2 Re1 62.5(10) 9 .
O1 O2 Re1 62.5(10) . .
O1 O2 O1 100.4(12) . 9
O1 O2 O1 100.4(12) 9 5
O1 O2 O1 100.4(12) . 5
C1 C1 C1 119.998(14) 6_566 9
C1 C1 C1 90.0 6_566 5
C1 C1 C1 89.999(18) 34_565 9
C1 C1 C1 60.0 34_565 6_566
C1 C1 C1 119.998(10) 34_565 5
C1 C1 C1 59.999(3) 5 9
C2 C1 C1 52(5) . 34_565
C2 C1 C1 52(5) . 9
C2 C1 C1 111(7) . 5
C2 C1 C1 52(5) 5 5
C2 C1 C1 111(7) . 6_566
C2 C1 C1 111(7) 5 9
C2 C1 C1 52(5) 5 6_566
C2 C1 C1 111(7) 5 34_565
C2 C1 C2 151(10) . 5
C1 C2 C1 119(10) 2_665 .
C1 C2 C1 75(10) 2_665 9
C1 C2 C1 75(10) 34_565 .
C1 C2 C1 119(10) 34_565 9
C1 C2 C1 75(10) 9 .
C1 C2 C1 75(10) 34_565 2_665
loop_
_geom_bond_atom_site_label_1
_geom_bond_atom_site_label_2
_geom_bond_distance
_geom_bond_site_symmetry_2
Re1 O1 1.69(2) .
Re1 O1 1.69(2) 9
Re1 O1 1.69(2) 33
Re1 O1 1.69(2) 5
Re1 O1 1.69(2) 25
Re1 O1 1.69(2) 29
Re1 O2 1.70(2) 25
Re1 O2 1.70(2) 26
Re1 O2 1.70(2) 28
Re1 O2 1.70(2) 4
Re1 O2 1.70(2) 2
Re1 O2 1.70(2) 3
O1 O2 1.558(14) 4
O1 O2 1.558(14) 27
O1 O2 1.558(14) 26
O1 O2 1.558(14) .
O2 O1 1.558(14) 9
O2 O1 1.558(14) 5
C1 C1 1.50(5) 34_565
C1 C1 1.50(5) 5
C1 C1 1.50(5) 9
C1 C1 1.50(5) 6_566
C1 C2 1.23(14) 5
C1 C2 1.23(14) .
C2 C1 1.23(14) 34_565
C2 C1 1.23(14) 2_665
C2 C1 1.23(14) 9
loop_
_geom_torsion_atom_site_label_1
_geom_torsion_atom_site_label_2
_geom_torsion_atom_site_label_3
_geom_torsion_atom_site_label_4
_geom_torsion
_geom_torsion_site_symmetry_1
_geom_torsion_site_symmetry_2
_geom_torsion_site_symmetry_3
_geom_torsion_site_symmetry_4
Re1 O1 O2 O1 -51.3(9) . . . 5
Re1 O1 O2 O1 51.3(9) . . . 9
O1 Re1 O1 O2 45.0 5 . . .
O1 Re1 O1 O2 -45.000(1) 9 . . .
O1 Re1 O1 O2 135.0 29 . . 26
O1 Re1 O1 O2 -135.0 5 . . 4
O1 Re1 O1 O2 -135.000(1) 33 . . 27
O1 Re1 O1 O2 135.000(1) 9 . . 4
O1 Re1 O1 O2 -135.0 29 . . .
O1 Re1 O1 O2 -45.000(0) 5 . . 26
O1 Re1 O1 O2 45.000(1) 9 . . 27
O1 Re1 O1 O2 135.000(1) 33 . . .
O1 Re1 O1 O2 135.0 5 . . 27
O1 Re1 O1 O2 -45.000(1) 33 . . 4
O1 Re1 O1 O2 45.000(1) 33 . . 26
O1 Re1 O1 O2 45.0 29 . . 4
O1 Re1 O1 O2 -135.000(1) 9 . . 26
O1 Re1 O1 O2 -45.000(0) 29 . . 27
O1 Re1 O2 O1 -60.000(0) 25 . . 5
O1 Re1 O2 O1 -120.000(0) 5 . . .
O1 Re1 O2 O1 -120.0 . . . 9
O1 Re1 O2 O1 60.0 25 . . 9
O1 Re1 O2 O1 60.0 29 . . .
O1 Re1 O2 O1 60.000(1) 33 . . 5
O1 Re1 O2 O1 180.0 25 . . .
O1 Re1 O2 O1 -60.000(0) 33 . . .
O1 Re1 O2 O1 120.000(1) . . . 5
O1 Re1 O2 O1 -60.000(1) 29 . . 9
O1 Re1 O2 O1 -120.000(1) 9 . . 5
O1 Re1 O2 O1 120.0 9 . . .
O1 Re1 O2 O1 180.000(1) 29 . . 5
O1 Re1 O2 O1 180.0 33 . . 9
O1 Re1 O2 O1 120.000(0) 5 . . 9
O2 Re1 O1 O2 90.000(0) 26 . . .
O2 Re1 O1 O2 -90.000(0) 26 . . 4
O2 Re1 O1 O2 -90.000(0) 3 . . 4
O2 Re1 O1 O2 180.000(0) 26 . . 27
O2 Re1 O1 O2 -90.000(0) 2 . . .
O2 Re1 O1 O2 -90.000(0) 28 . . 26
O2 Re1 O1 O2 0.000(0) 25 . . 4
O2 Re1 O1 O2 0.000(0) 28 . . .
O2 Re1 O1 O2 90.000(0) 2 . . 4
O2 Re1 O1 O2 90.000(0) 25 . . 26
O2 Re1 O1 O2 180.000(0) 3 . . 27
O2 Re1 O1 O2 180.000(0) 4 . . .
O2 Re1 O1 O2 -90.000(0) 25 . . 27
O2 Re1 O1 O2 0.000(0) 3 . . 26
O2 Re1 O1 O2 0.000(0) 2 . . 27
O2 Re1 O1 O2 90.000(0) 3 . . .
O2 Re1 O1 O2 180.000(0) 25 . . .
O2 Re1 O1 O2 90.000(0) 28 . . 27
O2 Re1 O1 O2 90.000(0) 4 . . 26
O2 Re1 O1 O2 -90.000(0) 4 . . 27
O2 Re1 O1 O2 180.000(0) 2 . . 26
O2 Re1 O1 O2 180.000(0) 28 . . 4
O2 Re1 O2 O1 180.000(0) 26 . . 9
O2 Re1 O2 O1 60.000(1) 26 . . 5
O2 Re1 O2 O1 -60.0 26 . . .
O2 Re1 O2 O1 180.000(0) 28 . . .
O2 Re1 O2 O1 -60.000(1) 28 . . 5
O2 Re1 O2 O1 120.000(1) 4 . . 5
O2 Re1 O2 O1 120.0 3 . . 9
O2 Re1 O2 O1 0.000(0) 2 . . 9
O2 Re1 O2 O1 -120.0 3 . . .
O2 Re1 O2 O1 -120.000(1) 2 . . 5
O2 Re1 O2 O1 0.000(0) 4 . . .
O2 Re1 O2 O1 60.000(0) 28 . . 9
O2 Re1 O2 O1 -120.000(1) 4 . . 9
O2 Re1 O2 O1 120.0 2 . . .
O2 Re1 O2 O1 0.000(1) 3 . . 5
O2 O1 O2 Re1 0.000(0) 4 . . .
O2 O1 O2 Re1 65.4(7) 26 . . .
O2 O1 O2 Re1 -65.4(7) 27 . . .
O2 O1 O2 O1 -14.1(16) 27 . . 9
O2 O1 O2 O1 51.3(9) 4 . . 9
O2 O1 O2 O1 14.1(16) 26 . . 5
O2 O1 O2 O1 116.8(2) 26 . . 9
O2 O1 O2 O1 -51.3(9) 4 . . 5
O2 O1 O2 O1 -116.8(2) 27 . . 5
C1 C1 C2 C1 14(11) 5 . . 9
C1 C1 C2 C1 -14(11) 6_566 . . 34_565
C1 C1 C2 C1 63(8) 34_565 . . 2_665
C1 C1 C2 C1 112(5) 6_566 . . 9
C1 C1 C2 C1 -126(16) 9 . . 34_565
C1 C1 C2 C1 -63(8) 9 . . 2_665
C1 C1 C2 C1 49(3) 6_566 . . 2_665
C1 C1 C2 C1 -112(5) 5 . . 34_565
C1 C1 C2 C1 -49(3) 5 . . 2_665
C1 C1 C2 C1 126(16) 34_565 . . 9
C2 C1 C2 C1 -63(8) 5 . . 34_565
C2 C1 C2 C1 0.00(3) 5 . . 2_665
C2 C1 C2 C1 63(8) 5 . . 9
