#------------------------------------------------------------------------------
#$Date: 2019-06-07 11:27:29 +0300 (Fri, 07 Jun 2019) $
#$Revision: 215755 $
#$URL: file:///home/coder/svn-repositories/cod/cif/1/55/12/1551276.cif $
#------------------------------------------------------------------------------
#
# This file is available in the Crystallography Open Database (COD),
# http://www.crystallography.net/
#
# All data on this site have been placed in the public domain by the
# contributors.
#
data_1551276
loop_
_publ_author_name
'Alexandros P. Katsoulidis'
'Dmytro Antypov'
'George F. S. Whitehead'
'Elliot J. Carrington'
'Dave J. Adams'
'Neil G. Berry'
'George R. Darling'
'Matthew S. Dyer'
'Matthew J. Rosseinsky'
_publ_section_title
;
 Chemical control of structure and guest uptake by a conformationally
 mobile porous material
;
_journal_name_full               Nature
_journal_page_first              213
_journal_page_last               217
_journal_paper_doi               10.1038/s41586-018-0820-9
_journal_volume                  565
_journal_year                    2019
_chemical_absolute_configuration rm
_chemical_formula_moiety         'C10 H13 N5 O4 Zn'
_chemical_formula_sum            'C10 H13 N5 O4 Zn'
_chemical_formula_weight         332.62
_space_group_crystal_system      monoclinic
_space_group_IT_number           4
_space_group_name_Hall           'P 2yb'
_space_group_name_H-M_alt        'P 1 21 1'
_atom_sites_solution_hydrogens   geom
_atom_sites_solution_primary     dual
_cell_angle_alpha                90
_cell_angle_beta                 112.41(5)
_cell_angle_gamma                90
_cell_formula_units_Z            2
_cell_length_a                   9.602(4)
_cell_length_b                   9.035(3)
_cell_length_c                   11.675(6)
_cell_measurement_reflns_used    673
_cell_measurement_temperature    240.00(10)
_cell_measurement_theta_max      44.7240
_cell_measurement_theta_min      4.0800
_cell_volume                     936.4(8)
_computing_cell_refinement       'CrysAlisPro 1.171.39.46 (Rigaku OD, 2018)'
_computing_data_collection       'CrysAlisPro 1.171.39.46 (Rigaku OD, 2018)'
_computing_data_reduction        'CrysAlisPro 1.171.39.46 (Rigaku OD, 2018)'
_computing_molecular_graphics    'Olex2 (Dolomanov et al., 2009)'
_computing_publication_material  'Olex2 (Dolomanov et al., 2009)'
_computing_structure_refinement  'ShelXL (Sheldrick, 2015)'
_computing_structure_solution    'ShelXT (Sheldrick, 2015)'
_diffrn_ambient_environment      N~2~
_diffrn_ambient_temperature      240.00(10)
_diffrn_detector                 'CCD plate'
_diffrn_measured_fraction_theta_full 0.945
_diffrn_measured_fraction_theta_max 0.945
_diffrn_measurement_details
;
List of Runs (angles in degrees, time in seconds):
  # Type    Start    End  Width  t~exp~   \w     \q     \k     \f   Frames
--------------------------------------------------------------------------
  1  \w     30.00  57.00   1.00    3.00    --    5.00  -9.00 -65.00   27
  2  \w    -27.00   1.00   1.00    3.00    --    5.00  57.00-180.00   28
  3  \w    -59.00 -31.00   1.00    3.00    --    5.00  -9.00 -65.00   28
  4  \w    -24.00   6.00   1.00    3.00    --    5.00  -9.00 -65.00   30
  5  \w   -130.00 -11.00   1.00    3.00    --  -44.10 -59.00 134.84  119
  6  \w    -76.00  43.00   1.00    3.00    --  -44.10  57.00 172.04  119
  7  \w    -97.00  -6.00   1.00    3.00    --  -44.10 -44.00 173.34   91
  8  \w    -55.00 -26.00   1.00    3.00    --  -44.10  48.00  76.89   29
  9  \w     16.00  41.00   1.00    3.00    --  -44.10   9.00 109.00   25
 10  \w   -125.00-100.00   1.00    3.00    --  -44.10 -44.00 173.34   25
;
_diffrn_measurement_device       'four-circle diffractometer'
_diffrn_measurement_device_type  'XtaLAB AFC11 (RINC): Kappa single'
_diffrn_measurement_method       '\w scans'
_diffrn_orient_matrix_type
'CrysAlisPro convention (1999,Acta A55,543-557)'
_diffrn_orient_matrix_UB_11      0.1067859000
_diffrn_orient_matrix_UB_12      -0.0059349000
_diffrn_orient_matrix_UB_13      -0.0703179000
_diffrn_orient_matrix_UB_21      0.1359269000
_diffrn_orient_matrix_UB_22      -0.0056325000
_diffrn_orient_matrix_UB_23      0.1243086000
_diffrn_orient_matrix_UB_31      -0.0079782000
_diffrn_orient_matrix_UB_32      -0.1706182000
_diffrn_orient_matrix_UB_33      -0.0006383000
_diffrn_radiation_monochromator  mirror
_diffrn_radiation_probe          x-ray
_diffrn_radiation_type           CuK\a
_diffrn_radiation_wavelength     1.54184
_diffrn_reflns_av_R_equivalents  0.0910
_diffrn_reflns_av_unetI/netI     0.1346
_diffrn_reflns_Laue_measured_fraction_full 0.945
_diffrn_reflns_Laue_measured_fraction_max 0.945
_diffrn_reflns_limit_h_max       8
_diffrn_reflns_limit_h_min       -8
_diffrn_reflns_limit_k_max       7
_diffrn_reflns_limit_k_min       -7
_diffrn_reflns_limit_l_max       10
_diffrn_reflns_limit_l_min       -10
_diffrn_reflns_number            2003
_diffrn_reflns_point_group_measured_fraction_full 0.825
_diffrn_reflns_point_group_measured_fraction_max 0.825
_diffrn_reflns_theta_full        44.841
_diffrn_reflns_theta_max         44.841
_diffrn_reflns_theta_min         4.096
_diffrn_source                   'Rotating-anode X-ray tube (dual wavelength)'
_diffrn_source_type              'Rigaku (Cu) X-ray DW Source'
_exptl_absorpt_coefficient_mu    1.982
_exptl_absorpt_correction_T_max  1.00000
_exptl_absorpt_correction_T_min  0.04348
_exptl_absorpt_correction_type   multi-scan
_exptl_absorpt_process_details
;
CrysAlisPro 1.171.39.46 (Rigaku Oxford Diffraction, 2018)
Empirical absorption correction using spherical harmonics,
 implemented in SCALE3 ABSPACK scaling algorithm.
;
_exptl_crystal_colour            'clear colourless'
_exptl_crystal_colour_lustre     clear
_exptl_crystal_colour_primary    colourless
_exptl_crystal_density_diffrn    1.180
_exptl_crystal_description       plate
_exptl_crystal_F_000             340
_exptl_crystal_size_max          0.196
_exptl_crystal_size_mid          0.162
_exptl_crystal_size_min          0.014
_refine_diff_density_max         0.851
_refine_diff_density_min         -0.813
_refine_diff_density_rms         0.139
_refine_ls_abs_structure_details
;
 Classical Flack method preferred over Parsons because s.u. lower.
;
_refine_ls_abs_structure_Flack   -0.2(3)
_refine_ls_extinction_coef       .
_refine_ls_extinction_method     none
_refine_ls_goodness_of_fit_ref   1.218
_refine_ls_hydrogen_treatment    constr
_refine_ls_matrix_type           full
_refine_ls_number_parameters     86
_refine_ls_number_reflns         1239
_refine_ls_number_restraints     20
_refine_ls_restrained_S_all      1.217
_refine_ls_R_factor_all          0.1664
_refine_ls_R_factor_gt           0.1235
_refine_ls_shift/su_max          0.000
_refine_ls_shift/su_mean         0.000
_refine_ls_structure_factor_coef Fsqd
_refine_ls_weighting_details
'w=1/[\s^2^(Fo^2^)+(0.2000P)^2^] where P=(Fo^2^+2Fc^2^)/3'
_refine_ls_weighting_scheme      calc
_refine_ls_wR_factor_gt          0.3175
_refine_ls_wR_factor_ref         0.3551
_reflns_Friedel_coverage         0.605
_reflns_Friedel_fraction_full    0.683
_reflns_Friedel_fraction_max     0.683
_reflns_number_gt                749
_reflns_number_total             1239
_reflns_threshold_expression     'I > 2\s(I)'
_cod_data_source_file            1000013.cif
_cod_data_source_block           PCOD1000013
_cod_database_code               1551276
_chemical_oxdiff_formula         'Zn1 C H N O'
_chemical_oxdiff_usercomment     LTH
_shelx_space_group_comment
;
The symmetry employed for this shelxl refinement is uniquely defined
by the following loop, which should always be used as a source of
symmetry information in preference to the above space-group names.
They are only intended as comments.
;
_shelx_estimated_absorpt_t_max   0.973
_shelx_estimated_absorpt_t_min   0.697
_reflns_odcompleteness_completeness 92.93
_reflns_odcompleteness_iscentric 1
_reflns_odcompleteness_theta     45.18
_olex2_refinement_description
;
1. Fixed Uiso
 At 1.2 times of:
  All C(H) groups, All C(H,H) groups, All N(H) groups, All N(H,H) groups
2. Uiso/Uaniso restraints and constraints
O1 \\sim Zn01 \\sim N00K \\sim C1AA \\sim C2AA \\sim N3 \\sim C00H \\sim C5
\\sim O005 \\sim N009 \\sim C00G \\sim C00A \\sim C00D \\sim O002 \\sim O006
\\sim C004 \\sim N003 \\sim C007 \\sim C00C \\sim N00E: within 2A with sigma of
0.01 and sigma for terminal atoms of 0.02
3. Rigid body (RIGU) restrains
 O1, Zn01, N00K, C1AA, C2AA, N3, C00H, C5, O005, N009, C00G, C00A, C00D, O002,
 O006, C004, N003, C007, C00C, N00E
 with sigma for 1-2 distances of 0.004 and sigma for 1-3 distances of 0.004
4.a Ternary CH refined with riding coordinates:
 C00G(H00G)
4.b Secondary CH2 refined with riding coordinates:
 C00D(H00A,H00B), C00H(H00D,H00E), N00K(H00F,H00H), C1AA(H1AA,H1AB)
4.c Aromatic/amide H refined with riding coordinates:
 C007(H007), N009(H009), C00C(H00C), N3(H3)
;
_shelx_res_file
;
TITL rmjr3_b.res in P2(1)
    rmjr3.res
    created by SHELXL-2018/1 at 10:48:26 on 28-Jun-2018
REM Old TITL rmjr3 in P21 #4
REM SHELXT solution in P2(1)
REM R1 0.261, Rweak 0.082, Alpha 0.052, Orientation as input
REM Flack x = 0.164 ( 0.267 ) from Parsons' quotients
REM Formula found by SHELXT: C8 N5 O7 Zn
CELL 1.54184 9.6025 9.0354 11.6746 90 112.414 90
ZERR 2 0.0037 0.0028 0.0064 0 0.054 0
LATT -1
SYMM -X,0.5+Y,-Z
SFAC C H N O Zn
UNIT 20 26 10 8 2
SIMU 0.01 0.02 2 O1 Zn01 N00K C1AA C2AA N3 C00H C5 O005 N009 C00G C00A C00D =
 O002 O006 C004 N003 C007 C00C N00E
RIGU O1 Zn01 N00K C1AA C2AA N3 C00H C5 O005 N009 C00G C00A C00D O002 O006 =
 C004 N003 C007 C00C N00E
L.S. 64
PLAN  20
SIZE 0.014 0.162 0.196
FREE C00C C007
BOND $H
LIST 6
fmap 2
ABIN
ACTA
REM <olex2.extras>
REM <HklSrc "%.\\rmjr3.hkl">
REM </olex2.extras>
WGHT    0.200000
FVAR       1.06018
ZN01  5    0.638631    0.415557    0.923696    11.00000    0.05007    0.03913 =
         0.16622    0.00016    0.05680   -0.01084
O002  4   -0.152451    0.477636   -0.011923    11.00000    0.08900
N003  3    0.354173    0.718098   -0.020228    11.00000    0.07716
C004  1    0.248237    0.617440   -0.083730    11.00000    0.07568
O005  4    0.180034    0.657360    0.275965    11.00000    0.11853
O006  4   -0.199775    0.719481   -0.057871    11.00000    0.11677
C007  1    0.320341    0.509651   -0.112438    11.00000    0.07839
AFIX  43
H007  2    0.274080    0.421311   -0.147779    11.00000   -1.20000
AFIX   0
N009  3    0.149460    0.518291    0.112298    11.00000    0.09701
AFIX  43
H009  2    0.169282    0.437651    0.082402    11.00000   -1.20000
AFIX   0
C00A  1   -0.112935    0.616930   -0.021680    11.00000    0.09509
C00C  1    0.498991    0.659212   -0.018682    11.00000    0.08286
AFIX  43
H00C  2    0.592969    0.701698    0.023372    11.00000   -1.20000
AFIX   0
C00D  1    0.092551    0.633654   -0.091525    11.00000    0.08637
AFIX  23
H00A  2    0.034172    0.553080   -0.142148    11.00000   -1.20000
H00B  2    0.052817    0.724692   -0.136021    11.00000   -1.20000
AFIX   0
N00E  3    0.474805    0.538962   -0.085112    11.00000    0.08573
C00G  1    0.061372    0.636565    0.030460    11.00000    0.09569
AFIX  13
H00G  2    0.089432    0.732910    0.071372    11.00000   -1.20000
AFIX   0
C00H  1    0.292804    0.425880    0.294406    11.00000    0.14026
AFIX  23
H00D  2    0.375044    0.413625    0.266319    11.00000   -1.20000
H00E  2    0.239297    0.332508    0.282721    11.00000   -1.20000
AFIX   0
N00K  3    0.575495    0.358619    0.740548    11.00000    0.11917
AFIX  23
H00F  2    0.657476    0.318895    0.734944    11.00000   -1.20000
H00H  2    0.510509    0.284462    0.728884    11.00000   -1.20000
AFIX   0
C5    1    0.193098    0.537404    0.222329    11.00000    0.12026
O1    4    0.459980    0.264046    0.502589    11.00000    0.16473
C1AA  1    0.519733    0.438547    0.645879    11.00000    0.13223
AFIX  23
H1AA  2    0.602440    0.502127    0.648859    11.00000   -1.20000
H1AB  2    0.450125    0.502340    0.664846    11.00000   -1.20000
AFIX   0
N3    3    0.352417    0.463449    0.423388    11.00000    0.14916
AFIX  43
H3    2    0.315085    0.544495    0.437875    11.00000   -1.20000
AFIX   0
C2AA  1    0.445156    0.407180    0.519544    11.00000    0.14497
HKLF 4
REM  rmjr3_b.res in P2(1)
REM R1 =  0.1235 for     749 Fo > 4sig(Fo)  and  0.1664 for all    1239 data
REM     86 parameters refined using     20 restraints
END
WGHT      0.2000      0.0000
REM Highest difference peak  0.851,  deepest hole -0.813,  1-sigma level  0.139
Q1    1   0.3579  0.7427  0.0680  11.00000  0.05    0.75
Q2    1   0.6271  0.5850 -0.0844  11.00000  0.05    0.60
Q3    1   0.5237  0.5032 -0.0013  11.00000  0.05    0.55
Q4    1   0.5170  0.6552  0.0670  11.00000  0.05    0.51
Q5    1   0.4681  0.6812 -0.0880  11.00000  0.05    0.50
Q6    1  -0.1855  0.4971 -0.0716  11.00000  0.05    0.43
Q7    1  -0.1349  0.4889  0.0606  11.00000  0.05    0.40
Q8    1   0.4767  0.8458  0.0042  11.00000  0.05    0.38
Q9    1   0.6459  0.7564 -0.0489  11.00000  0.05    0.37
Q10   1   0.3409  0.5101 -0.0511  11.00000  0.05    0.34
Q11   1   0.4814  0.4199  0.1609  11.00000  0.05    0.33
Q12   1   0.3350  0.7121 -0.0760  11.00000  0.05    0.33
Q13   1   0.2043  0.4244 -0.0744  11.00000  0.05    0.32
Q14   1   0.5170  0.2852  0.4631  11.00000  0.05    0.31
Q15   1   0.0127  0.3812 -0.4542  11.00000  0.05    0.30
Q16   1   0.0693  0.5386 -0.4014  11.00000  0.05    0.30
Q17   1   0.3605  0.5686  0.0450  11.00000  0.05    0.30
Q18   1   0.7002  0.3112  0.6650  11.00000  0.05    0.29
Q19   1   0.4789  0.2383  0.2194  11.00000  0.05    0.29
Q20   1   0.6728  0.5074  0.1828  11.00000  0.05    0.28
;
_shelx_res_checksum              70545
_shelx_hkl_file
;
   0  -7   2  211.58  106.96
   0  -7   3  275.48  129.76
   0  -7   4  137.33  177.92
   0  -7   5   65.61  182.96
   0  -6   0  216.90   71.18
   0  -6   1  246.43   97.88
   0  -6   2  338.88   98.53
   0  -6   3   19.81   99.57
   0  -6   4   19.37  106.50
   0  -6   5   69.91  111.23
   0  -6   6   15.59   90.39
   0  -5   0    5.08   52.03
   0  -5   1  206.50   21.28
   0  -5   1  326.35   76.22
   0  -5   2  632.12   76.27
   0  -5   3  425.58   74.80
   0  -5   4  103.38   67.39
   0  -5   7   43.99   70.00
   0  -4   0 3662.04   66.40
   0  -4   0 3505.20   77.93
   0  -4   1 1461.12   65.64
   0  -4   1 1327.37   37.34
   0  -4   2  791.21   69.59
   0  -4   3  485.86   36.62
   0  -4   3  584.32   71.69
   0  -4   5  185.90   66.61
   0  -4   6   70.49   59.71
   0  -4   7   30.99   62.02
   0  -4   8   75.32   76.58
   0  -3   0    0.79   20.14
   0  -3   0    1.53   15.65
   0  -3   1  364.71   41.24
   0  -3  -1  398.41   25.61
   0  -3   2 1248.51   56.16
   0  -3  -3  673.81   30.66
   0  -3  -4  353.98   66.43
   0  -3  -4  362.84   35.55
   0  -3   4  464.30   68.36
   0  -3  -5  267.69   35.21
   0  -3  -5  191.95   53.34
   0  -3   6   80.07   60.72
   0  -3  -6   38.22   45.54
   0  -3   7   17.39   59.52
   0  -3  -7   14.02   48.94
   0  -3  -8    0.32   55.19
   0  -3   8   40.24   62.59
   0  -3   9   -7.56   71.87
   0  -2   0 4396.46   74.71
   0  -2   0 4439.01   69.87
   0  -2  -1 2344.01   49.81
   0  -2  -2   53.68   46.24
   0  -2  -2   48.48   17.31
   0  -2  -3  138.35   23.15
   0  -2   3  176.51   40.55
   0  -2  -3  225.89   63.29
   0  -2  -4 1312.39   67.87
   0  -2   4 1129.53   65.86
   0  -2  -5  216.53   51.36
   0  -2  -5  214.86   35.80
   0  -2  -6  186.63   51.79
   0  -2   6  494.50   64.23
   0  -2   7  330.96   65.85
   0  -2  -7   77.67   56.69
   0  -2   8   87.40   55.77
   0  -2  -8   12.52   65.02
   0  -2  -9    0.38   65.14
   0  -1   1  716.06   22.40
   0  -1   1  609.08   24.40
   0  -1   2 6539.55  104.27
   0  -1   2 6596.45  107.80
   0  -1   3 5510.66  100.38
   0  -1   3 5442.71   95.13
   0  -1   4 1844.29   62.83
   0  -1   5  293.88   57.15
   0  -1  -6  165.08   54.39
   0  -1   6  242.83   58.22
   0  -1   7   43.05   52.47
   0  -1  -7   50.62   51.70
   0  -1   8   83.25   48.95
   0  -1  -8   54.92   53.35
   0  -1  -9  -19.11   54.12
   0   0   1 5276.10   75.94
   0   0  -1 5244.25   77.58
   0   0  -1 5375.62   76.88
   0   0   1 5329.81   76.48
   0   0  -2 7598.72  114.29
   0   0  -2 7449.01  113.69
   0   0   2 7509.06  110.14
   0   0   2 7318.78  111.51
   0   0   3 4060.96   72.16
   0   0  -3 4030.06   76.58
   0   0  -4  516.16   41.48
   0   0   4  535.60   38.93
   0   0  -5 1658.29   75.82
   0   0   5 1738.03   66.87
   0   0   6  641.65   54.43
   0   0  -6  556.33   62.92
   0   0   7  144.59   47.18
   0   0  -7   88.99   44.13
   0   1   0   -3.11    8.13
   0   1  -1  530.05   22.09
   0   1  -1  566.96   13.09
   0   1  -2 5555.66   88.75
   0   1   2 5633.98   80.63
   0   1  -2 5798.88   88.40
   0   1   2 5628.84   84.01
   0   1  -3 4730.49   82.00
   0   1   3 4662.09   74.64
   0   1  -3 4461.13   81.73
   0   1  -4 1553.05   50.76
   0   1   4 1784.80   47.55
   0   1  -5  235.06   48.28
   0   1   5  278.96   42.59
   0   1  -6  154.18   43.11
   0   1  -7   12.48   39.81
   0   1  -8   53.50   35.69
   0   1  -9    8.74   35.40
   0   2   0 4108.53   66.46
   0   2   1 2003.18   34.47
   0   2  -1 2058.12   39.78
   0   2  -1 1977.17   46.57
   0   2  -2   50.35   29.97
   0   2  -2   73.29   18.78
   0   2  -3  131.50   20.12
   0   2  -3  154.40   23.15
   0   2  -4  880.00   44.03
   0   2  -4  946.12   42.40
   0   2  -5  252.22   41.04
   0   2  -6  310.15   40.49
   0   2  -7  179.76   39.79
   0   2  -8   77.29   40.78
   0   2  -9   24.42   36.62
   0   3   0   -0.41   21.73
   0   3   0   -8.34   15.54
   0   3  -1  310.71   11.35
   0   3  -1  306.50   29.41
   0   3  -2 1228.53   31.31
   0   3  -2  442.61   26.87
   0   3  -3  819.38   36.53
   0   3  -3  547.87   25.08
   0   3  -4  414.04   39.55
   0   3  -5  202.58   35.25
   0   3  -5  272.44   38.79
   0   3  -6   78.40   35.73
   0   3  -7   -3.70   37.36
   0   3  -8   18.19   44.02
   0   3  -9   23.64   38.05
   0   4   0 1999.70   43.33
   0   4  -1 1570.46   48.33
   0   4  -2  957.58   39.06
   0   4  -3  583.80   39.55
   0   4  -4    3.53   31.72
   0   4  -5   96.50   37.05
   0   4  -6   55.64   39.89
   0   4  -7   20.86   43.78
   0   4  -8   85.45   53.31
   0   5   0   -4.08   35.10
   0   5  -1  302.38   33.57
   0   5  -2  847.83   43.46
   0   5  -3  569.56   38.98
   0   5  -4   59.46   36.17
   0   5  -5   56.31   39.14
   0   5  -6   -3.04   44.42
   0   5  -7    3.47   51.98
  -1  -7   5   41.39  266.69
  -1  -7   4  -56.85  169.79
  -1  -7   3   45.91   98.15
   1  -7   1  119.57  137.27
   1  -7   2  -38.52  130.96
   1  -7   3  280.47  137.21
   1  -7   4  298.34  157.03
  -1  -6   6   23.20   90.45
  -1  -6   5   90.83  121.51
  -1  -6   4   74.72  122.36
  -1  -6   3   89.21   93.77
  -1  -6   2   58.35   77.33
  -1  -6   1   68.44   80.63
   1  -6   0  657.16   34.56
   1  -6   0  762.88   93.57
   1  -6   1 1360.54  118.33
   1  -6   2 1703.33  121.35
   1  -6   3  482.67  103.08
   1  -6   4  270.85  109.91
   1  -6   5   20.88  100.25
  -1  -5   8   34.02   62.80
  -1  -5   5   11.30   82.82
  -1  -5   4  -34.94   85.98
  -1  -5   3   26.02   79.52
  -1  -5   2  170.67   76.54
  -1  -5   1  563.72   71.45
   1  -5  -1  616.67   32.55
   1  -5   0  479.12   36.54
   1  -5   0  373.45   60.66
   1  -5   1  875.19   81.48
   1  -5   1  587.85   45.21
   1  -5   2  182.07   69.70
   1  -5   3  340.58   71.01
   1  -5   6  171.20   82.29
   1  -5   7   68.90   82.28
  -1  -4   8   49.77   69.42
  -1  -4   7   40.09   68.01
  -1  -4   6    7.90   58.92
   1  -4  -5  133.29   30.20
   1  -4  -4  431.64   27.04
  -1  -4   4  392.28   76.02
  -1  -4   3  228.64   74.51
   1  -4  -3  213.11   28.67
   1  -4  -2   40.13   23.81
  -1  -4   2   67.37   64.38
   1  -4  -1   26.64   28.16
   1  -4  -1   49.38   42.49
  -1  -4   1   43.36   60.64
   1  -4   0  582.80   48.59
  -1  -4   0  594.68   44.88
   1  -4   1 1291.41   70.83
  -1  -4  -1  577.85   29.43
   1  -4   2 1104.86   73.39
   1  -4   3 1086.24   59.27
  -1  -4  -3  637.67   35.39
   1  -4   4  264.68   49.35
   1  -4   5   69.78   63.22
   1  -4   5   44.94   49.92
   1  -4   6   73.67   70.88
   1  -4   6   43.18   55.78
   1  -4   7   67.81   78.36
   1  -4   7    7.81   54.12
   1  -4   8   -1.89   80.96
  -1  -3   9    6.74   78.00
   1  -3  -9  -11.21   51.42
   1  -3  -8   19.76   52.78
  -1  -3   8  125.50   78.16
  -1  -3   7  188.03   63.14
   1  -3  -7   45.42   50.19
   1  -3  -6  108.78   48.10
  -1  -3   6  123.92   57.43
   1  -3  -5  147.44   53.94
  -1  -3   5  153.23   58.80
   1  -3  -4  399.09   59.78
   1  -3  -3 1147.03   37.01
  -1  -3   3 1375.50   50.38
   1  -3  -2 1307.35   39.53
  -1  -3   2 1239.23   56.77
   1  -3  -1 4104.06   74.01
   1  -3  -1 3942.53   84.46
  -1  -3   1 3893.40   72.54
  -1  -3   0 2999.56   63.04
   1  -3   0 3092.52   68.21
  -1  -3  -1  809.90   19.20
  -1  -3  -1  708.40   19.05
   1  -3   2  107.12   41.19
   1  -3   3  339.44   61.64
  -1  -3  -3  298.76   36.13
   1  -3   4  659.92   66.18
  -1  -3  -4  453.79   40.77
   1  -3   5  817.42   69.63
   1  -3   6  728.71   73.42
   1  -3   7  320.29   73.86
   1  -3   8   19.62   44.23
   1  -3   8   56.23   75.40
  -1  -2   9   48.26   69.05
   1  -2  -9   -3.77   65.83
  -1  -2   8   27.23   62.67
   1  -2  -8   25.99   60.34
  -1  -2   7   99.03   55.94
   1  -2  -7   42.72   52.21
  -1  -2   6  421.50   61.88
   1  -2  -6  381.95   53.48
  -1  -2   5 1046.67   66.50
   1  -2  -5 1091.48   59.95
  -1  -2   4 1307.97   45.41
  -1  -2   4 1373.46   56.75
  -1  -2   3 1281.34   41.77
   1  -2  -3 1772.28   64.48
   1  -2  -2  647.52   45.89
   1  -2  -2  700.86   29.13
  -1  -2   1   83.72   28.17
  -1  -2   1   80.06   29.40
   1  -2   0 6361.03   96.75
  -1  -2   0 6264.42   99.99
   1  -2   1 1566.05   41.04
  -1  -2  -1 1715.84   28.19
   1  -2   2 1469.55   52.53
   1  -2   3 1225.75   63.77
  -1  -2  -3 1471.03   97.90
  -1  -2  -4 1111.39   85.35
   1  -2   4 1434.69   75.56
  -1  -2  -5   26.84   53.47
   1  -2   5   39.68   57.24
  -1  -2  -6   76.17   51.85
   1  -2   6  304.70   60.94
   1  -2   7   99.62   64.04
  -1  -2  -7   12.63   55.70
   1  -2   8  141.02   66.94
  -1  -2  -8    2.67   58.40
  -1  -2  -9  -25.68   54.45
   1  -1 -10    3.11   51.88
   1  -1  -9    5.95   55.72
  -1  -1   8  175.44   56.18
   1  -1  -8  165.83   62.93
   1  -1  -7  268.74   68.06
  -1  -1   7  301.91   55.61
   1  -1  -6  478.54   82.66
  -1  -1   6  284.95   56.09
  -1  -1   5  200.04   35.22
   1  -1  -5  339.80   70.52
  -1  -1   5  226.13   47.81
  -1  -1   4 1543.19   52.52
   1  -1  -4 1449.25   50.36
  -1  -1   4 1444.42   45.32
   1  -1  -3 4163.24   78.93
  -1  -1   3 4041.13   75.68
   1  -1  -2 3586.59   65.74
  -1  -1   2 3627.30   65.47
   1  -1  -1 6654.40  101.76
   1  -1  -1 6662.16  123.64
  -1  -1   0 1373.12   27.38
   1  -1   0 1441.68   23.06
  -1  -1  -1 1261.32   47.71
   1  -1   1 1082.87   47.79
   1  -1   2   19.77   29.81
  -1  -1  -2   46.55   60.25
  -1  -1  -2   12.42   10.92
  -1  -1  -3   89.72   45.22
   1  -1   3   71.74   37.81
   1  -1   4  664.84   63.02
  -1  -1  -4  417.53   52.06
   1  -1   5  153.64   57.45
   1  -1   6  170.77   55.52
   1  -1   7   29.25   56.32
   1   0 -10    0.50   42.71
   1   0  -9    8.27   45.36
   1   0  -8   19.90   52.29
  -1   0   7  195.68   45.70
  -1   0   6  224.77   45.70
   1   0  -6  180.82   33.15
  -1   0   6  153.18   34.86
   1   0  -5 2571.05   62.19
  -1   0   5 2726.91   65.79
   1   0  -5 2696.64   70.77
  -1   0   4  418.19   31.52
   1   0  -4  392.65   29.92
  -1   0   4  479.29   34.31
   1   0  -4  397.32   27.62
   1   0  -3  212.88   22.68
  -1   0   3  146.42   27.84
  -1   0   2  650.58   26.58
   1   0  -2  704.27   24.43
  -1   0   2  664.32   23.39
   1   0  -2  679.47   23.88
   1   0  -1  681.68   16.39
   1   0  -1  714.48   17.45
   1   0   0 2653.49   41.04
   1   0   0 2592.64   43.64
  -1   0  -1 1352.36   62.56
   1   0   1 1389.71   64.34
  -1   0  -2 2609.15   58.61
   1   0   2 2339.73   50.76
  -1   0  -3   66.53   20.74
   1   0   3  104.08   27.77
  -1   0  -3   87.08   29.01
  -1   0  -4  569.32   44.69
   1   0   4  727.31   48.41
  -1   0  -5   51.58   45.25
   1   0   5   63.17   45.71
  -1   0  -6   12.52   40.06
   1   0   6   12.14   44.88
  -1   0  -7  135.51   41.43
  -1   0  -8   17.44   43.56
  -1   0  -9   19.42   44.16
   1   1  -9   53.13   42.28
   1   1  -8  150.30   43.87
   1   1  -7  244.38   44.56
   1   1  -6  196.54   34.83
  -1   1   6  245.61   36.73
   1   1  -6  227.60   40.48
   1   1  -6  252.91   42.19
  -1   1   5  242.87   38.21
   1   1  -5  166.78   33.14
  -1   1   5  134.44   27.87
   1   1  -5  192.99   39.61
   1   1  -5  169.40   34.06
   1   1  -4 1439.41   41.33
   1   1  -4 1314.45   39.82
  -1   1   4 1452.75   42.28
   1   1  -4 1373.33   40.73
   1   1  -3 4260.43   71.91
   1   1  -3 4142.22   74.63
  -1   1   3 4223.81   74.67
   1   1  -3 3988.30   72.69
   1   1  -2 3207.28   52.88
  -1   1   2 3061.32   52.67
   1   1  -2 3183.20   54.14
   1   1  -1 5798.74   84.05
   1   1  -1 5820.35   86.89
  -1   1   0 1412.67   35.87
   1   1   0 1398.73   36.99
  -1   1  -1 1001.07   27.25
  -1   1  -1  736.18   26.09
  -1   1  -2   29.67   23.00
   1   1   2   59.41   58.75
   1   1   3   50.26   29.90
  -1   1  -3   53.87   27.86
  -1   1  -3   44.97   25.02
  -1   1  -4  576.28   48.98
   1   1   4  458.78   36.46
  -1   1  -5   94.30   50.78
  -1   1  -6   85.36   40.01
  -1   1  -7   -5.03   38.11
  -1   1  -8   35.83   37.11
  -1   1  -9   -8.74   37.34
   1   2  -9   45.89   45.15
   1   2  -8   41.92   38.14
   1   2  -7   80.21   36.53
   1   2  -6  309.40   33.77
   1   2  -6  389.71   40.30
   1   2  -6  401.78   41.51
   1   2  -5  813.45   40.63
   1   2  -5 1031.73   45.26
  -1   2   5  768.11   36.16
   1   2  -5  974.15   43.60
  -1   2   4 1181.24   38.59
   1   2  -4 1250.98   39.14
   1   2  -3 1144.33   33.01
   1   2  -3 1100.01   32.82
   1   2  -3 1072.13   30.86
   1   2  -2  431.54   17.69
  -1   2   2  389.88   18.85
   1   2  -1   38.26   15.03
  -1   2   0 5228.68   75.72
  -1   2  -1 1558.26   33.59
  -1   2  -1 1509.25   33.89
  -1   2  -2 1270.08   48.63
  -1   2  -2 1122.20   36.20
  -1   2  -3 1113.03   45.16
  -1   2  -4  995.99   55.12
  -1   2  -4  777.43   53.80
  -1   2  -5   34.25   45.31
  -1   2  -6  211.59   46.16
  -1   2  -7   95.88   38.51
  -1   2  -8   83.54   37.92
   1   3  -9   33.88   47.89
   1   3  -8  134.44   46.61
   1   3  -7  249.01   40.81
   1   3  -6  255.23   39.04
   1   3  -6  152.81   34.66
   1   3  -5  185.20   29.80
   1   3  -5  200.60   37.21
   1   3  -5  110.18   25.89
   1   3  -4  283.75   27.33
   1   3  -4  444.44   43.04
   1   3  -3 1363.15   40.93
   1   3  -3  802.92   34.11
   1   3  -2 1791.10   44.28
   1   3  -2 1304.62   32.32
  -1   3   1 2863.03   45.71
   1   3  -1 2938.37   52.32
  -1   3   0 2722.91   46.28
  -1   3   0 2794.79   49.48
  -1   3  -1 1125.32   29.26
  -1   3  -1 1247.68   54.02
  -1   3  -2   86.85   29.90
  -1   3  -2   22.78   24.36
  -1   3  -2   86.79   50.50
  -1   3  -3  300.49   63.00
  -1   3  -3  274.55   43.02
  -1   3  -4  461.54   47.35
  -1   3  -5  421.66   45.98
  -1   3  -6  254.55   49.42
  -1   3  -7  111.26   42.24
  -1   3  -8    3.45   37.75
   1   4  -8   31.41   50.52
   1   4  -7   11.36   44.90
   1   4  -6   52.41   41.18
   1   4  -5  241.34   38.14
   1   4  -4 1201.46   56.71
   1   4  -3  530.56   41.97
   1   4  -3  179.42   28.50
   1   4  -2   67.80   17.96
   1   4  -2  114.12   44.95
  -1   4   2   49.60   24.22
  -1   4   1   13.62   29.16
   1   4  -1   24.28   19.64
  -1   4   0  476.49   43.28
   1   4   0  440.22   38.72
  -1   4  -1  778.01   31.82
  -1   4  -1 1087.35   61.98
  -1   4  -2  846.66   38.71
  -1   4  -2 1013.04   74.12
  -1   4  -3  579.14   41.35
  -1   4  -4  129.96   36.22
  -1   4  -5   16.70   38.94
  -1   4  -6   35.98   43.21
  -1   4  -7   -2.93   41.14
   1   5  -8   18.34   62.21
   1   5  -7   30.94   54.68
   1   5  -6   55.82   50.41
   1   5  -5    2.30   41.56
   1   5  -4   16.49   45.55
   1   5  -3  112.63   40.87
   1   5  -2  570.92   50.72
   1   5  -1  973.30   69.09
  -1   5   0  239.77   40.15
   1   5   0  252.67   37.74
   1   5   1  131.95   49.49
  -1   5  -1  472.26   53.05
   1   6  -5  161.05   57.01
   1   6  -4  320.82   52.40
   1   6  -3  612.64   60.27
   1   6  -2   42.08   45.58
   1   6  -1  323.18   48.03
   1   6   0 1113.68   59.56
   1   6   3  -40.98   70.94
  -2  -7   5   16.16  348.21
  -2  -7   4   55.96  135.27
   2  -7   2  262.17  153.85
   2  -7   3  -17.05  142.21
  -2  -6   7  -13.82   66.05
  -2  -6   6   -7.37   99.24
  -2  -6   5  -59.94  162.67
  -2  -6   4   19.30  145.57
  -2  -6   3   73.20   81.53
  -2  -6   2  100.16   53.73
   2  -6  -1  798.56   47.71
   2  -6   0   12.97   41.43
   2  -6   1  131.69  103.27
   2  -6   1   96.86   44.30
   2  -6   2  630.06  105.91
   2  -6   3  363.40  102.08
   2  -6   4  467.50  110.81
  -2  -5   6   64.66   73.91
  -2  -5   5   43.14   87.13
  -2  -5   4   14.43   94.50
  -2  -5   3  -16.98   89.10
   2  -5  -2  556.13   39.57
  -2  -5   2  141.36   68.85
   2  -5  -1 2047.86   66.55
  -2  -5   1  944.73   70.09
   2  -5   0 1821.88   86.71
   2  -5   1 3027.61  112.73
   2  -5   2 1673.26   99.56
   2  -5   3  289.53   80.38
   2  -5   5   12.69   86.03
   2  -5   6  136.16   92.80
  -2  -4   9   81.89   95.40
  -2  -4   8   96.46   73.38
  -2  -4   7   26.67   61.25
   2  -4  -5    9.53   23.71
  -2  -4   5  -29.95   60.47
  -2  -4   4  174.82   75.63
  -2  -4   3 1098.57   95.19
   2  -4  -3 1420.68   50.27
  -2  -4   2 1739.55   69.69
   2  -4  -2 1851.02   62.39
  -2  -4   1  767.45   50.62
  -2  -4   1  762.74   63.82
  -2  -4   0  311.84   49.50
   2  -4   0  353.72   65.68
   2  -4   1  942.51   76.71
  -2  -4  -1  232.63   13.47
  -2  -4  -2 1449.81   49.77
   2  -4   4 1035.69   85.48
   2  -4   4 1006.01   87.22
   2  -4   5  485.36   82.11
   2  -4   5  668.91   88.80
   2  -4   6   95.41   87.39
   2  -4   6   72.63   80.72
   2  -4   7   16.58   76.48
   2  -4   7    7.63   87.19
   2  -3  -9    1.24   42.71
  -2  -3   9   26.67   96.03
   2  -3  -8    4.52   45.74
  -2  -3   8   47.66   76.78
   2  -3  -7   14.61   50.39
  -2  -3   7   66.48   58.95
  -2  -3   6  185.88   55.76
   2  -3  -6  184.64   57.80
   2  -3  -5  559.72   38.77
   2  -3  -5  414.92   61.22
   2  -3  -4  320.83   34.09
   2  -3  -4  187.49   44.34
  -2  -3   3  234.02   59.29
   2  -3  -3  332.63   42.17
  -2  -3   3  264.48   43.89
  -2  -3   2  196.79   54.07
  -2  -3   2  241.12   47.27
   2  -3  -2  226.36   32.72
  -2  -3   1 1054.89   55.15
  -2  -3   1  946.94   52.59
   2  -3  -1 1003.29   33.13
   2  -3   0  857.52   68.65
  -2  -3   0  692.25   36.58
  -2  -3   0 1338.21   47.61
  -2  -3   0 1130.61   41.80
  -2  -3  -1  593.47   24.03
  -2  -3  -1  267.27   11.30
   2  -3   2  676.93   82.74
  -2  -3  -2  347.98   35.11
   2  -3   3  411.48   74.72
   2  -3   3  508.16   63.10
   2  -3   4   96.57   70.29
   2  -3   4   91.78   46.18
   2  -3   5  166.19   75.52
   2  -3   5   64.69   48.50
   2  -3   6   82.95   82.65
   2  -3   6   55.43   51.15
   2  -3   7  317.62   89.78
   2  -3   7  152.88   57.89
  -2  -2  10   -2.67   74.24
   2  -2 -10    4.79   49.18
   2  -2  -9   -6.63   48.89
  -2  -2   9   52.46   82.97
  -2  -2   8   16.04   70.14
   2  -2  -8   -6.76   49.73
   2  -2  -7    4.63   49.70
  -2  -2   7   39.64   60.15
   2  -2  -6  179.50   50.49
  -2  -2   6   91.36   50.71
   2  -2  -5 1663.59   70.67
   2  -2  -5 1707.18   69.87
   2  -2  -4 1635.43   47.62
  -2  -2   4 1705.11   56.51
   2  -2  -3 1248.09   42.92
   2  -2  -3 1188.46   50.22
   2  -2  -2 3034.01   65.57
  -2  -2   2 2946.61   70.47
   2  -2  -2 3178.02   61.31
  -2  -2   1 8478.19  129.03
  -2  -2   1 8680.70  140.37
  -2  -2   0  243.04   37.60
   2  -2   0  195.31   20.16
  -2  -2  -1  233.18   22.55
   2  -2   1  171.94   10.63
  -2  -2  -1  296.08   33.78
   2  -2   1  230.46   56.17
   2  -2   2  107.76   39.19
   2  -2   2  116.62   58.24
  -2  -2  -2   92.29   25.98
   2  -2   3  597.32   47.82
   2  -2   3  603.72   75.06
   2  -2   4 1096.22   84.48
   2  -2   5  427.38   75.79
   2  -2   6    8.26   75.72
   2  -2   7    0.41   48.24
   2  -2   7   17.08   77.90
   2  -2   8   -8.24   50.38
   2  -1 -10  -14.43   48.81
   2  -1  -9  -21.56   58.43
  -2  -1   9  -10.16   59.81
   2  -1  -8   67.72   66.81
  -2  -1   8  122.10   64.03
  -2  -1   7  404.81   59.63
   2  -1  -7  741.47   89.33
  -2  -1   6  932.25   71.91
   2  -1  -6  895.44   56.50
  -2  -1   5 1081.27   72.10
  -2  -1   5 1279.68   62.82
   2  -1  -4  200.82   37.61
  -2  -1   4  163.20   37.49
   2  -1  -3 1705.19   44.91
   2  -1  -3 1261.12   49.79
   2  -1  -3 1232.31   38.82
  -2  -1   3 1394.76   43.02
  -2  -1   3 1807.04   44.44
   2  -1  -2 3217.36   54.27
   2  -1  -2 2081.06   44.65
  -2  -1   1 9510.84  140.07
   2  -1  -1 9794.87  140.33
   2  -1   0  550.62  103.63
   2  -1   0  929.09   28.36
   2  -1   1 1237.65   88.92
  -2  -1  -1 1623.16   36.52
  -2  -1  -2  382.65   29.06
   2  -1   2  325.16   56.48
  -2  -1  -2  390.42   65.56
   2  -1   3   79.83   56.74
  -2  -1  -3   51.74   28.12
  -2  -1  -3   60.47   61.88
  -2  -1  -3   46.89   17.06
   2  -1   4  205.03   62.30
  -2  -1  -4  100.32   52.47
   2  -1   5  393.36   69.79
  -2  -1  -5  165.58   48.96
  -2  -1  -6   93.93   48.79
   2  -1   6  314.62   72.17
  -2  -1  -7   42.56   50.12
  -2  -1  -8    3.66   47.97
   2   0 -10   15.26   49.88
   2   0  -9   58.60   60.46
   2   0  -8  276.90   58.69
  -2   0   8  286.03   53.04
   2   0  -7   61.19   50.52
   2   0  -7   49.64   37.22
  -2   0   7   71.82   46.00
   2   0  -6  236.45   40.11
   2   0  -6  322.78   53.67
  -2   0   6  269.21   69.36
   2   0  -5   42.39   40.77
  -2   0   5   -6.27   56.78
   2   0  -5   17.96   34.67
   2   0  -4    2.00   25.74
   2   0  -4   19.47   26.12
  -2   0   4    6.03   40.52
   2   0  -3 2369.92   52.28
   2   0  -3 1907.25   46.29
   2   0  -3 1976.74   43.73
  -2   0   3 2625.21   64.81
   2   0  -3 1690.09   46.81
   2   0  -2 2170.55   44.45
   2   0  -2 1526.01   37.55
   2   0   0  570.12   22.39
   2   0   0  585.37   26.06
  -2   0  -1    2.20   13.73
   2   0   1   -2.68   22.20
  -2   0  -1   13.51   40.16
  -2   0  -2  509.68   27.35
  -2   0  -2  626.64   46.92
   2   0   2  547.39   72.62
   2   0   3   75.50   53.00
  -2   0  -3   76.23   36.39
  -2   0  -3   83.33   22.75
  -2   0  -4  161.80   26.86
  -2   0  -4  131.49   39.83
   2   0   4  203.74   54.54
   2   0   5  134.29   53.29
  -2   0  -5  101.35   38.17
  -2   0  -6   63.07   42.37
  -2   0  -7   33.01   47.59
  -2   0  -8  -27.36   47.52
   2   1 -10   -2.80   47.72
   2   1  -9   17.92   50.52
  -2   1   7  381.88   41.16
   2   1  -7  347.42   40.59
  -2   1   6 1108.57   62.92
   2   1  -6  969.22   47.90
  -2   1   5 1532.96   69.65
  -2   1   4  306.99   50.71
   2   1  -4  140.71   28.04
   2   1  -3 1226.62   35.78
  -2   1   3 1233.18   32.82
   2   1  -2 2620.57   49.29
   2   1  -2 2691.65   48.04
  -2   1   1 9999.00  146.50
   2   1  -1 9894.62  148.56
   2   1   0  983.28   29.23
   2   1   0  968.85   33.06
  -2   1  -1 1691.30   46.43
   2   1   1 1776.23   42.07
  -2   1  -2  282.77   25.14
  -2   1  -2  275.56   23.21
  -2   1  -3   57.53   29.85
  -2   1  -3   74.35   32.34
  -2   1  -3   49.51   28.58
  -2   1  -4  140.45   34.73
  -2   1  -4  140.48   32.59
  -2   1  -5  258.88   40.35
  -2   1  -6  186.45   41.60
  -2   1  -7  151.41   47.58
  -2   1  -8   23.59   45.45
   2   2 -10   -5.35   49.65
   2   2  -9    0.52   47.04
   2   2  -8   32.09   40.30
   2   2  -7   36.49   37.76
   2   2  -7   18.87   32.73
   2   2  -6  223.59   36.63
   2   2  -6  196.60   40.03
  -2   2   6  158.38   35.43
   2   2  -5 1660.89   61.77
  -2   2   5 1532.88   55.75
   2   2  -4 1784.12   50.18
   2   2  -4 1669.64   50.26
   2   2  -3  826.82   29.47
   2   2  -3  905.23   28.43
  -2   2   3  929.07   30.29
   2   2  -2 2198.21   44.36
  -2   2   1 5736.31   93.95
   2   2  -1 6142.81   97.95
   2   2   0  156.68   28.83
   2   2   1  347.86   40.28
  -2   2  -1  113.76   20.40
  -2   2  -2   57.57   24.58
  -2   2  -2   58.29   21.94
  -2   2  -3  667.26   51.22
  -2   2  -3  487.90   38.62
  -2   2  -4  641.30   45.59
  -2   2  -4  585.40   48.81
  -2   2  -5  260.09   43.69
  -2   2  -6   14.40   42.16
  -2   2  -7    2.58   42.84
   2   2   8    7.64   49.52
  -2   2  -8   19.01   42.53
   2   3  -9   11.47   45.67
   2   3  -8   57.93   44.12
   2   3  -7  204.80   39.88
   2   3  -7  247.00   44.18
   2   3  -6  722.22   45.82
   2   3  -6  810.36   45.70
   2   3  -5  950.14   51.51
   2   3  -5  643.58   47.57
   2   3  -4  246.83   27.94
   2   3  -4  311.22   31.34
   2   3  -3  194.25   20.29
   2   3  -3  120.24   21.54
  -2   3   3  185.39   23.78
  -2   3   2  174.14   21.21
   2   3  -2  176.74   19.88
   2   3  -1  784.30   33.29
  -2   3   1  595.85   26.67
  -2   3   0  728.55   34.11
   2   3   0  744.87   47.28
  -2   3  -1  129.70   24.68
   2   3   2  949.35   56.77
  -2   3  -2  899.67   70.02
  -2   3  -3  237.31   42.29
  -2   3  -4   77.87   39.99
  -2   3  -5   46.24   42.26
  -2   3  -6   41.56   40.73
  -2   3  -7   92.30   42.30
   2   3   7   63.46   44.60
   2   4  -9  160.00   49.13
   2   4  -8  221.74   49.69
   2   4  -7  137.88   44.76
   2   4  -6   42.70   35.59
   2   4  -5   15.39   38.05
   2   4  -4  235.84   33.37
   2   4  -4  591.72   39.89
   2   4  -3 2024.30   57.41
   2   4  -3 1094.67   36.49
   2   4  -2 1207.69   37.52
  -2   4   2 1280.56   35.33
   2   4  -1  702.29   39.87
  -2   4   0  216.02   27.78
   2   4   0  191.20   46.62
   2   4   1  295.91   68.48
  -2   4  -1 1140.98   80.45
   2   5  -8    7.81   50.79
   2   5  -7   71.76   51.25
   2   5  -6  291.95   51.77
   2   5  -5  449.89   56.78
   2   5  -4  142.61   41.48
   2   5  -3  135.89   43.15
   2   5  -2  523.47   32.50
   2   5  -2  995.35   66.77
   2   5  -1 1266.65   50.07
  -2   5   0 1578.68   73.22
   2   5   0 1010.66   56.48
   2   5   1  664.84   61.55
   2   5   2  162.17   71.42
   2   6  -7   28.46   72.17
   2   6  -6   56.14   67.11
   2   6  -5  142.47   69.31
   2   6  -4  781.36   85.08
   2   6  -3 1733.00   94.12
   2   6  -2 1672.28   92.97
   2   6  -1 1739.30   95.43
   2   6   1   54.99   52.17
   2   6   2   76.03   64.44
   2   6   3   16.66   78.56
   2   6   4   12.08   72.42
   2   6   5    7.48   65.83
  -3  -6   7   -0.48   79.60
  -3  -6   6   -5.68  127.13
  -3  -6   5  -22.45  187.17
  -3  -6   4   44.13  142.16
  -3  -6   3   23.41   72.72
   3  -6  -2  733.84   54.23
   3  -6  -1 1532.08   72.94
   3  -6   0  934.56   61.96
   3  -6   2   21.17  102.36
   3  -6   3  131.68  111.42
  -3  -5   7    5.56   62.71
  -3  -5   6   19.41   70.24
  -3  -5   5   62.89   92.93
  -3  -5   4  206.53  123.05
   3  -5  -3  145.18   37.34
  -3  -5   3   12.91   91.06
   3  -5  -2   57.68   40.45
  -3  -5   2   -4.30   54.17
   3  -5  -1  380.58   46.43
   3  -5   1  850.00   90.03
   3  -5   2  771.53   97.26
   3  -5   4  147.16   97.90
   3  -5   5   30.24  101.56
  -3  -4   9   21.78   91.63
  -3  -4   8   24.48   68.05
  -3  -4   6   29.21   51.70
  -3  -4   5   27.36   55.49
   3  -4  -4   54.65   31.85
  -3  -4   4   28.70   68.10
  -3  -4   3  175.09   85.65
   3  -4  -3  268.05   47.04
   3  -4  -2 1885.45   72.31
  -3  -4   2 1730.77   92.41
   3  -4  -1 1908.76   60.16
  -3  -4   1 1739.61   72.21
   3  -4   3  172.18   81.64
   3  -4   4  180.29   89.09
   3  -4   5  388.33  105.74
   3  -4   6  252.90  110.84
  -3  -3   9   -7.47  101.14
  -3  -3   8   18.69   76.85
  -3  -3   7    7.57   55.11
   3  -3  -7   -1.04   54.07
   3  -3  -6  254.85   66.71
   3  -3  -5  882.47   50.32
   3  -3  -5  603.44   41.06
   3  -3  -4 1090.57   50.44
  -3  -3   4  847.31   69.54
  -3  -3   3 1330.51   88.11
   3  -3  -3 1217.59   49.12
  -3  -3   2 1456.46   45.04
  -3  -3   2 1775.60  104.92
   3  -3  -1   55.91   20.77
   3  -3  -1   66.91   28.55
  -3  -3   1  127.08   95.10
  -3  -3   0  169.31   34.68
  -3  -3   0  315.48   55.00
   3  -3   1  123.77   94.04
   3  -3   2  705.89   98.66
   3  -3   3  750.82   81.45
   3  -3   3  249.99   80.70
   3  -3   4   74.52   84.24
   3  -3   4  145.15   67.87
   3  -3   5   10.23   88.07
   3  -3   5   15.32   66.59
   3  -3   6   12.88   70.77
   3  -3   6   -2.68  103.28
   3  -3   7  -30.06   73.37
   3  -3   7  -16.14   95.15
   3  -2 -10  -17.96   35.45
  -3  -2  10   40.11   90.81
  -3  -2   9    0.52   94.44
   3  -2  -9   20.46   35.42
  -3  -2   8  121.18   82.26
   3  -2  -8   29.62   39.12
   3  -2  -7  126.03   46.04
  -3  -2   7  234.15   62.64
  -3  -2   6  488.58   66.08
   3  -2  -6  387.07   62.70
   3  -2  -5  246.20   39.93
   3  -2  -5  347.39   52.02
   3  -2  -5  257.73   58.83
  -3  -2   5  187.27   57.34
   3  -2  -4   65.28   46.77
   3  -2  -4   27.26   30.88
   3  -2  -4   33.73   39.58
   3  -2  -4   23.45   48.75
   3  -2  -3  552.27   36.99
  -3  -2   3  433.51   43.45
   3  -2  -2 1417.09   52.12
  -3  -2   2 1558.48   50.78
  -3  -2   1 4022.75   73.29
   3  -2  -1 3913.55   68.07
  -3  -2   1 4052.57   82.35
   3  -2   0 2164.29   40.05
   3  -2   0 2129.75   54.24
   3  -2   1  323.13   21.24
   3  -2   1  157.75  111.50
   3  -2   2   76.19   67.47
   3  -2   2   49.80   29.72
   3  -2   2   36.76   91.86
   3  -2   3  328.56   36.68
   3  -2   3  252.86   80.38
   3  -2   4  181.01   52.95
   3  -2   4   77.40   73.63
   3  -2   5  318.65   56.38
   3  -2   5  196.80   89.74
   3  -2   6  165.15   62.94
   3  -2   6  156.13   98.30
   3  -2   7   11.79   65.48
  -3  -1  10   10.67   63.35
   3  -1 -10   -2.04   43.69
  -3  -1   9   11.48   73.82
   3  -1  -9   -6.79   48.98
   3  -1  -8   18.78   56.26
   3  -1  -8   22.91   43.97
  -3  -1   8    4.78   68.75
   3  -1  -7   80.96   52.67
  -3  -1   7   49.57   78.30
   3  -1  -6  320.46   54.31
  -3  -1   6  351.45   79.12
   3  -1  -5  407.75   48.09
  -3  -1   5  567.86   74.10
   3  -1  -4  642.30   35.99
   3  -1  -4  555.12   50.97
   3  -1  -4  762.31   36.64
  -3  -1   4  949.33   60.90
  -3  -1   4  933.82   47.33
   3  -1  -3  410.64   25.42
   3  -1  -3  417.49   32.18
  -3  -1   3  435.96   29.30
   3  -1  -3  380.34   26.02
   3  -1  -2 3102.11   49.61
  -3  -1   2 2762.13   47.83
   3  -1  -1  784.12   27.15
  -3  -1   1  921.61   34.08
   3  -1   0 1410.35   45.25
   3  -1   1 2242.12   61.69
  -3  -1  -2  740.91   39.80
   3  -1   2  245.09  104.43
  -3  -1  -3  938.15   31.19
   3  -1   3  270.41   82.13
   3  -1   4   55.38   68.05
  -3  -1  -4   66.62   42.65
   3  -1   5   13.09   67.31
  -3  -1  -5    3.26   38.81
   3   0 -10   19.44   57.69
   3   0  -9   -0.92   56.73
  -3   0   9   -6.19   52.09
   3   0  -8  187.66   51.34
  -3   0   8  193.75   56.93
   3   0  -8  168.41   44.05
   3   0  -7  132.71   45.55
   3   0  -7  103.61   38.31
  -3   0   7  142.91   78.29
   3   0  -6  188.46   45.76
   3   0  -6  142.55   38.25
   3   0  -5   20.67   36.94
   3   0  -5    0.12   37.65
   3   0  -5    8.60   44.89
  -3   0   5   53.20   93.38
   3   0  -4   52.06   30.12
   3   0  -4   48.28   28.74
   3   0  -4   41.89   31.43
  -3   0   4  118.79   75.11
   3   0  -4   61.83   28.93
   3   0  -3  193.50   27.16
   3   0  -3  177.50   22.68
   3   0  -3  155.74   22.28
   3   0  -1 1333.65   37.53
   3   0   0  175.92   21.28
   3   0   0  187.14   23.92
   3   0   1  -22.46   41.83
   3   0   1   -8.08   27.68
  -3   0  -2   57.72   50.52
   3   0   2   92.18   47.56
  -3   0  -3  206.13   31.35
  -3   0  -3  112.75   44.62
  -3   0  -4  353.90   27.08
  -3   0  -4  226.39   41.10
   3   0   5  191.73   47.13
  -3   0  -5   63.97   37.94
   3   0   6  171.69   53.48
  -3   0  -6   68.11   44.61
   3   0   7  -21.17   57.80
  -3   0  -7   -2.11   46.02
   3   1 -10   23.87   58.74
   3   1  -9    9.05   44.97
   3   1  -9   31.38   53.75
   3   1  -8   45.21   37.05
   3   1  -8   51.94   44.91
  -3   1   8   34.20   41.13
   3   1  -7   66.31   42.04
   3   1  -7   64.07   37.84
  -3   1   7   45.59   49.38
   3   1  -6  256.36   38.99
   3   1  -6  352.59   43.47
   3   1  -5  351.94   42.57
   3   1  -5  346.65   47.53
   3   1  -5  506.27   48.26
  -3   1   5  570.14   70.91
   3   1  -4  662.20   38.37
   3   1  -4  643.05   38.98
   3   1  -4  764.69   38.25
   3   1  -3  375.94   28.74
   3   1  -3  427.47   28.68
   3   1  -3  371.83   29.02
  -3   1   2 2840.89   57.04
   3   1  -2 3001.45   59.01
  -3   1   1  784.93   31.30
   3   1  -1 1025.54   31.18
   3   1   0 1434.29   40.18
   3   1   1 2966.97   79.62
   3   1   2 1538.72   65.76
  -3   1  -2  733.38   49.73
   3   1   3 1389.89   59.83
  -3   1  -3 1318.62   53.61
   3   1   4  255.98   45.12
  -3   1  -4  138.68   35.84
   3   1   5    4.76   43.31
  -3   1  -5  -16.65   38.68
   3   1   6   17.98   50.92
  -3   1  -6   27.53   46.46
   3   1   7   65.78   58.92
  -3   1  -7   38.42   49.14
   3   2 -10    1.46   49.80
   3   2  -9   51.95   44.03
   3   2  -8  213.37   39.74
   3   2  -7  452.89   42.62
  -3   2   7  335.90   41.48
   3   2  -6  688.18   52.32
  -3   2   6  632.61   44.14
   3   2  -5  217.10   36.62
   3   2  -5  266.71   37.31
  -3   2   5  248.37   40.63
   3   2  -4   24.41   29.15
   3   2  -4   36.50   26.34
  -3   2   4   28.13   28.36
   3   2  -3  440.64   28.81
  -3   2   3  412.61   30.36
   3   2  -2 1384.62   37.18
  -3   2   2 1166.78   35.64
   3   2  -1 3544.16   71.41
  -3   2   1 3412.40   70.00
   3   2   0 2410.71   63.75
   3   2   1  269.61   54.61
  -3   2  -1  105.18   25.57
   3   2   2   52.13   64.49
  -3   2  -2   24.90   32.78
   3   2   3  611.57   55.43
  -3   2  -3  588.89   50.34
   3   2   4  145.50   41.28
  -3   2  -4   62.39   33.69
   3   2   5  264.28   45.08
  -3   2  -5  197.41   42.87
   3   2   6  127.45   51.66
  -3   2  -6  108.29   50.03
   3   2   7  -34.89   58.20
  -3   2  -7   17.85   47.99
   3   3  -9   10.66   43.18
   3   3  -8    8.57   41.53
   3   3  -8   17.54   38.47
   3   3  -7   25.37   35.14
   3   3  -7   46.41   36.01
   3   3  -6  180.97   40.75
   3   3  -6  415.03   43.29
   3   3  -5  486.41   34.44
   3   3  -5  501.55   36.32
   3   3  -4  832.87   35.13
   3   3  -4 1158.43   44.56
   3   3  -3  990.81   37.46
  -3   3   3  976.39   39.48
   3   3  -2  728.95   29.18
   3   3  -2  979.31   38.48
  -3   3   1   50.80   30.79
   3   3  -1   58.62   37.04
   3   3   0  263.38   49.92
  -3   3   0  204.74   38.36
   3   3   1  173.82   67.57
   3   3   2 2116.48  103.52
   3   3   3  503.13   62.92
  -3   3  -3  193.71   28.70
   3   3   4   58.97   47.08
  -3   3  -4   27.80   30.31
   3   3   5   16.96   43.89
   3   3   6  -15.76   52.08
   3   4  -9   14.44   40.53
   3   4  -8  145.68   43.34
   3   4  -7  224.75   39.43
   3   4  -6  190.09   38.86
   3   4  -5   31.98   28.74
   3   4  -5  151.57   30.58
   3   4  -4   47.12   21.89
   3   4  -4   82.84   30.99
   3   4  -3  151.93   25.62
   3   4  -3  210.07   37.64
   3   4  -2 1247.43   45.95
   3   4  -1 1323.67   60.01
   3   4   0  867.26   62.61
   3   4   1  134.32   64.38
   3   4   2   -6.41   65.47
   3   5  -8  -22.12   43.67
   3   5  -7   46.48   41.88
   3   5  -6  321.92   49.76
   3   5  -5  635.33   47.46
   3   5  -4 1008.33   55.04
   3   5  -3   95.27   24.96
   3   5  -3  214.86   50.22
   3   5  -2   41.67   27.83
   3   5  -1  339.29   41.69
   3   5   0  426.50   51.93
   3   5   1  253.06   61.16
   3   5   2  145.26   73.12
   3   5   3   46.86   76.54
   3   5   4   -1.88   64.32
   3   5   5   -5.33   57.54
   3   6  -7   29.65   59.31
   3   6  -6   87.32   64.74
   3   6  -5   92.32   69.71
   3   6  -4  207.37   69.42
   3   6  -3 1161.91   88.61
   3   6  -2 1493.73  110.41
   3   6   0  611.52   61.78
   3   6   1  140.85   63.59
   3   6   2   -7.20   72.61
   3   6   3   -0.57   78.24
   3   6   4  -15.67   67.94
   3   7  -5  360.86  115.78
   3   7  -4  526.83  108.01
   3   7  -3  486.72   96.13
   3   7  -2  237.75   78.34
   3   7  -1  118.74   76.31
   3   7   0   29.17   60.19
   4  -7  -2  245.44   40.40
   4  -7  -1  269.60   43.88
  -4  -6   6   -9.24  134.32
  -4  -6   5  -11.63  174.28
  -4  -6   4   90.63  108.58
   4  -6  -3    2.81   38.61
   4  -6  -2   62.62   44.90
   4  -6  -1  167.07   44.98
   4  -6   0  247.96   42.72
  -4  -5   8  -12.48   64.78
  -4  -5   7   -3.74   65.14
  -4  -5   6   28.85   79.95
  -4  -5   5    2.22  100.38
   4  -5  -4  501.45   49.80
  -4  -5   4  291.52  127.58
   4  -5  -3 1343.56   72.15
  -4  -5   3  489.69   98.07
   4  -5  -2 2251.57   82.86
  -4  -4   9   34.56   96.43
  -4  -4   7   53.68   56.48
  -4  -4   6   99.57   50.73
  -4  -4   5  161.26   57.73
  -4  -4   4   78.27   72.73
  -4  -4   3  689.60  111.53
  -4  -4   2  726.49   90.94
   4  -4  -2  787.51   50.98
  -4  -4   1  361.14   40.72
  -4  -3   9   53.41  123.55
  -4  -3   8   44.29   81.49
   4  -3  -6   10.30   47.73
   4  -3  -5  139.58   43.98
   4  -3  -5   79.14   29.53
  -4  -3   5   66.36   53.52
   4  -3  -4  607.07   48.69
  -4  -3   4  557.35   62.10
   4  -3  -4  596.26   45.98
   4  -3  -3 1192.17   60.43
  -4  -3   3 1090.06   76.01
   4  -3  -3 1019.08   47.46
  -4  -3   2 2899.82  127.16
   4  -3  -2 2697.10   79.28
  -4  -3   1  487.43   49.38
   4  -3  -1  559.50   42.56
  -4  -3   1  458.37  106.85
  -4  -3   0   24.71   34.60
  -4  -3   0    8.39   53.30
  -4  -2  10   33.01   98.56
  -4  -2   9   46.90  107.16
   4  -2  -8   87.00   54.84
   4  -2  -8    5.70   28.63
  -4  -2   8   45.89   94.68
   4  -2  -7   77.15   39.34
   4  -2  -7  204.52   50.23
  -4  -2   7  196.99   89.45
  -4  -2   6  340.82   74.52
   4  -2  -6  245.09   48.57
   4  -2  -5 1022.88   56.80
   4  -2  -5 1281.99   61.84
   4  -2  -4  628.10   42.13
   4  -2  -4  573.93   50.04
  -4  -2   4  611.38   62.00
   4  -2  -3   62.54   37.44
  -4  -2   3   76.59   52.40
   4  -2  -2  481.34   30.80
  -4  -2   2  320.79   57.61
   4  -2  -1  528.06   32.67
  -4  -2   1  502.38   43.29
   4  -2  -1  409.11   20.49
  -4  -2   1  369.89   58.42
   4  -2   0 1416.41   36.20
   4  -2   1 1411.85   39.51
   4  -2   2  556.87   36.20
   4  -2   3  160.82   69.12
   4  -2   4   42.77   71.26
   4  -2   5  -21.22   77.61
   4  -2   6  165.33   85.46
  -4  -1  10   44.97   65.08
   4  -1 -10    4.91   35.06
   4  -1  -9    8.93   41.33
  -4  -1   9   94.43   77.13
   4  -1  -8   45.50   37.95
  -4  -1   8  144.20  100.98
   4  -1  -7  104.90   36.43
  -4  -1   7  372.40  107.07
   4  -1  -6   -0.12   32.71
  -4  -1   6    9.79  103.34
   4  -1  -5   71.02   28.86
   4  -1  -5   72.51   26.81
   4  -1  -5  132.89   39.18
   4  -1  -5   56.09   48.69
   4  -1  -4  585.36   36.26
   4  -1  -4  678.61   34.85
   4  -1  -3  337.30   34.14
   4  -1  -3  286.54   23.06
   4  -1  -2 3954.99   76.22
  -4  -1   2 4377.28   81.97
  -4  -1   1 1025.46   47.32
   4  -1  -1 1083.70   37.72
   4  -1   0  264.44   41.58
   4  -1   1  138.48   40.43
   4  -1   2  307.41   39.91
   4  -1   3  207.88   35.94
   4  -1   4  119.37   37.08
   4   0 -10   12.38   55.24
   4   0  -9   12.70   48.17
  -4   0   9   19.83   51.95
   4   0  -9   32.97   48.75
   4   0  -8   -8.46   40.60
   4   0  -8   13.21   42.50
  -4   0   8   -4.32   70.26
   4   0  -7  185.00   41.10
   4   0  -7  208.45   46.78
  -4   0   7  265.45   82.29
   4   0  -6  710.77   70.07
   4   0  -6  745.49   45.60
   4   0  -5  163.94   41.06
  -4   0   5  274.47  112.65
   4   0  -5  132.10   39.04
   4   0  -4    1.30   32.73
   4   0  -4   26.35   31.39
   4   0  -3   49.60   28.20
   4   0  -3   66.35   31.73
   4   0  -2 2237.58   55.76
   4   0  -1 5467.80   96.18
   4   0  -1 5486.71  102.52
   4   0   0 1516.84   50.43
   4   0   0 1835.45   54.05
   4   0   1  425.44   40.72
   4   0   2  508.46   73.69
   4   0   2  226.15   41.57
   4   0   3  266.86   66.89
   4   0   3  109.99   40.56
   4   0   4    0.48   60.78
   4   0   4   -9.95   39.25
   4   0   5   -9.53   69.03
   4   0   5    5.08   41.76
   4   0   6   45.06   74.50
   4   0   6   21.52   45.71
   4   1 -10    8.03   55.72
   4   1  -9   35.31   51.49
   4   1  -9   28.71   44.28
   4   1  -8  138.51   47.13
  -4   1   8  125.46   48.04
   4   1  -8  188.53   43.47
   4   1  -7  308.78   42.72
  -4   1   7  302.42   53.07
   4   1  -6   48.49   43.87
   4   1  -6   40.92   41.95
  -4   1   6   32.30   53.97
   4   1  -5   86.23   36.65
   4   1  -5  120.20   39.78
  -4   1   5  154.60   65.27
   4   1  -5  122.30   36.18
   4   1  -4  644.55   40.18
   4   1  -4  668.16   42.94
   4   1  -3  202.69   29.46
   4   1  -3  345.76   34.02
  -4   1   2 3504.54   71.27
  -4   1   1  795.66   39.41
   4   1  -1 1145.79   38.87
   4   1   0  155.35   31.57
   4   1   1   91.15   38.87
   4   1   2  717.90   82.98
   4   1   2  184.91   48.98
   4   1   3  415.35   68.73
   4   1   3  136.89   46.44
   4   1   4  275.08   63.47
   4   1   5  119.13   67.98
   4   1   6   44.61   75.64
   4   1   6   -4.31   50.97
   4   2 -10   27.91   41.31
   4   2 -10   18.12   51.72
   4   2  -9   -4.93   49.18
   4   2  -9   -0.24   37.05
   4   2  -8   54.87   44.05
   4   2  -8   40.45   37.64
   4   2  -7  211.20   39.78
  -4   2   7  157.12   35.36
   4   2  -6  307.17   41.66
  -4   2   6  371.04   39.20
   4   2  -5  842.03   45.62
   4   2  -5  846.02   44.45
   4   2  -4  494.94   34.66
   4   2  -4  799.90   47.17
   4   2  -3   91.60   29.52
   4   2  -2  444.69   32.05
   4   2  -2  594.73   34.16
   4   2  -1  544.87   37.63
   4   2  -1  684.31   40.38
   4   2   0 1850.52   60.57
   4   2   3  143.64   70.34
   4   2   3   13.37   47.59
   4   2   4    5.10   61.75
   4   2   5  -46.87   66.28
   4   2   6  121.97   73.44
   4   2   6   28.08   57.35
   4   3  -9   33.05   37.80
   4   3  -8   95.53   38.12
   4   3  -6   -1.87   29.27
  -4   3   6    6.13   27.91
   4   3  -5   71.33   26.37
   4   3  -4  369.14   29.39
   4   3  -3  705.13   36.67
   4   3  -2 1514.68   51.98
   4   3  -2 1783.86   48.54
   4   3  -1  457.88   44.17
   4   3   0   33.91   42.60
   4   3   1  203.18   56.97
   4   3   2  115.48   59.67
   4   3   4  402.17   71.98
   4   3   5  113.38   65.78
   4   3   5   11.87   55.05
   4   3   6   31.50   57.88
   4   4  -9   12.84   37.59
   4   4  -8    5.59   36.58
   4   4  -7  255.89   40.19
   4   4  -6  438.16   39.37
   4   4  -6   67.45   34.24
   4   4  -5  416.30   37.25
   4   4  -5  103.96   27.35
   4   4  -4   54.12   22.70
   4   4  -4  139.99   41.46
   4   4  -3  284.63   32.64
   4   4  -3  389.43   42.68
   4   4  -2  463.99   39.59
   4   4  -1  481.61   49.40
   4   4   0  590.94   63.89
   4   4   1  395.21   68.29
   4   4   2   86.38   62.77
   4   4   3   14.84   55.32
   4   4   4   14.61   55.50
   4   4   5    2.95   55.46
   4   5  -8    2.65   38.46
   4   5  -7   68.87   40.21
   4   5  -6   46.53   41.38
   4   5  -5    9.00   32.95
   4   5  -5   68.48   37.78
   4   5  -4  180.30   32.75
   4   5  -4  717.51   52.40
   4   5  -3  719.41   48.41
   4   5  -3 1448.89   73.33
   4   5  -2 1521.76   61.07
   4   5  -1  622.96   52.87
   4   5   0  195.92   58.79
   4   5   1   19.20   65.68
   4   5   2   37.17   68.74
   4   5   3   39.54   64.74
   4   5   4   19.74   54.21
   4   6  -6   52.82   64.75
   4   6  -5  209.32   61.56
   4   6  -4  205.04   68.58
   4   6  -3   15.65   83.12
   4   6  -2   43.87   41.66
   4   6  -2  106.80   78.60
   4   6  -1  104.12   45.58
   4   6   0  220.24   60.51
   4   6   1  446.93   87.45
   4   6   2   96.15   80.08
   4   6   3   17.42   64.85
   4   7  -4  552.23  111.08
   4   7  -3  614.90  105.03
   4   7  -2  730.31  112.01
   4   7  -1  519.81   89.81
   5  -6  -4  330.35   44.79
   5  -6  -3  340.78   50.33
   5  -6  -2   71.44   42.29
   5  -6  -1   24.09   38.85
   5  -6   0   63.39   39.81
  -5  -5   7   19.28   75.31
  -5  -5   6   59.25   84.18
  -5  -5   5  158.38  105.31
   5  -5  -4   64.46   46.20
  -5  -5   4   11.89  105.18
   5  -5  -3  151.86   51.60
   5  -5  -2  943.83   67.19
  -5  -4   8    6.71   77.61
  -5  -4   7   13.06   60.84
  -5  -4   6   88.38   57.48
   5  -4  -5  693.93   52.07
  -5  -4   5  705.38   80.91
   5  -4  -4  915.00   63.66
  -5  -4   4 1039.77  103.97
  -5  -4   3 1983.86  137.77
  -5  -4   2  780.37   88.28
  -5  -3   9   44.07  130.66
   5  -3  -7  223.74   49.11
   5  -3  -6  207.87   41.17
  -5  -3   6  183.37   74.72
   5  -3  -5   42.03   32.90
  -5  -3   5   76.45   60.81
   5  -3  -5   45.42   33.28
   5  -3  -4  284.57   45.66
  -5  -3   4  276.87   63.14
   5  -3  -4  222.14   36.29
  -5  -3   3  277.90   72.31
  -5  -3   2  780.07   89.11
  -5  -3   1  633.76   83.63
  -5  -2   9   49.11  122.05
   5  -2  -8   37.65   49.37
  -5  -2   8   -6.66  132.94
   5  -2  -7   42.46   40.73
  -5  -2   7   91.90  118.91
   5  -2  -6  256.92   43.35
   5  -2  -5  387.77   37.38
  -5  -2   5  736.21   85.89
   5  -2  -4  511.93   42.34
  -5  -2   4  593.19   75.28
   5  -2  -3  944.19   42.10
  -5  -2   3  881.72   79.09
   5  -2  -2  456.84   26.21
  -5  -2   2  238.38   60.88
   5  -2  -1  426.07   21.96
  -5  -2   1   47.83   51.92
   5  -2   0  272.67   24.11
  -5  -1  10   51.56   62.43
  -5  -1   9   78.37   89.28
   5  -1  -8    3.01   29.64
  -5  -1   8  124.96  120.67
   5  -1  -8  120.05   49.18
  -5  -1   7  700.15  143.44
   5  -1  -7  409.62   52.35
   5  -1  -6   68.41   24.97
   5  -1  -6  139.42   51.23
   5  -1  -5   27.39   20.73
   5  -1  -5   44.78   28.00
   5  -1  -5   35.54   41.40
   5  -1  -4  155.29   31.23
   5  -1  -4  168.09   23.12
   5  -1  -4  143.10   34.86
   5  -1  -3  293.30   34.06
   5  -1  -3  163.19   23.53
   5  -1  -2 1852.13   56.05
   5  -1  -2 1660.54   53.13
   5  -1  -1 1653.18   55.49
   5  -1  -1 1324.08   50.28
   5  -1   0 1470.40   60.43
   5  -1   1  985.78   54.80
   5  -1   2  343.68   40.34
   5  -1   3   40.42   30.87
   5   0 -10   44.92   52.59
   5   0 -10   16.22   49.14
  -5   0  10   14.61   44.22
   5   0  -9   20.46   45.29
  -5   0   9   56.26   65.27
   5   0  -9   38.98   47.32
   5   0  -8   15.68   39.06
  -5   0   8   17.79   67.42
   5   0  -8   77.76   50.05
   5   0  -7   11.38   33.15
  -5   0   7    7.02   84.97
   5   0  -6  183.31   34.91
  -5   0   6  409.90   95.94
   5   0  -5  478.41   38.47
   5   0  -5  520.34   49.36
   5   0  -5  567.78   39.42
   5   0  -4  947.23   45.60
   5   0  -4  935.35   49.85
   5   0  -4  890.77   40.51
   5   0  -3 3158.26   72.36
   5   0  -3 2383.87   60.84
   5   0  -2 2641.69   67.56
   5   0  -2 2465.54   63.27
   5   0  -1  568.24   40.78
   5   0  -1  600.40   40.47
   5   0   0   -0.98   32.40
   5   0   1  344.37   37.84
   5   0   2  275.00   37.17
   5   0   3  335.21   40.44
   5   0   4  116.74   39.87
   5   1 -10  -16.41   43.83
   5   1 -10  -12.10   49.84
   5   1  -9   -8.51   47.16
  -5   1   9   38.45   47.58
   5   1  -9   63.31   44.18
   5   1  -8   93.68   45.10
  -5   1   8  112.29   47.44
   5   1  -7  308.88   54.27
   5   1  -7  238.45   41.79
  -5   1   7  342.31   55.91
   5   1  -6  243.82   40.63
   5   1  -6  155.04   42.69
  -5   1   6  214.61   56.41
   5   1  -5   28.80   34.58
   5   1  -5   80.67   32.20
   5   1  -4  221.48   42.62
   5   1  -4  201.63   34.49
   5   1  -2 1220.04   44.81
   5   1  -2 1679.40   49.15
   5   1  -1 1143.50   44.76
   5   1  -1 1518.82   53.41
   5   1   0 1071.98   47.37
   5   1   1  824.88   46.70
   5   1   2  335.84   43.39
   5   1   3   41.19   41.80
   5   1   4   -2.47   43.60
   5   1   5    9.93   44.87
   5   2 -10   18.14   37.49
   5   2 -10   22.01   45.12
   5   2  -9   28.68   46.41
   5   2  -9   27.20   38.01
   5   2  -8   24.42   40.57
  -5   2   8   29.44   37.27
   5   2  -7   33.91   40.95
  -5   2   7   24.81   35.59
   5   2  -7   41.72   40.99
   5   2  -6  227.03   34.27
   5   2  -6  146.70   36.46
  -5   2   6  143.12   40.72
   5   2  -5  346.32   36.19
   5   2  -5  453.16   36.41
   5   2  -4  367.03   31.88
   5   2  -4  503.02   41.15
   5   2  -3 1046.97   40.50
   5   2  -3 1122.22   45.26
   5   2  -2  509.34   32.15
   5   2  -2  727.25   37.59
   5   2   1  391.58   44.89
   5   2   2  411.36   53.97
   5   2   3  204.03   50.74
   5   2   4   38.40   48.76
   5   2   5   38.53   49.75
   5   3  -9   23.37   41.96
   5   3  -9   42.06   35.59
   5   3  -8   43.11   39.49
   5   3  -7  216.16   44.08
  -5   3   7  154.17   34.73
   5   3  -6  198.66   34.56
   5   3  -6   79.34   30.78
  -5   3   6  148.20   36.71
   5   3  -5    9.81   26.65
   5   3  -5   48.30   31.21
   5   3  -4  278.37   40.58
   5   3  -4  143.15   28.08
   5   3  -3  163.21   28.54
   5   3  -2  814.38   42.14
   5   3  -1 1074.78   53.47
   5   3   0  279.38   46.96
   5   3   1   30.77   46.85
   5   3   3   41.45   47.83
   5   3   4   47.91   49.60
   5   4  -7   17.89   38.67
   5   4  -6   24.18   33.09
   5   4  -5  246.06   35.95
   5   4  -4  327.69   35.74
   5   4  -3  681.13   45.16
   5   4  -2  472.51   44.44
   5   4  -1  160.12   47.58
   5   4   0   98.61   57.40
   5   4   1  157.63   65.17
   5   4   2   99.64   57.76
   5   4   3   32.01   48.30
   5   5  -7  215.38   49.50
   5   5  -6  250.85   45.03
   5   5  -5  330.53   50.69
   5   5  -5   16.92   35.80
   5   5  -4   24.45   30.73
   5   5  -4  103.13   57.92
   5   5  -3   81.46   39.20
   5   5  -3  219.36   58.00
   5   5  -2  663.31   53.29
   5   5  -1  894.18   68.80
   5   5   0  860.41   89.34
   5   5   1  275.20   81.35
   5   5   2   12.47   60.70
   5   5   3   12.90   50.39
   5   6  -6   27.23   58.69
   5   6  -5  271.16   62.27
   5   6  -4  555.71   71.18
   5   6  -3  140.56   42.41
   5   6  -3  449.51   75.61
   5   6  -2   51.82   43.36
   5   6  -2   78.84   68.38
   5   6  -1   50.69   50.28
   5   6   0   53.45   62.71
   5   6   1  142.38   78.91
   6  -6  -3  282.82   52.92
  -6  -5   6  114.78   83.94
  -6  -5   5  223.35   89.62
   6  -5  -3   27.62   57.77
   6  -5  -2    0.44   57.24
  -6  -4   7   -3.83   72.85
  -6  -4   6   32.39   72.19
   6  -4  -5  158.92   42.47
  -6  -4   5  213.07   84.31
   6  -4  -4  752.76   63.44
  -6  -4   4  698.84  100.17
   6  -4  -3 1692.60   84.36
  -6  -4   3 1318.04  102.92
   6  -3  -7  157.07   39.46
  -6  -3   7  306.16  116.40
   6  -3  -6  226.52   34.16
   6  -3  -6  290.70   37.83
   6  -3  -5  447.35   44.53
   6  -3  -5  439.09   39.20
   6  -3  -4  609.57   49.95
  -6  -3   4  575.05   83.80
  -6  -3   3  128.94   68.38
  -6  -3   2   33.22   59.29
   6  -2  -9   29.09   50.17
  -6  -2   9   84.39  130.61
  -6  -2   8  317.21  174.90
   6  -2  -8  137.58   45.03
   6  -2  -7  186.10   42.53
   6  -2  -6   37.71   28.09
  -6  -2   6  217.86  114.96
   6  -2  -5    1.14   33.40
   6  -2  -5   -8.58   34.42
  -6  -2   5   26.25   90.35
   6  -2  -4   50.49   31.23
   6  -2  -4   28.39   30.15
  -6  -2   4    5.39   74.83
   6  -2  -3  523.02   32.72
  -6  -2   3  194.70   68.78
   6  -2  -2 1026.01   38.06
  -6  -2   2   46.43   57.53
   6  -2  -1  489.67   29.00
  -6  -2   1  -13.71   46.04
  -6  -2   0    3.75   37.86
   6  -1  -9   15.26   48.70
  -6  -1   9    5.96  107.46
  -6  -1   8  152.88  120.82
   6  -1  -8   89.78   49.47
  -6  -1   7  958.00  146.49
   6  -1  -6  455.69   35.86
   6  -1  -6  738.52   62.65
   6  -1  -5 1252.88   57.13
   6  -1  -5 1002.95   61.91
   6  -1  -4 1354.94   54.13
   6  -1  -4 1283.98   56.98
   6  -1  -3  676.70   43.01
   6  -1  -2   21.22   29.87
   6  -1  -1  452.87   43.01
   6  -1   0  530.04   44.28
   6  -1   1  300.74   39.23
  -6   0   9   89.89   67.99
   6   0  -8   15.48   39.84
  -6   0   8  229.18   79.52
   6   0  -7   30.10   34.58
  -6   0   7  176.15   84.94
   6   0  -6   -5.09   44.56
  -6   0   6  -11.29   74.82
   6   0  -6   -8.69   35.04
   6   0  -5  370.23   37.48
   6   0  -5  401.60   45.95
   6   0  -5  313.39   35.22
  -6   0   5  257.74   75.38
   6   0  -4  875.46   47.86
   6   0  -4  939.91   50.96
   6   0  -4  891.34   40.95
   6   0  -3 2044.08   64.01
   6   0  -3 1944.25   52.99
   6   0  -2 2598.42   75.71
   6   0  -1 1557.57   60.27
   6   0   0  488.49   40.92
   6   0   1    1.28   31.33
   6   0   2    9.50   32.27
   6   0   3   71.51   35.29
   6   1  -9  -10.76   46.87
  -6   1   9   26.92   45.75
   6   1  -9   13.29   46.31
   6   1  -8   45.24   41.95
  -6   1   8   96.16   52.15
   6   1  -7  426.68   57.21
   6   1  -7  280.70   46.28
  -6   1   7  492.14   64.12
   6   1  -6  884.06   50.03
  -6   1   6  737.28   70.56
   6   1  -5 1238.68   47.97
   6   1  -4 1044.12   43.73
   6   1  -4 1236.04   46.58
   6   1  -3  507.60   35.93
   6   1  -2   18.63   24.94
   6   1  -1  259.58   30.17
   6   1   0  419.66   38.84
   6   1   1  302.99   39.84
   6   1   2  182.55   40.86
   6   1   3   39.23   38.56
   6   1   4   15.42   38.59
   6   2  -9   -3.33   41.13
   6   2  -9    9.59   39.71
   6   2  -8   67.91   39.91
  -6   2   8  131.80   45.36
   6   2  -7   92.42   44.08
  -6   2   7  109.61   44.57
   6   2  -7  156.79   42.24
   6   2  -6   73.92   34.74
  -6   2   6   16.47   46.67
   6   2  -6   45.34   30.27
   6   2  -5   23.26   29.09
   6   2  -5   21.52   28.62
   6   2  -4    9.25   23.40
   6   2  -4   16.96   30.62
   6   2  -1  414.05   35.59
   6   2   0  236.55   39.07
   6   2   1  103.94   41.16
   6   2   2   -8.71   40.92
   6   2   3   25.46   43.41
   6   2   4   20.96   43.12
   6   3  -9    3.64   38.19
   6   3  -9   14.23   36.47
   6   3  -8   19.14   36.49
   6   3  -7   24.64   41.58
  -6   3   7   98.45   40.48
   6   3  -7  159.40   44.58
   6   3  -6  312.47   39.72
   6   3  -6  154.45   37.40
   6   3  -5  287.40   37.97
   6   3  -5  460.54   42.07
   6   3  -4  350.97   34.65
   6   3  -4  679.44   49.05
   6   3  -3  208.54   31.84
   6   3  -2   44.15   28.79
   6   3  -1   96.67   35.59
   6   3   2  124.31   49.82
   6   3   3   21.30   43.71
   6   4  -8   56.37   40.44
   6   4  -7    4.06   41.54
   6   4  -7   21.12   42.67
   6   4  -6   16.18   35.68
   6   4  -6    5.62   39.87
   6   4  -5   77.13   38.07
   6   4  -5  173.83   45.28
   6   4  -4  306.57   40.33
   6   4  -4  781.63   60.72
   6   4  -3  881.98   54.42
   6   4  -3 1587.90   71.28
   6   4  -2  624.33   52.94
   6   4  -1  355.17   57.32
   6   4   0  244.80   64.44
   6   4   1   56.73   56.18
   6   4   2   59.10   50.13
   6   5  -6   24.03   42.86
   6   5  -5   29.12   40.99
   6   5  -4   29.74   35.88
   6   5  -4   28.68   60.53
   6   5  -3   14.52   42.71
   6   5  -3   19.01   57.33
   6   5  -2   -2.31   45.49
   6   5  -1   58.76   58.24
   6   5   0  168.43   65.17
   6   5   1   18.66   58.46
   6   6  -3  327.76   68.70
   6   6  -2  371.27   73.56
   7  -4  -6   89.28   32.00
  -7  -4   6  199.24   78.70
   7  -4  -5  111.12   41.24
  -7  -4   5  154.54   78.29
   7  -4  -4  193.36   51.35
   7  -4  -3   19.69   56.46
  -7  -3   7   48.41  115.14
   7  -3  -6  118.15   32.62
  -7  -3   6  346.99  107.62
   7  -3  -5  578.46   50.00
  -7  -3   5  653.80   93.63
   7  -3  -4 1084.37   58.52
  -7  -3   4  416.46   81.47
   7  -3  -3  854.93   58.18
  -7  -3   3  124.78   62.98
   7  -2  -8  206.91   46.48
  -7  -2   7  956.14  140.19
   7  -2  -7  497.32   51.23
   7  -2  -6  335.90   38.14
  -7  -2   6  783.38  125.09
   7  -2  -5  161.14   38.23
   7  -2  -5   50.36   40.31
  -7  -2   5  182.72  101.30
   7  -2  -4  109.52   32.91
   7  -2  -4   38.47   35.68
  -7  -2   4   38.95   81.64
   7  -2  -3    5.45   30.30
  -7  -2   3    5.29   66.63
  -7  -2   2    5.29   53.19
   7  -1  -9  101.99   49.85
  -7  -1   8  200.37  103.55
   7  -1  -8  141.01   55.31
   7  -1  -6   43.39   30.29
   7  -1  -6   54.33   50.98
   7  -1  -5  344.38   44.40
   7  -1  -5  300.98   53.26
   7  -1  -4  803.77   47.79
   7  -1  -4  882.64   59.27
   7  -1  -3 1380.76   62.87
  -7  -1   3    1.21   77.70
   7  -1  -2  482.79   42.15
   7  -1  -1   41.91   33.68
  -7   0   9    7.80   67.68
   7   0  -9   26.44   47.64
  -7   0   8  160.51   79.24
   7   0  -7  281.23   62.44
  -7   0   7  317.75   81.18
   7   0  -6  392.33   56.10
  -7   0   6  167.85   76.34
   7   0  -5  173.67   44.63
   7   0  -4   59.38   37.25
   7   0  -4   53.85   38.61
   7   0  -3  222.97   38.54
   7   0  -2  908.46   55.82
   7   0  -1  721.87   49.83
   7   0   0  444.13   42.47
   7   0   1  216.48   36.14
  -7   1   9   93.88   54.41
   7   1  -9  117.76   46.05
   7   1  -8   14.17   40.78
  -7   1   8   96.02   62.78
  -7   1   7   37.44   63.07
   7   1  -7   31.94   38.88
  -7   1   6   27.37   61.37
   7   1  -6   68.48   35.58
   7   1  -5  213.39   36.64
   7   1  -5  256.02   33.18
   7   1  -4  599.04   36.96
   7   1  -4  773.58   42.58
   7   1  -3  982.93   47.73
   7   1  -3 1049.25   40.93
   7   1  -2  380.72   36.33
   7   1  -1    7.66   28.21
   7   1   0   53.51   31.91
   7   1   1   97.54   33.44
   7   1   2  119.78   36.04
   7   2  -8   95.42   36.00
   7   2  -8  130.38   49.56
  -7   2   8  185.76   53.97
   7   2  -7  253.03   43.39
   7   2  -7  197.88   46.39
  -7   2   7  201.74   56.08
   7   2  -6  260.13   39.78
   7   2  -6  327.43   34.09
   7   2  -5   91.22   29.89
   7   2  -5  109.74   28.86
   7   2  -4   94.16   30.64
   7   2  -3    1.33   27.80
   7   2  -2  110.09   27.77
   7   2  -1  126.48   32.94
   7   2   0   35.60   34.58
   7   2   1   23.53   37.16
   7   2   2   29.81   38.38
   7   3  -7   17.77   43.63
  -7   3   7    8.39   44.84
   7   3  -7   16.21   35.72
   7   3  -6   79.82   38.11
   7   3  -6  133.31   33.78
   7   3  -5  294.44   38.28
   7   3  -5  515.07   41.61
   7   3  -4  577.96   39.98
   7   3  -4 1072.41   55.38
   7   3  -3  636.65   45.22
   7   3  -3 1032.40   54.33
   7   3   0   23.60   41.20
   7   3   1   21.52   40.16
   7   4  -6   39.64   41.30
   7   4  -6  125.41   41.55
   7   4  -5   53.39   39.61
   7   4  -5  113.73   44.37
   7   4  -4   73.25   36.44
   7   4  -4  186.54   53.23
   7   4  -3   38.76   43.01
   7   4  -3   11.73   53.17
   7   4  -2  178.14   45.84
   7   4  -1  268.97   55.40
   7   4   0  228.60   53.84
   8  -3  -5  111.55   32.53
  -8  -3   5   49.09   81.96
   8  -3  -4   30.49   34.63
   8  -3  -3  117.10   40.14
   8  -2  -6  198.28   33.95
  -8  -2   6  194.39  112.56
   8  -2  -5  346.05   41.17
  -8  -2   5    4.59   99.47
   8  -2  -4  346.26   39.85
  -8  -2   4   34.19   87.79
   8  -2  -3  163.36   36.09
  -8  -2   3   13.35   63.92
   8  -1  -6   19.09   62.29
  -8  -1   6   45.71   96.36
   8  -1  -5   -0.87   58.88
  -8  -1   5  -14.63   98.53
   8  -1  -4   70.44   35.07
   8  -1  -4   69.40   52.34
  -8  -1   4    6.64   94.21
   8  -1  -3  267.99   51.07
  -8  -1   3   51.61   78.25
  -8  -1   2   13.36   63.62
   8   0  -7   92.17   58.72
  -8   0   7   35.74   78.90
   8   0  -6  198.84   58.60
   8   0  -5  155.95   49.41
  -8   0   5    4.15   84.05
   8   0  -4  158.58   47.55
  -8   0   4   -9.08   84.54
   8   0  -3    6.19   39.91
   8   0  -2  133.15   36.80
   8   0  -1  193.11   38.67
   8   1  -7   66.99   43.34
  -8   1   7   52.00   66.37
   8   1  -6    3.32   36.29
  -8   1   6    1.18   68.83
   8   1  -5   24.47   33.88
   8   1  -4   76.74   33.10
   8   1  -3  245.08   34.58
   8   1  -2  244.51   38.00
   8   1  -1  139.91   34.90
   8   1   0   36.02   28.59
  -8   2   7   21.42   54.89
   8   2  -6  151.59   28.49
  -8   2   6    2.79   60.74
   8   2  -5  186.51   33.24
   8   2  -5  193.70   30.12
   8   2  -4  205.83   30.35
   8   2  -4  214.04   31.41
   8   2  -3  140.76   29.74
   8   2  -3  172.97   33.73
   8   2  -2   75.24   34.51
   8   2  -1   40.33   33.77
   8   3  -5   38.53   32.37
   8   3  -5   62.70   30.98
   8   3  -4   43.12   39.76
   8   3  -3  141.75   41.90
   8   3  -2  134.82   39.66
   0   0   0    0.00    0.00
TITL rmjr3 in P2(1)
REM P2(1) (#4 in standard setting)
CELL 1.54184   9.602467   9.035422  11.674612  90.0000 112.4143  90.0000
ZERR   13.00   0.003699   0.002803   0.006377   0.0000   0.0541   0.0000
LATT -1
SYMM -x, y+1/2,-z
SFAC C H N O Zn
UNIT 13.00 13.00 13.00 13.00 13.00
TREF
HKLF 4
END
_computing_structure_solution     'SHELXT 2014/5 (Sheldrick, 2014)'
;
_shelx_hkl_checksum              28570
_shelx_fab_file
;
-8 0 1 -0.5607 0.0325
-8 0 2 0.2931 -0.1690
-8 0 3 -0.5885 -0.0099
-8 0 4 -0.0565 -0.0004
-8 0 5 1.2546 0.0184
-8 0 6 -0.7258 0.0235
-8 0 7 0.3638 0.0407
-8 1 1 0.9559 -0.2526
-8 1 2 -1.3217 -0.6482
-8 1 3 -0.1929 0.5412
-8 1 4 0.0671 0.3570
-8 1 5 0.4073 -0.0551
-8 1 6 1.0947 0.1602
-8 1 7 -0.5473 -0.1903
-8 2 1 0.9080 -1.1918
-8 2 2 -0.4455 0.9463
-8 2 3 0.3189 0.9449
-8 2 4 -1.4934 -0.6298
-8 2 5 1.9518 0.6608
-8 2 6 -1.9007 -0.2148
-8 2 7 1.5999 -0.9852
-8 3 2 -0.1329 -0.1297
-8 3 3 -0.0068 -0.2460
-8 3 4 0.2679 -0.1062
-8 3 5 1.3550 -0.2322
-7 0 1 -0.6839 0.1553
-7 0 2 -0.0719 0.0984
-7 0 3 -0.3816 0.0019
-7 0 4 0.8373 -0.0203
-7 0 5 -0.3659 -0.0226
-7 0 6 -0.4671 0.0008
-7 0 7 -0.3485 0.0075
-7 0 8 0.7274 -0.0175
-7 0 9 -0.7185 -0.0256
-7 1 1 3.9836 0.2231
-7 1 2 -1.0854 -0.3747
-7 1 3 -2.0591 0.8251
-7 1 4 0.8942 -1.9330
-7 1 5 -1.2836 1.1629
-7 1 6 1.0402 -0.4869
-7 1 7 -0.7226 0.7049
-7 1 8 3.2948 -0.9158
-7 1 9 -2.5995 1.5563
-7 2 1 1.3761 -1.1143
-7 2 2 -0.8743 -1.5541
-7 2 3 1.1250 0.7984
-7 2 4 -0.0691 -0.5264
-7 2 5 0.0960 0.7872
-7 2 6 -0.8349 1.3713
-7 2 7 -0.1530 0.5925
-7 2 8 0.3116 -1.6209
-7 3 3 -2.0715 -1.4514
-7 3 4 -0.2014 5.6207
-7 3 5 0.5482 -5.7938
-7 3 6 0.7705 0.9663
-7 3 7 -0.4034 1.2497
-7 4 1 0.5489 -0.1141
-7 4 2 -3.4918 -1.3714
-7 4 3 4.4993 -0.5267
-7 4 4 -4.5550 1.8961
-7 4 5 4.5673 0.1115
-7 4 6 -1.3502 0.8711
-6 -2 0 -3.6850 0.2268
-6 -1 -1 1.2947 -0.2945
-6 -1 0 2.0541 0.2573
-6 0 1 2.5559 -0.3453
-6 0 2 0.0341 0.0546
-6 0 3 -3.5025 -0.0077
-6 0 4 1.9984 0.0158
-6 0 5 1.3536 0.0234
-6 0 6 -1.1231 0.0176
-6 0 7 -0.3371 0.0100
-6 0 8 0.7947 0.0073
-6 0 9 -0.9413 0.0302
-6 1 1 0.8639 1.4223
-6 1 2 1.5856 -1.4699
-6 1 3 -0.1720 -0.7008
-6 1 4 -0.2622 2.0078
-6 1 5 -0.0366 0.3127
-6 1 6 0.1613 -1.3718
-6 1 7 -2.3444 -0.0701
-6 1 8 1.5093 0.4236
-6 1 9 0.8898 -0.0266
-6 2 1 1.0236 2.6732
-6 2 4 -2.9892 -1.3001
-6 2 5 2.1919 -0.8535
-6 2 6 1.0064 0.7428
-6 2 7 -1.3682 0.3396
-6 2 8 0.6358 1.1743
-6 2 9 0.0011 -0.3758
-6 3 1 -0.6825 1.9415
-6 3 2 2.4416 0.4388
-6 3 3 -1.8966 -7.3420
-6 3 4 0.9210 8.3707
-6 3 5 -0.5910 -2.0628
-6 3 6 -1.0676 -0.3429
-6 3 7 0.0932 0.6051
-6 3 8 -0.3640 -0.6417
-6 3 9 1.1346 -0.8584
-6 4 1 4.7983 2.0087
-6 4 2 -5.5801 2.1917
-6 4 3 8.5969 -6.2357
-6 4 4 -11.5795 3.3247
-6 4 5 4.7979 -2.0321
-6 4 6 1.5834 1.1208
-6 4 7 -0.3443 0.8893
-6 4 8 0.3433 -0.3578
-6 5 1 -1.5144 0.4060
-6 5 2 0.5319 -3.6975
-6 5 3 2.4567 3.1049
-6 5 4 -0.8198 -2.0205
-6 5 5 -1.1034 0.7003
-6 5 6 -1.5048 2.5049
-6 6 2 0.2690 3.6552
-6 6 3 -1.1479 -2.8011
-5 -6 0 2.2930 -1.7024
-5 -2 0 -1.1027 1.6196
-5 -1 -3 1.6164 1.4430
-5 -1 -2 -2.6254 0.1357
-5 -1 -1 3.4567 -1.1487
-5 -1 0 -3.4086 -0.0351
-5 0 1 -1.7221 0.2297
-5 0 2 1.9789 -0.1522
-5 0 3 1.5971 -0.0154
-5 0 4 -2.3748 -0.0398
-5 0 5 1.8750 0.0046
-5 0 6 -1.0636 -0.0100
-5 0 7 0.6144 0.0005
-5 0 8 -1.6677 -0.0088
-5 0 9 -0.0768 0.0334
-5 0 10 0.7894 -0.0353
-5 1 1 -1.8445 0.6105
-5 1 2 1.4254 0.9103
-5 1 4 1.9409 -1.6629
-5 1 5 0.8808 0.9357
-5 1 6 -1.7531 0.7169
-5 1 7 2.4777 -1.9756
-5 1 8 -2.3515 1.4234
-5 1 9 0.0818 -0.3654
-5 1 10 0.0812 1.0241
-5 2 2 -4.6827 1.2142
-5 2 3 6.6926 -0.3365
-5 2 4 -3.1795 -0.2680
-5 2 5 -0.4320 0.1737
-5 2 6 -1.3929 -0.7151
-5 2 7 2.2559 -0.0155
-5 2 8 -1.6121 -1.2849
-5 2 9 1.0564 1.9763
-5 2 10 -0.4415 -0.7260
-5 3 1 -0.8398 1.6695
-5 3 2 2.0276 0.9790
-5 3 3 -1.2118 -0.7653
-5 3 4 0.5281 -1.8243
-5 3 5 2.5496 -0.4920
-5 3 6 -1.8787 1.3195
-5 3 7 -1.7523 0.6724
-5 3 8 1.6357 0.2867
-5 3 9 -0.8759 -0.2033
-5 4 1 -1.4671 -1.8105
-5 4 2 0.0942 6.3294
-5 4 3 6.7140 -5.2544
-5 4 4 -4.9718 2.4885
-5 4 5 -1.0347 -0.6577
-5 4 6 1.0518 -2.0173
-5 4 7 -2.4814 -0.0588
-5 5 1 0.3774 2.4844
-5 5 2 -3.3629 -3.1072
-5 5 3 1.9002 4.5103
-5 5 4 1.7035 -4.6364
-5 5 5 0.8123 -0.5394
-5 5 6 -1.9115 0.7382
-5 5 7 -0.6426 2.3465
-5 6 1 -2.7056 -3.6721
-5 6 2 2.2840 4.0329
-5 6 3 0.0177 -2.1428
-5 6 4 -1.1686 2.4977
-5 6 5 0.4003 -3.7851
-5 6 6 -1.4567 0.7422
-4 -6 0 -1.4006 -1.4779
-4 -3 0 2.1027 -1.3480
-4 -2 -6 -2.0949 0.9484
-4 -2 -5 2.2977 -1.6382
-4 -2 -4 -1.0020 2.0040
-4 -2 -3 1.7448 -2.7736
-4 -2 -2 -1.3093 1.3998
-4 -2 -1 0.5197 -0.1290
-4 -2 0 -2.6041 0.1352
-4 -1 -4 -0.1512 -0.9331
-4 -1 -3 1.8068 0.4017
-4 -1 -2 -5.5082 1.5307
-4 -1 -1 5.8590 -3.9518
-4 -1 0 -2.3933 3.4099
-4 0 1 -1.0635 0.1908
-4 0 2 -6.4171 0.1403
-4 0 3 4.3912 -0.0462
-4 0 4 -2.4298 0.0234
-4 0 5 1.7790 -0.0228
-4 0 6 1.3782 0.0070
-4 0 7 0.8229 -0.0104
-4 0 8 -0.8203 0.0170
-4 0 9 -0.8242 0.0007
-4 0 10 -1.6219 -0.0120
-4 1 1 -1.3938 0.3735
-4 1 2 2.9952 -5.1401
-4 1 3 -3.6074 4.4073
-4 1 4 0.8441 0.9469
-4 1 5 1.4511 -0.7801
-4 1 6 -2.6867 0.4194
-4 1 7 2.2602 -1.2718
-4 1 8 1.7160 -0.0702
-4 1 9 -1.6058 -1.0115
-4 1 10 -0.8552 0.9385
-4 2 1 0.5353 -4.0800
-4 2 2 4.1544 4.9686
-4 2 3 -5.2841 -0.6815
-4 2 4 0.9359 -1.6378
-4 2 5 4.3105 2.9483
-4 2 6 -3.6193 -1.0441
-4 2 7 1.1540 -0.0735
-4 2 8 -0.6921 -0.8954
-4 2 9 1.9023 0.4420
-4 2 10 -1.8998 -1.2549
-4 3 1 0.0161 2.2021
-4 3 2 -2.4981 -2.9275
-4 3 3 0.1811 2.8560
-4 3 4 -0.0466 -0.6801
-4 3 5 1.9242 0.1318
-4 3 6 1.8576 -1.9567
-4 3 8 1.9429 -1.4502
-4 3 9 -0.7582 0.3129
-4 4 1 -4.5665 -2.5905
-4 4 2 2.4519 3.3447
-4 4 3 -0.6474 -0.0771
-4 4 4 1.5206 -0.8835
-4 4 5 -0.9000 3.0337
-4 4 6 1.6511 0.1838
-4 4 7 -1.8765 -3.9411
-4 4 8 -0.0845 1.2402
-4 4 9 0.0515 -0.9445
-4 5 1 -0.1432 -1.7650
-4 5 2 -3.3789 -0.2633
-4 5 3 1.5171 4.1933
-4 5 4 0.9909 -2.9001
-4 5 5 -2.5938 -1.0837
-4 5 6 4.4561 0.5620
-4 5 7 0.2961 -1.4452
-4 5 8 -2.5296 2.9789
-4 6 1 -0.8502 -1.6477
-4 6 2 1.5612 0.6657
-4 6 3 1.7566 -0.8991
-4 6 4 -0.6063 5.4584
-4 6 5 -1.0286 -3.8465
-4 6 6 0.6182 -0.5385
-4 7 1 1.9661 0.1931
-4 7 2 -5.2094 -2.6253
-4 7 3 -1.1449 5.4106
-4 7 4 9.6040 -5.0316
-3 -6 -3 0.1229 -0.9046
-3 -6 -2 -1.6002 -0.3606
-3 -6 0 -1.5155 1.8441
-3 -5 -5 -0.2789 -0.5142
-3 -5 -4 0.2668 3.3027
-3 -5 -2 0.7671 3.1531
-3 -5 -1 1.6527 -1.1955
-3 -4 -6 -4.2120 -5.9927
-3 -4 -5 7.7298 8.0421
-3 -4 -4 -8.9886 -6.8759
-3 -4 -3 6.5984 4.0559
-3 -3 -7 0.8036 -1.1599
-3 -3 -6 -1.7986 1.2122
-3 -3 -5 3.2394 -1.8525
-3 -3 -4 -2.2665 3.9691
-3 -3 -3 -1.7550 -2.2623
-3 -3 -2 5.0997 0.3254
-3 -3 -1 -0.4460 -0.3107
-3 -3 0 -2.6150 -0.3758
-3 -2 -7 0.6589 -0.3683
-3 -2 -6 -1.6541 0.1635
-3 -2 -5 2.9940 -2.0826
-3 -2 -4 -2.3851 4.0271
-3 -2 -3 -0.8678 -1.2698
-3 -2 -2 0.6481 -1.1480
-3 -2 -1 2.5060 -1.4504
-3 -2 0 3.2429 0.4417
-3 -1 -5 -2.0711 -1.0584
-3 -1 -4 -1.0241 0.7433
-3 -1 -3 4.5633 -0.5819
-3 -1 -2 -4.2504 3.6684
-3 -1 -1 0.6315 -5.7995
-3 -1 0 3.5995 2.8680
-3 0 1 12.1943 -0.2873
-3 0 3 -2.2442 0.0340
-3 0 4 3.2809 0.0040
-3 0 5 -3.9223 0.0219
-3 0 6 1.2220 -0.0042
-3 0 7 1.4703 0.0136
-3 0 8 -0.2325 0.0029
-3 0 9 1.2794 -0.0020
-3 0 10 -2.2224 0.0260
-3 1 1 5.8795 4.4359
-3 1 2 -2.5696 -7.6504
-3 1 3 -0.2810 3.1994
-3 1 4 -0.1146 -0.4839
-3 1 5 1.4906 -1.2613
-3 1 6 -3.9123 3.3596
-3 1 7 0.7675 -1.3800
-3 1 8 2.0431 -0.7018
-3 1 9 0.1365 1.5908
-3 1 10 0.1891 -1.1877
-3 2 1 -12.2495 0.4883
-3 2 2 10.2469 -2.4198
-3 2 3 -1.2829 -1.6738
-3 2 4 -2.2679 1.8719
-3 2 5 -0.0498 -0.3734
-3 2 6 1.3472 0.4006
-3 2 7 -0.9654 0.9242
-3 2 8 -1.0513 0.3994
-3 2 9 2.1084 0.7550
-3 2 10 -0.3277 -1.2308
-3 3 1 4.8586 -1.4310
-3 3 2 -3.7151 2.5871
-3 3 3 -1.4237 0.5871
-3 3 4 0.3675 -2.9667
-3 3 5 -2.1174 1.5959
-3 3 6 0.7422 -0.9623
-3 3 7 0.7754 1.8415
-3 3 8 -0.0442 -0.7172
-3 3 9 0.6484 -0.1684
-3 4 1 -0.1296 -0.6654
-3 4 2 3.1853 -4.3879
-3 4 3 -2.4452 2.2399
-3 4 4 -0.5633 -1.9172
-3 4 5 2.8160 1.1469
-3 4 6 -2.6437 1.1756
-3 4 7 1.0634 1.3880
-3 4 8 -1.3555 1.0539
-3 4 9 2.4063 -3.1216
-3 5 1 1.7042 -0.3943
-3 5 2 -3.7019 -0.2777
-3 5 3 0.1645 2.7423
-3 5 4 3.6043 0.7457
-3 5 5 -6.6420 -3.6130
-3 5 6 0.8337 0.6346
-3 5 7 3.5382 0.6057
-3 5 8 -0.5161 0.9454
-3 6 2 -3.5842 -3.4678
-3 6 3 3.2921 -3.5857
-3 6 4 2.6223 10.3266
-3 6 5 -2.9312 -7.7015
-3 6 6 0.3532 2.9005
-3 6 7 -0.2368 0.3861
-3 7 1 1.0684 0.5093
-3 7 2 1.1423 -3.6334
-3 7 3 -11.9873 7.3125
-3 7 4 13.8233 -5.0049
-3 7 5 -5.8126 0.3262
-2 -7 -3 -3.9941 0.5191
-2 -7 -2 4.2178 -3.2010
-2 -6 -4 -0.0114 0.3641
-2 -6 -3 -0.6781 -2.1948
-2 -6 -2 1.5085 4.3656
-2 -6 -1 -5.0857 -2.3796
-2 -6 0 4.1441 -4.1618
-2 -5 -6 5.5209 -1.6141
-2 -5 -5 -5.4509 0.6926
-2 -5 -3 -0.2238 -6.5831
-2 -5 -2 -0.3378 3.6631
-2 -5 -1 2.4013 1.8092
-2 -5 0 -2.6575 -3.1078
-2 -4 -7 1.7418 5.4119
-2 -4 -6 -6.2957 -8.6647
-2 -4 -5 11.9222 12.3217
-2 -4 -4 -11.9054 -12.0840
-2 -4 -2 -3.6207 -0.9004
-2 -4 -1 6.4429 3.7519
-2 -4 0 -3.9182 -2.8577
-2 -3 -7 -1.6866 -2.2056
-2 -3 -6 0.1870 1.8409
-2 -3 -5 2.3080 0.1147
-2 -3 -4 1.9415 -1.3286
-2 -3 -3 -5.2898 1.4635
-2 -3 -2 -2.6560 -1.4874
-2 -3 -1 9.4632 1.2677
-2 -3 0 -0.8160 1.1177
-2 -2 -8 1.1281 0.9123
-2 -2 -7 -0.5664 -0.3316
-2 -2 -6 -2.6014 2.0461
-2 -2 -5 2.3615 -3.2435
-2 -2 -4 1.1440 0.2127
-2 -2 -3 -1.9302 3.1087
-2 -2 -2 0.1315 -0.8104
-2 -2 -1 -0.6053 -2.5651
-2 -2 0 2.7497 7.7912
-2 -1 -8 1.7984 0.6664
-2 -1 -7 -4.3650 -1.7821
-2 -1 -6 3.6403 2.2099
-2 -1 -5 1.0768 -0.5963
-2 -1 -4 -4.4563 -1.2713
-2 -1 -3 2.1743 -0.4164
-2 -1 -2 1.6381 4.4974
-2 -1 -1 -4.2528 -2.9461
-2 -1 0 5.8956 -7.9672
-2 0 2 20.8872 -0.1285
-2 0 3 -20.5121 -0.0443
-2 0 4 4.0537 -0.0334
-2 0 5 3.3018 -0.0382
-2 0 6 -2.4024 -0.0087
-2 0 7 1.3662 0.0018
-2 0 8 0.7692 0.0093
-2 0 9 -0.6274 0.0143
-2 0 10 -0.6681 -0.0015
-2 1 1 2.1060 18.1474
-2 1 2 0.1772 -14.2495
-2 1 3 3.7403 0.2248
-2 1 4 -3.8085 6.7771
-2 1 5 3.2429 -4.2717
-2 1 6 -2.0859 1.3498
-2 1 7 -0.7162 1.1588
-2 1 9 0.7279 0.4674
-2 1 10 -0.3535 0.4091
-2 2 1 -2.2096 9.8670
-2 2 2 1.1483 0.6785
-2 2 3 -2.1223 -5.4125
-2 2 4 0.4860 0.1223
-2 2 5 2.9977 3.7961
-2 2 6 -3.1872 -5.7803
-2 2 7 1.5534 1.7859
-2 2 8 0.1761 0.8941
-2 2 9 -1.1540 -0.1907
-2 2 10 0.0282 1.3258
-2 3 1 4.7921 -3.8265
-2 3 2 -2.4840 1.6462
-2 3 3 1.7640 2.0553
-2 3 4 2.1933 -0.7954
-2 3 5 -1.6262 -0.7950
-2 3 6 -1.0301 -0.0593
-2 3 7 0.4688 -0.7359
-2 3 8 -1.1507 1.8232
-2 3 9 -0.6777 -1.9238
-2 4 1 -2.9486 4.3618
-2 4 2 3.9337 -3.1172
-2 4 3 0.2840 1.0143
-2 4 4 -3.2430 -0.9813
-2 4 5 2.9272 -0.3269
-2 4 6 0.4795 -2.9021
-2 4 7 0.0755 0.7627
-2 4 8 -3.9182 4.4877
-2 4 9 2.5110 -4.1257
-2 5 1 -1.0233 2.1779
-2 5 2 -2.0581 -2.6485
-2 5 3 4.9528 1.9146
-2 5 4 -0.3736 1.3447
-2 5 5 -1.9397 -0.0906
-2 5 6 -0.2491 -2.7133
-2 5 7 -0.0038 0.0892
-2 5 8 -0.0468 -0.1131
-2 6 1 2.0971 -3.4456
-2 6 2 -3.9636 1.0383
-2 6 3 -0.9751 -5.5728
-2 6 4 3.5329 7.9287
-2 6 5 -0.0012 -3.1679
-2 6 6 -0.5644 -2.1589
-2 6 7 -0.4463 1.3412
-1 -7 -4 1.7816 0.9772
-1 -7 -3 -1.0370 0.6447
-1 -7 -2 -3.6481 0.9867
-1 -7 -1 4.8599 -3.6113
-1 -6 -5 -0.5000 -0.2834
-1 -6 -4 1.6267 2.0688
-1 -6 -3 -4.5834 -3.9577
-1 -6 -2 8.4565 1.3431
-1 -6 -1 -6.0634 9.7886
-1 -6 0 4.7134 -14.0907
-1 -5 -7 -4.3881 1.6404
-1 -5 -6 6.1029 -3.0199
-1 -5 -3 1.8250 -5.6198
-1 -5 -2 0.8536 4.3381
-1 -5 -1 1.4552 -0.2560
-1 -5 0 -3.3280 -4.3723
-1 -4 -8 0.1551 -1.5027
-1 -4 -7 -0.5214 1.4785
-1 -4 -6 -2.6391 -3.8769
-1 -4 -5 5.1862 5.4808
-1 -4 -4 -4.7599 -2.1999
-1 -4 -3 2.7257 0.4186
-1 -4 -2 -2.4639 -3.2828
-1 -4 -1 2.9440 5.3514
-1 -4 0 1.5738 -2.4705
-1 -3 -8 1.8730 0.5157
-1 -3 -7 -1.3067 -2.4507
-1 -3 -6 -1.1188 -0.2627
-1 -3 -5 -2.6346 3.2030
-1 -3 -4 4.4182 -4.0555
-1 -3 -3 2.1145 3.6698
-1 -3 -2 -6.2299 -1.8188
-1 -3 -1 -0.4038 1.7543
-1 -3 0 5.3147 -0.6284
-1 -2 -9 -0.8941 -2.2207
-1 -2 -8 -0.3718 3.3103
-1 -2 -7 3.2414 -4.6440
-1 -2 -6 -1.0605 3.6240
-1 -2 -5 -2.1201 -0.4818
-1 -2 -4 2.9296 -3.2199
-1 -2 -3 -4.1824 4.5731
-1 -2 -2 0.4266 -2.9515
-1 -2 -1 4.9709 -1.2769
-1 -2 0 -2.0679 4.7362
-1 -1 -7 -3.2079 -3.4793
-1 -1 -6 -0.7323 0.2205
-1 -1 -5 5.6256 2.6167
-1 -1 -4 -2.9952 -1.7357
-1 -1 -3 -4.6738 -4.9027
-1 -1 -2 5.7480 1.6790
-1 -1 -1 -0.0516 16.8965
-1 -1 0 -5.8603 -28.1811
-1 0 1 -46.9624 0.1240
-1 0 2 38.8076 0.1857
-1 0 3 -2.0673 0.0630
-1 0 4 -11.8526 0.0158
-1 0 5 1.0260 -0.0064
-1 0 6 1.3205 -0.0126
-1 0 7 -0.4547 -0.0328
-1 0 8 0.4419 -0.0270
-1 0 9 1.2770 0.0033
-1 0 10 0.0522 0.0011
-1 1 1 -4.4982 16.5634
-1 1 2 -4.0834 7.5522
-1 1 3 3.3456 -13.6279
-1 1 4 3.2711 0.5664
-1 1 5 -2.5730 3.3045
-1 1 6 -0.3322 -1.2054
-1 1 7 1.1309 0.9408
-1 1 8 -1.9801 1.9775
-1 1 9 2.9931 -1.7901
-1 2 1 -4.7450 0.3662
-1 2 2 4.8606 1.5684
-1 2 3 2.0458 3.4785
-1 2 4 -6.1281 -4.9368
-1 2 5 5.6911 3.9061
-1 2 6 -3.7230 -0.8932
-1 2 7 0.8563 -1.0533
-1 2 8 -1.0453 -1.1293
-1 2 9 1.9382 1.4533
-1 3 1 2.0662 -3.0987
-1 3 2 1.1118 2.1202
-1 3 3 -3.7696 2.0008
-1 3 4 2.1741 -2.6550
-1 3 5 0.5192 1.1202
-1 3 6 0.2211 0.6995
-1 3 7 1.8983 -2.4861
-1 3 8 -2.2898 3.4390
-1 3 9 0.2485 -3.0953
-1 4 1 -3.8744 -0.3710
-1 4 2 0.4758 -1.8907
-1 4 3 -0.2037 2.6536
-1 4 4 1.5183 1.5539
-1 4 5 -1.9837 -0.4415
-1 4 6 0.8872 -1.9337
-1 4 7 2.3844 -1.4774
-1 4 8 -1.1859 4.4608
-1 5 1 0.5206 2.4919
-1 5 2 -7.2007 -1.7197
-1 5 3 4.9675 1.5737
-1 5 4 1.1904 1.4514
-1 5 5 -0.4013 -0.9479
-1 5 6 -2.2480 0.7091
-1 5 7 2.8299 -0.0023
-1 5 8 -1.4974 -1.9572
-1 6 1 -4.2967 -4.6553
-1 6 2 0.4402 -2.7018
-1 6 3 -0.2703 2.4557
-1 6 4 -0.3657 -1.0959
-1 6 5 1.2327 1.1787
0 -7 -5 -1.2191 -1.7715
0 -7 -4 -0.7698 1.6493
0 -7 -3 0.8332 -1.9356
0 -7 -2 4.3635 3.3412
0 -6 -6 0.4717 -0.7218
0 -6 -5 -0.7855 0.5536
0 -6 -4 0.5724 0.7345
0 -6 -3 -2.4402 -2.3582
0 -6 -2 1.0307 -0.6568
0 -6 -1 -4.9540 6.4788
0 -6 0 11.0813 -8.6775
0 -5 -7 0.2172 0.1863
0 -5 -4 -2.6725 0.2878
0 -5 -3 -1.3971 -2.2487
0 -5 -2 -0.9697 3.1239
0 -5 -1 2.6691 1.8701
0 -4 -8 2.9383 -1.1206
0 -4 -7 -1.2944 0.2950
0 -4 -6 -0.2936 1.3548
0 -4 -5 0.4311 -2.0238
0 -4 -3 -2.1849 0.7440
0 -4 -2 -0.1686 0.1662
0 -4 -1 0.0613 2.5224
0 -4 0 2.5317 -4.4782
0 -3 -9 -0.3695 2.2821
0 -3 -8 -0.7595 -0.8663
0 -3 -7 3.1390 0.4704
0 -3 -6 -0.4853 -1.1117
0 -3 -5 -0.9496 1.2362
0 -3 -4 -1.8904 -0.1966
0 -3 -3 -0.3365 -2.4295
0 -3 -2 6.4384 0.2589
0 -3 -1 -7.3012 3.9555
0 -2 -9 1.2526 -3.5507
0 -2 -8 -4.9989 5.8276
0 -2 -7 2.8470 -3.6841
0 -2 -6 0.0112 -0.4027
0 -2 -5 0.3476 2.4633
0 -2 -4 1.0326 -2.7050
0 -2 -3 1.3701 0.5790
0 -2 -2 -3.8843 0.4192
0 -2 -1 -2.6014 1.3955
0 -2 0 7.9375 -2.3665
0 -1 -9 1.2802 -1.8914
0 -1 -8 -0.7641 1.0159
0 -1 -7 0.8636 0.4898
0 -1 -6 -3.8578 -0.8281
0 -1 -5 2.7522 0.6665
0 -1 -4 5.8592 5.9757
0 -1 -3 -8.1416 -2.1515
0 -1 -2 -0.6024 -18.4308
0 -1 -1 4.9312 21.8320
0 0 1 -40.4563 -0.4030
0 0 2 -0.8402 -0.0148
0 0 3 15.8454 0.0519
0 0 4 0.0552 0.0098
0 0 5 -4.6723 0.0430
0 0 6 -0.3070 0.0268
0 0 7 1.3525 0.0070
0 1 1 4.9312 -21.8320
0 1 2 -0.6024 18.4308
0 1 3 -8.1416 2.1515
0 1 4 5.8592 -5.9757
0 1 5 2.7522 -0.6665
0 1 6 -3.8578 0.8281
0 1 7 0.8636 -0.4898
0 1 8 -0.7641 -1.0159
0 1 9 1.2802 1.8914
0 2 0 7.9375 2.3665
0 2 1 -2.6014 -1.3955
0 2 2 -3.8843 -0.4192
0 2 3 1.3701 -0.5790
0 2 4 1.0326 2.7050
0 2 5 0.3476 -2.4633
0 2 6 0.0112 0.4027
0 2 7 2.8470 3.6841
0 2 8 -4.9989 -5.8276
0 2 9 1.2526 3.5507
0 3 1 -7.3012 -3.9555
0 3 2 6.4384 -0.2589
0 3 3 -0.3365 2.4295
0 3 4 -1.8904 0.1966
0 3 5 -0.9496 -1.2362
0 3 6 -0.4853 1.1117
0 3 7 3.1390 -0.4704
0 3 8 -0.7595 0.8663
0 3 9 -0.3695 -2.2821
0 4 0 2.5317 4.4782
0 4 1 0.0613 -2.5224
0 4 2 -0.1686 -0.1662
0 4 3 -2.1849 -0.7440
0 4 4 0.6157 0.5185
0 4 5 0.4311 2.0238
0 4 6 -0.2936 -1.3548
0 4 7 -1.2944 -0.2950
0 4 8 2.9383 1.1206
0 5 1 2.6691 -1.8701
0 5 2 -0.9697 -3.1239
0 5 3 -1.3971 2.2487
0 5 4 -2.6725 -0.2878
0 5 5 5.3542 0.7113
0 5 6 -2.4465 0.3948
0 5 7 0.2172 -0.1863
1 -7 -5 0.6168 -0.3355
1 -7 -4 -0.5008 -2.4361
1 -7 -3 -6.1245 1.3090
1 -6 -6 0.7394 -0.2661
1 -6 -5 1.2327 -1.1787
1 -6 -4 -0.3657 1.0959
1 -6 -3 -0.2703 -2.4557
1 -6 -2 0.4402 2.7018
1 -6 -1 -4.2967 4.6553
1 -5 -8 -1.4974 1.9572
1 -5 -5 -0.4013 0.9479
1 -5 -4 1.1904 -1.4514
1 -5 -3 4.9675 -1.5737
1 -5 -2 -7.2007 1.7197
1 -5 -1 0.5206 -2.4919
1 -4 -8 -1.1859 -4.4608
1 -4 -7 2.3844 1.4774
1 -4 -6 0.8872 1.9337
1 -4 -5 -1.9837 0.4415
1 -4 -4 1.5183 -1.5539
1 -4 -3 -0.2037 -2.6536
1 -4 -2 0.4758 1.8907
1 -4 -1 -3.8744 0.3710
1 -3 -9 0.2485 3.0953
1 -3 -8 -2.2898 -3.4390
1 -3 -7 1.8983 2.4861
1 -3 -6 0.2211 -0.6995
1 -3 -5 0.5192 -1.1202
1 -3 -4 2.1741 2.6550
1 -3 -3 -3.7696 -2.0008
1 -3 -2 1.1118 -2.1202
1 -3 -1 2.0662 3.0987
1 -2 -9 1.9382 -1.4533
1 -2 -8 -1.0453 1.1293
1 -2 -7 0.8563 1.0533
1 -2 -6 -3.7230 0.8932
1 -2 -5 5.6911 -3.9061
1 -2 -4 -6.1281 4.9368
1 -2 -3 2.0458 -3.4785
1 -2 -2 4.8606 -1.5684
1 -2 -1 -4.7450 -0.3662
1 -1 -10 -1.7628 0.2010
1 -1 -9 2.9931 1.7901
1 -1 -8 -1.9801 -1.9775
1 -1 -7 1.1309 -0.9408
1 -1 -6 -0.3322 1.2054
1 -1 -5 -2.5730 -3.3045
1 -1 -4 3.2711 -0.5664
1 -1 -3 3.3456 13.6279
1 -1 -2 -4.0834 -7.5522
1 -1 -1 -4.4982 -16.5634
1 0 0 20.9250 0.5628
1 0 1 7.9313 -0.1072
1 0 2 -12.9948 -0.0590
1 0 3 -0.7582 -0.0616
1 0 4 4.2432 -0.0105
1 0 5 1.3432 -0.0228
1 0 6 -1.5451 -0.0048
1 0 7 -0.6419 0.0137
1 0 8 0.9758 0.0036
1 0 9 0.0439 -0.0242
1 1 0 -5.8603 28.1811
1 1 1 -0.0516 -16.8965
1 1 2 5.7480 -1.6790
1 1 3 -4.6738 4.9027
1 1 4 -2.9952 1.7357
1 1 5 5.6256 -2.6167
1 1 6 -0.7323 -0.2205
1 1 7 -3.2079 3.4793
1 1 8 2.7140 -4.0718
1 1 9 -0.7368 1.1587
1 2 0 -2.0679 -4.7362
1 2 1 4.9709 1.2769
1 2 2 0.4266 2.9515
1 2 3 -4.1824 -4.5731
1 2 4 2.9296 3.2199
1 2 5 -2.1201 0.4818
1 2 6 -1.0605 -3.6240
1 2 7 3.2414 4.6440
1 2 8 -0.3718 -3.3103
1 3 0 5.3147 0.6284
1 3 1 -0.4038 -1.7543
1 3 2 -6.2299 1.8188
1 3 3 2.1145 -3.6698
1 3 4 4.4182 4.0555
1 3 5 -2.6346 -3.2030
1 3 6 -1.1188 0.2627
1 3 7 -1.3067 2.4507
1 3 8 1.8730 -0.5157
1 4 0 1.5738 2.4705
1 4 1 2.9440 -5.3514
1 4 2 -2.4639 3.2828
1 4 3 2.7257 -0.4186
1 4 4 -4.7599 2.1999
1 4 5 5.1862 -5.4808
1 4 6 -2.6391 3.8769
1 4 7 -0.5214 -1.4785
1 5 0 -3.3280 4.3723
1 5 1 1.4552 0.2560
1 6 0 4.7134 14.0907
1 6 3 -4.5834 3.9577
2 -7 -5 0.2645 3.3212
2 -7 -4 6.2354 -1.0963
2 -6 -7 -0.4463 -1.3412
2 -6 -6 -0.5644 2.1589
2 -6 -5 -0.0012 3.1679
2 -6 -4 3.5329 -7.9287
2 -6 -3 -0.9751 5.5728
2 -6 -2 -3.9636 -1.0383
2 -6 -1 2.0971 3.4456
2 -5 -6 -0.2491 2.7133
2 -5 -5 -1.9397 0.0906
2 -5 -4 -0.3736 -1.3447
2 -5 -3 4.9528 -1.9146
2 -5 -2 -2.0581 2.6485
2 -5 -1 -1.0233 -2.1779
2 -4 -9 2.5110 4.1257
2 -4 -8 -3.9182 -4.4877
2 -4 -7 0.0755 -0.7627
2 -4 -5 2.9272 0.3269
2 -4 -4 -3.2430 0.9813
2 -4 -3 0.2840 -1.0143
2 -4 -2 3.9337 3.1172
2 -4 -1 -2.9486 -4.3618
2 -3 -9 -0.6777 1.9238
2 -3 -8 -1.1507 -1.8232
2 -3 -7 0.4688 0.7359
2 -3 -6 -1.0301 0.0593
2 -3 -5 -1.6262 0.7950
2 -3 -4 2.1933 0.7954
2 -3 -3 1.7640 -2.0553
2 -3 -2 -2.4840 -1.6462
2 -3 -1 4.7921 3.8265
2 -2 -10 0.0282 -1.3258
2 -2 -9 -1.1540 0.1907
2 -2 -8 0.1761 -0.8941
2 -2 -7 1.5534 -1.7859
2 -2 -6 -3.1872 5.7803
2 -2 -5 2.9977 -3.7961
2 -2 -4 0.4860 -0.1223
2 -2 -3 -2.1223 5.4125
2 -2 -2 1.1483 -0.6785
2 -2 -1 -2.2096 -9.8670
2 -1 -10 -0.3535 -0.4091
2 -1 -9 0.7279 -0.4674
2 -1 -8 -0.0703 2.2847
2 -1 -7 -0.7162 -1.1588
2 -1 -6 -2.0859 -1.3498
2 -1 -5 3.2429 4.2717
2 -1 -4 -3.8085 -6.7771
2 -1 -3 3.7403 -0.2248
2 -1 -2 0.1772 14.2495
2 -1 -1 2.1060 -18.1474
2 0 0 -15.0803 -0.0880
2 0 1 8.8435 0.2048
2 0 2 1.3597 0.0025
2 0 3 -2.1196 0.0328
2 0 4 -0.9313 0.0202
2 0 5 0.6105 -0.0029
2 0 6 0.9631 -0.0229
2 0 7 -0.9729 -0.0088
2 0 8 0.4515 0.0179
2 1 0 5.8956 7.9672
2 1 1 -4.2528 2.9461
2 1 2 1.6381 -4.4974
2 1 3 2.1743 0.4164
2 1 4 -4.4563 1.2713
2 1 5 1.0768 0.5963
2 1 6 3.6403 -2.2099
2 1 7 -4.3650 1.7821
2 1 8 1.7984 -0.6664
2 2 0 2.7497 -7.7912
2 2 1 -0.6053 2.5651
2 2 2 0.1315 0.8104
2 2 3 -1.9302 -3.1087
2 2 4 1.1440 -0.2127
2 2 5 2.3615 3.2435
2 2 6 -2.6014 -2.0461
2 2 7 -0.5664 0.3316
2 2 8 1.1281 -0.9123
2 3 0 -0.8160 -1.1177
2 3 1 9.4632 -1.2677
2 3 2 -2.6560 1.4874
2 3 3 -5.2898 -1.4635
2 3 4 1.9415 1.3286
2 3 5 2.3080 -0.1147
2 3 6 0.1870 -1.8409
2 3 7 -1.6866 2.2056
2 4 0 -3.9182 2.8577
2 4 1 6.4429 -3.7519
2 5 0 -2.6575 3.1078
2 5 1 2.4013 -1.8092
2 5 2 -0.3378 -3.6631
2 6 1 -5.0857 2.3796
2 6 2 1.5085 -4.3656
2 6 3 -0.6781 2.1948
2 6 4 -0.0114 -0.3641
2 6 5 1.7253 -0.2155
3 -6 -7 -0.2368 -0.3861
3 -6 -6 0.3532 -2.9005
3 -6 -5 -2.9312 7.7015
3 -6 -4 2.6223 -10.3266
3 -6 -3 3.2921 3.5857
3 -6 -2 -3.5842 3.4678
3 -6 -1 -1.3505 -2.3633
3 -5 -7 3.5382 -0.6057
3 -5 -6 0.8337 -0.6346
3 -5 -5 -6.6420 3.6130
3 -5 -4 3.6043 -0.7457
3 -5 -3 0.1645 -2.7423
3 -5 -2 -3.7019 0.2777
3 -5 -1 1.7042 0.3943
3 -4 -9 2.4063 3.1216
3 -4 -8 -1.3555 -1.0539
3 -4 -6 -2.6437 -1.1756
3 -4 -5 2.8160 -1.1469
3 -4 -4 -0.5633 1.9172
3 -4 -3 -2.4452 -2.2399
3 -4 -2 3.1853 4.3879
3 -4 -1 -0.1296 0.6654
3 -3 -9 0.6484 0.1684
3 -3 -8 -0.0442 0.7172
3 -3 -7 0.7754 -1.8415
3 -3 -6 0.7422 0.9623
3 -3 -5 -2.1174 -1.5959
3 -3 -4 0.3675 2.9667
3 -3 -3 -1.4237 -0.5871
3 -3 -2 -3.7151 -2.5871
3 -3 -1 4.8586 1.4310
3 -2 -10 -0.3277 1.2308
3 -2 -9 2.1084 -0.7550
3 -2 -8 -1.0513 -0.3994
3 -2 -7 -0.9654 -0.9242
3 -2 -6 1.3472 -0.4006
3 -2 -5 -0.0498 0.3734
3 -2 -4 -2.2679 -1.8719
3 -2 -3 -1.2829 1.6738
3 -2 -2 10.2469 2.4198
3 -2 -1 -12.2495 -0.4883
3 -1 -10 0.1891 1.1877
3 -1 -9 0.1365 -1.5908
3 -1 -8 2.0431 0.7018
3 -1 -7 0.7675 1.3800
3 -1 -6 -3.9123 -3.3596
3 -1 -5 1.4906 1.2613
3 -1 -4 -0.1146 0.4839
3 -1 -3 -0.2810 -3.1994
3 -1 -2 -2.5696 7.6504
3 -1 -1 5.8795 -4.4359
3 0 0 -2.9164 -0.1418
3 0 1 -2.3929 -0.1223
3 0 2 -1.5140 -0.0220
3 0 3 1.8330 -0.0008
3 0 4 1.3668 0.0156
3 0 5 -1.0235 0.0113
3 0 6 -0.9343 0.0248
3 0 7 0.2306 0.0323
3 1 0 3.5995 -2.8680
3 1 1 0.6315 5.7995
3 1 2 -4.2504 -3.6684
3 1 3 4.5633 0.5819
3 1 4 -1.0241 -0.7433
3 1 5 -2.0711 1.0584
3 1 6 3.0986 0.4690
3 1 7 -1.8737 -1.1919
3 2 0 3.2429 -0.4417
3 2 1 2.5060 1.4504
3 2 2 0.6481 1.1480
3 2 3 -0.8678 1.2698
3 2 4 -2.3851 -4.0271
3 2 5 2.9940 2.0826
3 2 6 -1.6541 -0.1635
3 2 7 0.6589 0.3683
3 3 0 -2.6150 0.3758
3 3 1 -0.4460 0.3107
3 3 2 5.0997 -0.3254
3 3 3 -1.7550 2.2623
3 3 4 -2.2665 -3.9691
3 3 5 3.2394 1.8525
3 3 6 -1.7986 -1.2122
3 4 0 -3.0871 1.1766
3 4 1 0.9099 1.6591
3 4 2 -0.7342 0.9591
3 5 0 -3.4942 1.1941
3 5 1 1.6527 1.1955
3 5 2 0.7671 -3.1531
3 5 3 -0.8031 3.9521
3 5 4 0.2668 -3.3027
3 5 5 -0.2789 0.5142
3 6 0 -1.5155 -1.8441
3 6 1 4.9774 0.8878
3 6 2 -1.6002 0.3606
3 6 3 0.1229 0.9046
3 6 4 -1.0652 -1.5419
3 7 0 -0.2420 0.8377
4 -7 -2 -5.2094 2.6253
4 -7 -1 1.9661 -0.1931
4 -6 -6 0.6182 0.5385
4 -6 -5 -1.0286 3.8465
4 -6 -4 -0.6063 -5.4584
4 -6 -3 1.7566 0.8991
4 -6 -2 1.5612 -0.6657
4 -6 -1 -0.8502 1.6477
4 -5 -8 -2.5296 -2.9789
4 -5 -7 0.2961 1.4452
4 -5 -6 4.4561 -0.5620
4 -5 -5 -2.5938 1.0837
4 -5 -4 0.9909 2.9001
4 -5 -3 1.5171 -4.1933
4 -5 -2 -3.3789 0.2633
4 -4 -9 0.0515 0.9445
4 -4 -7 -1.8765 3.9411
4 -4 -6 1.6511 -0.1838
4 -4 -5 -0.9000 -3.0337
4 -4 -4 1.5206 0.8835
4 -4 -3 -0.6474 0.0771
4 -4 -2 2.4519 -3.3447
4 -4 -1 -4.5665 2.5905
4 -3 -9 -0.7582 -0.3129
4 -3 -8 1.9429 1.4502
4 -3 -6 1.8576 1.9567
4 -3 -5 1.9242 -0.1318
4 -3 -4 -0.0466 0.6801
4 -3 -3 0.1811 -2.8560
4 -3 -2 -2.4981 2.9275
4 -3 -1 0.0161 -2.2021
4 -2 -10 -1.8998 1.2549
4 -2 -9 1.9023 -0.4420
4 -2 -8 -0.6921 0.8954
4 -2 -7 1.1540 0.0735
4 -2 -6 -3.6193 1.0441
4 -2 -5 4.3105 -2.9483
4 -2 -4 0.9359 1.6378
4 -2 -3 -5.2841 0.6815
4 -2 -2 4.1544 -4.9686
4 -2 -1 0.5353 4.0800
4 -1 -10 -0.8552 -0.9385
4 -1 -9 -1.6058 1.0115
4 -1 -8 1.7160 0.0702
4 -1 -7 2.2602 1.2718
4 -1 -6 -2.6867 -0.4194
4 -1 -5 1.4511 0.7801
4 -1 -4 0.8441 -0.9469
4 -1 -3 -3.6074 -4.4073
4 -1 -2 2.9952 5.1401
4 -1 -1 -1.3938 -0.3735
4 0 0 4.0570 0.4238
4 0 1 2.1969 -0.0601
4 0 2 -3.7498 -0.0285
4 0 3 -0.4729 -0.0214
4 0 4 1.1184 -0.0276
4 0 5 0.3951 -0.0132
4 0 6 0.3662 -0.0527
4 1 0 -2.3933 -3.4099
4 1 1 5.8590 3.9518
4 1 2 -5.5082 -1.5307
4 1 3 1.8068 -0.4017
4 1 4 -0.1512 0.9331
4 1 5 -0.8558 -0.7143
4 1 6 1.7414 1.1171
4 2 0 -2.6041 -0.1352
4 2 3 1.7448 2.7736
4 2 4 -1.0020 -2.0040
4 2 5 2.2977 1.6382
4 2 6 -2.0949 -0.9484
4 3 0 2.1027 1.3480
4 3 1 -4.8850 -2.4144
4 3 2 4.8818 0.4591
4 3 4 -0.4688 0.1342
4 3 5 3.0478 -0.5677
4 3 6 -1.1615 -0.8432
4 4 0 3.2714 -1.0552
4 4 1 -0.2501 1.3480
4 4 2 -1.2466 -2.7312
4 4 3 -1.1126 2.0851
4 4 4 -0.4932 -0.5055
4 4 5 3.0180 0.3720
4 5 0 -1.2624 -1.9153
4 5 1 -0.3065 -0.0592
4 5 2 2.1437 0.2387
4 5 3 -1.5880 1.0207
4 5 4 -0.8951 -0.1184
4 6 0 -1.4006 1.4779
4 6 1 -0.1022 -1.2871
4 6 2 -0.3473 -0.5469
4 6 3 0.6456 1.4156
5 -6 -4 -1.1686 -2.4977
5 -6 -3 0.0177 2.1428
5 -6 -2 2.2840 -4.0329
5 -6 -1 -2.7056 3.6721
5 -5 -7 -0.6426 -2.3465
5 -5 -6 -1.9115 -0.7382
5 -5 -5 0.8123 0.5394
5 -5 -4 1.7035 4.6364
5 -5 -3 1.9002 -4.5103
5 -5 -2 -3.3629 3.1072
5 -4 -8 2.5035 -1.7900
5 -4 -7 -2.4814 0.0588
5 -4 -6 1.0518 2.0173
5 -4 -5 -1.0347 0.6577
5 -4 -4 -4.9718 -2.4885
5 -4 -3 6.7140 5.2544
5 -4 -2 0.0942 -6.3294
5 -3 -9 -0.8759 0.2033
5 -3 -7 -1.7523 -0.6724
5 -3 -6 -1.8787 -1.3195
5 -3 -5 2.5496 0.4920
5 -3 -4 0.5281 1.8243
5 -3 -3 -1.2118 0.7653
5 -3 -2 2.0276 -0.9790
5 -3 -1 -0.8398 -1.6695
5 -2 -9 1.0564 -1.9763
5 -2 -8 -1.6121 1.2849
5 -2 -7 2.2559 0.0155
5 -2 -6 -1.3929 0.7151
5 -2 -5 -0.4320 -0.1737
5 -2 -4 -3.1795 0.2680
5 -2 -3 6.6926 0.3365
5 -2 -2 -4.6827 -1.2142
5 -2 -1 1.4167 -1.0552
5 -1 -10 0.0812 -1.0241
5 -1 -9 0.0818 0.3654
5 -1 -8 -2.3515 -1.4234
5 -1 -7 2.4777 1.9756
5 -1 -6 -1.7531 -0.7169
5 -1 -5 0.8808 -0.9357
5 -1 -4 1.9409 1.6629
5 -1 -3 -2.5530 0.5947
5 -1 -2 1.4254 -0.9103
5 -1 -1 -1.8445 -0.6105
5 0 0 -2.0970 -0.1849
5 0 1 2.2722 0.1754
5 0 2 0.5520 0.0460
5 0 3 -0.5499 0.0192
5 0 4 0.4230 0.0046
5 1 0 -3.4086 0.0351
5 1 1 3.4567 1.1487
5 1 2 -2.6254 -0.1357
5 1 3 1.6164 -1.4430
5 1 4 -0.2548 0.0451
5 1 5 -0.8557 0.0610
5 2 1 4.5709 0.0546
5 2 2 -3.5893 0.7532
5 2 3 0.1928 -0.3173
5 2 4 -0.9021 -1.1196
5 2 5 1.0846 1.1878
5 3 0 0.6258 2.9022
5 3 1 -0.7261 -0.4525
5 3 3 -2.8378 -1.8708
5 3 4 0.0782 2.3143
5 4 0 -2.6276 -0.7842
5 4 1 2.6076 0.6494
5 4 2 2.1824 0.1273
5 4 3 -1.8617 0.9830
5 5 0 -1.1782 1.0392
5 5 1 -0.7420 0.4325
5 5 2 2.2077 -0.2156
5 5 3 -0.8023 -1.2833
5 6 0 2.2930 1.7024
5 6 1 0.0725 -0.0992
6 -6 -3 -1.1479 2.8011
6 -5 -6 -1.5048 -2.5049
6 -5 -5 -1.1034 -0.7003
6 -5 -3 2.4567 -3.1049
6 -5 -2 0.5319 3.6975
6 -4 -7 -0.3443 -0.8893
6 -4 -6 1.5834 -1.1208
6 -4 -5 4.7979 2.0321
6 -4 -4 -11.5795 -3.3247
6 -4 -3 8.5969 6.2357
6 -3 -7 0.0932 -0.6051
6 -3 -6 -1.0676 0.3429
6 -3 -5 -0.5910 2.0628
6 -3 -4 0.9210 -8.3707
6 -3 -3 -1.8966 7.3420
6 -3 -2 2.4416 -0.4388
6 -2 -9 0.0011 0.3758
6 -2 -8 0.6358 -1.1743
6 -2 -7 -1.3682 -0.3396
6 -2 -6 1.0064 -0.7428
6 -2 -5 2.1919 0.8535
6 -2 -4 -2.9892 1.3001
6 -2 -3 0.9860 -0.0025
6 -2 -2 -0.1660 1.0603
6 -2 -1 1.0236 -2.6732
6 -1 -9 0.8898 0.0266
6 -1 -8 1.5093 -0.4236
6 -1 -7 -2.3444 0.0701
6 -1 -6 0.1613 1.3718
6 -1 -5 -0.0366 -0.3127
6 -1 -4 -0.2622 -2.0078
6 -1 -3 -0.1720 0.7008
6 -1 -2 1.5856 1.4699
6 -1 -1 0.8639 -1.4223
6 0 0 -0.5692 -0.1425
6 0 1 -1.9414 -0.1523
6 0 2 0.4375 0.0005
6 0 3 -0.2804 0.0001
6 1 0 2.0541 -0.2573
6 1 1 1.2947 0.2945
6 1 2 -1.8721 1.0485
6 1 3 0.0910 0.5390
6 1 4 0.1629 -1.1429
6 2 0 -3.6850 -0.2268
6 2 1 2.5489 -0.6778
6 2 2 0.7211 0.5199
6 2 3 -0.4958 -0.8236
6 2 4 0.1397 -0.2144
6 3 2 -0.4887 -0.9231
6 3 3 -1.0950 -0.9950
6 4 0 -1.6112 -0.3967
6 4 1 -1.4600 -1.0971
6 4 2 0.2748 1.0184
6 5 0 -0.6356 -2.1691
6 5 1 0.1486 1.6269
7 -4 -6 -1.3502 -0.8711
7 -4 -5 4.5673 -0.1115
7 -4 -4 -4.5550 -1.8961
7 -4 -3 4.4993 0.5267
7 -3 -7 -0.4034 -1.2497
7 -3 -6 0.7705 -0.9663
7 -3 -5 0.5482 5.7938
7 -3 -4 -0.2014 -5.6207
7 -3 -3 -2.0715 1.4514
7 -2 -8 0.3116 1.6209
7 -2 -7 -0.1530 -0.5925
7 -2 -6 -0.8349 -1.3713
7 -2 -5 0.0960 -0.7872
7 -2 -4 -0.0691 0.5264
7 -2 -3 1.1250 -0.7984
7 -2 -2 -0.8743 1.5541
7 -1 -9 -2.5995 -1.5563
7 -1 -8 3.2948 0.9158
7 -1 -6 1.0402 0.4869
7 -1 -5 -1.2836 -1.1629
7 -1 -4 0.8942 1.9330
7 -1 -3 -2.0591 -0.8251
7 -1 -2 -1.0854 0.3747
7 -1 -1 3.9836 -0.2231
7 0 0 1.4794 0.2166
7 0 1 0.9209 0.1055
7 1 0 0.9399 0.0920
7 1 1 0.8019 -0.5019
7 1 2 0.1519 -0.3536
7 2 0 -0.8981 0.4112
7 2 1 -0.8705 1.2587
7 2 2 0.6435 0.3562
7 3 0 -3.7863 -1.4748
7 3 1 1.3531 1.1691
7 4 0 0.7792 -0.8401
8 -3 -5 1.3550 0.2322
8 -3 -4 0.2679 0.1062
8 -3 -3 -0.0068 0.2460
8 -2 -6 -1.9007 0.2148
8 -2 -5 1.9518 -0.6608
8 -2 -4 -1.4934 0.6298
8 -2 -3 0.3189 -0.9449
8 -1 -6 1.0947 -0.1602
8 -1 -5 0.4073 0.0551
8 -1 -4 0.0671 -0.3570
8 -1 -3 -0.1929 -0.5412
8 -1 -2 -1.3217 0.6482
8 1 0 0.0038 -0.6531
0 0 0 0.0 0.0
;
_shelx_fab_checksum              85256
_olex2_submission_special_instructions 'No special instructions were received'
_oxdiff_exptl_absorpt_empirical_details
;
Empirical correction (ABSPACK) includes:
- Absorption correction using spherical harmonics
- Frame scaling
;
_oxdiff_exptl_absorpt_empirical_full_max 6.524
_oxdiff_exptl_absorpt_empirical_full_min 0.479
loop_
_space_group_symop_operation_xyz
'x, y, z'
'-x, y+1/2, -z'
loop_
_atom_site_label
_atom_site_type_symbol
_atom_site_fract_x
_atom_site_fract_y
_atom_site_fract_z
_atom_site_U_iso_or_equiv
_atom_site_adp_type
_atom_site_occupancy
_atom_site_site_symmetry_order
_atom_site_calc_flag
_atom_site_refinement_flags_posn
_atom_site_refinement_flags_adp
_atom_site_refinement_flags_occupancy
_atom_site_disorder_assembly
_atom_site_disorder_group
Zn01 Zn 0.6386(5) 0.4156(7) 0.9237(5) 0.081(3) Uani 1 1 d . U . . .
O002 O -0.152(3) 0.478(3) -0.012(2) 0.089(8) Uiso 1 1 d . U . . .
N003 N 0.354(4) 0.718(4) -0.020(3) 0.077(8) Uiso 1 1 d . U . . .
C004 C 0.248(5) 0.617(5) -0.084(4) 0.076(8) Uiso 1 1 d . U . . .
O005 O 0.180(4) 0.657(4) 0.276(3) 0.119(11) Uiso 1 1 d . U . . .
O006 O -0.200(4) 0.719(4) -0.058(3) 0.117(11) Uiso 1 1 d . U . . .
C007 C 0.320(5) 0.510(5) -0.112(4) 0.078(9) Uiso 1 1 d . U . . .
H007 H 0.274080 0.421311 -0.147779 0.094 Uiso 1 1 calc R . . . .
N009 N 0.149(4) 0.518(5) 0.112(4) 0.097(9) Uiso 1 1 d . U . . .
H009 H 0.169282 0.437651 0.082402 0.116 Uiso 1 1 calc R . . . .
C00A C -0.113(5) 0.617(7) -0.022(4) 0.095(9) Uiso 1 1 d . U . . .
C00C C 0.499(6) 0.659(7) -0.019(4) 0.083(9) Uiso 1 1 d . U . . .
H00C H 0.592969 0.701698 0.023372 0.099 Uiso 1 1 calc R . . . .
C00D C 0.093(5) 0.634(5) -0.092(4) 0.086(9) Uiso 1 1 d . U . . .
H00A H 0.034172 0.553080 -0.142148 0.104 Uiso 1 1 calc R . . . .
H00B H 0.052817 0.724692 -0.136021 0.104 Uiso 1 1 calc R . . . .
N00E N 0.475(4) 0.539(5) -0.085(3) 0.086(8) Uiso 1 1 d . U . . .
C00G C 0.061(5) 0.637(6) 0.030(4) 0.096(9) Uiso 1 1 d . U . . .
H00G H 0.089432 0.732910 0.071372 0.115 Uiso 1 1 calc R . . . .
C00H C 0.293(6) 0.426(10) 0.294(5) 0.140(11) Uiso 1 1 d . U . . .
H00D H 0.375044 0.413625 0.266319 0.168 Uiso 1 1 calc R . . . .
H00E H 0.239297 0.332508 0.282721 0.168 Uiso 1 1 calc R . . . .
N00K N 0.575(4) 0.359(5) 0.741(4) 0.119(13) Uiso 1 1 d . U . . .
H00F H 0.657476 0.318895 0.734944 0.143 Uiso 1 1 calc R . . . .
H00H H 0.510509 0.284462 0.728884 0.143 Uiso 1 1 calc R . . . .
C5 C 0.193(7) 0.537(7) 0.222(6) 0.120(11) Uiso 1 1 d . U . . .
O1 O 0.460(5) 0.264(5) 0.503(4) 0.165(14) Uiso 1 1 d . U . . .
C1AA C 0.520(6) 0.439(8) 0.646(5) 0.132(12) Uiso 1 1 d . U . . .
H1AA H 0.602440 0.502127 0.648859 0.159 Uiso 1 1 calc R . . . .
H1AB H 0.450125 0.502340 0.664846 0.159 Uiso 1 1 calc R . . . .
N3 N 0.352(6) 0.463(6) 0.423(5) 0.149(12) Uiso 1 1 d . U . . .
H3 H 0.315085 0.544495 0.437875 0.179 Uiso 1 1 calc R . . . .
C2AA C 0.445(7) 0.407(11) 0.520(6) 0.145(12) Uiso 1 1 d . U . . .
loop_
_atom_site_aniso_label
_atom_site_aniso_U_11
_atom_site_aniso_U_22
_atom_site_aniso_U_33
_atom_site_aniso_U_23
_atom_site_aniso_U_13
_atom_site_aniso_U_12
Zn01 0.050(3) 0.039(4) 0.166(5) 0.000(5) 0.057(3) -0.011(4)
loop_
_atom_type_symbol
_atom_type_description
_atom_type_scat_dispersion_real
_atom_type_scat_dispersion_imag
_atom_type_scat_source
C C 0.0181 0.0091 'International Tables Vol C Tables 4.2.6.8 and 6.1.1.4'
H H 0.0000 0.0000 'International Tables Vol C Tables 4.2.6.8 and 6.1.1.4'
N N 0.0311 0.0180 'International Tables Vol C Tables 4.2.6.8 and 6.1.1.4'
O O 0.0492 0.0322 'International Tables Vol C Tables 4.2.6.8 and 6.1.1.4'
Zn Zn -1.5491 0.6778 'International Tables Vol C Tables 4.2.6.8 and 6.1.1.4'
loop_
_geom_angle_atom_site_label_1
_geom_angle_atom_site_label_2
_geom_angle_atom_site_label_3
_geom_angle
_geom_angle_site_symmetry_1
_geom_angle_site_symmetry_3
O002 Zn01 N003 102.8(12) 1_656 2_646
O002 Zn01 N00K 109.1(12) 1_656 .
N00E Zn01 O002 124.4(16) 1_556 1_656
N00E Zn01 N003 112.7(14) 1_556 2_646
N00E Zn01 N00K 100.4(16) 1_556 .
N00K Zn01 N003 106.4(15) . 2_646
C00A O002 Zn01 122(3) . 1_454
C004 N003 Zn01 137(3) . 2_656
C004 N003 C00C 106(4) . .
C00C N003 Zn01 117(3) . 2_656
N003 C004 C00D 120(4) . .
C007 C004 N003 106(4) . .
C007 C004 C00D 133(4) . .
C004 C007 H007 122.8 . .
C004 C007 N00E 114(4) . .
N00E C007 H007 122.8 . .
C00G N009 H009 121.0 . .
C5 N009 H009 121.0 . .
C5 N009 C00G 118(5) . .
O002 C00A C00G 112(5) . .
O006 C00A O002 125(5) . .
O006 C00A C00G 123(5) . .
N003 C00C H00C 125.1 . .
N00E C00C N003 110(5) . .
N00E C00C H00C 125.1 . .
C004 C00D H00A 107.5 . .
C004 C00D H00B 107.5 . .
C004 C00D C00G 119(4) . .
H00A C00D H00B 107.0 . .
C00G C00D H00A 107.5 . .
C00G C00D H00B 107.5 . .
C007 N00E Zn01 133(3) . 1_554
C00C N00E Zn01 120(4) . 1_554
C00C N00E C007 103(4) . .
N009 C00G C00A 116(4) . .
N009 C00G C00D 109(4) . .
N009 C00G H00G 110.3 . .
C00A C00G C00D 101(3) . .
C00A C00G H00G 110.3 . .
C00D C00G H00G 110.3 . .
H00D C00H H00E 108.0 . .
C5 C00H H00D 109.4 . .
C5 C00H H00E 109.4 . .
C5 C00H N3 111(7) . .
N3 C00H H00D 109.4 . .
N3 C00H H00E 109.4 . .
Zn01 N00K H00F 105.0 . .
Zn01 N00K H00H 105.0 . .
H00F N00K H00H 105.9 . .
C1AA N00K Zn01 129(4) . .
C1AA N00K H00F 105.0 . .
C1AA N00K H00H 105.0 . .
O005 C5 C00H 119(6) . .
N009 C5 O005 126(6) . .
N009 C5 C00H 114(7) . .
N00K C1AA H1AA 103.9 . .
N00K C1AA H1AB 103.9 . .
N00K C1AA C2AA 133(8) . .
H1AA C1AA H1AB 105.4 . .
C2AA C1AA H1AA 103.9 . .
C2AA C1AA H1AB 103.9 . .
C00H N3 H3 112.3 . .
C2AA N3 C00H 135(7) . .
C2AA N3 H3 112.3 . .
O1 C2AA C1AA 108(7) . .
N3 C2AA O1 110(7) . .
N3 C2AA C1AA 140(9) . .
loop_
_geom_bond_atom_site_label_1
_geom_bond_atom_site_label_2
_geom_bond_distance
_geom_bond_site_symmetry_2
Zn01 O002 1.94(3) 1_656
Zn01 N003 2.10(4) 2_646
Zn01 N00E 1.90(4) 1_556
Zn01 N00K 2.05(4) .
O002 C00A 1.33(5) .
N003 C004 1.36(5) .
N003 C00C 1.48(6) .
C004 C007 1.31(5) .
C004 C00D 1.47(5) .
O005 C5 1.28(6) .
O006 C00A 1.21(5) .
C007 H007 0.9300 .
C007 N00E 1.42(5) .
N009 H009 0.8600 .
N009 C00G 1.47(6) .
N009 C5 1.20(5) .
C00A C00G 1.56(6) .
C00C H00C 0.9300 .
C00C N00E 1.30(5) .
C00D H00A 0.9700 .
C00D H00B 0.9700 .
C00D C00G 1.56(5) .
C00G H00G 0.9800 .
C00H H00D 0.9700 .
C00H H00E 0.9700 .
C00H C5 1.42(9) .
C00H N3 1.43(5) .
N00K H00F 0.8900 .
N00K H00H 0.8900 .
N00K C1AA 1.26(5) .
O1 C2AA 1.32(9) .
C1AA H1AA 0.9700 .
C1AA H1AB 0.9700 .
C1AA C2AA 1.40(6) .
N3 H3 0.8600 .
N3 C2AA 1.24(7) .
loop_
_smtbx_masks_void_nr
_smtbx_masks_void_average_x
_smtbx_masks_void_average_y
_smtbx_masks_void_average_z
_smtbx_masks_void_volume
_smtbx_masks_void_count_electrons
1 0.000 -0.885 0.500 367.3 98.4
