#------------------------------------------------------------------------------
#$Date: 2019-05-24 10:10:40 +0300 (Fri, 24 May 2019) $
#$Revision: 215470 $
#$URL: file:///home/coder/svn-repositories/cod/cif/1/55/11/1551114.cif $
#------------------------------------------------------------------------------
#
# This file is available in the Crystallography Open Database (COD),
# http://www.crystallography.net/
#
# All data on this site have been placed in the public domain by the
# contributors.
#
data_1551114
loop_
_publ_author_name
'Anna Worthy'
'Arnaud Grosjean'
'Michael C. Pfrunder'
'Yanan Xu'
'Cheng Yan'
'Grant Edwards'
'Jack K. Clegg'
'John C. McMurtrie'
_publ_section_title
;
 Atomic resolution of structural changes in elastic crystals of copper(II)
 acetylacetonate
;
_journal_name_full               'Nature Chemistry'
_journal_page_first              65
_journal_page_last               69
_journal_paper_doi               10.1038/nchem.2848
_journal_volume                  10
_journal_year                    2018
_chemical_formula_moiety         'C10 H14 Cu O4'
_chemical_formula_sum            'C10 H14 Cu O4'
_chemical_formula_weight         261.75
_space_group_crystal_system      monoclinic
_space_group_IT_number           14
_space_group_name_Hall           '-P 2yn'
_space_group_name_H-M_alt        'P 1 21/n 1'
_symmetry_space_group_name_Hall  '-P 2yn'
_symmetry_space_group_name_H-M   'P 1 21/n 1'
_atom_sites_solution_hydrogens   geom
_cell_angle_alpha                90
_cell_angle_beta                 92.48(3)
_cell_angle_gamma                90
_cell_formula_units_Z            2
_cell_length_a                   10.277(2)
_cell_length_b                   4.6430(9)
_cell_length_c                   11.285(2)
_cell_measurement_reflns_used    2833
_cell_measurement_temperature    100(2)
_cell_measurement_theta_max      28.659
_cell_measurement_theta_min      3.614
_cell_volume                     537.97(18)
_computing_cell_refinement       'XDS (Kabsch, 1993)'
_computing_data_collection       'BluIce (McPhillips, 2002)'
_computing_data_reduction        'XDS (Kabsch, 1993)'
_computing_molecular_graphics    'Olex2 (Dolomanov et al., 2009)'
_computing_publication_material  'Olex2 (Dolomanov et al., 2009)'
_computing_structure_refinement  'ShelXL (Sheldrick, 2015)'
_diffrn_ambient_temperature      100(2)
_diffrn_measured_fraction_theta_full 0.997
_diffrn_measured_fraction_theta_max 0.986
_diffrn_measurement_device_type  'ADSC Quantum 210r'
_diffrn_measurement_method       'Phi Scan'
_diffrn_radiation_monochromator  'Silicon Double Crystal'
_diffrn_radiation_type           synchrotron
_diffrn_radiation_wavelength     0.7108
_diffrn_reflns_av_R_equivalents  0.0535
_diffrn_reflns_av_unetI/netI     0.0309
_diffrn_reflns_Laue_measured_fraction_full 0.997
_diffrn_reflns_Laue_measured_fraction_max 0.986
_diffrn_reflns_limit_h_max       13
_diffrn_reflns_limit_h_min       -13
_diffrn_reflns_limit_k_max       6
_diffrn_reflns_limit_k_min       -6
_diffrn_reflns_limit_l_max       14
_diffrn_reflns_limit_l_min       -14
_diffrn_reflns_number            9036
_diffrn_reflns_point_group_measured_fraction_full 0.997
_diffrn_reflns_point_group_measured_fraction_max 0.986
_diffrn_reflns_theta_full        26.000
_diffrn_reflns_theta_max         28.659
_diffrn_reflns_theta_min         3.614
_diffrn_source                   'MX1 Beamline Australian Synchrotron'
_exptl_absorpt_coefficient_mu    2.020
_exptl_absorpt_correction_type   multi-scan
_exptl_absorpt_process_details   'XDS (Kabsch, 1993)'
_exptl_crystal_colour            'clear dark blue'
_exptl_crystal_colour_lustre     clear
_exptl_crystal_colour_modifier   dark
_exptl_crystal_colour_primary    blue
_exptl_crystal_density_diffrn    1.616
_exptl_crystal_description       needle
_exptl_crystal_F_000             270
_exptl_crystal_size_max          0.4
_exptl_crystal_size_mid          0.05
_exptl_crystal_size_min          0.05
_refine_diff_density_max         0.655
_refine_diff_density_min         -1.043
_refine_diff_density_rms         0.117
_refine_ls_extinction_coef       0.124(12)
_refine_ls_extinction_expression Fc^*^=kFc[1+0.001xFc^2^\l^3^/sin(2\q)]^-1/4^
_refine_ls_extinction_method     SHELXL
_refine_ls_goodness_of_fit_ref   1.153
_refine_ls_hydrogen_treatment    constr
_refine_ls_matrix_type           full
_refine_ls_number_parameters     73
_refine_ls_number_reflns         1371
_refine_ls_number_restraints     0
_refine_ls_restrained_S_all      1.153
_refine_ls_R_factor_all          0.0419
_refine_ls_R_factor_gt           0.0382
_refine_ls_shift/su_max          0.000
_refine_ls_shift/su_mean         0.000
_refine_ls_structure_factor_coef Fsqd
_refine_ls_weighting_details
'w=1/[\s^2^(Fo^2^)+(0.0579P)^2^+0.6156P] where P=(Fo^2^+2Fc^2^)/3'
_refine_ls_weighting_scheme      calc
_refine_ls_wR_factor_gt          0.1052
_refine_ls_wR_factor_ref         0.1074
_reflns_Friedel_coverage         0.000
_reflns_Friedel_fraction_full    .
_reflns_Friedel_fraction_max     .
_reflns_number_gt                1221
_reflns_number_total             1371
_reflns_threshold_expression     'I > 2\s(I)'
_cod_data_source_file            nchem.2848-s4.cif
_cod_data_source_block           1
_cod_depositor_comments
;
The following automatic conversions were performed:

'_exptl_absorpt_correction_type' value 'Multi-Scan' changed to
'multi-scan' according to the built-in table from CIF Core dictionary
named 'cif_core.dic' version 2.4.5 from 2014-11-21.

Automatic conversion script
Id: cif_fix_values 6524 2018-11-02 12:15:13Z antanas 
;
_cod_original_cell_volume        537.97(19)
_cod_database_code               1551114
_shelx_space_group_comment
;
The symmetry employed for this shelxl refinement is uniquely defined
by the following loop, which should always be used as a source of
symmetry information in preference to the above space-group names.
They are only intended as comments.
;
_olex2_refinement_description
;
1. Fixed Uiso
 At 1.2 times of:
  All C(H) groups
 At 1.5 times of:
  All C(H,H,H) groups
2.a Aromatic/amide H refined with riding coordinates:
 C3(H3)
2.b Idealised Me refined as rotating group:
 C1(H1A,H1B,H1C), C5(H5A,H5B,H5C)
;
_shelx_res_file
;
TITL _REF in P2(1)/n
CELL 0.71073 10.277 4.643 11.285 90 92.478 90
ZERR 2 0.00206 0.00093 0.00226 0 0.03 0
LATT 1
SYMM 0.5-X,0.5+Y,0.5-Z
SFAC C H Cu O
UNIT 20 28 2 8

L.S. 50
PLAN  25
TEMP -173(2)
LIST 1
MORE -1
BOND $H
CONF
fmap 2
acta 52
OMIT -6 4 10
OMIT 12 0 4
REM <olex2.extras>
REM <HklSrc "%.\\_REF.hkl">
REM </olex2.extras>

WGHT    0.057900    0.615600
EXTI    0.123779
FVAR       1.19150
C1    1    0.180850   -0.064767    0.447032    11.00000    0.01655    0.02363 =
         0.02234   -0.00286    0.00456   -0.00310
AFIX 137
H1A   2    0.119795    0.076330    0.477576    11.00000   -1.50000
H1B   2    0.193884   -0.221186    0.504634    11.00000   -1.50000
H1C   2    0.145294   -0.143443    0.371828    11.00000   -1.50000
AFIX   0
C2    1    0.309760    0.080216    0.427071    11.00000    0.01404    0.01800 =
         0.01619    0.00246   -0.00013   -0.00037
C3    1    0.389344   -0.030740    0.340191    11.00000    0.01814    0.02249 =
         0.01612   -0.00266    0.00215   -0.00156
AFIX  43
H3    2    0.358990   -0.194274    0.296605    11.00000   -1.20000
AFIX   0
C4    1    0.510887    0.083964    0.313412    11.00000    0.01931    0.01750 =
         0.01261    0.00131    0.00294    0.00137
C5    1    0.585968   -0.052671    0.216088    11.00000    0.02291    0.02397 =
         0.01882   -0.00450    0.00753   -0.00034
AFIX 137
H5A   2    0.645462    0.089472    0.183918    11.00000   -1.50000
H5B   2    0.525045   -0.119777    0.152807    11.00000   -1.50000
H5C   2    0.636153   -0.216439    0.248339    11.00000   -1.50000
AFIX   0
O1    4    0.337548    0.294004    0.494424    11.00000    0.01747    0.01926 =
         0.01857   -0.00245    0.00538   -0.00139
O2    4    0.565497    0.298780    0.365659    11.00000    0.01735    0.01839 =
         0.01810   -0.00253    0.00524   -0.00111
CU1   3    0.500000    0.500000    0.500000    10.50000    0.01487    0.01710 =
         0.01535   -0.00231    0.00525   -0.00158
HKLF 4

REM  _REF in P2(1)/n
REM R1 =  0.0382 for    1221 Fo > 4sig(Fo)  and  0.0419 for all    1371 data
REM     73 parameters refined using      0 restraints

END

WGHT      0.0579      0.6187

REM Highest difference peak  0.655,  deepest hole -1.043,  1-sigma level  0.117
Q1    1   0.5009  0.2193  0.4997  11.00000  0.05    0.65
Q2    1   0.3383  0.2034  0.4651  11.00000  0.05    0.52
Q3    1   0.2439  0.0126  0.4368  11.00000  0.05    0.49
Q4    1   0.5386  0.1952  0.3482  11.00000  0.05    0.45
Q5    1   0.4519  0.0123  0.3403  11.00000  0.05    0.44
Q6    1   0.5331  0.6441  0.5424  11.00000  0.05    0.43
Q7    1   0.5000  0.0000  0.5000  10.50000  0.05    0.42
Q8    1   0.4607  0.6431  0.4583  11.00000  0.05    0.42
Q9    1   0.6026  0.5206  0.5663  11.00000  0.05    0.41
Q10   1   0.3668  0.0373  0.3916  11.00000  0.05    0.40
Q11   1   0.5635  0.0232  0.2608  11.00000  0.05    0.37
Q12   1   0.5590  0.4993  0.4710  11.00000  0.05    0.37
Q13   1   0.5711  0.0451  0.1603  11.00000  0.05    0.35
Q14   1   0.5389  0.3205  0.3995  11.00000  0.05    0.35
Q15   1   0.3807  0.5653  0.4841  11.00000  0.05    0.30
Q16   1   0.5602 -0.2112  0.1872  11.00000  0.05    0.30
Q17   1   0.3755 -0.2576  0.4593  11.00000  0.05    0.29
Q18   1   0.3220  0.3324  0.4747  11.00000  0.05    0.28
Q19   1   0.5451 -0.1647  0.3616  11.00000  0.05    0.28
Q20   1   0.3208 -0.2239  0.4424  11.00000  0.05    0.27
Q21   1   0.3856 -0.5186  0.3355  11.00000  0.05    0.26
Q22   1   0.3230 -0.1689  0.4952  11.00000  0.05    0.25
Q23   1   0.1395  0.0289  0.4367  11.00000  0.05    0.25
Q24   1   0.6135  0.3052  0.3594  11.00000  0.05    0.25
Q25   1   0.4621 -0.0894  0.4453  11.00000  0.05    0.25
;
_shelx_res_checksum              78928
_shelx_hkl_file
;
   0   0  -1   -0.73    0.56
   0   0  -1   -0.94    0.72
   0   0  -2 4556.00  278.30
   0   0   2 5106.00  311.80
   0   0  -3    1.96    1.54
   0   0  -3   -0.95    1.99
   0   0   3    2.95    1.75
   0   0   3    0.91    1.90
   0   0  -4 3257.00  199.00
   0   0  -4 2924.00  178.80
   0   0   4 3093.00  189.00
   0   0   4 2915.00  178.30
   0   0  -5   -2.15    2.35
   0   0  -5   -3.47    3.01
   0   0   5   -1.11    3.01
   0   0   5   -3.83    2.50
   0   0  -6 5031.00  307.40
   0   0  -6 6001.00  366.60
   0   0   6 5398.00  329.80
   0   0   6 5202.00  317.90
   0   0  -7    1.81    3.84
   0   0  -7    1.38    3.24
   0   0   7    0.64    4.11
   0   0   7    0.38    3.57
   0   0  -8 1231.00   75.66
   0   0  -8 1459.00   89.52
   0   0   8 1297.00   79.96
   0   0   8 1327.00   81.54
   0   0  -9   -2.77    4.40
   0   0  -9   -0.72    4.79
   0   0   9   -0.45    4.95
   0   0   9    4.78    6.26
   0   0 -10  850.40   52.55
   0   0 -10  696.30   43.26
   0   0  10  830.80   51.62
   0   0  10  764.80   47.53
   0   0 -11    7.75    6.47
   0   0 -11   -1.35    5.56
   0   0  11    4.25    5.62
   0   0  11    0.17    5.97
   0   0 -12  571.00   36.02
   0   0 -12  641.30   40.07
   0   0  12  566.60   35.83
   0   0  12  642.40   40.20
   0   0 -13   -6.71    6.46
   0   0 -13    8.13    7.36
   0   0  13   11.49    7.11
   0   0  13    2.57    8.16
   0   0 -14  738.70   46.35
   0   0 -14  834.10   51.90
   0   0  14  777.90   49.00
   0   0  14  892.90   55.68
   1   0  14    0.70    8.61
   1   0  14   14.57    8.80
  -1   0 -14    6.31    9.56
  -1   0 -14   -6.56    7.56
   1   0  13  341.10   22.97
   1   0  13  348.60   22.93
  -1   0 -13  289.50   19.68
  -1   0 -13  353.70   23.18
   1   0  12   -1.14    7.36
   1   0  12    1.49    6.08
  -1   0 -12    3.43    6.87
  -1   0 -12    9.01    7.18
   1   0  11 1956.00  120.00
   1   0  11 1827.00  112.20
  -1   0 -11 1759.00  108.00
  -1   0 -11 2127.00  130.40
   1   0  10   -5.25    6.31
   1   0  10    4.35    5.28
  -1   0 -10    5.40    5.88
  -1   0 -10   -1.72    5.21
   1   0   9  868.40   53.69
   1   0   9  911.50   56.63
  -1   0  -9 1003.00   61.85
  -1   0  -9  792.60   49.05
   1   0   8   -3.94    3.95
   1   0   8   -0.83    5.80
  -1   0  -8   -5.37    4.32
  -1   0  -8    1.65    4.04
   1   0   7 2721.00  166.60
   1   0   7 2615.00  160.00
  -1   0  -7 2481.00  151.80
  -1   0  -7 2855.00  174.60
   1   0   6   -0.31    3.00
   1   0   6    0.51    3.57
  -1   0  -6    1.34    2.55
  -1   0  -6    0.71    3.38
   1   0   5  985.60   60.53
   1   0   5  990.00   60.89
  -1   0  -5  936.20   57.51
  -1   0  -5 1060.00   65.00
   1   0   4   -5.40    2.72
   1   0   4   -0.72    2.05
  -1   0  -4   -2.50    2.56
  -1   0  -4   -1.51    1.91
   1   0   3  355.70   22.01
   1   0   3  306.30   19.09
  -1   0  -3  373.00   23.01
  -1   0  -3  326.30   20.24
   1   0   2   -1.36    1.50
   1   0   2    0.39    1.08
  -1   0  -2   -1.28    1.08
  -1   0  -2   -0.47    1.47
   1   0   0    1.00    0.45
   1   0   0   -0.01    0.43
  -1   0   0   -0.04    0.36
  -1   0   0    0.56    0.40
   1   0  -2   -0.86    1.26
   1   0  -2    1.67    1.45
  -1   0   2    0.14    1.13
  -1   0   2    1.03    1.28
   1   0  -3 4098.00  250.40
   1   0  -3 4410.00  269.40
  -1   0   3 4564.00  278.80
  -1   0   3 4494.00  274.60
   1   0  -4    2.11    2.60
   1   0  -4   -1.15    2.11
  -1   0   4   -3.03    1.81
  -1   0   4    3.18    2.26
   1   0  -5 5101.00  311.80
   1   0  -5 5619.00  343.20
  -1   0   5 5762.00  351.90
  -1   0   5 5305.00  324.20
   1   0  -6    2.43    2.95
   1   0  -6   -1.17    3.85
  -1   0   6    2.82    2.51
  -1   0   6   -2.80    3.28
  -1   0   7 7369.00  450.30
  -1   0   7 7855.00  479.80
   1   0  -8    0.14    4.62
   1   0  -8   -0.30    4.51
   1   0  -9  657.30   40.92
   1   0  -9  567.90   35.53
  -1   0   9  695.60   43.22
  -1   0   9  698.10   43.71
   1   0 -10   -2.95    5.17
   1   0 -10   -0.53    5.45
  -1   0  10    8.01    5.18
  -1   0  10    0.75    5.58
   1   0 -11  503.00   31.70
   1   0 -11  577.60   36.14
  -1   0  11  546.90   34.53
  -1   0  11  588.40   36.94
   1   0 -12    6.28    6.40
   1   0 -12   -9.12    6.22
  -1   0  12    4.58    6.50
  -1   0  12   11.92    6.74
   1   0 -13  568.30   36.21
   1   0 -13  622.60   39.06
  -1   0  13  642.20   40.40
  -1   0  13  568.20   36.00
   1   0 -14   13.87    7.54
   1   0 -14   -0.82    8.64
  -1   0  14    4.04    7.60
  -1   0  14   15.33    7.92
   2   0  14    0.71    8.59
   2   0  14   14.46    8.84
  -2   0 -14   -7.41    9.20
  -2   0 -14    1.47    8.01
   2   0  13  -10.88    7.75
   2   0  13   -7.05    7.04
  -2   0 -13   -7.64    7.22
  -2   0 -13   -1.18    8.68
   2   0  12  205.10   14.84
   2   0  12  179.30   13.69
  -2   0 -12  182.50   13.24
  -2   0 -12  179.10   14.11
   2   0  11   -2.41    6.42
   2   0  11   -0.15    6.54
  -2   0 -11    7.84    6.58
  -2   0 -11    9.67    6.78
   2   0  10 1130.00   69.74
   2   0  10 1187.00   73.28
  -2   0 -10 1356.00   83.39
  -2   0 -10 1034.00   63.81
   2   0   9    4.93    4.78
   2   0   9    4.42    6.51
  -2   0  -9   -1.11    5.36
  -2   0  -9   -4.58    5.39
   2   0   8 1927.00  118.30
   2   0   8 1750.00  107.40
  -2   0  -8 2176.00  133.30
  -2   0  -8 1735.00  106.40
   2   0   7    0.68    3.66
   2   0   7    1.88    3.92
  -2   0  -7    0.63    3.76
  -2   0  -7   -2.73    3.21
   2   0   6 1569.00   96.31
   2   0   6 1452.00   89.04
  -2   0  -6 1617.00   99.04
  -2   0  -6 1494.00   91.59
   2   0   5   -0.66    2.75
   2   0   5   -3.11    3.46
  -2   0  -5    1.32    2.82
  -2   0  -5    5.31    2.60
   2   0   4 1719.00  105.30
   2   0   4 1578.00   96.57
  -2   0  -4 1889.00  115.50
  -2   0  -4 1681.00  102.90
   2   0   3   -0.52    2.21
   2   0   3    1.04    1.91
  -2   0  -3   -1.05    1.54
  -2   0  -3    1.31    2.21
   2   0   2  122.30    7.75
   2   0   2  142.00    9.02
  -2   0  -2  136.20    8.59
  -2   0  -2  127.60    8.05
   2   0   1    0.09    1.08
   2   0   1   -1.66    1.08
  -2   0  -1   -0.07    0.93
  -2   0  -1   -0.30    0.93
  -2   0   0 4200.00  256.60
   2   0  -1    1.50    0.92
   2   0  -1   -0.17    1.07
  -2   0   1    1.55    0.88
  -2   0   1    0.10    0.93
   2   0  -2   14.74    1.87
   2   0  -2   16.74    1.74
  -2   0   2   13.56    1.58
  -2   0   2   18.22    1.79
   2   0  -3   -0.40    1.53
   2   0  -3   -0.23    2.15
  -2   0   3   -0.07    1.76
  -2   0   3    1.60    1.71
   2   0  -4   16.89    2.74
   2   0  -4   21.17    2.49
  -2   0   4   20.10    2.83
  -2   0   4   23.10    2.54
   2   0  -5   -0.14    3.63
   2   0  -5    2.73    2.63
  -2   0   5   -2.91    2.72
  -2   0   5   -2.05    2.55
   2   0  -6 5945.00  363.40
   2   0  -6 6546.00  399.90
  -2   0   6 6434.00  393.10
  -2   0   6 6725.00  410.80
   2   0  -7   -8.06    3.58
   2   0  -7    8.58    4.95
  -2   0   7   -0.23    3.31
  -2   0   7   -3.08    3.68
   2   0  -8 1165.00   71.73
   2   0  -8 1001.00   61.80
  -2   0   8 1133.00   69.58
  -2   0   8 1123.00   69.24
   2   0  -9    0.90    5.17
   2   0  -9    1.36    4.32
  -2   0   9    6.17    5.19
  -2   0   9   -0.53    3.86
   2   0 -10  675.00   41.82
   2   0 -10  590.80   37.29
  -2   0  10  707.30   43.78
  -2   0  10  696.20   43.43
   2   0 -11    5.55    5.13
   2   0 -11    2.16    7.07
  -2   0  11   -2.97    4.71
  -2   0  11   -8.12    6.54
   2   0 -12  226.30   15.25
   2   0 -12  193.10   14.92
  -2   0  12  232.20   16.16
  -2   0  12  241.40   16.14
   2   0 -13   -9.34    9.18
   2   0 -13   -7.22    6.70
  -2   0  13   -6.05    7.17
  -2   0  13   -2.88    6.54
   2   0 -14  635.10   41.29
   2   0 -14  606.90   38.37
  -2   0  14  639.10   40.55
  -2   0  14  601.80   37.95
   3   0  14   -5.61    8.76
   3   0  14    4.49    8.19
  -3   0 -14    4.60   10.14
  -3   0 -14   -5.63    9.00
   3   0  13   87.49   10.19
   3   0  13   87.32    9.70
  -3   0 -13   98.42   10.62
  -3   0 -13   92.24    9.76
   3   0  12   -0.43    7.25
   3   0  12   -1.56    8.12
  -3   0 -12   -5.07    7.39
  -3   0 -12    2.89    7.67
   3   0  11  334.60   21.99
   3   0  11  400.50   26.09
  -3   0 -11  444.40   28.38
  -3   0 -11  381.20   24.77
   3   0  10    1.61    6.77
   3   0  10  -11.00    5.73
  -3   0 -10  -11.84    6.32
  -3   0 -10   -2.46    6.46
   3   0   9  415.70   27.04
   3   0   9  394.60   25.25
  -3   0  -9  479.20   30.25
  -3   0  -9  409.90   26.10
   3   0   8   -2.24    4.45
   3   0   8    3.82    6.33
  -3   0  -8    6.35    5.03
  -3   0  -8    2.27    4.98
   3   0   7  287.40   18.77
   3   0   7  268.40   17.28
  -3   0  -7  300.50   19.19
  -3   0  -7  300.30   19.03
   3   0   6   -4.09    4.52
   3   0   6   -0.98    3.14
  -3   0  -6    1.60    3.63
  -3   0  -6   -0.34    3.53
   3   0   5 1983.00  121.50
   3   0   5 1797.00  110.10
  -3   0  -5 1896.00  116.10
  -3   0  -5 2129.00  130.30
   3   0   4    2.56    2.94
   3   0   4    0.98    2.40
  -3   0  -4    1.85    2.59
  -3   0  -4    0.10    2.15
   3   0   3  764.30   47.00
   3   0   3  658.40   40.43
  -3   0  -3  735.30   45.13
  -3   0  -3  799.60   49.04
   3   0   2   -0.56    1.74
   3   0   2   -2.86    2.00
  -3   0  -2   -1.55    1.64
  -3   0  -2    0.42    1.56
   3   0   1 4839.00  295.70
  -3   0  -1 4800.00  293.20
  -3   0  -1 5107.00  312.00
   3   0   0    0.33    1.29
   3   0   0   -1.84    1.13
  -3   0   0   -0.61    1.11
  -3   0   0   -0.68    1.06
   3   0  -1   81.34    5.28
   3   0  -1   69.95    4.64
  -3   0   1   73.43    4.72
  -3   0   1   65.99    4.37
   3   0  -2   -2.23    1.63
   3   0  -2   -0.84    1.56
  -3   0   2   -0.76    1.52
  -3   0   2   -0.63    1.32
   3   0  -3  264.20   16.46
   3   0  -3  296.20   18.52
  -3   0   3  304.30   18.98
  -3   0   3  308.80   19.09
   3   0  -4    0.66    2.13
   3   0  -4   -3.89    2.83
  -3   0   4    0.21    2.14
  -3   0   4   -2.17    2.14
   3   0  -5 1183.00   72.68
   3   0  -5 1177.00   72.18
  -3   0   5 1272.00   77.92
  -3   0   5 1218.00   74.76
   3   0  -6   -2.14    4.35
   3   0  -6    2.86    2.96
  -3   0   6   -1.47    3.05
  -3   0   6    0.74    3.03
   3   0  -7 1199.00   73.86
   3   0  -7 1231.00   75.61
  -3   0   7 1387.00   85.04
  -3   0   7 1313.00   80.68
   3   0  -8    8.86    3.89
   3   0  -8    6.19    4.86
  -3   0   8   -0.27    4.67
  -3   0   8    0.01    3.52
   3   0  -9  397.60   25.18
   3   0  -9  391.40   25.16
  -3   0   9  442.20   27.66
  -3   0   9  406.80   25.83
   3   0 -10    1.99    4.50
   3   0 -10    9.53    6.28
  -3   0  10    9.06    5.35
  -3   0  10    0.71    4.35
   3   0 -11   79.85    8.99
   3   0 -11   84.36    7.39
  -3   0  11   71.75    7.70
  -3   0  11   90.16    7.61
   3   0 -12   -0.15    5.25
   3   0 -12    6.55    7.99
  -3   0  12    4.95    6.48
  -3   0  12    1.43    5.55
   3   0 -13  251.80   17.03
   3   0 -13  209.00   16.09
  -3   0  13  272.60   19.10
  -3   0  13  252.00   17.06
   3   0 -14    1.55    6.51
   3   0 -14    6.92    9.53
  -3   0  14  -10.28    6.51
  -3   0  14    5.09    8.25
   4   0  14   24.24    9.43
   4   0  14   42.23    9.76
  -4   0 -14   15.81    9.94
  -4   0 -14   36.89   10.32
   4   0  13   12.58    9.71
   4   0  13    5.28    8.84
  -4   0 -13   -2.58    7.57
  -4   0 -13   -8.32    8.82
   4   0  12  262.50   18.57
   4   0  12  275.00   19.39
  -4   0 -12  279.40   18.91
  -4   0 -12  257.90   18.10
   4   0  11   -2.02    7.75
   4   0  11   -6.82    6.59
  -4   0 -11   -4.09    7.65
  -4   0 -11   -0.28    7.57
   4   0  10  679.70   42.43
   4   0  10  758.50   47.31
  -4   0 -10  847.40   52.59
  -4   0 -10  696.80   43.47
   4   0   9   13.12    7.19
   4   0   9   -5.53    4.95
  -4   0  -9    3.96    6.43
  -4   0  -9   -8.12    6.51
   4   0   8  425.80   26.81
   4   0   8  434.70   28.04
  -4   0  -8  430.80   27.26
  -4   0  -8  492.60   31.02
   4   0   7   -2.56    3.82
   4   0   7    6.49    5.93
  -4   0  -7    0.10    4.63
  -4   0  -7    5.57    5.27
   4   0   6  112.20    8.03
   4   0   6  108.60    8.17
  -4   0  -6  121.60    8.71
  -4   0  -6  112.10    7.91
   4   0   5    0.65    3.56
   4   0   5   -2.16    2.92
  -4   0  -5   -0.18    3.41
  -4   0  -5   -2.19    2.90
   4   0   4 1281.00   78.46
   4   0   4 1592.00   97.59
  -4   0  -4 1578.00   96.65
  -4   0  -4 1492.00   91.33
   4   0   3    4.86    2.82
   4   0   3    3.02    2.42
  -4   0  -3   -2.30    2.02
  -4   0  -3   -4.06    2.43
   4   0   2 3051.00  186.50
   4   0   2 2946.00  180.10
  -4   0  -2 3006.00  183.70
  -4   0  -2 3025.00  184.90
   4   0   1   -1.10    1.81
   4   0   1   -1.59    1.63
  -4   0  -1   -0.97    1.54
  -4   0  -1    0.19    1.74
   4   0   0  270.50   16.76
   4   0   0  267.20   16.58
  -4   0   0  271.00   16.74
  -4   0   0  256.60   15.91
   4   0  -1   -0.47    1.84
   4   0  -1   -1.97    1.59
  -4   0   1   -1.38    1.62
  -4   0   1    2.60    1.34
   4   0  -2  537.20   33.10
   4   0  -2  456.20   28.13
  -4   0   2  525.90   32.29
  -4   0   2  483.70   29.81
   4   0  -3    1.68    2.13
   4   0  -3    1.06    2.24
  -4   0   3   -1.01    1.80
  -4   0   3    1.10    2.18
   4   0  -4  999.50   61.44
   4   0  -4  895.20   54.97
  -4   0   4  981.90   60.34
  -4   0   4 1080.00   66.20
   4   0  -5   -0.36    2.61
   4   0  -5   -0.55    3.54
  -4   0   5    0.21    3.25
  -4   0   5    3.63    2.72
   4   0  -6 2589.00  158.50
   4   0  -6 2518.00  154.10
  -4   0   6 2681.00  164.10
  -4   0   6 2838.00  173.50
   4   0  -7    0.72    3.38
   4   0  -7    5.07    4.98
  -4   0   7   -3.29    3.55
  -4   0   7    8.77    3.39
   4   0  -8  298.70   19.08
   4   0  -8  296.60   19.26
  -4   0   8  346.00   22.14
  -4   0   8  343.90   21.67
   4   0  -9    3.74    5.55
   4   0  -9    1.16    4.62
  -4   0   9   -0.46    5.45
  -4   0   9    4.22    4.26
   4   0 -10  891.80   55.49
   4   0 -10  882.80   54.38
  -4   0  10 1014.00   62.46
  -4   0  10  983.60   60.78
   4   0 -11    3.53    4.98
   4   0 -11    9.89    7.55
  -4   0  11    1.31    4.91
  -4   0  11   -4.21    6.69
   4   0 -12  264.00   18.86
   4   0 -12  273.10   17.95
  -4   0  12  279.80   18.24
  -4   0  12  304.40   20.53
   4   0 -13   -4.77    8.81
   4   0 -13   -1.23    6.38
  -4   0  13    9.29    6.18
  -4   0  13   -3.77    8.36
   4   0 -14   71.78   11.65
   4   0 -14   78.85    8.98
  -4   0  14  107.20   11.02
  -4   0  14   85.37    9.12
   5   0  13  120.60   13.41
   5   0  13   89.44   10.71
  -5   0 -13   85.21   10.59
  -5   0 -13  105.80   11.93
   5   0  12   -5.96    7.33
   5   0  12   -1.05    9.15
  -5   0 -12   17.51    9.40
  -5   0 -12    0.05    8.27
   5   0  11  960.50   59.76
   5   0  11  830.90   51.83
  -5   0 -11 1098.00   68.03
  -5   0 -11  919.80   57.14
   5   0  10   -1.17    7.55
   5   0  10    6.33    6.62
  -5   0 -10   -4.37    7.89
  -5   0 -10   -7.03    6.94
   5   0   9 1743.00  107.20
   5   0   9 1461.00   89.76
  -5   0  -9 1937.00  118.80
  -5   0  -9 1621.00   99.62
   5   0   8   -7.87    7.48
   5   0   8   -1.93    4.93
  -5   0  -8    0.27    5.66
  -5   0  -8    1.65    5.79
   5   0   7  380.60   24.88
   5   0   7  319.60   20.36
  -5   0  -7  368.90   23.47
  -5   0  -7  421.10   26.74
   5   0   6    1.66    3.73
   5   0   6    6.84    5.35
  -5   0  -6    4.80    4.33
  -5   0  -6    2.68    4.55
   5   0   5 2015.00  123.40
   5   0   5 2032.00  124.50
  -5   0  -5 1961.00  120.00
  -5   0  -5 2193.00  134.20
   5   0   4    2.64    3.72
   5   0   4    1.88    3.19
  -5   0  -4    0.06    2.81
  -5   0  -4   -2.08    3.18
   5   0   3 3626.00  221.70
   5   0   3 3772.00  230.60
  -5   0  -3 3701.00  226.20
  -5   0  -3 3839.00  234.60
   5   0   2   -3.93    2.73
   5   0   2    2.40    2.23
  -5   0  -2    1.18    1.95
  -5   0  -2   -0.98    2.13
   5   0   1 5998.00  366.50
   5   0   1 5793.00  354.00
  -5   0  -1 6184.00  377.80
  -5   0  -1 5929.00  362.20
   5   0   0    0.91    1.83
   5   0   0   -1.06    2.03
  -5   0   0    1.54    1.95
  -5   0   0    1.70    1.54
   5   0  -1  230.80   14.48
   5   0  -1  236.00   14.75
  -5   0   1  234.10   14.53
  -5   0   1  223.30   13.99
   5   0  -2    1.04    2.23
   5   0  -2    0.64    2.05
  -5   0   2   -0.22    2.14
  -5   0   2   -2.24    1.70
   5   0  -3 1241.00   76.11
   5   0  -3 1061.00   65.10
  -5   0   3 1248.00   76.39
  -5   0   3 1099.00   67.44
   5   0  -4    1.23    2.84
   5   0  -4   -0.44    3.27
  -5   0   4    1.74    2.84
  -5   0   4    0.68    2.27
   5   0  -5 4178.00  255.50
   5   0  -5 3590.00  219.50
  -5   0   5 4348.00  265.60
  -5   0   5 4056.00  248.00
   5   0  -6    2.69    3.23
   5   0  -6   -2.11    4.26
  -5   0   6    0.82    4.01
  -5   0   6    1.58    2.98
   5   0  -7  126.10    9.68
   5   0  -7  125.70    8.81
  -5   0   7  145.00   10.35
  -5   0   7  151.70   10.13
   5   0  -8    5.40    5.22
   5   0  -8   -0.26    4.42
  -5   0   8    7.91    5.03
   5   0  -9 1182.00   72.98
   5   0  -9 1074.00   66.10
  -5   0   9 1238.00   76.21
  -5   0   9 1312.00   80.55
   5   0 -10   -7.56    4.67
   5   0 -10   -0.41    6.97
  -5   0  10   -6.10    5.74
  -5   0  10   -5.93    4.03
   5   0 -11 1149.00   70.65
   5   0 -11 1169.00   72.42
  -5   0  11 1312.00   80.87
  -5   0  11 1296.00   79.65
   5   0 -12   -0.93    5.47
   5   0 -12   -3.85    8.56
  -5   0  12    3.72    6.01
  -5   0  12   -1.79    6.92
   5   0 -13  631.80   40.48
   5   0 -13  665.80   41.53
  -5   0  13  698.40   43.90
  -5   0  13  636.50   39.76
   5   0 -14    3.88   11.28
   5   0 -14   -8.24    6.93
  -5   0  14   -6.85    7.37
  -5   0  14    6.60    8.87
   6   0  13   -1.99   12.17
   6   0  13   -0.14    8.69
  -6   0 -13  -10.85    9.98
  -6   0 -13   -7.55   10.19
   6   0  12  418.40   27.46
   6   0  12  511.30   33.72
  -6   0 -12  456.60   29.78
   6   0  11   -5.40    9.81
   6   0  11    4.86    7.55
  -6   0 -11    1.08    8.63
  -6   0 -11    3.15    9.03
   6   0  10  959.80   59.69
  -6   0 -10 1084.00   67.09
  -6   0 -10  978.30   60.69
   6   0   9   -9.82    5.57
   6   0   9    3.58    8.62
  -6   0  -9    3.24    6.75
  -6   0  -9    1.54    7.20
   6   0   8  750.00   47.19
  -6   0  -8  802.60   49.89
  -6   0  -8  699.60   43.55
   6   0   7    5.25    7.39
   6   0   7    4.63    5.64
  -6   0  -7    4.97    5.34
  -6   0  -7    3.48    6.31
   6   0   6 1072.00   66.19
   6   0   6 1061.00   65.38
  -6   0  -6 1012.00   62.38
  -6   0  -6 1192.00   73.32
   6   0   5    2.15    4.28
   6   0   5    3.87    5.41
  -6   0  -5    3.38    4.49
  -6   0  -5   -0.37    4.19
   6   0   4 1693.00  103.80
   6   0   4 1633.00  100.10
  -6   0  -4 1893.00  115.90
  -6   0  -4 1617.00   99.07
   6   0   3   -0.83    2.83
   6   0   3    5.80    3.42
  -6   0  -3    3.85    2.91
  -6   0  -3   -2.93    2.69
   6   0   2 7062.00  431.50
   6   0   2 6848.00  418.40
  -6   0  -2 6567.00  401.30
  -6   0  -2 6828.00  417.20
   6   0   1    0.83    2.80
   6   0   1    5.12    2.26
  -6   0  -1    3.62    2.60
   6   0   0 3256.00  199.10
   6   0   0 3060.00  187.10
  -6   0   0 3205.00  195.90
  -6   0   0 3108.00  190.00
   6   0  -1   -2.11    2.23
   6   0  -1   -1.14    2.73
  -6   0   1    2.59    2.47
  -6   0   1    1.10    1.89
   6   0  -2 3086.00  188.70
   6   0  -2 3467.00  212.00
  -6   0   2 2874.00  175.70
  -6   0   2 3178.00  194.20
   6   0  -3   -1.60    3.02
   6   0  -3   -0.01    2.97
  -6   0   3   -0.82    2.92
  -6   0   3    1.62    2.26
   6   0  -4 5397.00  329.80
   6   0  -4 6548.00  400.10
  -6   0   4 6175.00  377.10
  -6   0   4 5663.00  346.10
   6   0  -5    1.64    4.20
   6   0  -5   -0.24    3.20
  -6   0   5   -2.26    2.91
  -6   0   5    1.83    3.25
   6   0  -6 1740.00  106.70
   6   0  -6 2014.00  123.50
  -6   0   6 1902.00  116.60
  -6   0   6 2114.00  129.40
   6   0  -7    2.75    5.26
   6   0  -7    1.26    4.23
  -6   0   7   -0.52    3.45
  -6   0   7   -1.46    4.46
   6   0  -8   89.56    7.25
   6   0  -8   86.57    8.08
  -6   0   8  101.10    8.26
  -6   0   8   92.00    7.22
   6   0  -9   -1.10    6.52
   6   0  -9   -0.29    4.12
  -6   0   9   -2.55    5.38
  -6   0   9    3.61    4.55
   6   0 -10  820.60   50.68
   6   0 -10  886.30   55.22
  -6   0  10  951.30   58.94
  -6   0  10 1048.00   64.54
   6   0 -11    1.35    7.42
   6   0 -11   -6.74    5.15
  -6   0  11    3.95    7.40
  -6   0  11    0.27    5.61
   6   0 -12  996.70   62.17
   6   0 -12  974.20   60.06
  -6   0  12 1141.00   70.55
  -6   0  12 1062.00   65.47
   6   0 -13   -2.64    6.46
   6   0 -13   -6.58   10.22
  -6   0  13   -3.61    6.64
  -6   0  13   -1.59    8.80
   7   0  12   -0.69   12.31
   7   0  12   -0.75   10.24
  -7   0 -12    2.19    9.85
  -7   0 -12    2.19   11.26
   7   0  11  547.00   35.52
   7   0  11  548.30   35.65
  -7   0 -11  572.10   36.98
  -7   0 -11  530.10   34.32
   7   0  10    8.57    8.39
   7   0  10    0.88    8.83
  -7   0 -10   -5.91    9.20
  -7   0 -10  -18.74    8.15
   7   0   9  774.00   48.41
   7   0   9  763.50   48.10
  -7   0  -9  794.00   49.56
  -7   0  -9  834.40   52.06
   7   0   8   -2.26    6.56
   7   0   8   14.18    8.78
  -7   0  -8    7.82    7.34
  -7   0  -8   -2.63    6.88
   7   0   7  464.30   29.53
   7   0   7  503.20   32.43
  -7   0  -7  468.20   29.54
  -7   0  -7  541.30   34.08
   7   0   6    4.35    5.47
   7   0   6   -5.58    6.95
  -7   0  -6    3.19    5.88
  -7   0  -6    9.60    5.70
   7   0   5  873.80   53.93
   7   0   5  878.20   54.37
  -7   0  -5  898.10   55.36
  -7   0  -5  921.80   56.81
   7   0   4    3.09    5.01
   7   0   4    1.10    3.89
  -7   0  -4   -0.09    3.87
  -7   0  -4   -7.37    3.93
   7   0   3  942.30   58.07
   7   0   3  917.70   56.47
  -7   0  -3  940.00   57.76
  -7   0  -3  922.50   56.72
   7   0   2    2.41    2.64
   7   0   2   -0.35    3.53
  -7   0  -2   -0.83    2.79
  -7   0  -2    0.51    2.73
   7   0   1 1601.00   98.05
   7   0   1 1634.00  100.10
  -7   0  -1 1712.00  104.80
  -7   0  -1 1674.00  102.50
   7   0   0   -1.84    2.49
   7   0   0   -1.52    3.18
  -7   0   0   -2.25    2.58
  -7   0   0   -0.78    2.32
   7   0  -1 1231.00   75.52
   7   0  -1 1448.00   88.74
  -7   0   1 1271.00   77.82
  -7   0   1 1213.00   74.40
   7   0  -2    3.08    2.87
   7   0  -2    1.63    3.18
  -7   0   2    0.16    2.31
  -7   0   2   -2.21    3.02
   7   0  -3 2775.00  169.80
   7   0  -3 3078.00  188.30
  -7   0   3 2564.00  156.90
  -7   0   3 2950.00  180.30
   7   0  -4    0.90    3.57
   7   0  -4   -7.70    4.22
  -7   0   4    3.03    2.59
  -7   0   4    2.58    3.61
   7   0  -5 6978.00  426.40
   7   0  -5 8265.00  505.00
  -7   0   5 7032.00  429.60
  -7   0   5 7996.00  488.40
   7   0  -6   -1.17    5.01
   7   0  -6   -1.46    4.16
  -7   0   6   -1.28    3.54
  -7   0   6   -1.15    4.29
   7   0  -7  487.70   30.53
   7   0  -7  576.70   36.24
  -7   0   7  618.20   38.26
  -7   0   7  548.90   34.35
   7   0  -8    0.46    4.90
   7   0  -8    1.72    6.32
  -7   0   8    7.85    5.44
  -7   0   8    2.87    4.10
   7   0  -9  675.00   41.84
   7   0  -9  747.70   46.90
  -7   0   9  779.80   48.45
  -7   0   9  906.00   55.89
   7   0 -10    5.36    7.29
   7   0 -10    0.58    5.28
  -7   0  10   -1.80    6.49
  -7   0  10   -4.07    5.32
   7   0 -11 1123.00   69.68
   7   0 -11 1091.00   67.29
  -7   0  11 1295.00   79.67
  -7   0  11 1164.00   71.90
   7   0 -12   -1.35    5.90
   7   0 -12    4.27    9.80
  -7   0  12   -2.84    7.29
  -7   0  12   -0.96    5.76
   7   0 -13   91.44    9.51
   7   0 -13   89.47   12.51
  -7   0  13   97.29    8.80
  -7   0  13  100.90   10.73
   8   0  12  138.40   14.47
   8   0  12  106.50   15.32
  -8   0 -12  135.30   14.53
  -8   0 -12   97.05   16.08
   8   0  11    1.70   11.10
   8   0  11  -12.28   11.03
  -8   0 -11    6.90   12.44
  -8   0 -11   -1.97   10.62
   8   0  10  278.80   20.07
   8   0  10  286.10   20.58
  -8   0 -10  270.10   19.62
  -8   0 -10  275.70   20.62
   8   0   9   -3.69    7.88
   8   0   9    9.21    9.26
  -8   0  -9   -9.56    9.46
  -8   0  -9    4.18    8.95
   8   0   8  186.20   15.54
   8   0   8  223.90   15.85
  -8   0  -8  205.80   15.48
  -8   0  -8  209.60   15.98
   8   0   7    5.70    8.82
   8   0   7   14.27    6.02
  -8   0  -7   -0.33    7.28
  -8   0  -7   -4.33    7.77
   8   0   6 1745.00  107.40
   8   0   6 1733.00  106.40
  -8   0  -6 1948.00  119.50
  -8   0  -6 1726.00  105.90
   8   0   5   -0.89    4.78
   8   0   5    8.15    6.89
  -8   0  -5   -0.05    5.08
  -8   0  -5    7.18    4.91
   8   0   4  456.00   28.93
   8   0   4  463.50   28.98
  -8   0  -4  438.30   27.43
  -8   0  -4  467.90   29.27
   8   0   3   -9.33    5.39
   8   0   3    1.10    3.90
  -8   0  -3    5.16    4.59
  -8   0  -3   -7.02    3.63
   8   0   2  539.80   33.42
   8   0   2  581.80   36.19
  -8   0  -2  646.80   39.90
  -8   0  -2  542.40   33.59
   8   0   1    5.52    3.63
   8   0   1   -1.63    3.23
  -8   0  -1   -3.19    2.80
  -8   0  -1    7.68    3.58
   8   0   0  187.10   12.35
   8   0   0  198.40   12.80
  -8   0   0  185.10   11.85
  -8   0   0  202.20   13.16
   8   0  -1    2.27    3.68
   8   0  -1    3.09    3.55
  -8   0   1    0.73    2.39
  -8   0   1   -1.20    3.54
   8   0  -2   76.71    6.39
   8   0  -2   78.90    6.33
  -8   0   2   80.93    5.77
  -8   0   2   72.66    5.79
   8   0  -3    2.09    4.06
   8   0  -3    2.40    3.93
  -8   0   3   -0.34    2.85
  -8   0   3   -5.53    3.62
   8   0  -4 1824.00  111.90
   8   0  -4 2073.00  127.10
  -8   0   4 1971.00  120.60
  -8   0   4 1691.00  103.70
   8   0  -5   -5.22    4.87
   8   0  -5   -7.06    5.02
  -8   0   5    2.50    3.49
  -8   0   5    1.44    4.71
   8   0  -6 1034.00   63.77
   8   0  -6 1192.00   73.48
  -8   0   6 1259.00   77.27
  -8   0   6 1103.00   67.98
   8   0  -7    1.41    4.66
   8   0  -7    1.96    6.01
  -8   0   7   -3.97    4.19
  -8   0   7   -4.20    5.36
   8   0  -8  606.90   37.80
   8   0  -8  660.90   41.60
  -8   0   8  686.30   42.52
  -8   0   8  592.90   37.13
   8   0  -9    0.63    5.36
   8   0  -9  -18.13    7.80
  -8   0   9   -1.96    5.36
  -8   0   9    9.12    6.31
   8   0 -10  945.10   58.42
   8   0 -10 1049.00   65.29
  -8   0  10 1169.00   72.03
  -8   0  10 1047.00   64.76
   8   0 -11   -3.24    6.57
   8   0 -11   10.03    9.18
  -8   0  11   10.32    6.81
  -8   0  11   15.23    7.99
   8   0 -12  712.70   44.48
   8   0 -12  891.40   56.24
  -8   0  12  900.10   55.75
  -8   0  12  868.50   54.15
   9   0  11   36.40   11.50
   9   0  11   35.04   14.48
  -9   0 -11   39.33   12.10
  -9   0 -11   58.06   15.97
   9   0  10   12.84   10.03
   9   0  10   17.45   11.49
  -9   0 -10   -2.47    9.70
  -9   0 -10   -0.38   12.50
   9   0   9   22.68   10.67
   9   0   9   25.48    9.20
  -9   0  -9    6.33    8.69
  -9   0  -9    8.19   11.44
   9   0   8    9.24    6.98
   9   0   8    5.17   10.99
  -9   0  -8   -0.79    9.42
  -9   0  -8    5.38    8.21
   9   0   7  283.10   20.18
   9   0   7  297.60   19.59
  -9   0  -7  330.60   22.54
  -9   0  -7  287.20   19.58
   9   0   6    9.79    8.59
   9   0   6   -2.30    5.83
  -9   0  -6   13.92    7.14
  -9   0  -6    4.45    7.63
   9   0   5  950.00   58.93
   9   0   5 1060.00   65.28
  -9   0  -5 1030.00   63.54
  -9   0  -5 1036.00   63.94
   9   0   4  -14.15    6.66
   9   0   4    4.65    4.67
  -9   0  -4    3.03    5.84
  -9   0  -4    3.26    5.03
   9   0   3  616.60   38.19
   9   0   3  644.10   40.24
  -9   0  -3  633.80   39.37
  -9   0  -3  695.10   43.01
   9   0   2   14.14    5.98
   9   0   2   -1.72    3.97
  -9   0  -2    4.66    4.14
  -9   0  -2    1.85    3.85
   9   0   1  423.20   26.39
   9   0   1  412.20   25.95
  -9   0  -1  372.70   23.40
  -9   0  -1  426.60   26.54
   9   0   0   -1.26    3.82
   9   0   0   -7.00    4.72
  -9   0   0   -0.17    4.50
  -9   0   0   -1.13    3.04
   9   0  -1  695.90   43.04
   9   0  -1  626.90   38.86
  -9   0   1  630.30   38.79
  -9   0   1  607.60   37.71
   9   0  -2   -2.06    4.65
   9   0  -2   -0.81    4.38
  -9   0   2   -1.07    3.02
  -9   0   2    1.92    4.30
   9   0  -3   72.65    6.55
   9   0  -3   73.43    7.11
  -9   0   3   88.60    6.48
  -9   0   3   65.67    6.03
   9   0  -4    5.81    5.70
   9   0  -4    1.45    5.02
  -9   0   4    5.80    3.54
  -9   0   4    1.67    4.63
   9   0  -5  503.20   31.71
   9   0  -5  474.00   30.08
  -9   0   5  416.40   26.35
  -9   0   5  495.20   30.79
   9   0  -6   -3.45    6.27
   9   0  -6   -1.06    6.17
  -9   0   6   -3.38    5.53
  -9   0   6    3.18    4.31
   9   0  -7   45.88    6.95
   9   0  -7   53.83    7.83
  -9   0   7   54.85    5.84
  -9   0   7   58.66    7.44
   9   0  -8    1.37    7.82
   9   0  -8   -0.39    4.74
  -9   0   8    5.28    5.19
  -9   0   8    5.34    6.33
   9   0  -9  175.00   12.39
   9   0  -9  176.10   14.29
  -9   0   9  168.40   12.97
   9   0 -10   18.22    6.30
   9   0 -10   13.11    9.82
  -9   0  10   -2.37    7.80
  -9   0  10   -8.60    6.96
   9   0 -11  859.30   53.39
   9   0 -11  875.40   55.09
  -9   0  11  974.10   60.40
  -9   0  11  861.90   53.79
   9   0 -12  -12.33    9.11
  -9   0  12    2.99   10.57
  -9   0  12    0.53    7.71
  10   0  10   49.02   11.79
  10   0  10   40.82   15.66
 -10   0 -10   50.16   12.15
 -10   0 -10   40.23   16.44
  10   0   9    6.82   12.92
  10   0   9    4.66   10.25
 -10   0  -9    1.25   10.07
 -10   0  -9   -9.86   13.55
  10   0   8   18.09   12.43
  10   0   8   37.95    8.55
 -10   0  -8   39.84    9.81
 -10   0  -8   44.02   12.13
  10   0   7    8.61    7.19
  10   0   7  -17.19   11.75
 -10   0  -7    0.08    8.55
 -10   0  -7    2.89   10.53
  10   0   6  550.90   35.87
  10   0   6  504.90   31.93
 -10   0  -6  542.50   34.75
 -10   0  -6  519.20   33.07
  10   0   5    3.72    5.52
  10   0   5   -5.92    8.60
 -10   0  -5   -4.58    8.17
 -10   0  -5    6.08    6.49
  10   0   4  283.30   18.25
  10   0   4  256.60   17.85
 -10   0  -4  312.80   20.44
 -10   0  -4  263.00   17.62
  10   0   3    7.38    7.12
  10   0   3   -4.96    4.43
 -10   0  -3    6.41    6.10
 -10   0  -3   -4.45    5.33
  10   0   2  130.50   10.55
  10   0   2  126.00    8.79
 -10   0  -2  135.40   10.20
 -10   0  -2  105.40    7.72
  10   0   1   -0.84    3.80
  10   0   1    0.59    5.35
 -10   0  -1   -1.27    4.79
 -10   0  -1    0.87    4.17
  10   0   0 1193.00   73.35
  10   0   0 1285.00   78.92
 -10   0   0 1139.00   69.91
 -10   0   0 1156.00   71.20
  10   0  -1    2.08    5.14
  10   0  -1   -1.71    4.12
 -10   0   1    1.09    4.94
 -10   0   1    3.05    3.78
  10   0  -2  606.70   37.75
  10   0  -2  670.50   41.62
 -10   0   2  669.80   41.37
 -10   0   2  622.20   38.82
  10   0  -3   -6.96    5.48
  10   0  -3    0.85    4.85
 -10   0   3   -2.64    5.73
 -10   0   3    8.42    4.44
  10   0  -4  745.00   46.22
  10   0  -4  887.20   54.92
 -10   0   4  840.40   51.86
 -10   0   4  711.40   44.24
  10   0  -5   -3.10    6.24
  10   0  -5    5.58    5.51
 -10   0   5   -1.36    6.06
 -10   0   5   -5.09    5.30
  10   0  -6   83.59    8.77
  10   0  -6   86.96    8.52
 -10   0   6   89.24    8.07
 -10   0   6   71.99    7.67
  10   0  -7   -4.98    8.03
  10   0  -7    0.33    6.25
 -10   0   7    1.02    5.76
 -10   0   7    0.87    6.32
  10   0  -8  255.50   18.70
  10   0  -8  237.40   16.29
 -10   0   8  215.30   15.85
  10   0  -9  -12.55    9.81
  10   0  -9   -0.21    6.53
 -10   0   9    1.28    8.57
 -10   0   9  -12.66    7.18
  10   0 -10  325.70   23.79
  10   0 -10  287.70   19.23
 -10   0  10  311.00   21.48
 -10   0  10  351.50   23.38
  10   0 -11    0.16   11.67
  10   0 -11   -2.46    8.06
 -10   0  11   -0.61    8.49
 -10   0  11   -0.38    9.83
  11   0   8   14.75   16.27
  11   0   8  -16.15    9.64
 -11   0  -8    7.39   11.00
 -11   0  -8  -29.53   15.03
  11   0   7  270.60   22.61
  11   0   7  368.30   24.51
 -11   0  -7  324.30   23.93
 -11   0  -7  339.80   23.32
  11   0   6    0.62    7.21
  11   0   6   -9.16   13.83
 -11   0  -6    8.16    8.01
 -11   0  -6  -11.81   12.00
  11   0   5  500.80   31.66
  11   0   5  516.00   33.82
 -11   0  -5  535.20   34.13
 -11   0  -5  534.30   34.48
  11   0   4    7.43    4.77
  11   0   4  -13.88    8.46
 -11   0  -4    4.46    5.78
 -11   0  -4   11.24    6.49
  11   0   3  141.80   10.31
  11   0   3  125.50   10.88
 -11   0  -3  111.90    8.67
 -11   0  -3  136.90   10.82
  11   0   2   -7.29    6.97
  11   0   2    4.64    4.72
 -11   0  -2    1.45    6.44
 -11   0  -2    1.36    5.06
  11   0   1  213.00   14.91
 -11   0  -1  206.50   13.65
 -11   0  -1  189.80   13.12
  11   0   0   -1.55    5.08
  11   0   0  -13.09    6.38
 -11   0   0   -2.05    5.66
 -11   0   0   -2.52    4.81
  11   0  -1 1012.00   62.52
  11   0  -1 1098.00   67.65
 -11   0   1 1162.00   71.47
 -11   0   1 1055.00   65.24
  11   0  -2    0.03    6.36
  11   0  -2   -1.11    6.14
 -11   0   2   -0.53    6.79
 -11   0   2    7.23    4.57
  11   0  -3  795.20   49.40
  11   0  -3  930.70   57.64
 -11   0   3  790.60   49.29
 -11   0   3  912.90   56.31
  11   0  -4    9.00    6.53
  11   0  -4   -0.56    6.92
 -11   0   4    2.24    5.43
 -11   0   4  -12.24    7.00
  11   0  -5  219.40   15.46
  11   0  -5  203.80   14.26
 -11   0   5  252.50   17.02
 -11   0   5  202.40   14.68
  11   0  -6    4.31    8.55
  11   0  -6    7.93    7.21
 -11   0   6  -13.76    6.40
 -11   0   6   -1.62    7.02
  11   0  -7  407.30   26.38
  11   0  -7  448.00   29.78
 -11   0   7  458.70   29.30
 -11   0   7  384.80   25.38
  11   0  -8   18.34   10.29
  11   0  -8   -0.27    8.05
 -11   0   8    2.45    8.42
 -11   0   8    2.75    7.33
  11   0  -9  402.80   26.40
  11   0  -9  459.90   31.48
 -11   0   9  396.10   26.28
 -11   0   9  449.10   28.96
  12   0   7    1.37   18.40
  12   0   7    3.80   10.68
 -12   0  -7    7.70   16.46
 -12   0  -7   15.15   12.96
  12   0   6  484.50   30.99
 -12   0  -6  566.30   36.43
 -12   0  -6  425.90   29.01
  12   0   5    9.01    6.44
  12   0   5   13.99   12.41
 -12   0  -5    9.85    7.35
 -12   0  -5   -2.06   10.46
  12   0   4  325.50   23.16
 -12   0  -4  345.50   22.42
  12   0   3    1.98    6.02
  12   0   3    9.82    8.81
 -12   0  -3    5.01    6.46
 -12   0  -3    4.23    6.71
  12   0   2  117.40   11.55
 -12   0  -2  116.20   10.09
 -12   0  -2  126.50    9.78
  12   0   1  -10.10    8.62
  12   0   1   -0.65    6.20
 -12   0  -1   -3.55    7.24
 -12   0  -1    1.00    6.00
  12   0   0  883.30   54.92
  12   0   0 1089.00   67.29
 -12   0   0  874.20   54.26
  12   0  -1    0.98    7.59
  12   0  -1   -1.29    7.26
 -12   0   1    1.66    6.00
 -12   0   1    1.29    8.11
  12   0  -2  931.30   57.99
  12   0  -2 1130.00   69.93
 -12   0   2 1018.00   62.83
 -12   0   2  955.80   59.54
  12   0  -3    3.49    7.94
  12   0  -3    2.45    7.61
 -12   0   3    7.63    8.54
 -12   0   3    1.39    6.11
  12   0  -4  912.90   56.91
  12   0  -4  754.60   47.21
 -12   0   4  782.40   49.16
 -12   0   4  895.00   55.50
  12   0  -5   -6.72    8.01
  12   0  -5   -0.95    9.37
 -12   0   5   -4.26    7.33
 -12   0   5   -5.44    8.97
  12   0  -6  188.80   16.09
  12   0  -6  174.10   13.84
 -12   0   6  207.90   15.16
 -12   0   6  178.70   14.36
  12   0  -7   14.11   12.44
  12   0  -7   -2.61    8.16
 -12   0   7   -0.18    8.27
 -12   0   7   -4.84    9.23
  12   0  -8  393.50   26.32
  12   0  -8  420.90   30.34
 -12   0   8  366.20   24.89
 -12   0   8  441.20   28.87
  13   0   3   62.16   13.02
 -13   0  -3  105.40   10.33
 -13   0  -3   85.97   10.85
  13   0   2   -4.49    8.98
  13   0   2    8.38   10.28
 -13   0  -2    2.11    7.69
 -13   0  -2    3.31    7.72
  13   0   1  209.50   16.68
 -13   0  -1  207.60   15.70
  13   0   0  -15.94   10.48
  13   0   0    1.65   10.24
 -13   0   0   -2.72    7.71
 -13   0   0   -4.28    7.33
  13   0  -1  340.60   23.49
  13   0  -1  390.30   26.55
 -13   0   1  312.90   21.30
  13   0  -2   10.05   11.44
  13   0  -2   -0.55   10.82
 -13   0   2  -15.16   10.54
 -13   0   2    6.33    7.65
  13   0  -3 1061.00   66.20
  13   0  -3 1263.00   78.51
 -13   0   3 1266.00   78.20
 -13   0   3 1062.00   66.39
  13   0  -4   -6.90   11.93
  13   0  -4   -7.63   10.49
 -13   0   4    5.15    8.28
 -13   0   4   -7.16   11.02
  13   0  -5  437.50   29.75
  13   0  -5  381.20   25.98
 -13   0   5  440.80   28.85
 -13   0   5  396.70   27.18
 -12  -1   7  349.60   24.15
 -12  -1   7  370.80   24.83
  12   1  -7  416.90   27.80
  12   1  -7  312.20   22.98
 -12  -1   6   37.37    8.67
 -12  -1   6   34.53    8.76
  12   1  -6   45.85    9.45
  12   1  -6   27.34   11.69
 -12  -1   5  520.20   33.55
 -12  -1   5  552.10   35.15
  12   1  -5  576.80   36.83
  12   1  -5  506.60   33.32
 -12  -1   4   12.73    7.81
 -12  -1   4    7.04    7.18
  12   1  -4   -5.41    7.38
  12   1  -4   13.86    9.52
 -12  -1   3  210.30   14.31
 -12  -1   3  252.50   16.58
 -11  -1   9    6.86    8.82
 -11  -1   9  -10.45   10.49
  11   1  -9    1.18    8.46
  11   1  -9   -3.19   13.83
 -11  -1   8  306.50   21.26
 -11  -1   8  315.40   21.34
  11   1  -8  323.70   21.82
  11   1  -8  297.80   22.40
 -11  -1   7   38.42    7.56
 -11  -1   7   40.69    8.27
  11   1  -7   23.53    7.95
  11   1  -7   32.31   10.13
 -11  -1   6  470.30   30.02
 -11  -1   6  557.10   35.34
  11   1  -6  507.40   32.23
  11   1  -6  494.50   31.85
 -11  -1   5  242.60   16.74
 -11  -1   5  254.10   17.55
  11   1  -5  260.60   17.71
  11   1  -5  233.90   16.80
 -11  -1   4  403.40   25.96
 -11  -1   4  427.90   27.34
  11   1  -4  416.10   26.59
  11   1  -4  381.40   24.73
 -11  -1   3  164.40   11.88
 -11  -1   3  162.20   11.25
  11   1  -3  168.10   11.91
  11   1  -3  144.90   10.99
 -11  -1  -6  160.90   11.63
 -11  -1  -6  179.00   12.97
 -11  -1  -7    5.28    8.48
 -11  -1  -7    6.05    7.74
  11   1   7   -2.81   10.01
  11   1   7   -0.09    7.00
 -11  -1  -8  215.80   17.73
  11   1   8  246.00   19.85
  11   1   8  255.90   18.43
 -10  -1  10    9.64    8.07
 -10  -1  10    0.47    8.85
  10   1 -10    6.84    7.78
  10   1 -10  -12.29   12.44
 -10  -1   9  633.90   39.97
 -10  -1   9  620.60   39.39
  10   1  -9  588.60   36.93
  10   1  -9  603.70   39.12
 -10  -1   8  127.70   11.15
 -10  -1   8  124.40   11.43
  10   1  -8  119.80    9.61
  10   1  -8  120.80   12.30
 -10  -1   7  288.80   19.30
 -10  -1   7  273.60   18.47
  10   1  -7  278.40   18.46
  10   1  -7  298.90   20.50
 -10  -1   6   68.78    7.65
 -10  -1   6   58.93    7.74
  10   1  -6   65.25    7.39
  10   1  -6   65.84    8.50
 -10  -1   5  401.10   25.50
 -10  -1   5  380.00   24.22
  10   1  -5  417.90   26.62
  10   1  -5  364.20   23.47
 -10  -1   4  130.00    9.61
 -10  -1   4  140.10   10.46
  10   1  -4  140.60   10.34
  10   1  -4  115.30    9.34
 -10  -1   3  850.30   52.43
 -10  -1   3  940.30   58.02
  10   1  -3  918.90   56.63
  10   1  -3  787.60   48.70
 -10  -1   2   21.78    3.95
 -10  -1   2   24.00    4.33
  10   1  -2   30.67    4.42
  10   1  -2   19.76    4.37
 -10  -1  -5  449.30   28.16
 -10  -1  -5  522.60   32.57
  10   1   5  474.50   29.71
  10   1   5  473.40   29.47
 -10  -1  -6   -4.92    6.44
 -10  -1  -6    1.11    5.80
  10   1   6    4.95    6.80
  10   1   6    1.15    4.80
 -10  -1  -7  215.00   15.75
 -10  -1  -7  257.20   17.78
  10   1   7  284.50   19.64
  10   1   7  283.40   18.85
 -10  -1  -8   -1.04    9.52
 -10  -1  -8    8.44    9.33
  10   1   8    3.52   10.07
  10   1   8    0.10    7.57
 -10  -1  -9  433.80   29.58
 -10  -1  -9  496.10   32.47
  10   1   9  546.30   36.24
  10   1   9  479.10   31.17
  -9  -1  11   15.15    7.87
  -9  -1  11   23.03    9.36
   9   1 -11   12.69    7.37
   9   1 -11   12.50   11.86
  -9  -1  10  449.20   28.83
  -9  -1  10  481.90   31.24
   9   1 -10  411.60   27.78
  -9  -1   9  209.40   14.96
  -9  -1   9  221.40   16.32
   9   1  -9  162.40   11.87
   9   1  -9  178.60   14.89
  -9  -1   8  497.00   31.42
  -9  -1   8  489.40   31.16
   9   1  -8  430.30   27.36
   9   1  -8  497.00   31.85
  -9  -1   7   27.75    6.16
  -9  -1   7   30.79    6.26
   9   1  -7   26.20    6.13
   9   1  -7   11.41    6.93
  -9  -1   6  763.20   47.33
  -9  -1   6  701.80   43.61
   9   1  -6  703.00   43.55
   9   1  -6  686.50   42.84
  -9  -1   5   -5.17    4.58
  -9  -1   5    9.67    4.91
   9   1  -5   -4.39    4.64
   9   1  -5   -0.62    5.32
  -9  -1   4  945.10   58.21
  -9  -1   4  921.80   56.76
   9   1  -4 1009.00   62.09
   9   1  -4  796.30   49.21
  -9  -1   3   75.74    6.33
  -9  -1   3   83.29    6.68
   9   1  -3   94.07    7.29
   9   1  -3   64.50    6.07
  -9  -1   2 1551.00   95.17
  -9  -1   2 1690.00  103.70
   9   1  -2 1665.00  102.20
   9   1  -2 1345.00   82.65
   9   1  -1   85.53    5.72
  -9  -1  -4  559.60   34.62
  -9  -1  -4  615.90   38.10
   9   1   4  575.60   35.67
   9   1   4  567.40   35.06
  -9  -1  -5    5.64    4.92
  -9  -1  -5    6.01    4.65
   9   1   5   12.39    5.16
   9   1   5    9.86    3.78
  -9  -1  -6   -0.98    5.56
  -9  -1  -6   15.79    5.86
   9   1   6   -2.24    6.49
   9   1   6    0.96    4.92
  -9  -1  -7   43.24    7.62
  -9  -1  -7   24.96    7.68
   9   1   7   29.99    7.74
   9   1   7   26.54    6.55
  -9  -1  -8  550.20   35.41
  -9  -1  -8  527.00   33.83
   9   1   8  559.50   35.82
   9   1   8  556.80   35.23
  -9  -1  -9   17.05   10.34
  -9  -1  -9   17.07   10.06
   9   1   9   -1.71   10.41
   9   1   9   18.00    8.97
  -9  -1 -10  359.90   25.53
  -9  -1 -10  310.70   22.97
   9   1  10  329.10   23.43
   9   1  10  330.80   23.10
  -8  -1  12   -8.08    9.12
  -8  -1  12  -11.92    7.73
   8   1 -12    4.23    6.91
   8   1 -12   -1.65   11.89
  -8  -1  11  122.50   12.24
  -8  -1  11  133.80   11.20
   8   1 -11  113.70    9.53
   8   1 -11  116.60   13.30
  -8  -1  10   76.02    9.60
  -8  -1  10   71.62    8.19
   8   1 -10   68.78    7.22
   8   1 -10   65.47   10.06
  -8  -1   9  461.20   29.58
  -8  -1   9  456.10   29.00
   8   1  -9  410.20   26.02
   8   1  -9  375.00   25.15
  -8  -1   8  146.10   11.29
  -8  -1   8  127.30    9.69
   8   1  -8  122.10    9.73
   8   1  -8  131.50   11.19
  -8  -1   7  579.20   36.33
  -8  -1   7  572.90   35.70
   8   1  -7  490.40   30.80
   8   1  -7  507.50   32.17
  -8  -1   6    2.60    5.12
  -8  -1   6   -3.28    4.14
   8   1  -6   -5.72    4.92
   8   1  -6   -3.24    5.59
  -8  -1   5  196.70   13.09
  -8  -1   5  214.50   13.95
   8   1  -5  216.20   14.37
   8   1  -5  168.30   11.86
  -8  -1   4   30.52    4.39
  -8  -1   4   40.57    4.56
   8   1  -4   28.54    4.04
   8   1  -4   18.98    4.68
  -8  -1   3 2849.00  174.40
   8   1  -3 3158.00  193.30
  -8  -1   2  603.40   37.21
  -8  -1   2  496.20   30.63
   8   1  -2  605.90   37.40
  -8  -1   1 1377.00   84.93
  -8  -1   1 1471.00   90.67
   8   1  -1 1326.00   81.82
   8   1  -1 1231.00   76.06
  -8  -1  -3 1484.00   91.36
  -8  -1  -3 1495.00   92.05
  -8  -1  -4   14.13    3.57
  -8  -1  -4   22.27    3.67
   8   1   4   14.32    4.21
   8   1   4   20.75    3.26
  -8  -1  -5  336.20   21.20
  -8  -1  -5  392.00   24.64
   8   1   5  358.10   22.73
   8   1   5  372.60   23.29
  -8  -1  -6  193.70   13.08
  -8  -1  -6  226.70   15.57
   8   1   6  209.00   14.46
   8   1   6  238.10   15.69
  -8  -1  -7   21.71    6.55
  -8  -1  -7   35.43    7.79
   8   1   7   34.96    7.78
   8   1   7   29.66    6.16
  -8  -1  -8   39.84    8.19
  -8  -1  -8   34.76    8.71
   8   1   8   33.77    8.09
   8   1   8   47.61    7.22
  -8  -1  -9  189.10   14.63
  -8  -1  -9  172.40   14.65
   8   1   9  181.20   14.60
   8   1   9  180.90   14.06
  -8  -1 -10   -8.77    9.93
  -8  -1 -10   -0.83    9.91
   8   1  10    8.00    9.75
   8   1  10   18.34    9.56
  -8  -1 -11  178.40   16.97
  -8  -1 -11  220.00   17.86
   8   1  11  207.80   17.16
   8   1  11  208.60   17.49
  -7  -1  13    1.15    6.78
  -7  -1  13    9.95    9.80
   7   1 -13   -7.49    7.86
   7   1 -13  -10.84   12.25
  -7  -1  12  521.20   33.00
  -7  -1  12  593.30   37.71
   7   1 -12  518.50   32.73
   7   1 -12  476.40   31.93
  -7  -1  11    2.48    6.15
  -7  -1  11    7.43    7.94
   7   1 -11    0.12    6.62
   7   1 -11    7.57    9.93
  -7  -1  10  829.50   51.41
  -7  -1  10  898.90   55.85
   7   1 -10  787.20   48.69
   7   1 -10  737.60   46.43
  -7  -1   9  222.80   15.26
  -7  -1   9  231.90   16.05
   7   1  -9  202.90   13.81
   7   1  -9  195.40   14.64
  -7  -1   8 1006.00   61.97
  -7  -1   8 1121.00   69.16
   7   1  -8  990.20   61.08
   7   1  -8  961.80   59.64
  -7  -1   7   17.58    4.35
  -7  -1   7   22.75    5.58
   7   1  -7   16.18    4.72
   7   1  -7   15.51    6.15
  -7  -1   6  502.70   31.31
  -7  -1   6  540.60   33.79
   7   1  -6  470.50   29.33
   7   1  -6  435.40   27.56
  -7  -1   5    3.75    3.52
  -7  -1   5    5.72    3.97
   7   1  -5    0.65    3.51
   7   1  -5    5.28    4.65
  -7  -1   4  389.20   24.24
  -7  -1   4  457.30   28.41
   7   1  -4  432.20   26.91
  -7  -1   3  399.40   24.79
   7   1  -3  393.80   24.44
  -7  -1   2 1231.00   75.43
   7   1  -2 1173.00   71.96
  -7  -1   1  152.40    9.57
  -7  -1   1  141.00    8.94
   7   1  -1  139.00    8.86
   7   1  -1  141.90    9.11
  -7  -1  -3    2.12    2.21
  -7  -1  -3   -0.95    2.16
   7   1   3   -0.14    2.03
   7   1   3   -0.26    2.68
  -7  -1  -4 3339.00  204.30
   7   1   4 3515.00  215.10
  -7  -1  -5  164.40   11.38
   7   1   5  160.10   10.90
  -7  -1  -6  418.40   26.24
  -7  -1  -6  471.80   29.50
   7   1   6  468.80   29.40
   7   1   6  369.60   23.83
  -7  -1  -7   60.21    6.88
  -7  -1  -7   59.23    7.18
   7   1   7   67.10    8.33
   7   1   7   68.21    7.21
  -7  -1  -8  464.00   29.40
  -7  -1  -8  460.70   29.51
   7   1   8  429.90   27.50
   7   1   8  416.90   26.31
  -7  -1  -9    9.17    7.64
  -7  -1  -9    2.32    7.64
   7   1   9   -1.75    5.73
   7   1   9    6.85    8.05
  -7  -1 -10  271.90   19.30
  -7  -1 -10  269.00   19.24
   7   1  10  286.50   19.83
   7   1  10  239.00   16.68
  -7  -1 -11   22.82    9.78
  -7  -1 -11   54.26   10.02
   7   1  11   26.66    8.59
   7   1  11   34.13    9.91
  -7  -1 -12   89.46   12.23
  -7  -1 -12   72.03   11.55
   7   1  12  117.70   13.93
   7   1  12   80.39   10.69
  -6  -1  13  505.90   32.22
   6   1 -13  575.90   36.10
   6   1 -13  459.20   31.03
  -6  -1  12   23.71    6.73
  -6  -1  12   28.66    8.51
   6   1 -12   45.10   11.03
   6   1 -12   31.63    6.35
  -6  -1  11  613.80   38.36
  -6  -1  11  725.90   45.37
   6   1 -11  621.20   38.66
   6   1 -11  567.70   36.54
  -6  -1  10   44.56    5.78
  -6  -1  10   60.92    7.33
   6   1 -10   43.68    8.68
   6   1 -10   48.25    6.17
  -6  -1   9  981.60   60.55
  -6  -1   9 1028.00   63.59
   6   1  -9  950.10   58.54
   6   1  -9  868.70   54.07
  -6  -1   8  104.90    8.11
  -6  -1   8  126.80    9.85
   6   1  -8  111.00    9.53
   6   1  -8  116.00    9.12
  -6  -1   7 3245.00  198.50
  -6  -1   7 3619.00  221.40
   6   1  -7 3338.00  204.20
   6   1  -7 3047.00  186.60
  -6  -1   6  230.40   14.87
  -6  -1   6  247.10   16.06
   6   1  -6  207.10   14.08
   6   1  -6  234.30   15.15
  -6  -1   5  683.30   42.14
  -6  -1   5  818.10   50.41
   6   1  -5  754.90   46.50
  -6  -1   4   11.05    2.82
  -6  -1   4   13.98    3.47
   6   1  -4    7.98    3.95
   6   1  -4   13.24    2.70
  -6  -1   3 1410.00   86.37
   6   1  -3 1758.00  107.60
   6   1  -3 1517.00   93.01
  -6  -1   2  141.10    8.96
  -6  -1   2  167.00   10.60
   6   1  -2  150.10    9.83
   6   1  -2  158.00   10.04
  -6  -1   1 1129.00   69.37
  -6  -1   1  988.40   60.73
   6   1  -1 1045.00   64.23
   6   1  -1 1012.00   62.20
  -6  -1  -2   14.02    1.38
  -6  -1  -2   14.91    1.51
  -6  -1  -3 2186.00  133.80
  -6  -1  -3 2007.00  122.90
   6   1   3 2313.00  141.70
   6   1   3 2127.00  130.30
  -6  -1  -4   39.93    3.95
   6   1   4   48.03    4.36
  -6  -1  -5 1296.00   79.48
   6   1   5 1103.00   67.68
  -6  -1  -6    8.20    4.01
  -6  -1  -6    6.70    4.47
   6   1   6    1.96    3.74
   6   1   6    7.32    5.51
  -6  -1  -7 1208.00   74.23
  -6  -1  -7 1192.00   73.34
   6   1   7 1166.00   71.94
   6   1   7 1096.00   67.40
  -6  -1  -8   64.19    7.13
  -6  -1  -8   63.02    7.50
   6   1   8   50.96    6.09
   6   1   8   63.74    8.00
  -6  -1  -9  487.80   30.92
  -6  -1  -9  507.40   32.26
   6   1   9  499.70   31.99
   6   1   9  438.10   27.85
  -6  -1 -10   66.05    8.52
  -6  -1 -10   87.62    9.97
   6   1  10   63.99    8.18
   6   1  10   74.56    9.22
  -6  -1 -11  513.20   33.10
  -6  -1 -11  485.70   31.68
   6   1  11  506.30   32.48
   6   1  11  436.80   28.09
  -6  -1 -12   57.51   10.68
  -6  -1 -12   78.73   11.94
   6   1  12   56.07    9.46
   6   1  12   57.87   10.65
  -6  -1 -13  181.90   16.84
  -6  -1 -13  160.50   15.05
   6   1  13  194.50   16.54
   6   1  13  134.30   13.01
  -5  -1  14  272.90   19.12
  -5  -1  14  312.70   22.34
   5   1 -14  261.80   18.52
   5   1 -14  231.10   18.91
  -5  -1  13   30.79    7.68
  -5  -1  13   36.69    8.54
   5   1 -13   17.51   11.10
   5   1 -13   41.17    7.09
  -5  -1  12  274.20   18.35
  -5  -1  12  285.30   19.58
   5   1 -12  275.20   18.21
   5   1 -12  231.30   17.81
  -5  -1  11    3.38    5.73
  -5  -1  11    5.82    6.26
   5   1 -11    2.60    9.10
   5   1 -11    2.89    5.50
  -5  -1  10  127.00    9.63
  -5  -1  10  130.20   10.28
   5   1 -10  126.70    9.44
   5   1 -10  102.60    9.84
  -5  -1   9   10.52    4.81
  -5  -1   9   10.48    5.44
   5   1  -9    4.26    6.34
   5   1  -9   12.20    5.12
  -5  -1   8 1530.00   93.92
  -5  -1   8 1520.00   93.39
   5   1  -8 1420.00   87.17
   5   1  -8 1287.00   79.28
  -5  -1   7  706.80   43.68
  -5  -1   7  759.20   46.97
   5   1  -7  670.60   41.75
   5   1  -7  728.80   45.03
  -5  -1   6 1980.00  121.20
  -5  -1   6 2280.00  139.60
   5   1  -6 2139.00  130.90
   5   1  -6 1858.00  113.90
  -5  -1   5  409.20   25.48
   5   1  -5  387.40   24.48
   5   1  -5  452.00   28.02
  -5  -1   4 2491.00  152.40
  -5  -1   4 3068.00  187.60
   5   1  -4 2722.00  166.40
   5   1  -4 2326.00  142.40
  -5  -1   3   -1.80    2.12
  -5  -1   3    4.29    2.43
   5   1  -3   -2.28    3.01
   5   1  -3    2.18    2.01
  -5  -1   2 2028.00  124.10
  -5  -1   2 2120.00  129.70
   5   1  -2 1889.00  115.70
   5   1  -2 1866.00  114.10
  -5  -1   1 1248.00   76.55
  -5  -1   1 1283.00   78.71
   5   1  -1 1272.00   78.03
   5   1  -1 1217.00   74.72
  -5  -1  -2 1168.00   71.76
  -5  -1  -2 1032.00   63.43
   5   1   2 1158.00   71.25
   5   1   2 1078.00   66.33
  -5  -1  -3    5.08    1.83
  -5  -1  -3    2.87    1.92
   5   1   3   -0.12    2.18
  -5  -1  -4 1181.00   72.35
   5   1   4 1426.00   87.34
   5   1   4 1238.00   75.91
  -5  -1  -5    9.01    3.40
  -5  -1  -5    3.72    3.60
   5   1   5    3.19    3.73
   5   1   5    7.90    2.93
  -5  -1  -6 1124.00   69.07
  -5  -1  -6 1051.00   64.53
   5   1   6  998.40   61.57
   5   1   6 1073.00   65.90
  -5  -1  -7   94.98    7.74
  -5  -1  -7   75.71    6.65
   5   1   7   80.38    7.01
   5   1   7   66.49    7.26
  -5  -1  -8  927.20   57.19
  -5  -1  -8  871.40   53.95
   5   1   8  825.90   51.34
   5   1   8  845.40   52.22
  -5  -1  -9  263.00   17.67
  -5  -1  -9  278.10   18.54
   5   1   9  271.10   18.44
   5   1   9  275.40   18.23
  -5  -1 -10  486.00   30.78
  -5  -1 -10  532.10   33.68
   5   1  10  520.50   33.22
   5   1  10  503.40   31.81
  -5  -1 -11    3.29    7.78
  -5  -1 -11   10.81    7.38
   5   1  11   10.86    7.43
   5   1  11   11.44    7.05
  -5  -1 -12  187.30   14.99
  -5  -1 -12  196.20   15.50
   5   1  12  202.20   15.61
   5   1  12  207.50   15.79
  -5  -1 -13    7.48   10.10
  -5  -1 -13    2.43   10.69
   5   1  13    9.61    9.43
   5   1  13   10.12   10.35
  -4  -1  14   25.13    8.63
  -4  -1  14   26.11    7.87
   4   1 -14   32.69   11.60
   4   1 -14   26.87    7.89
  -4  -1  13  532.30   33.76
  -4  -1  13  593.00   37.56
   4   1 -13  484.50   32.04
   4   1 -13  510.60   32.32
  -4  -1  12   11.26    7.35
  -4  -1  12    1.66    7.00
   4   1 -12   12.76    9.66
   4   1 -12   13.84    6.17
  -4  -1  11  477.80   30.15
  -4  -1  11  523.70   33.17
   4   1 -11  488.20   31.72
   4   1 -11  474.60   29.74
  -4  -1  10   77.19    7.41
  -4  -1  10   91.58    8.48
   4   1 -10   83.58    9.53
   4   1 -10   88.29    7.59
  -4  -1   9  104.50    8.26
  -4  -1   9  101.30    8.60
   4   1  -9   77.17    7.94
   4   1  -9   85.01    7.36
  -4  -1   8  206.30   14.04
  -4  -1   8  175.20   11.85
   4   1  -8  160.60   11.76
   4   1  -8  174.00   11.80
  -4  -1   7 1645.00  100.90
  -4  -1   7 1698.00  104.20
   4   1  -7 1507.00   92.61
   4   1  -7 1727.00  105.80
  -4  -1   6  206.90   13.47
  -4  -1   6  213.60   14.00
   4   1  -6  188.90   12.99
   4   1  -6  200.00   12.97
  -4  -1   5 1345.00   82.44
  -4  -1   5 1470.00   90.13
   4   1  -5 1453.00   89.04
   4   1  -5 1306.00   80.23
  -4  -1   4  226.80   14.45
  -4  -1   4  205.90   13.05
   4   1  -4  185.80   12.18
   4   1  -4  212.40   13.45
  -4  -1   3 1365.00   83.59
  -4  -1   3 1373.00   84.13
   4   1  -3 1244.00   76.15
   4   1  -3 1167.00   71.61
  -4  -1   2 1272.00   77.87
  -4  -1   2 1241.00   75.93
   4   1  -2 1267.00   77.57
   4   1  -2 1187.00   72.72
  -4  -1   1 3090.00  189.20
  -4  -1   1 2754.00  168.60
   4   1  -1 2806.00  171.80
   4   1  -1 2743.00  168.00
  -4  -1  -2  382.80   23.55
  -4  -1  -2  400.10   24.59
   4   1   2  431.10   26.54
   4   1   2  351.40   21.62
  -4  -1  -3 2793.00  170.70
  -4  -1  -3 2895.00  177.00
   4   1   3 2886.00  176.50
   4   1   3 2855.00  174.60
  -4  -1  -4    7.22    2.31
  -4  -1  -4   10.05    2.89
   4   1   4   11.27    2.66
   4   1   4   12.29    2.48
  -4  -1  -5  394.30   24.47
  -4  -1  -5  454.10   28.20
   4   1   5  396.00   24.77
   4   1   5  439.30   27.24
  -4  -1  -6  142.70    9.66
  -4  -1  -6  147.70   10.08
   4   1   6  137.80    9.90
   4   1   6  145.80    9.80
  -4  -1  -7 2342.00  143.30
  -4  -1  -7 2167.00  132.70
   4   1   7 2180.00  133.60
   4   1   7 2207.00  135.20
  -4  -1  -8  113.50    9.26
  -4  -1  -8  128.50    9.42
   4   1   8  126.30   10.16
   4   1   8  116.70    8.92
  -4  -1  -9 1090.00   67.18
  -4  -1  -9  961.00   59.38
   4   1   9  952.00   58.79
   4   1   9 1042.00   64.62
  -4  -1 -10   17.32    6.14
  -4  -1 -10   25.42    6.23
   4   1  10   27.07    6.74
   4   1  10   26.11    6.07
  -4  -1 -11  226.50   16.11
  -4  -1 -11  243.50   16.76
   4   1  11  264.80   18.09
   4   1  11  252.10   17.66
  -4  -1 -12   18.76    9.16
  -4  -1 -12   -7.73    7.04
   4   1  12    8.83    7.92
   4   1  12   -8.61    7.46
  -4  -1 -13  411.00   27.37
  -4  -1 -13  398.30   26.28
   4   1  13  359.70   24.27
   4   1  13  426.70   28.30
  -4  -1 -14   47.79   11.78
  -4  -1 -14   54.59   11.16
   4   1  14   64.53   11.66
   4   1  14   46.99    9.64
  -3  -1  14  333.60   22.76
  -3  -1  14  288.30   19.58
   3   1 -14  305.20   22.16
   3   1 -14  278.20   18.81
  -3  -1  13   -0.78    7.67
  -3  -1  13    1.88    7.59
   3   1 -13    7.10    9.72
   3   1 -13    2.90    6.14
  -3  -1  12  969.80   59.97
  -3  -1  12  978.10   60.63
   3   1 -12  984.70   60.73
   3   1 -12  961.80   60.09
  -3  -1  11   50.97    7.95
  -3  -1  11   37.75    6.80
   3   1 -11   47.87    6.04
   3   1 -11   30.05    8.82
  -3  -1  10  285.50   18.51
  -3  -1  10  314.50   20.93
   3   1 -10  275.80   19.08
   3   1 -10  312.60   20.17
  -3  -1   9    4.46    4.73
  -3  -1   9   -3.00    5.91
   3   1  -9    1.31    6.90
   3   1  -9    1.89    5.27
  -3  -1   8 1279.00   78.68
  -3  -1   8 1257.00   77.25
   3   1  -8 1152.00   71.15
   3   1  -8 1376.00   84.58
  -3  -1   7   15.10    4.12
  -3  -1   7   19.05    4.22
   3   1  -7   17.39    3.88
   3   1  -7   11.79    5.22
  -3  -1   6 1102.00   67.62
  -3  -1   6 1094.00   67.25
   3   1  -6 1038.00   63.97
   3   1  -6 1249.00   76.63
  -3  -1   5  576.10   35.56
  -3  -1   5  569.30   35.27
   3   1  -5  546.20   33.97
   3   1  -5  613.20   37.83
  -3  -1   4 3250.00  198.60
  -3  -1   4 3234.00  197.70
   3   1  -4 3607.00  220.40
   3   1  -4 3101.00  189.60
  -3  -1   3 1875.00  114.70
  -3  -1   3 1819.00  111.20
   3   1  -3 1777.00  108.80
   3   1  -3 2055.00  125.70
  -3  -1   2  511.40   31.41
  -3  -1   2  526.20   32.37
   3   1  -2  570.70   35.04
   3   1  -2  489.60   30.15
  -3  -1   1  651.90   39.94
  -3  -1   1  698.70   42.82
   3   1  -1  696.20   42.67
   3   1  -1  769.10   47.11
   3   1   0 1438.00   92.35
  -3  -1  -1   63.66    4.03
  -3  -1  -1   67.83    4.30
   3   1   1   56.47    3.60
   3   1   1   72.31    4.55
  -3  -1  -2 3364.00  205.60
  -3  -1  -2 3676.00  224.70
   3   1   2 3875.00  236.90
   3   1   2 3294.00  201.40
  -3  -1  -3  197.70   12.41
  -3  -1  -3  190.80   11.89
   3   1   3  190.90   12.04
   3   1   3  213.80   13.36
  -3  -1  -4   51.57    3.93
  -3  -1  -4   48.63    4.13
   3   1   4   51.90    4.05
   3   1   4   54.96    4.38
  -3  -1  -5  102.50    7.04
  -3  -1  -5  110.20    7.67
   3   1   5  118.50    7.99
   3   1   5  106.30    7.59
  -3  -1  -6  669.90   41.37
  -3  -1  -6  652.70   40.26
   3   1   6  603.00   37.40
   3   1   6  672.60   41.51
  -3  -1  -7   92.38    7.30
  -3  -1  -7   82.44    6.61
   3   1   7   94.07    7.52
   3   1   7   95.55    6.92
  -3  -1  -8 1320.00   81.08
  -3  -1  -8 1468.00   90.11
   3   1   8 1514.00   92.98
   3   1   8 1431.00   88.06
  -3  -1  -9   11.90    5.22
  -3  -1  -9   11.38    5.23
   3   1   9    9.97    6.25
   3   1   9   15.19    5.00
  -3  -1 -10  858.20   53.08
  -3  -1 -10  693.30   43.18
   3   1  10  791.10   49.23
   3   1  10  767.80   47.73
  -3  -1 -11   62.72    7.64
  -3  -1 -11   65.13    8.32
   3   1  11   58.51    7.86
   3   1  11   61.48    8.03
  -3  -1 -12  449.10   28.81
  -3  -1 -12  427.60   27.58
   3   1  12  383.10   25.41
   3   1  12  420.60   27.37
  -3  -1 -13   -1.25    8.06
  -3  -1 -13  -10.43    8.59
   3   1  13    6.30    8.11
   3   1  13   11.05    9.33
  -3  -1 -14  503.10   32.74
  -3  -1 -14  544.80   34.78
   3   1  14  577.20   36.98
   3   1  14  499.70   32.50
  -2  -1  14  102.90   10.23
  -2  -1  14   69.05   10.29
   2   1 -14   86.15   13.63
   2   1 -14   74.75    9.17
  -2  -1  13  365.60   24.13
  -2  -1  13  321.90   21.36
   2   1 -13  339.80   23.47
   2   1 -13  355.90   23.05
  -2  -1  12   69.44    8.96
  -2  -1  12   78.90    8.27
   2   1 -12   63.42    9.96
   2   1 -12   70.23    7.45
  -2  -1  11  636.50   39.79
  -2  -1  11  686.20   42.95
   2   1 -11  574.40   36.67
   2   1 -11  650.70   40.47
  -2  -1  10   39.29    6.00
  -2  -1  10   50.70    7.58
   2   1 -10   59.53    7.08
   2   1 -10   40.30    8.04
  -2  -1   9  890.70   55.22
  -2  -1   9  845.10   52.18
   2   1  -9  939.40   58.03
   2   1  -9  835.00   51.96
  -2  -1   8    6.68    4.18
  -2  -1   8    8.88    5.18
   2   1  -8    9.82    4.61
   2   1  -8    2.06    5.82
  -2  -1   7  843.00   52.04
  -2  -1   7  848.60   52.27
   2   1  -7  793.70   49.26
   2   1  -7  956.70   58.91
  -2  -1   6   65.85    5.34
  -2  -1   6   62.03    5.75
   2   1  -6   68.83    5.55
   2   1  -6   60.28    6.15
  -2  -1   5 2655.00  162.30
  -2  -1   5 2679.00  163.90
   2   1  -5 2995.00  183.10
   2   1  -5 2415.00  147.80
  -2  -1   4 3098.00  189.40
  -2  -1   4 2984.00  182.40
   2   1  -4 2929.00  179.10
   2   1  -4 3409.00  208.40
  -2  -1   3 2084.00  127.50
  -2  -1   3 2061.00  126.00
   2   1  -3 1994.00  122.00
   2   1  -3 2385.00  145.80
  -2  -1   2   67.66    4.51
  -2  -1   2   67.47    4.69
   2   1  -2   69.82    4.72
   2   1  -2   69.43    4.90
  -2  -1   1 4739.00  289.50
  -2  -1   1 4741.00  289.60
   2   1  -1 4552.00  278.10
   2   1  -1 5158.00  315.20
  -2  -1   0  317.70   19.51
  -2  -1   0  311.00   19.09
   2   1   0  301.30   18.52
   2   1   0  327.80   20.15
  -2  -1  -1 4551.00  278.20
  -2  -1  -1 5066.00  309.60
   2   1   1 4816.00  294.40
  -2  -1  -2 2821.00  172.40
  -2  -1  -2 3064.00  187.30
   2   1   2 2876.00  175.80
   2   1   2 3254.00  198.80
  -2  -1  -3 5373.00  328.20
  -2  -1  -3 5531.00  337.90
   2   1   3 6023.00  367.90
   2   1   3 5605.00  342.40
  -2  -1  -4  486.60   29.97
  -2  -1  -4  529.30   32.67
   2   1   4  490.70   30.37
   2   1   4  570.80   35.15
  -2  -1  -5   39.89    3.51
  -2  -1  -5   42.84    4.37
   2   1   5   44.74    4.26
  -2  -1  -6   23.11    3.27
  -2  -1  -6   17.86    3.72
   2   1   6   28.10    3.61
   2   1   6   20.26    3.87
  -2  -1  -7  710.50   43.92
  -2  -1  -7  653.60   40.36
   2   1   7  669.10   41.51
   2   1   7  767.00   47.33
  -2  -1  -8    0.82    4.08
  -2  -1  -8   17.68    4.29
   2   1   8    8.47    3.49
   2   1   8   10.42    5.30
  -2  -1  -9  978.20   60.26
  -2  -1  -9  858.60   53.09
   2   1   9 1060.00   65.57
   2   1   9  947.10   58.42
  -2  -1 -10  181.60   12.87
  -2  -1 -10  140.30   10.65
   2   1  10  181.00   13.16
   2   1  10  161.10   11.49
  -2  -1 -11   14.87    6.00
  -2  -1 -11    7.69    5.69
   2   1  11   17.45    6.02
   2   1  11   13.74    6.81
  -2  -1 -12   42.32    7.16
  -2  -1 -12   32.42    6.68
   2   1  12   38.99    7.16
   2   1  12   24.21    7.60
  -2  -1 -13  671.60   42.33
  -2  -1 -13  760.40   47.42
   2   1  13  708.30   44.45
   2   1  13  788.90   49.25
  -2  -1 -14   11.59    8.84
  -2  -1 -14    1.55    8.24
   2   1  14    6.53    8.14
   2   1  14    5.56    8.91
  -1  -1  14  228.50   17.08
  -1  -1  14  234.50   16.76
   1   1 -14  252.90   20.43
   1   1 -14  212.60   15.41
  -1  -1  13   93.76   11.46
  -1  -1  13   70.76    8.77
   1   1 -13   68.66    7.86
   1   1 -13   75.64   12.16
  -1  -1  12  842.60   52.66
  -1  -1  12  799.40   49.60
   1   1 -12  789.40   49.02
   1   1 -12  834.70   52.59
  -1  -1  11  120.10    9.68
  -1  -1  11  110.50   10.40
   1   1 -11  112.90    9.45
   1   1 -11  118.60   12.77
  -1  -1  10  845.00   52.57
  -1  -1  10  841.10   52.01
   1   1 -10  800.70   50.11
   1   1 -10  950.70   58.63
  -1  -1   9    3.56    5.83
  -1  -1   9    6.13    4.88
   1   1  -9   -7.34    6.20
   1   1  -9   -2.89    5.43
  -1  -1   8 2278.00  139.60
  -1  -1   8 2310.00  141.40
   1   1  -8 2621.00  160.50
   1   1  -8 2182.00  133.80
  -1  -1   7   19.62    4.57
  -1  -1   7   17.77    3.87
   1   1  -7   14.68    3.78
   1   1  -7   10.78    4.70
  -1  -1   6  595.10   36.94
  -1  -1   6  620.50   38.33
   1   1  -6  589.70   36.72
   1   1  -6  676.80   41.79
  -1  -1   5  833.50   51.25
  -1  -1   5  836.90   51.56
   1   1  -5  786.70   48.57
   1   1  -5  912.00   56.11
  -1  -1   4 1803.00  110.40
  -1  -1   4 1611.00   98.60
   1   1  -4 1697.00  104.00
   1   1  -4 1847.00  113.10
  -1  -1   3  108.50    7.05
  -1  -1   3  115.10    7.66
   1   1  -3  120.50    8.05
   1   1  -3  110.10    7.26
  -1  -1   2 2447.00  149.50
  -1  -1   2 2615.00  159.80
   1   1  -2 2493.00  152.40
   1   1  -2 2585.00  158.00
  -1  -1   1   74.10    4.90
  -1  -1   1   74.51    4.87
   1   1  -1   64.70    4.37
   1   1  -1   64.34    4.25
  -1  -1   0  349.00   21.45
  -1  -1   0  337.40   20.73
   1   1   0  350.20   21.54
   1   1   0  358.20   22.02
  -1  -1  -1  948.90   58.07
  -1  -1  -1  980.40   59.98
   1   1   1  959.20   58.71
   1   1   1  991.20   60.65
  -1  -1  -3 3211.00  196.20
  -1  -1  -3 3065.00  187.30
   1   1   3 3167.00  193.60
   1   1   3 3259.00  199.10
  -1  -1  -4 3132.00  191.40
  -1  -1  -4 3387.00  207.00
   1   1   4 3677.00  224.70
   1   1   4 3285.00  200.80
  -1  -1  -5    2.08    2.68
  -1  -1  -5    6.85    2.38
   1   1   5    4.92    2.96
   1   1   5    8.96    2.83
  -1  -1  -6 2135.00  130.60
  -1  -1  -6 2056.00  125.90
   1   1   6 2171.00  133.00
   1   1   6 2358.00  144.20
  -1  -1  -7   50.55    5.51
  -1  -1  -7   39.81    4.17
   1   1   7   35.85    4.85
   1   1   7   49.90    5.23
  -1  -1  -8 2245.00  137.50
  -1  -1  -8 2324.00  142.30
   1   1   8 2542.00  155.60
   1   1   8 2227.00  136.50
  -1  -1  -9  174.10   11.88
  -1  -1  -9  159.20   11.21
   1   1   9  195.80   13.60
   1   1   9  173.20   11.80
  -1  -1 -10  329.30   21.26
  -1  -1 -10  281.40   18.40
   1   1  10  336.80   21.79
   1   1  10  316.20   20.42
  -1  -1 -11  194.80   13.67
  -1  -1 -11  157.40   11.50
   1   1  11  202.50   14.09
   1   1  11  166.00   12.18
  -1  -1 -12   59.60    7.69
  -1  -1 -12   58.15    7.22
   1   1  12   55.27    8.16
   1   1  12   62.25    7.39
  -1  -1 -13   -0.66    7.05
  -1  -1 -13    1.83    7.04
   1   1  13    4.47    7.60
   1   1  13   -1.83    6.59
  -1  -1 -14  230.90   17.46
  -1  -1 -14  196.00   14.35
   1   1  14  195.40   15.00
   1   1  14  248.90   17.76
   0  -1  14    1.98    8.59
   0  -1  14   -0.59    9.34
   0   1 -14  -15.15    9.75
   0   1 -14    0.51    8.89
   0  -1  13  340.80   23.11
   0  -1  13  290.90   19.99
   0   1 -13  342.90   23.07
   0   1 -13  336.00   22.63
   0  -1  12    5.62    7.14
   0  -1  12   -7.44    8.01
   0   1 -12    5.05    7.21
   0   1 -12   -6.79    8.32
   0  -1  11  285.10   19.56
   0  -1  11  319.30   21.29
   0   1 -11  303.30   20.64
   0   1 -11  344.40   22.48
   0   1 -10   31.19    7.10
   0   1 -10   29.75    8.20
   0  -1   9 3405.00  208.40
   0  -1   9 3643.00  223.10
   0  -1   8   11.05    6.03
   0  -1   8    2.55    4.44
   0   1  -8    0.04    5.03
   0   1  -8   13.76    5.99
   0  -1   7 2251.00  137.90
   0  -1   7 2135.00  130.70
   0   1  -7 2208.00  135.40
   0   1  -7 2540.00  155.50
   0  -1   6   43.98    4.99
   0  -1   6   45.54    4.40
   0   1  -6   44.26    4.64
   0   1  -6   40.25    5.36
   0  -1   5 2711.00  165.80
   0  -1   5 2803.00  171.50
   0   1  -5 2731.00  167.10
   0   1  -5 2937.00  179.60
   0  -1   4   67.47    4.84
   0  -1   4   61.63    5.19
   0   1  -4   67.73    5.16
   0   1  -4   73.61    5.95
   0  -1   3 3077.00  188.00
   0  -1   3 3303.00  201.90
   0   1  -3 3194.00  195.20
   0   1  -3 3312.00  202.40
   0  -1   2 1166.00   71.37
   0  -1   2 1147.00   70.26
   0   1  -2 1076.00   65.92
   0   1  -2 1113.00   68.21
   0  -1   1  387.40   23.85
   0  -1   1  402.10   24.77
   0   1  -1  415.80   25.64
   0   1  -1  399.80   24.66
   0  -1   0    0.21    1.20
   0  -1   0    0.04    1.04
   0   1   0    0.48    1.24
   0   1   0    0.29    1.23
   0  -1  -1  427.60   26.31
   0  -1  -1  412.80   25.38
   0   1   1  424.80   26.13
   0   1   1  381.70   23.52
   0  -1  -2 1159.00   70.95
   0  -1  -2 1320.00   80.77
   0   1   2 1139.00   69.75
   0   1   2 1249.00   76.41
   0  -1  -3 3557.00  217.40
   0  -1  -3 3446.00  210.60
   0   1   3 3558.00  217.40
   0   1   3 3571.00  218.30
   0  -1  -4   82.64    5.78
   0  -1  -4   77.91    5.42
   0   1   4   84.03    5.73
   0   1   4   67.71    5.34
   0  -1  -5 2990.00  182.80
   0  -1  -5 2739.00  167.50
   0   1   5 3129.00  191.20
   0   1   5 2871.00  175.70
   0  -1  -6   50.21    4.31
   0  -1  -6   50.72    4.68
   0   1   6   60.77    5.06
   0   1   6   46.41    4.51
   0  -1  -7 2361.00  144.50
   0  -1  -7 2245.00  137.50
   0   1   7 2515.00  154.10
   0   1   7 2486.00  152.10
   0  -1  -8    3.52    4.15
   0  -1  -8    7.11    3.63
   0   1   8    2.10    3.59
   0   1   8    3.50    5.08
   0  -1  -9 3163.00  193.50
   0  -1  -9 3318.00  203.00
   0   1   9 3801.00  232.50
   0   1   9 3472.00  212.50
   0  -1 -10   46.97    6.06
   0  -1 -10   45.33    5.79
   0   1  10   51.48    6.22
   0   1  10   57.06    6.34
   0  -1 -11  338.00   21.64
   0  -1 -11  294.90   19.25
   0   1  11  341.50   22.12
   0   1  11  371.00   23.81
   0  -1 -12    5.16    5.70
   0  -1 -12   -2.15    6.17
   0   1  12   10.07    6.15
   0   1  12   -1.09    6.07
   0  -1 -13  361.20   23.45
   0  -1 -13  360.00   23.54
   0   1  13  348.20   22.66
   0   1  13  396.60   25.66
   0  -1 -14    1.17    8.19
   0   1  14    2.05    8.87
   0   1  14    6.22    8.08
   1  -1  14  201.90   16.45
   1  -1  14  189.10   14.79
  -1   1 -14  204.10   15.90
  -1   1 -14  193.80   14.89
   1  -1  13    6.18    8.64
   1  -1  13   15.80    8.01
  -1   1 -13   12.93    8.38
  -1   1 -13    9.28    8.33
   1  -1  12   25.76    7.44
   1  -1  12   57.79    8.72
  -1   1 -12   47.24    8.41
  -1   1 -12   49.51    8.28
   1  -1  11  152.90   11.71
   1  -1  11  177.50   13.27
  -1   1 -11  198.10   14.17
  -1   1 -11  161.70   12.70
   1  -1  10  285.10   19.02
   1  -1  10  273.50   18.25
  -1   1 -10  298.50   19.69
  -1   1 -10  330.20   21.46
   1  -1   9  166.70   12.96
   1  -1   9  159.60   11.41
  -1   1  -9  167.00   12.17
  -1   1  -9  173.60   12.22
   1  -1   8 2297.00  141.00
   1  -1   8 2121.00  130.00
  -1   1  -8 2637.00  161.50
  -1   1  -8 2273.00  139.30
   1  -1   7   42.83    5.00
   1  -1   7   33.21    5.44
  -1   1  -7   31.50    3.99
  -1   1  -7   46.44    5.87
   1  -1   6 1828.00  112.00
   1  -1   6 2090.00  128.10
  -1   1  -6 2099.00  128.50
  -1   1  -6 2030.00  124.30
   1  -1   5    5.27    2.92
   1  -1   5    4.82    3.86
  -1   1  -5    6.04    2.92
  -1   1  -5    3.00    3.30
   1  -1   4 3355.00  205.20
   1  -1   4 2891.00  176.80
  -1   1  -4 3054.00  186.70
  -1   1  -4 3087.00  188.70
  -1   1  -3 2928.00  179.00
  -1   1  -3 3101.00  189.50
   1  -1   1  965.30   59.16
   1  -1   1  952.40   58.38
   1  -1   0  318.60   19.70
   1  -1   0  333.10   20.59
  -1   1   0  333.30   20.61
  -1   1   0  333.90   20.66
   1  -1  -1   71.54    4.85
   1  -1  -1   68.37    4.58
  -1   1   1   65.75    4.47
  -1   1   1   66.71    4.56
   1  -1  -2 2611.00  159.60
   1  -1  -2 2470.00  151.00
  -1   1   2 2615.00  159.90
  -1   1   2 2571.00  157.10
   1  -1  -3  108.80    7.20
   1  -1  -3  104.00    6.85
  -1   1   3  108.10    7.28
  -1   1   3   88.48    5.93
   1  -1  -4 1836.00  112.30
   1  -1  -4 1587.00   97.13
  -1   1   4 1680.00  103.00
  -1   1   4 1766.00  108.10
   1  -1  -5  777.40   47.79
   1  -1  -5  845.60   52.03
  -1   1   5  803.80   49.61
  -1   1   5  839.20   51.58
   1  -1  -6  560.00   34.62
   1  -1  -6  597.70   36.98
  -1   1   6  597.70   37.12
  -1   1   6  665.20   41.04
   1  -1  -7   13.68    3.47
   1  -1  -7   22.45    3.89
  -1   1   7   21.41    3.92
  -1   1   7   22.15    4.98
   1  -1  -8 2262.00  138.50
   1  -1  -8 2183.00  133.70
  -1   1   8 2461.00  150.60
  -1   1   8 2315.00  142.00
   1  -1  -9    2.75    4.53
   1  -1  -9   -1.71    4.18
  -1   1   9    2.98    5.67
  -1   1   9   -2.89    4.21
   1  -1 -10  827.00   51.10
   1  -1 -10  889.50   54.96
  -1   1  10  942.20   58.24
  -1   1  10  920.20   56.88
   1  -1 -11  113.20    8.91
   1  -1 -11   98.17    8.44
  -1   1  11  129.00   10.19
  -1   1  11  111.40    9.26
   1  -1 -12  846.10   52.38
   1  -1 -12  780.20   48.43
  -1   1  12  936.20   57.97
  -1   1  12  879.80   54.60
   1  -1 -13   76.96    8.73
   1  -1 -13   92.17    8.99
  -1   1  13   84.39    9.01
  -1   1  13  103.40    9.83
   1  -1 -14  278.60   18.80
   1  -1 -14  273.20   18.66
  -1   1  14  276.40   18.79
  -1   1  14  322.30   21.85
   2  -1  14    1.72   10.41
   2  -1  14    8.26    8.78
  -2   1 -14    9.98    8.65
  -2   1 -14    3.10    8.94
   2  -1  13  644.20   40.79
   2  -1  13  599.90   38.05
  -2   1 -13  665.60   41.90
  -2   1 -13  748.10   46.91
   2  -1  12   20.36    7.58
   2  -1  12   23.18    7.06
  -2   1 -12   10.56    7.21
  -2   1 -12   29.38    7.78
   2  -1  11   10.72    6.26
   2  -1  11    6.77    6.95
  -2   1 -11   23.16    7.11
  -2   1 -11   13.40    6.27
   2  -1  10  153.30   11.95
   2  -1  10  139.60   10.65
  -2   1 -10  167.50   12.22
  -2   1 -10  140.30   10.86
   2  -1   9  825.60   51.15
   2  -1   9  883.10   55.02
  -2   1  -9  898.00   55.54
  -2   1  -9 1023.00   63.18
   2  -1   8    8.35    6.34
   2  -1   8    7.88    4.78
  -2   1  -8    3.03    5.18
  -2   1  -8    3.82    5.26
   2  -1   7  650.50   40.59
   2  -1   7  586.30   36.48
  -2   1  -7  627.40   38.93
  -2   1  -7  659.40   40.80
   2  -1   6   24.34    3.83
   2  -1   6   19.50    4.81
  -2   1  -6   20.32    4.04
  -2   1  -6   20.98    3.70
   2  -1   5   42.05    4.13
   2  -1   5   42.65    5.22
  -2   1  -5   38.83    4.33
  -2   1  -5   42.62    4.18
   2  -1   4  466.80   28.94
   2  -1   4  487.00   30.34
  -2   1  -4  452.10   28.03
  -2   1  -4  485.30   30.06
   2  -1   3 4515.00  276.00
   2  -1   3 4957.00  302.90
  -2   1  -3 4742.00  289.70
  -2   1  -3 4536.00  277.10
   2  -1   2 2575.00  157.50
   2  -1   2 2650.00  162.10
  -2   1  -2 2631.00  160.90
  -2   1  -2 2619.00  160.10
   2  -1   1 4228.00  258.30
   2  -1   1 4245.00  259.40
  -2   1  -1 4131.00  252.40
  -2   1  -1 4346.00  265.50
   2  -1   0  319.50   19.88
   2  -1   0  305.50   18.99
  -2   1   0  312.10   19.37
  -2   1   0  330.10   20.41
   2  -1  -1 4572.00  279.30
   2  -1  -1 4590.00  280.50
  -2   1   1 4534.00  277.00
  -2   1   1 4268.00  260.70
   2  -1  -2   67.96    4.85
   2  -1  -2   62.98    4.57
  -2   1   2   62.44    4.35
  -2   1   2   67.56    4.86
   2  -1  -3 2128.00  130.20
   2  -1  -3 1910.00  116.90
  -2   1   3 2045.00  125.10
  -2   1   3 2001.00  122.50
   2  -1  -4 3184.00  194.70
   2  -1  -4 2795.00  170.90
  -2   1   4 2750.00  168.20
  -2   1   4 2964.00  181.20
  -2   1   5 2884.00  176.30
  -2   1   5 2696.00  165.00
   2  -1  -6   79.05    6.04
   2  -1  -6   76.53    6.39
   2  -1  -7  890.90   54.90
   2  -1  -7  920.10   56.77
  -2   1   7  927.20   57.34
  -2   1   7 1126.00   69.18
   2  -1  -8    8.97    3.99
   2  -1  -8    6.42    3.91
  -2   1   8   -0.30    4.82
  -2   1   8   13.23    3.55
   2  -1  -9  864.20   53.35
   2  -1  -9  832.50   51.49
  -2   1   9  930.30   57.37
  -2   1   9  927.50   57.60
   2  -1 -10   42.76    5.59
   2  -1 -10   31.53    5.90
  -2   1  10   55.02    6.39
  -2   1  10   48.71    6.97
   2  -1 -11  621.10   38.67
   2  -1 -11  639.20   39.89
  -2   1  11  695.90   43.43
  -2   1  11  727.90   45.30
   2  -1 -12   80.60    8.10
   2  -1 -12   92.73    8.45
  -2   1  12   85.10    8.25
  -2   1  12   90.20    9.34
   2  -1 -13  359.80   23.41
   2  -1 -13  383.90   24.84
  -2   1  13  401.70   26.00
  -2   1  13  402.20   26.10
   2  -1 -14   83.76    9.89
   2  -1 -14   78.66    8.53
  -2   1  14   83.55   10.06
  -2   1  14   89.38    9.84
   3  -1  14  409.70   27.10
   3  -1  14  479.70   31.86
  -3   1 -14  538.30   34.72
  -3   1 -14  439.10   28.81
   3  -1  13    8.23    9.69
   3  -1  13   -1.41    7.62
  -3   1 -13    1.27    8.24
  -3   1 -13    8.03    8.38
   3  -1  12  344.00   22.89
   3  -1  12  341.10   22.80
  -3   1 -12  368.70   24.33
  -3   1 -12  414.30   26.95
   3  -1  11   43.93    8.00
   3  -1  11   43.80    7.02
  -3   1 -11   65.56    8.43
  -3   1 -11   52.86    7.59
   3  -1  10  662.90   41.42
   3  -1  10  729.60   45.59
  -3   1 -10  804.00   49.90
  -3   1 -10  728.90   45.35
   3  -1   9    6.09    5.04
   3  -1   9   19.45    7.06
  -3   1  -9    9.47    6.00
  -3   1  -9   16.83    5.92
   3  -1   8 1232.00   75.83
   3  -1   8 1448.00   89.20
  -3   1  -8 1295.00   79.67
  -3   1  -8 1602.00   98.37
   3  -1   7   91.32    8.64
   3  -1   7   80.99    6.87
  -3   1  -7   82.60    7.11
  -3   1  -7   96.59    7.70
   3  -1   6  529.40   32.94
   3  -1   6  620.70   38.69
  -3   1  -6  597.10   36.98
  -3   1  -6  619.10   38.31
   3  -1   5  110.60    8.05
   3  -1   5  112.70    8.61
  -3   1  -5  108.90    7.89
  -3   1  -5  109.60    7.79
   3  -1   4   48.05    4.48
   3  -1   4   46.38    4.92
  -3   1  -4   46.01    4.33
  -3   1  -4   45.97    4.28
   3  -1   3  180.30   11.82
   3  -1   3  180.20   11.81
  -3   1  -3  160.30   10.36
  -3   1  -3  182.20   11.71
   3  -1   2 3268.00  199.80
   3  -1   2 3126.00  191.10
  -3   1  -2 3294.00  201.40
  -3   1  -2 3030.00  185.20
   3  -1   1   65.72    5.04
   3  -1   1   68.66    5.06
  -3   1  -1   61.81    4.69
  -3   1  -1   61.89    4.60
   3  -1   0 1383.00   84.76
   3  -1   0 1384.00   84.81
  -3   1   0 1431.00   87.61
  -3   1   0 1434.00   87.80
   3  -1  -1  676.00   41.60
   3  -1  -1  643.10   39.63
  -3   1   1  694.00   42.62
  -3   1   1  634.70   39.07
   3  -1  -2  483.10   29.91
   3  -1  -2  465.30   28.80
  -3   1   2  473.30   29.30
  -3   1   2  469.40   28.92
   3  -1  -3 1921.00  117.60
   3  -1  -3 1698.00  104.00
  -3   1   3 1766.00  108.10
  -3   1   3 1766.00  108.00
   3  -1  -4 3192.00  195.20
   3  -1  -4 2666.00  163.10
  -3   1   4 3103.00  189.60
  -3   1   4 2960.00  181.10
   3  -1  -5  594.30   36.87
   3  -1  -5  528.00   32.72
  -3   1   5  591.20   36.42
  -3   1   5  518.90   32.23
   3  -1  -6 1007.00   61.98
   3  -1  -6 1302.00   80.15
  -3   1   6 1196.00   73.33
  -3   1   6 1123.00   69.07
   3  -1  -7   14.83    4.42
   3  -1  -7   11.52    3.51
  -3   1   7   15.44    3.10
  -3   1   7   19.44    4.39
   3  -1  -8 1259.00   77.49
   3  -1  -8 1163.00   71.53
  -3   1   8 1356.00   83.14
  -3   1   8 1255.00   77.26
   3  -1  -9   -0.56    5.19
   3  -1  -9   -4.21    4.11
  -3   1   9   -0.99    3.46
  -3   1   9   -8.00    5.26
   3  -1 -10  286.30   18.52
   3  -1 -10  280.00   18.83
  -3   1  10  319.50   20.26
  -3   1  10  303.30   19.88
   3  -1 -11   54.64    7.49
   3  -1 -11   45.57    5.56
  -3   1  11   56.13    7.32
  -3   1  11   54.44    6.16
   3  -1 -12 1003.00   62.38
   3  -1 -12  883.50   54.60
  -3   1  12 1018.00   63.17
  -3   1  12 1087.00   66.99
  -3   1  13    7.01    8.16
  -3   1  13   -7.13    6.28
   3  -1 -14  301.10   21.05
   3  -1 -14  265.50   18.79
  -3   1  14  334.20   23.72
   4  -1  14   26.14    8.82
   4  -1  14   31.91   12.51
  -4   1 -14   52.78   10.68
  -4   1 -14   31.77   11.42
   4  -1  13  369.40   25.06
   4  -1  13  333.80   22.66
  -4   1 -13  364.90   24.27
  -4   1 -13  377.60   25.01
   4  -1  12   -1.55    7.03
   4  -1  12    4.48    8.51
  -4   1 -12   -5.17    7.99
  -4   1 -12   -1.06    8.26
   4  -1  11  195.80   14.18
   4  -1  11  245.40   17.38
  -4   1 -11  241.90   16.74
  -4   1 -11  247.80   17.28
   4  -1  10   20.99    7.32
   4  -1  10   20.82    6.12
  -4   1 -10   25.22    7.18
  -4   1 -10   26.30    6.72
   4  -1   9  979.30   60.74
  -4   1  -9  921.40   56.98
  -4   1  -9 1091.00   67.34
   4  -1   8  117.40   10.76
   4  -1   8  114.80    8.74
  -4   1  -8  118.30    9.69
  -4   1  -8  111.00    9.00
   4  -1   7 2273.00  139.40
   4  -1   7 2307.00  141.50
  -4   1  -7 2151.00  131.80
  -4   1  -7 2428.00  148.70
   4  -1   6  134.50    9.85
   4  -1   6  122.70    9.14
  -4   1  -6  133.20    9.36
  -4   1  -6  141.70   10.00
   4  -1   5  416.50   26.29
   4  -1   5  430.40   27.07
  -4   1  -5  405.30   25.38
  -4   1  -5  434.00   27.08
   4  -1   4   14.74    4.00
   4  -1   4   18.21    4.57
  -4   1  -4    9.67    2.90
  -4   1  -4   10.23    3.57
   4  -1   3 2669.00  163.30
   4  -1   3 2763.00  169.00
  -4   1  -3 2528.00  154.60
  -4   1  -3 2773.00  169.60
   4  -1   2  405.40   25.29
   4  -1   2  407.80   25.43
  -4   1  -2  397.50   24.75
  -4   1  -2  366.40   22.80
   4  -1   1 1756.00  107.60
   4  -1   1 1707.00  104.60
  -4   1  -1 1687.00  103.20
  -4   1  -1 1751.00  107.20
   4  -1   0 2471.00  151.20
   4  -1   0 2421.00  148.10
  -4   1   0 2516.00  153.90
  -4   1   0 2517.00  153.90
   4  -1  -1 2692.00  164.70
   4  -1  -1 2658.00  162.60
  -4   1   1 2739.00  167.40
  -4   1   1 2724.00  166.60
   4  -1  -2 1185.00   72.72
   4  -1  -2 1164.00   71.39
  -4   1   2 1126.00   69.09
  -4   1   2 1117.00   68.42
   4  -1  -3 1301.00   79.86
   4  -1  -3 1162.00   71.34
  -4   1   3 1141.00   70.08
  -4   1   3 1136.00   69.56
   4  -1  -4  184.60   12.03
   4  -1  -4  208.80   13.55
  -4   1   4  189.90   12.39
  -4   1   4  206.40   13.04
   4  -1  -5 1570.00   96.32
   4  -1  -5 1297.00   79.63
  -4   1   5 1340.00   82.27
  -4   1   5 1391.00   85.16
   4  -1  -6  219.60   14.51
   4  -1  -6  184.40   12.23
  -4   1   6  187.50   12.45
  -4   1   6  216.10   13.75
   4  -1  -7 1699.00  104.30
   4  -1  -7 1468.00   90.11
  -4   1   7 1495.00   91.76
  -4   1   7 1721.00  105.40
   4  -1  -8  186.50   12.88
   4  -1  -8  168.00   11.47
  -4   1   8  181.80   12.35
  -4   1   8  193.10   12.56
   4  -1  -9   92.28    7.51
   4  -1  -9   97.57    8.50
  -4   1   9   96.31    8.31
  -4   1   9  100.40    7.35
   4  -1 -10   86.25    7.03
   4  -1 -10   91.12    8.90
  -4   1  10   97.16    8.52
  -4   1  10  111.50    8.16
   4  -1 -11  476.40   30.59
   4  -1 -11  470.30   29.42
  -4   1  11  534.90   33.73
  -4   1  11  602.30   37.38
   4  -1 -12    8.64    7.76
   4  -1 -12   10.50    5.22
  -4   1  12   -4.90    6.78
  -4   1  12   12.19    5.59
   4  -1 -13  506.10   31.86
   4  -1 -13  534.00   34.73
  -4   1  13  537.20   34.30
  -4   1  13  577.40   36.20
   4  -1 -14    6.30   11.81
   4  -1 -14    5.02    7.46
  -4   1  14   -2.60    8.61
  -4   1  14   30.17    7.16
   5  -1  13   -8.06   10.51
   5  -1  13   10.97   10.55
  -5   1 -13    2.27    9.53
  -5   1 -13    3.68   10.79
   5  -1  12  173.50   14.61
   5  -1  12  143.10   12.86
  -5   1 -12  192.30   15.17
  -5   1 -12  177.40   14.99
   5  -1  11   18.00    9.37
   5  -1  11   10.88    8.30
  -5   1 -11   19.92    8.15
  -5   1 -11   29.05    8.35
   5  -1  10  514.20   33.00
   5  -1  10  482.80   30.96
  -5   1 -10  477.30   30.51
  -5   1 -10  550.50   34.92
   5  -1   9  275.00   18.88
   5  -1   9  265.40   18.69
  -5   1  -9  256.20   17.45
  -5   1  -9  284.50   19.07
   5  -1   8  812.90   50.56
   5  -1   8  830.10   51.79
  -5   1  -8  810.30   50.28
  -5   1  -8  834.60   51.75
   5  -1   7   74.11    8.50
   5  -1   7   73.36    7.53
  -5   1  -7   87.22    7.97
  -5   1  -7   68.82    6.64
   5  -1   6 1078.00   66.66
   5  -1   6 1069.00   65.92
  -5   1  -6 1043.00   64.26
  -5   1  -6 1109.00   68.25
   5  -1   5    7.25    4.34
   5  -1   5    4.90    4.50
  -5   1  -5    1.97    4.83
  -5   1  -5    8.97    4.57
   5  -1   4 1508.00   92.54
   5  -1   4 1551.00   95.16
  -5   1  -4 1503.00   92.14
  -5   1  -4 1452.00   89.04
   5  -1   3    5.53    3.67
   5  -1   3    4.87    3.50
  -5   1  -3    0.20    2.96
  -5   1  -3    2.63    3.04
   5  -1   2 1076.00   66.12
   5  -1   2 1107.00   68.03
  -5   1  -2 1130.00   69.42
  -5   1  -2 1071.00   65.76
   5  -1   1  388.70   24.34
   5  -1   1  353.90   22.11
  -5   1  -1  377.10   23.52
  -5   1  -1  364.20   22.68
   5  -1   0 2493.00  152.50
   5  -1   0 2362.00  144.50
  -5   1   0 2495.00  152.70
  -5   1   0 2641.00  161.50
   5  -1  -1 1261.00   77.40
   5  -1  -1 1188.00   72.90
  -5   1   1 1173.00   71.99
  -5   1   1 1216.00   74.55
   5  -1  -2 2005.00  122.80
   5  -1  -2 1960.00  120.00
  -5   1   2 1877.00  115.00
  -5   1   2 1902.00  116.40
   5  -1  -3   -0.62    3.57
   5  -1  -3    2.60    3.02
  -5   1   3    3.37    3.06
  -5   1   3    0.44    2.28
   5  -1  -4 2951.00  180.60
   5  -1  -4 2661.00  162.90
  -5   1   4 2617.00  160.20
  -5   1   4 2705.00  165.40
   5  -1  -5  408.10   25.57
   5  -1  -5  480.00   29.92
  -5   1   5  432.00   27.05
  -5   1   5  450.70   27.90
   5  -1  -6 2059.00  126.20
   5  -1  -6 2360.00  144.60
  -5   1   6 1958.00  120.00
  -5   1   6 2159.00  132.10
   5  -1  -7  642.00   39.86
   5  -1  -7  806.10   49.97
  -5   1   7  667.70   41.44
  -5   1   7  756.50   46.57
   5  -1  -8 1262.00   77.63
   5  -1  -8 1512.00   93.05
  -5   1   8 1347.00   82.84
  -5   1   8 1520.00   93.14
   5  -1  -9   -1.83    4.28
   5  -1  -9   11.44    5.75
  -5   1   9    5.92    5.46
  -5   1   9   10.40    3.84
   5  -1 -10  132.60   10.87
   5  -1 -10  125.70    9.39
  -5   1  10  147.10   10.16
  -5   1  10  131.50   10.00
   5  -1 -11    4.33    6.86
   5  -1 -11    3.90    5.13
  -5   1  11   -0.91    6.16
  -5   1  11   -2.18    4.43
   5  -1 -12  270.90   17.72
   5  -1 -12  274.10   19.10
  -5   1  12  291.10   19.54
  -5   1  12  341.50   22.02
   5  -1 -13   25.89   10.39
   5  -1 -13   33.28    7.00
  -5   1  13   49.30    8.73
  -5   1  13   38.79    6.87
   6  -1  13  134.40   13.48
   6  -1  13  146.40   14.80
  -6   1 -13  167.00   14.82
  -6   1 -13  116.60   14.12
   6  -1  12   45.82   10.64
   6  -1  12   33.69   11.26
  -6   1 -12   76.97   11.02
  -6   1 -12   41.78    9.96
   6  -1  11  447.30   30.08
   6  -1  11  487.60   31.68
  -6   1 -11  425.40   27.81
  -6   1 -11  465.80   30.10
   6  -1  10   75.49   10.30
   6  -1  10   64.94   10.96
  -6   1 -10   46.48    8.75
  -6   1 -10   76.03    9.80
   6  -1   9  440.50   28.36
   6  -1   9  473.90   30.50
  -6   1  -9  444.50   28.57
  -6   1  -9  535.60   34.09
   6  -1   8   60.60    8.31
   6  -1   8   54.82    8.91
  -6   1  -8   69.49    8.16
  -6   1  -8   56.10    7.08
   6  -1   7 1260.00   77.82
   6  -1   7 1258.00   77.54
  -6   1  -7 1265.00   77.90
  -6   1  -7 1297.00   79.86
   6  -1   6    5.89    5.51
   6  -1   6   11.44    7.01
  -6   1  -6    4.21    6.02
  -6   1  -6    4.52    5.11
   6  -1   5 1311.00   80.62
   6  -1   5 1316.00   81.05
  -6   1  -5 1324.00   81.35
  -6   1  -5 1328.00   81.61
   6  -1   4   40.91    5.12
   6  -1   4   45.44    6.49
  -6   1  -4   42.03    5.12
  -6   1  -4   39.06    4.78
   6  -1   3 2219.00  135.90
   6  -1   3 2234.00  136.80
  -6   1  -3 2114.00  129.40
  -6   1  -3 2098.00  128.40
   6  -1   2   14.91    3.53
   6  -1   2   12.91    4.06
  -6   1  -2   13.80    3.75
  -6   1  -2   16.61    3.52
   6  -1   1  478.60   29.83
   6  -1   1  440.40   27.44
  -6   1  -1  458.20   28.55
  -6   1  -1  439.40   27.31
   6  -1   0   26.92    3.39
   6  -1   0   30.44    4.07
  -6   1   0   33.22    4.15
  -6   1   0   33.93    3.85
   6  -1  -1 1043.00   64.09
   6  -1  -1 1069.00   65.75
  -6   1   1 1103.00   67.80
  -6   1   1 1020.00   62.55
   6  -1  -2  150.80   10.04
   6  -1  -2  172.20   11.57
  -6   1   2  150.20   10.15
  -6   1   2  138.70    9.14
   6  -1  -3 1823.00  111.80
   6  -1  -3 1997.00  122.40
  -6   1   3 1724.00  105.70
  -6   1   3 1786.00  109.30
   6  -1  -4   15.66    4.08
   6  -1  -4   20.52    4.22
  -6   1   4   18.50    3.69
  -6   1   4   14.94    2.90
   6  -1  -5  808.50   50.00
   6  -1  -5  722.90   44.81
  -6   1   5  722.60   44.71
  -6   1   5  775.70   47.71
   6  -1  -6  250.10   16.51
   6  -1  -6  210.00   13.94
  -6   1   6  224.20   14.72
  -6   1   6  238.90   15.14
   6  -1  -7 3681.00  225.30
   6  -1  -7 3045.00  186.40
  -6   1   7 3196.00  195.60
  -6   1   7 3452.00  211.00
   6  -1  -8  122.40    9.83
   6  -1  -8  105.80    8.04
  -6   1   8  106.90    8.49
  -6   1   8  131.70    9.13
   6  -1  -9  971.30   60.27
   6  -1  -9  854.80   52.73
  -6   1   9  937.50   57.99
  -6   1   9 1032.00   63.43
   6  -1 -10   46.30    7.51
   6  -1 -10   56.63    6.13
  -6   1  10   40.82    6.76
  -6   1  10   54.50    5.58
   6  -1 -11  672.50   42.56
   6  -1 -11  575.10   35.84
  -6   1  11  645.30   40.48
  -6   1  11  719.60   44.63
   6  -1 -12   20.85    8.40
   6  -1 -12   14.13    5.92
  -6   1  12   20.94    7.27
  -6   1  12   27.49    6.28
   6  -1 -13  631.80   40.59
   6  -1 -13  504.30   31.95
  -6   1  13  565.80   36.02
  -6   1  13  656.40   40.93
   7  -1  12   90.05   11.43
   7  -1  12   71.90   12.96
  -7   1 -12   81.78   11.45
  -7   1 -12   71.91   12.27
   7  -1  11   41.53   10.62
   7  -1  11   48.41   13.11
  -7   1 -11   52.43    9.80
  -7   1 -11   34.20    9.84
   7  -1  10  273.50   19.66
   7  -1  10  234.40   18.58
  -7   1 -10  283.80   20.07
  -7   1 -10  313.70   21.69
   7  -1   9  -11.49    7.75
   7  -1   9    2.96    8.67
  -7   1  -9   -6.78    7.32
  -7   1  -9    7.93    8.36
   7  -1   8  459.60   29.55
   7  -1   8  413.50   27.10
  -7   1  -8  465.30   29.66
  -7   1  -8  444.30   28.63
   7  -1   7   61.69    7.23
   7  -1   7   64.26    8.97
  -7   1  -7   69.04    7.68
  -7   1  -7   68.33    7.22
   7  -1   6  474.10   29.99
   7  -1   6  476.80   30.70
  -7   1  -6  452.90   28.66
  -7   1  -6  486.70   30.67
   7  -1   5  161.20   11.61
   7  -1   5  141.70   11.36
  -7   1  -5  153.00   10.96
  -7   1  -5  138.40   10.42
   7  -1   4 3467.00  212.20
   7  -1   4 3521.00  215.50
  -7   1  -4 3343.00  204.50
  -7   1  -4 3335.00  204.00
   7  -1   3    1.68    4.41
   7  -1   3    3.03    4.66
  -7   1  -3    1.52    4.29
  -7   1  -3   -1.35    4.28
   7  -1   2 1401.00   86.00
   7  -1   2 1522.00   93.47
  -7   1  -2 1483.00   91.08
  -7   1  -2 1425.00   87.40
   7  -1   1    0.03    3.52
   7  -1   1    5.74    3.85
  -7   1  -1    1.13    4.20
  -7   1  -1    4.11    3.90
   7  -1   0 1230.00   75.54
   7  -1   0 1198.00   73.65
  -7   1   0 1246.00   76.53
  -7   1   0 1347.00   82.57
   7  -1  -1  153.10   10.27
   7  -1  -1  153.50   10.61
  -7   1   1  159.20   10.67
  -7   1   1  145.20    9.60
   7  -1  -2 1630.00   99.92
   7  -1  -2 1585.00   97.25
  -7   1   2 1522.00   93.38
  -7   1   2 1569.00   96.10
   7  -1  -3  445.90   27.94
   7  -1  -3  423.00   26.62
  -7   1   3  405.60   25.47
  -7   1   3  420.70   26.11
   7  -1  -4  481.50   30.13
   7  -1  -4  480.90   30.17
  -7   1   4  415.40   26.08
  -7   1   4  446.20   27.66
   7  -1  -5   -2.25    4.51
   7  -1  -5    0.78    4.45
  -7   1   5    0.07    3.56
  -7   1   5    1.08    3.23
   7  -1  -6  540.70   33.97
   7  -1  -6  478.10   30.11
  -7   1   6  468.30   29.51
  -7   1   6  491.80   30.52
   7  -1  -7   24.02    6.01
   7  -1  -7   12.71    4.44
  -7   1   7   15.39    5.28
  -7   1   7   17.97    3.95
   7  -1  -8 1082.00   67.01
   7  -1  -8  934.80   57.62
  -7   1   8  944.50   58.43
  -7   1   8 1074.00   66.01
   7  -1  -9  209.00   15.03
   7  -1  -9  184.80   12.67
  -7   1   9  207.90   14.25
  -7   1   9  229.50   15.10
   7  -1 -10  803.00   50.22
   7  -1 -10  806.20   49.84
  -7   1  10  782.30   48.72
  -7   1  10  902.50   55.67
   7  -1 -11    0.94    7.58
   7  -1 -11    4.95    5.69
  -7   1  11    2.73    6.45
  -7   1  11    4.54    5.10
   7  -1 -12  561.00   36.33
   7  -1 -12  506.60   31.93
  -7   1  12  528.80   33.68
  -7   1  12  621.10   38.77
   7  -1 -13   10.75   10.07
   7  -1 -13    1.22    7.37
  -7   1  13   -6.69    9.15
  -7   1  13    0.58    7.16
   8  -1  11  225.20   17.88
   8  -1  11  202.50   18.99
  -8   1 -11  218.90   17.80
  -8   1 -11  177.10   16.63
   8  -1  10   -8.96    9.33
   8  -1  10   10.92   12.06
  -8   1 -10    2.40   10.60
  -8   1 -10    2.88   11.04
   8  -1   9  169.40   13.74
   8  -1   9  161.30   13.47
  -8   1  -9  185.30   15.00
  -8   1  -9  196.30   15.60
   8  -1   8   37.37    7.59
   8  -1   8   20.31    8.87
  -8   1  -8   34.36    8.41
  -8   1  -8   24.16    7.23
   8  -1   7   23.28    6.51
   8  -1   7   33.74    8.90
  -8   1  -7   41.32    7.43
  -8   1  -7   44.38    7.89
   8  -1   6  222.90   15.54
   8  -1   6  241.00   17.30
  -8   1  -6  230.70   15.82
  -8   1  -6  229.80   15.88
   8  -1   5  377.90   24.33
   8  -1   5  398.70   26.00
  -8   1  -5  373.40   23.87
  -8   1  -5  420.50   26.80
   8  -1   4   14.89    5.19
   8  -1   4   18.30    7.36
  -8   1  -4   27.97    5.70
  -8   1  -4   18.55    5.31
   8  -1   3 1478.00   90.77
   8  -1   3 1476.00   90.76
  -8   1  -3 1478.00   90.70
  -8   1  -3 1375.00   84.46
   8  -1   2   -0.66    4.20
   8  -1   2   -0.56    5.34
  -8   1  -2    4.54    5.15
  -8   1  -2    0.02    4.22
   8  -1   1  898.40   55.36
   8  -1   1  911.30   56.31
  -8   1  -1  959.60   59.20
  -8   1  -1 1016.00   62.48
   8  -1   0   75.70    6.43
   8  -1   0   78.97    6.93
  -8   1   0   82.60    6.81
  -8   1   0   85.60    6.56
   8  -1  -1 1341.00   82.34
   8  -1  -1 1326.00   81.52
  -8   1   1 1382.00   84.92
  -8   1   1 1346.00   82.55
   8  -1  -2  636.20   39.46
   8  -1  -2  580.60   36.24
  -8   1   2  591.70   36.83
  -8   1   2  572.30   35.38
   8  -1  -3 3212.00  196.60
   8  -1  -3 2933.00  179.60
  -8   1   3 2857.00  174.90
  -8   1   3 2911.00  178.00
   8  -1  -4   36.92    5.30
   8  -1  -4   36.55    5.56
  -8   1   4   34.79    5.20
  -8   1   4   29.26    3.82
   8  -1  -5  217.90   14.74
   8  -1  -5  199.40   13.77
  -8   1   5  187.60   12.74
  -8   1   5  203.90   13.27
   8  -1  -6    4.16    5.66
   8  -1  -6    4.58    5.42
  -8   1   6    3.48    4.82
  -8   1   6    1.27    3.95
   8  -1  -7  625.30   39.37
   8  -1  -7  549.40   34.35
  -8   1   7  509.80   32.14
  -8   1   7  570.20   35.38
   8  -1  -8  135.80   11.41
   8  -1  -8  136.20   10.14
  -8   1   8  129.70   10.44
  -8   1   8  146.50   10.30
   8  -1  -9  439.00   28.38
   8  -1  -9  413.40   26.16
  -8   1   9  412.90   26.58
  -8   1   9  482.40   30.21
   8  -1 -10   74.42    9.58
   8  -1 -10   59.81    6.99
  -8   1  10   86.97    9.43
  -8   1  10   65.53    6.81
   8  -1 -11  117.60   12.30
   8  -1 -11  116.80    9.74
  -8   1  11  128.30   11.14
  -8   1  11  142.20   10.88
   8  -1 -12   -2.01   10.94
   8  -1 -12    6.20    5.94
  -8   1  12  -12.08    8.07
  -8   1  12   -8.56    6.66
   9  -1  10  308.40   22.01
   9  -1  10  303.60   23.88
  -9   1 -10  319.20   22.13
  -9   1 -10  298.70   22.72
   9  -1   9   18.27   10.03
   9  -1   9    8.96   12.18
  -9   1  -9    6.11   10.86
  -9   1  -9   17.59    9.09
   9  -1   8  478.60   31.18
   9  -1   8  538.10   34.40
  -9   1  -8  533.70   34.51
  -9   1  -8  546.40   34.90
   9  -1   7   15.70    9.32
   9  -1   7   27.06    7.92
  -9   1  -7   33.79    8.36
  -9   1  -7   29.47    7.85
   9  -1   6    3.26    6.64
   9  -1   6   10.11   10.76
  -9   1  -6   14.11    7.53
  -9   1  -6    3.80    7.13
   9  -1   5   11.06    8.69
   9  -1   5   10.21    6.19
  -9   1  -5    7.20    7.06
  -9   1  -5    5.46    6.16
   9  -1   4  628.90   39.84
   9  -1   4  580.10   36.38
  -9   1  -4  547.70   34.36
  -9   1  -4  603.70   37.79
   9  -1   3   67.25    7.12
   9  -1   3   70.24    8.40
  -9   1  -3   63.61    7.12
  -9   1  -3   68.86    6.86
   9  -1   2  306.10   19.71
   9  -1   2  294.70   19.28
  -9   1  -2  343.90   22.04
  -9   1  -2  336.90   21.84
   9  -1   1    1.58    4.48
   9  -1   1    5.52    5.85
  -9   1  -1   11.96    4.45
  -9   1  -1   -0.79    5.64
   9  -1   0  126.20   10.00
   9  -1   0  124.40    9.39
  -9   1   0  126.40    9.05
  -9   1   0  116.60    9.35
   9  -1  -1  109.00    9.05
   9  -1  -1  100.40    8.05
  -9   1   1   91.80    7.18
  -9   1   1  103.50    8.45
   9  -1  -2 1827.00  112.10
   9  -1  -2 1699.00  104.40
  -9   1   2 1708.00  104.90
  -9   1   2 1676.00  102.70
   9  -1  -3   97.42    8.25
   9  -1  -3   87.80    8.00
  -9   1   3   80.35    7.21
  -9   1   3   89.92    6.92
   9  -1  -4 1084.00   66.82
   9  -1  -4  984.50   60.87
  -9   1   4  973.60   60.16
  -9   1   4 1047.00   64.35
   9  -1  -5    3.85    5.94
   9  -1  -5   -0.25    5.50
  -9   1   5   -5.76    5.33
  -9   1   5   -2.25    3.93
   9  -1  -6  742.00   46.18
   9  -1  -6  812.20   50.63
  -9   1   6  760.40   46.93
  -9   1   6  713.80   44.47
   9  -1  -7   31.61    7.93
   9  -1  -7   19.57    5.82
  -9   1   7   27.27    5.53
  -9   1   7   31.81    4.93
   9  -1  -8  474.10   30.04
   9  -1  -8  538.20   34.54
  -9   1   8  494.70   31.49
  -9   1   8  546.30   34.12
   9  -1  -9  206.80   15.86
   9  -1  -9  213.40   15.24
  -9   1   9  234.20   15.64
  -9   1   9  209.90   15.30
   9  -1 -10  485.60   31.78
   9  -1 -10  447.90   28.57
  -9   1  10  442.80   28.63
  -9   1  10  538.80   33.77
   9  -1 -11   31.59    7.24
   9  -1 -11   27.99   11.17
  -9   1  11   25.80    8.93
  -9   1  11   31.32    6.68
  10  -1   9  503.30   33.16
  10  -1   9  469.30   32.83
 -10   1  -9  453.70   29.91
 -10   1  -9  580.40   37.98
  10  -1   8   -3.78    9.35
  10  -1   8    1.01   11.37
 -10   1  -8    9.55    9.56
 -10   1  -8   -4.29    9.55
  10  -1   7  338.20   23.06
  10  -1   7  311.60   22.11
 -10   1  -7  309.00   21.21
 -10   1  -7  338.30   23.10
  10  -1   6   -1.97    9.09
  10  -1   6    1.07    7.50
 -10   1  -6   12.08    8.53
 -10   1  -6   -4.95    8.19
  10  -1   5  524.10   33.08
  10  -1   5  495.90   32.06
 -10   1  -5  546.80   34.83
 -10   1  -5  498.40   31.86
  10  -1   4  130.80   12.38
  10  -1   4  122.00    9.80
 -10   1  -4  123.90   10.94
 -10   1  -4  126.60   10.52
  10  -1   3  611.30   38.16
  10  -1   3  592.80   37.58
 -10   1  -3  671.90   42.08
 -10   1  -3  577.60   36.30
  10  -1   2   78.84    7.36
  10  -1   2   62.58    8.21
 -10   1  -2   52.59    7.25
 -10   1  -2   63.38    6.80
  10  -1   1  291.80   19.56
  10  -1   1  282.40   18.49
 -10   1  -1  282.90   19.14
 -10   1  -1  270.60   17.63
  10  -1   0   63.49    6.82
  10  -1   0   69.35    8.22
 -10   1   0   66.89    8.40
 -10   1   0   61.76    6.33
  10  -1  -1  152.30   11.62
  10  -1  -1  164.60   11.84
 -10   1   1  138.90    9.98
 -10   1   1  149.20   11.55
  10  -1  -2   19.82    6.53
  10  -1  -2   15.23    6.23
 -10   1   2   20.46    4.25
 -10   1   2   13.33    6.34
  10  -1  -3  992.40   61.36
  10  -1  -3  908.00   56.30
 -10   1   3  920.50   57.05
 -10   1   3  853.40   52.52
  10  -1  -4  139.80   10.78
  10  -1  -4  146.30   11.84
 -10   1   4  132.70    9.60
 -10   1   4  110.30    9.31
  10  -1  -5  422.50   27.01
  10  -1  -5  439.50   28.17
 -10   1   5  371.40   24.00
 -10   1   5  433.50   27.25
  10  -1  -6   65.09    8.13
  10  -1  -6   71.62    9.69
 -10   1   6   73.96    6.78
 -10   1   6   61.13    7.62
  10  -1  -7  321.10   22.11
  10  -1  -7  301.00   19.98
 -10   1   7  282.30   19.17
 -10   1   7  318.40   20.56
  10  -1  -8  120.30   12.11
  10  -1  -8  128.00   11.12
 -10   1   8  156.10   11.66
 -10   1   8  128.10   10.95
  10  -1  -9  690.20   44.01
  10  -1  -9  667.10   41.86
 -10   1   9  704.80   43.84
 -10   1   9  612.70   38.77
  10  -1 -10   -1.57   10.43
  10  -1 -10    5.82    8.00
 -10   1  10  -12.54    6.77
 -10   1  10   -4.33    8.85
  11  -1   8  306.20   22.00
  11  -1   8  232.80   20.31
 -11   1  -8  290.30   21.30
 -11   1  -8  272.50   21.66
  11  -1   7  -12.86   10.07
  11  -1   7    1.70   12.29
 -11   1  -7   -4.14   12.24
 -11   1  -7   -1.62    9.59
  11  -1   6  185.70   16.50
  11  -1   6  189.20   15.13
 -11   1  -6  211.20   15.97
 -11   1  -6  172.20   14.80
  11  -1   5   37.13    8.19
  11  -1   5   27.17   10.77
 -11   1  -5   34.22    9.65
 -11   1  -5   41.55    9.46
  11  -1   4  506.20   33.17
  11  -1   4  462.40   29.42
 -11   1  -4  541.20   34.64
 -11   1  -4  538.20   34.57
  11  -1   3    8.89   10.54
  11  -1   3   17.62    6.39
 -11   1  -3   24.14    7.75
 -11   1  -3   30.18    8.40
  11  -1   2  853.50   53.27
  11  -1   2  850.70   52.74
 -11   1  -2  842.30   52.36
 -11   1  -2  838.90   52.27
  11  -1   1    3.11    5.77
  11  -1   1    1.09    7.45
 -11   1  -1   -0.25    5.80
 -11   1  -1    8.01    8.39
  11  -1   0  233.80   16.52
  11  -1   0  224.60   15.29
 -11   1   0  203.10   14.07
 -11   1   0  260.50   18.40
  11  -1  -1   14.45    6.70
  11  -1  -1   25.06    7.11
 -11   1   1   15.39    7.35
 -11   1   1    5.61    5.47
  11  -1  -2  834.20   51.76
  11  -1  -2  936.30   57.96
 -11   1   2  821.20   50.79
 -11   1   2  880.60   54.91
  11  -1  -3  169.00   12.51
  11  -1  -3  181.10   13.31
 -11   1   3  175.20   12.37
 -11   1   3  181.10   14.29
  11  -1  -4  426.40   27.54
  11  -1  -4  393.60   25.39
 -11   1   4  426.50   27.68
 -11   1   4  420.90   26.61
  11  -1  -5  250.40   17.34
  11  -1  -5  255.30   18.24
 -11   1   5  242.10   17.09
 -11   1   5  277.60   18.34
  11  -1  -6  562.00   36.17
  11  -1  -6  513.70   32.53
 -11   1   6  495.60   31.79
 -11   1   6  579.10   36.23
  11  -1  -7   30.58    7.37
  11  -1  -7   35.46   10.22
 -11   1   7   40.13    7.06
 -11   1   7   37.70    8.24
  11  -1  -8  348.80   24.03
  11  -1  -8  318.50   21.35
 -11   1   8  326.80   22.49
 -11   1   8  346.00   22.52
  11  -1  -9   -0.40    8.54
  11  -1  -9   -0.68   11.19
 -11   1   9   -3.02    9.10
 -11   1   9   -1.21    7.39
  12  -1   6    7.65   14.65
  12  -1   6    8.81   10.70
 -12   1  -6    0.16   12.25
 -12   1  -6   29.17   10.78
  12  -1   5  180.10   17.69
  12  -1   5  210.80   16.12
 -12   1  -5  191.20   16.37
 -12   1  -5  242.70   18.12
  12  -1   4   45.73   12.45
  12  -1   4   72.94    9.49
 -12   1  -4   63.75   12.26
 -12   1  -4   66.72    9.82
  12  -1   3  313.00   22.78
  12  -1   3  305.90   20.73
 -12   1  -3  273.70   19.68
 -12   1  -3  305.70   20.83
  12  -1   2   29.57   10.15
  12  -1   2    7.18    7.14
 -12   1  -2   19.83    8.84
 -12   1  -2    5.77    7.59
  12  -1   1  360.90   24.28
  12  -1   1  324.60   21.45
 -12   1  -1  341.00   22.95
 -12   1  -1  301.20   20.29
  12  -1   0   28.18    9.06
  12  -1   0   19.24    7.25
 -12   1   0   22.77    6.97
 -12   1   0    9.30    9.80
  12  -1  -1  549.50   35.33
  12  -1  -1  532.80   33.91
 -12   1   1  536.90   34.73
 -12   1   1  488.50   30.85
  12  -1  -2    6.92    7.39
  12  -1  -2   24.42    8.38
 -12   1   2   -6.04    9.26
 -12   1   2   -0.17    6.53
  12  -1  -3  242.00   17.23
  12  -1  -3  252.00   18.02
 -12   1   3  261.50   17.60
 -12   1   3  256.00   18.56
  12  -1  -4   17.14    8.19
  12  -1  -4   12.75    9.52
 -12   1   4   -1.64    9.18
 -12   1   4   17.74    6.88
  12  -1  -5  567.80   36.03
  12  -1  -5  613.70   39.63
 -12   1   5  577.80   36.32
 -12   1   5  575.90   37.05
  12  -1  -6   54.04    9.30
  12  -1  -6   53.15   11.86
 -12   1   6   54.81    8.27
 -12   1   6   29.48    9.19
  12  -1  -7  401.80   26.40
  12  -1  -7  447.60   30.66
 -12   1   7  369.00   24.86
 -12   1   7  464.30   29.62
  13  -1   4   78.15   16.15
  13  -1   4  140.10   15.39
 -13   1  -4  105.90   15.63
 -13   1  -4  102.80   12.77
  13  -1   3   -2.99   13.78
  13  -1   3   -4.58   10.16
 -13   1  -3    3.01   10.33
 -13   1  -3    8.76   12.41
  13  -1   2  339.20   23.08
  13  -1   2  346.20   26.04
 -13   1  -2  333.80   23.81
 -13   1  -2  310.50   21.44
  13  -1   1   26.26    9.80
  13  -1   1   29.66   12.54
 -13   1  -1   11.39   10.43
 -13   1  -1   42.16    8.49
  13  -1   0  367.30   25.02
  13  -1   0  338.20   23.22
 -13   1   0  346.20   22.97
  13  -1  -1    4.50    9.69
  13  -1  -1    6.77    9.66
 -13   1   1    8.30    7.53
 -13   1   1    1.47   12.05
  13  -1  -2  372.80   25.34
  13  -1  -2  354.20   24.20
 -13   1   2  408.50   28.14
 -13   1   2  395.80   25.84
  13  -1  -3    9.11    9.12
  13  -1  -3   20.80   12.05
 -13   1   3   12.84    7.59
 -13   1   3    3.69   11.20
  13  -1  -4   67.97   13.17
  13  -1  -4   71.33   10.74
 -13   1   4   51.21    8.84
 -13   1   4   49.86   11.20
  13  -1  -5   18.30   12.94
  13  -1  -5   37.10    9.76
 -13   1   5   26.83    9.15
 -13   1   5   28.57   11.38
 -11  -2   8   10.36   10.37
 -11  -2   8   12.56    9.78
  11   2  -8   14.31    9.55
  11   2  -8    3.28   12.59
 -11  -2   7  669.60   42.94
  11   2  -7  584.50   38.18
  11   2  -7  670.30   42.58
 -11  -2   6  104.00   10.86
 -11  -2   6  131.90   11.72
  11   2  -6  148.80   12.92
  11   2  -6  133.00   13.54
 -11  -2   5  335.10   22.05
 -11  -2   5  333.50   21.60
  11   2  -5  341.40   22.04
  11   2  -5  360.80   23.54
 -10  -2   9  161.00   13.93
  10   2  -9  138.70   16.15
 -10  -2   8  525.20   33.63
 -10  -2   8  614.80   38.86
  10   2  -8  623.50   40.38
 -10  -2   7    1.05    7.58
 -10  -2   7   -1.23    7.07
  10   2  -7    3.92    9.71
  10   2  -7    4.58    6.26
 -10  -2   6  782.80   48.83
 -10  -2   6  845.00   52.50
  10   2  -6  889.00   55.44
  10   2  -6  880.80   54.54
 -10  -2   5   38.85    6.42
 -10  -2   5   27.40    6.59
  10   2  -5   39.00    7.54
  10   2  -5   45.28    6.82
 -10  -2   4  704.20   43.81
 -10  -2   4  747.00   46.36
  10   2  -4  761.10   47.32
  10   2  -4  747.50   46.45
 -10  -2  -8   -2.31    7.20
  10   2   8    5.17    6.61
  -9  -2  10   41.48    8.55
  -9  -2  10   54.72   11.24
   9   2 -10   58.58    8.13
   9   2 -10   61.52   14.51
  -9  -2   9  330.70   22.74
   9   2  -9  275.60   18.52
   9   2  -9  261.40   20.78
  -9  -2   8   -5.33    7.48
  -9  -2   8    6.54    7.48
   9   2  -8    4.28   10.05
   9   2  -8    3.63    6.23
  -9  -2   7  870.50   54.04
  -9  -2   7 1018.00   62.99
   9   2  -7  898.10   55.97
   9   2  -7  855.60   52.92
  -9  -2   6    4.55    5.45
  -9  -2   6   -3.14    5.95
   9   2  -6   -3.54    5.18
   9   2  -6   14.76    7.31
  -9  -2   5 1008.00   62.14
  -9  -2   5  954.10   58.90
   9   2  -5 1029.00   63.53
   9   2  -5 1000.00   61.61
  -9  -2   4   83.72    7.59
  -9  -2   4   83.01    7.13
   9   2  -4   82.20    7.37
   9   2  -4   83.14    6.78
  -9  -2  -7  880.90   54.46
  -9  -2  -7  744.50   46.24
   9   2   7  878.30   54.31
   9   2   7  735.90   45.65
  -9  -2  -8    2.56    8.65
  -9  -2  -8   12.07    7.79
   9   2   8    2.82    7.36
   9   2   8    6.29    7.47
  -9  -2  -9  187.10   15.32
  -9  -2  -9  150.80   14.46
   9   2   9  172.90   14.37
   9   2   9  159.40   14.32
  -9  -2 -10    2.46   11.87
  -9  -2 -10   -0.47   12.77
   9   2  10    3.53   11.43
   9   2  10    5.03   11.51
  -8  -2  11  188.80   15.79
   8   2 -11  183.80   13.71
   8   2 -11  144.80   15.02
  -8  -2  10  340.50   23.07
   8   2 -10  320.50   21.15
  -8  -2   9   33.23    8.12
  -8  -2   9    0.20    7.45
   8   2  -9   19.45    6.23
   8   2  -9   33.00   11.34
  -8  -2   8  630.50   39.68
   8   2  -8  551.70   35.30
  -8  -2   7   82.24    8.19
   8   2  -7   93.80   10.06
   8   2  -7   97.42    8.11
  -8  -2   6 1042.00   64.31
  -8  -2   6 1306.00   80.38
   8   2  -6 1117.00   68.65
   8   2  -6 1163.00   71.75
  -8  -2   5   -0.72    4.87
  -8  -2   5    1.42    5.04
   8   2  -5   -1.58    5.61
   8   2  -5   -0.66    3.77
  -8  -2   4  577.90   35.87
  -8  -2   4  639.40   39.58
   8   2  -4  640.00   39.66
   8   2  -4  590.10   36.47
  -8  -2   3    7.35    3.60
  -8  -2   3    7.36    3.08
   8   2  -3    6.13    2.76
   8   2  -3    4.46    3.45
  -8  -2  -6 1649.00  101.20
  -8  -2  -6 1506.00   92.57
   8   2   6 1656.00  101.70
   8   2   6 1555.00   95.54
  -8  -2  -7    5.13    6.57
  -8  -2  -7    7.20    6.09
   8   2   7    6.84    5.43
   8   2   7    3.64    5.82
  -8  -2  -8  990.90   61.44
  -8  -2  -8  768.20   47.98
   8   2   8  801.70   49.79
   8   2   8  760.60   47.41
  -8  -2  -9   13.21    9.45
  -8  -2  -9    6.67    7.20
   8   2   9   15.85    7.79
  -8  -2 -10  231.00   18.38
  -8  -2 -10  239.00   17.46
   8   2  10  198.10   14.50
   8   2  10  222.90   17.12
  -8  -2 -11   15.40   11.53
  -8  -2 -11    5.58   10.27
   8   2  11    6.64   11.01
   8   2  11   -8.60   10.90
  -7  -2  12   10.16   10.05
  -7  -2  12    2.81    8.41
   7   2 -12   -3.63   12.70
   7   2 -12   -7.00    7.60
  -7  -2  11  169.00   13.97
   7   2 -11  149.80   11.88
   7   2 -11  135.10   15.13
  -7  -2  10    2.53    7.54
  -7  -2  10    7.00    7.85
   7   2 -10   14.98    6.13
   7   2 -10   18.12   10.02
  -7  -2   9  417.50   27.04
   7   2  -9  391.30   24.92
  -7  -2   8   13.17    6.11
  -7  -2   8   31.33    6.93
   7   2  -8   32.92    6.19
   7   2  -8   28.81    8.86
  -7  -2   7  397.60   25.16
   7   2  -7  511.80   32.06
   7   2  -7  417.60   27.00
  -7  -2   6    9.73    4.70
  -7  -2   6   21.65    5.36
   7   2  -6    7.92    4.62
   7   2  -6   11.64    6.52
  -7  -2   5 1283.00   78.71
  -7  -2   5 1499.00   92.01
   7   2  -5 1368.00   84.10
   7   2  -5 1422.00   87.24
  -7  -2   4   26.75    4.41
  -7  -2   4   23.43    3.86
   7   2  -4   19.52    3.65
   7   2  -4   16.54    4.76
  -7  -2   3  328.30   20.53
  -7  -2   3  349.50   21.84
   7   2  -3  307.20   19.18
   7   2  -3  346.90   21.79
  -7  -2  -5  218.30   14.18
  -7  -2  -5  236.80   15.01
   7   2   5  239.50   15.16
   7   2   5  229.40   14.63
  -7  -2  -6  115.80    8.54
  -7  -2  -6   94.02    8.19
   7   2   6   94.76    7.43
   7   2   6   84.13    6.52
  -7  -2  -7  663.40   41.43
   7   2   7  620.90   38.49
   7   2   7  736.20   45.65
  -7  -2  -8   17.34    5.60
  -7  -2  -8   27.81    7.98
   7   2   8   19.84    6.20
   7   2   8   24.86    5.71
  -7  -2  -9  461.80   30.12
  -7  -2  -9  424.80   27.25
   7   2   9  406.20   25.97
   7   2   9  423.80   27.49
  -7  -2 -10    5.77    7.91
  -7  -2 -10    9.24   10.16
   7   2  10   10.00    8.91
   7   2  10   15.04    7.46
  -7  -2 -11   60.65   11.36
  -7  -2 -11   55.11   10.44
   7   2  11   70.71   11.14
   7   2  11   54.50   10.19
  -6  -2  13   54.95   10.86
  -6  -2  13   31.16    7.85
   6   2 -13   37.74   12.09
   6   2 -13   31.36    9.03
  -6  -2  12   97.88    9.99
  -6  -2  12  131.50   12.55
   6   2 -12  124.80   10.54
   6   2 -12  127.00   14.14
  -6  -2  11   18.69    7.91
  -6  -2  11   19.56    6.37
   6   2 -11   26.07    6.83
   6   2 -11   23.98   10.30
  -6  -2  10  321.70   21.43
   6   2 -10  314.00   20.35
  -6  -2   9    4.71    6.22
  -6  -2   9    7.88    6.22
   6   2  -9    4.16    5.21
   6   2  -9   12.35    8.34
  -6  -2   8  255.40   17.19
   6   2  -8  218.10   16.03
   6   2  -8  246.10   16.30
  -6  -2   7   -8.39    5.99
  -6  -2   7    1.85    4.67
   6   2  -7    2.20    6.24
   6   2  -7   -2.05    4.76
  -6  -2   6  322.50   20.73
  -6  -2   6  253.20   16.42
   6   2  -6  285.00   18.88
   6   2  -6  295.40   18.89
  -6  -2   5   16.21    3.86
  -6  -2   5   15.14    4.75
   6   2  -5   16.83    3.87
   6   2  -5   23.07    5.31
  -6  -2   4  506.30   31.47
  -6  -2   4  413.80   25.72
   6   2  -4  477.00   29.80
   6   2  -4  485.60   30.07
  -6  -2   3   27.02    3.73
  -6  -2   3   20.84    3.46
   6   2  -3   29.87    3.45
   6   2  -3   19.15    4.07
  -6  -2   2 1286.00   78.90
  -6  -2   2 1140.00   69.92
   6   2  -2 1195.00   73.31
   6   2  -2 1161.00   71.31
  -6  -2  -4  106.60    7.25
  -6  -2  -4  103.60    6.94
   6   2   4  102.00    6.89
   6   2   4   94.40    6.44
  -6  -2  -5  158.10   10.43
  -6  -2  -5  159.00   10.61
   6   2   5  159.30   10.52
   6   2   5  167.70   11.15
  -6  -2  -6  584.50   36.31
  -6  -2  -6  624.50   38.61
   6   2   6  545.20   33.82
   6   2   6  628.70   39.02
  -6  -2  -7    8.00    4.36
  -6  -2  -7    2.61    5.93
   6   2   7    6.20    5.06
   6   2   7    6.26    4.54
  -6  -2  -8  412.60   26.84
  -6  -2  -8  402.20   25.50
   6   2   8  438.30   27.91
   6   2   8  397.10   25.05
  -6  -2  -9   61.56    9.38
  -6  -2  -9   49.57    7.08
   6   2   9   62.44    8.67
   6   2   9   58.12    7.26
  -6  -2 -10   48.50    7.98
  -6  -2 -10   75.17   10.67
   6   2  10   62.83    8.90
   6   2  10   63.09    8.57
  -6  -2 -11   10.57   10.73
  -6  -2 -11    5.57    8.69
   6   2  11    4.93    7.92
   6   2  11    6.36    8.56
  -6  -2 -12  118.50   12.50
  -6  -2 -12   65.82   10.02
   6   2  12   79.94   11.53
   6   2  12   90.12   11.59
  -5  -2  13  126.80   11.12
  -5  -2  13  186.70   15.22
   5   2 -13  155.30   12.39
   5   2 -13  166.80   15.87
  -5  -2  12   11.59    7.01
  -5  -2  12    4.51    8.26
   5   2 -12   -0.56    6.83
   5   2 -12   14.79   10.46
  -5  -2  11  569.70   36.19
   5   2 -11  574.90   36.01
   5   2 -11  465.30   30.92
  -5  -2  10  110.40   10.17
  -5  -2  10   71.01    7.26
   5   2 -10   86.77    7.90
   5   2 -10   78.39   10.36
  -5  -2   9 1792.00  110.00
   5   2  -9 1753.00  107.50
   5   2  -9 1453.00   89.70
  -5  -2   8   15.20    6.08
  -5  -2   8    4.79    4.57
   5   2  -8    5.86    6.73
   5   2  -8   10.05    5.37
  -5  -2   7  314.80   20.49
  -5  -2   7  287.10   18.57
   5   2  -7  293.10   19.41
   5   2  -7  331.20   21.22
  -5  -2   6   17.71    5.13
  -5  -2   6   23.17    4.50
   5   2  -6    8.01    5.89
   5   2  -6   29.83    4.91
  -5  -2   5  625.30   38.78
  -5  -2   5  603.70   37.34
   5   2  -5  622.80   38.73
   5   2  -5  677.30   41.82
  -5  -2   4   11.21    4.03
  -5  -2   4   11.67    3.03
   5   2  -4   18.02    4.35
   5   2  -4   13.52    3.43
  -5  -2   3 1096.00   67.21
  -5  -2   3 1092.00   67.02
   5   2  -3 1128.00   69.27
   5   2  -3 1193.00   73.13
  -5  -2   2  191.80   12.11
  -5  -2   2  194.50   12.33
   5   2  -2  209.20   13.30
   5   2  -2  230.90   14.44
  -5  -2   1 1421.00   87.17
  -5  -2   1 1252.00   76.84
   5   2  -1 1511.00   92.74
   5   2  -1 1407.00   86.39
  -5  -2  -2  734.50   45.58
  -5  -2  -2  604.30   37.48
   5   2   2  737.00   45.78
   5   2   2  633.60   39.39
  -5  -2  -3  507.00   31.24
  -5  -2  -3  562.80   34.64
   5   2   3  458.90   28.31
  -5  -2  -4   36.01    3.75
  -5  -2  -4   41.17    3.54
   5   2   4   43.52    3.81
   5   2   4   33.71    3.46
  -5  -2  -5 1417.00   86.82
  -5  -2  -5 1509.00   92.49
   5   2   5 1478.00   90.65
   5   2   5 1552.00   95.06
  -5  -2  -6  166.60   11.34
   5   2   6  144.80   10.04
   5   2   6  149.90   10.19
  -5  -2  -7  481.00   30.11
  -5  -2  -7  504.70   31.43
   5   2   7  543.20   34.10
   5   2   7  523.10   32.58
  -5  -2  -8  196.20   13.12
  -5  -2  -8  196.60   13.54
   5   2   8  209.10   14.16
   5   2   8  225.40   15.77
  -5  -2  -9  383.00   24.35
  -5  -2  -9  482.60   30.85
   5   2   9  458.30   29.49
   5   2   9  452.70   28.61
  -5  -2 -10  122.90   11.05
   5   2  10  112.90    9.64
  -5  -2 -11  100.10    9.52
   5   2  11   93.98   10.29
  -5  -2 -12    0.96    8.73
  -5  -2 -12    0.55    8.30
   5   2  12    0.88    8.17
   5   2  12   12.99    9.45
  -5  -2 -13  117.80   13.78
  -5  -2 -13   94.50   11.62
   5   2  13  118.50   12.04
   5   2  13  116.30   13.23
  -4  -2  13   12.35    7.27
  -4  -2  13   -5.85    9.69
   4   2 -13   -3.75   11.93
   4   2 -13   11.76    7.85
  -4  -2  12  186.60   13.63
  -4  -2  12  245.40   17.72
   4   2 -12  230.60   17.95
   4   2 -12  237.30   16.20
  -4  -2  11    2.45    6.28
  -4  -2  11   -3.00    7.39
   4   2 -11    2.20    5.63
   4   2 -11  -12.29    9.77
  -4  -2  10 1873.00  115.00
   4   2 -10 1714.00  105.70
   4   2 -10 1984.00  121.60
  -4  -2   9  150.90   10.82
  -4  -2   9  176.20   12.89
   4   2  -9  179.90   13.87
   4   2  -9  199.60   13.59
  -4  -2   8 1435.00   88.14
  -4  -2   8 1639.00  100.70
   4   2  -8 1803.00  110.60
   4   2  -8 1550.00   95.42
  -4  -2   7  221.30   14.92
  -4  -2   7  218.80   14.45
   4   2  -7  235.10   15.99
   4   2  -7  266.90   17.33
  -4  -2   6 1350.00   83.01
  -4  -2   6 1173.00   72.04
   4   2  -6 1263.00   77.72
   4   2  -6 1442.00   88.50
  -4  -2   5   18.21    4.32
  -4  -2   5   17.02    3.72
   4   2  -5   19.67    3.71
   4   2  -5   16.60    4.87
  -4  -2   4 1592.00   97.51
  -4  -2   4 1681.00  103.00
   4   2  -4 1687.00  103.40
   4   2  -4 1812.00  110.90
  -4  -2   3   17.74    3.10
  -4  -2   3   12.46    3.48
   4   2  -3   17.97    3.10
   4   2  -3   14.78    3.43
  -4  -2   2 4605.00  281.50
  -4  -2   2 4371.00  267.20
   4   2  -2 4777.00  291.90
   4   2  -2 4619.00  282.40
  -4  -2   1  423.80   26.10
  -4  -2   1  424.10   26.20
   4   2  -1  439.80   27.13
   4   2  -1  434.60   26.78
  -4  -2   0 1748.00  107.00
  -4  -2   0 1589.00   97.29
   4   2   0 1629.00   99.78
   4   2   0 1722.00  105.50
  -4  -2  -1  133.30    8.46
  -4  -2  -1  136.40    8.60
   4   2   1  127.50    8.01
   4   2   1  142.80    9.06
  -4  -2  -2  931.90   57.14
  -4  -2  -2 1120.00   68.65
   4   2   2  909.00   55.77
   4   2   2 1110.00   68.01
  -4  -2  -3    5.78    2.58
  -4  -2  -3    8.08    2.36
   4   2   3    9.21    2.39
   4   2   3    9.08    2.49
  -4  -2  -4 2716.00  166.10
  -4  -2  -4 2544.00  155.60
   4   2   4 3001.00  183.50
   4   2   4 2592.00  158.60
  -4  -2  -5    1.47    2.92
  -4  -2  -5   -4.37    3.06
   4   2   5    0.67    2.83
   4   2   5   -0.84    3.19
  -4  -2  -6 1261.00   77.42
  -4  -2  -6 1503.00   92.21
   4   2   6 1331.00   81.78
   4   2   6 1417.00   86.88
  -4  -2  -7  820.30   50.55
  -4  -2  -7  879.30   54.19
   4   2   7  895.30   55.37
   4   2   7  929.30   57.21
  -4  -2  -8  538.00   33.57
  -4  -2  -8  514.40   32.06
   4   2   8  596.00   36.97
   4   2   8  555.30   35.00
  -4  -2  -9   59.03    7.23
  -4  -2  -9   40.88    5.49
   4   2   9   49.75    7.30
   4   2   9   52.30    5.96
  -4  -2 -10  366.70   23.70
   4   2  10  417.80   26.69
  -4  -2 -11   14.37    7.33
  -4  -2 -11    8.59    6.22
   4   2  11   -1.17    7.08
   4   2  11    2.54    7.73
  -4  -2 -12  467.00   30.68
  -4  -2 -12  385.80   25.17
   4   2  12  430.20   27.92
   4   2  12  429.40   28.14
  -4  -2 -13   -3.45    9.39
  -4  -2 -13   -3.41    8.35
   4   2  13    1.98    8.79
   4   2  13   -2.18    7.66
  -3  -2  13  270.30   19.60
  -3  -2  13  206.50   14.94
   3   2 -13  253.10   17.31
   3   2 -13  231.40   18.36
  -3  -2  12  318.90   20.98
  -3  -2  12  370.70   24.77
   3   2 -12  357.30   24.79
   3   2 -12  433.80   27.80
  -3  -2  11  447.00   28.33
  -3  -2  11  503.30   32.21
   3   2 -11  604.20   37.81
   3   2 -11  493.80   32.28
  -3  -2  10    6.12    7.49
  -3  -2  10    4.08    5.59
   3   2 -10    2.53    5.97
   3   2 -10    1.93    8.73
  -3  -2   9 2000.00  122.70
  -3  -2   9 1686.00  103.50
   3   2  -9 1789.00  110.10
   3   2  -9 2197.00  134.60
  -3  -2   8   13.56    4.50
  -3  -2   8    5.28    5.72
   3   2  -8    6.19    6.23
   3   2  -8    6.71    4.80
  -3  -2   7 1177.00   72.50
  -3  -2   7 1120.00   68.86
   3   2  -7 1295.00   79.63
   3   2  -7 1230.00   75.86
  -3  -2   6   16.98    4.50
  -3  -2   6   21.66    3.83
   3   2  -6   13.22    4.87
   3   2  -6   20.21    4.38
  -3  -2   5 1251.00   76.72
  -3  -2   5 1285.00   78.92
   3   2  -5 1444.00   88.56
   3   2  -5 1346.00   82.71
  -3  -2   4  466.90   28.93
  -3  -2   4  476.90   29.69
   3   2  -4  493.60   30.60
   3   2  -4  510.50   31.79
  -3  -2   3 5115.00  312.60
  -3  -2   3 5288.00  323.10
   3   2  -3 5247.00  320.60
   3   2  -3 5171.00  316.00
  -3  -2   2    4.47    2.70
  -3  -2   2   -0.46    2.30
   3   2  -2    1.56    2.42
   3   2  -2   -5.12    2.86
  -3  -2   1 4129.00  252.40
  -3  -2   1 4062.00  248.30
   3   2  -1 4084.00  249.60
   3   2  -1 3748.00  229.10
  -3  -2   0   84.71    5.58
  -3  -2   0   90.95    6.08
   3   2   0   86.89    5.87
   3   2   0   92.14    6.22
  -3  -2  -1 2375.00  145.30
  -3  -2  -1 2319.00  141.80
   3   2   1 2332.00  142.60
   3   2   1 2250.00  137.60
  -3  -2  -2   80.82    5.55
  -3  -2  -2   85.38    5.75
   3   2   2   75.46    5.09
   3   2   2   79.93    5.56
  -3  -2  -3 2461.00  150.60
  -3  -2  -3 2642.00  161.50
   3   2   3 2317.00  141.80
   3   2   3 2558.00  156.40
  -3  -2  -4  522.50   32.29
  -3  -2  -4  493.90   30.52
   3   2   4  509.60   31.61
   3   2   4  539.30   33.29
  -3  -2  -5 6196.00  378.50
  -3  -2  -5 6407.00  391.50
   3   2   5 7035.00  429.80
   3   2   5 6391.00  390.60
  -3  -2  -6    5.60    3.78
  -3  -2  -6    9.93    3.63
   3   2   6    8.59    3.01
   3   2   6   15.20    3.75
  -3  -2  -7 1048.00   64.41
  -3  -2  -7 1139.00   69.98
   3   2   7 1271.00   78.01
   3   2   7 1091.00   67.22
  -3  -2  -8  129.60    9.32
  -3  -2  -8  110.50    8.39
   3   2   8  126.40   10.21
  -3  -2  -9  427.30   26.97
   3   2   9  451.90   28.36
   3   2   9  379.00   24.80
  -3  -2 -10    4.56    5.19
  -3  -2 -10   -5.63    5.42
   3   2  10   -4.03    6.16
   3   2  10   -1.23    5.46
  -3  -2 -11  713.40   44.33
  -3  -2 -11  854.10   53.06
   3   2  11  872.00   54.15
   3   2  11  801.20   49.86
  -3  -2 -12   16.49    7.74
  -3  -2 -12    8.12    6.50
   3   2  12   23.84    8.71
   3   2  12   18.59    7.41
  -3  -2 -13  136.80   12.58
  -3  -2 -13  140.30   11.69
   3   2  13  129.90   12.29
   3   2  13  133.50   11.88
  -2  -2  13   54.63   10.44
  -2  -2  13   55.37    7.88
   2   2 -13   60.61    8.87
   2   2 -13   49.61   11.57
  -2  -2  12  253.30   18.28
  -2  -2  12  218.30   15.22
   2   2 -12  274.50   20.22
   2   2 -12  272.50   18.48
  -2  -2  11  106.10   10.75
  -2  -2  11   96.57    8.87
   2   2 -11  117.30    9.83
   2   2 -11   96.30   11.38
  -2  -2  10 1128.00   69.46
  -2  -2  10 1258.00   77.65
   2   2 -10 1415.00   86.91
   2   2 -10 1240.00   76.91
  -2  -2   9   31.46    5.53
  -2  -2   9   36.83    7.19
   2   2  -9   48.82    6.00
   2   2  -9   44.95    7.71
  -2  -2   8  966.80   59.85
  -2  -2   8  914.80   56.44
   2   2  -8  987.70   61.25
   2   2  -8 1107.00   68.29
  -2  -2   7  296.50   18.87
  -2  -2   7  308.10   20.00
   2   2  -7  347.60   22.15
   2   2  -7  308.30   20.10
  -2  -2   6 1296.00   79.56
  -2  -2   6 1281.00   78.74
   2   2  -6 1447.00   88.81
   2   2  -6 1395.00   85.75
  -2  -2   5  570.50   35.30
  -2  -2   5  575.10   35.74
   2   2  -5  576.20   35.85
   2   2  -5  565.40   35.04
  -2  -2   4 1784.00  109.40
  -2  -2   4 1797.00  110.10
   2   2  -4 1819.00  111.50
   2   2  -4 1736.00  106.30
  -2  -2   3   20.87    3.54
  -2  -2   3   21.79    3.24
   2   2  -3   23.14    3.79
   2   2  -3   25.90    3.27
  -2  -2   2 3783.00  231.20
  -2  -2   2 3787.00  231.40
   2   2  -2 3569.00  218.20
   2   2  -2 3806.00  232.60
  -2  -2   1   49.64    4.09
  -2  -2   1   52.56    4.01
   2   2  -1   56.15    4.38
   2   2  -1   52.96    4.09
  -2  -2   0 2036.00  124.50
  -2  -2   0 2021.00  123.60
   2   2   0 2009.00  122.90
   2   2   0 2024.00  123.80
  -2  -2  -1   14.53    2.10
  -2  -2  -1   11.32    2.32
   2   2   1    7.73    2.00
   2   2   1   12.89    2.39
  -2  -2  -2  212.80   13.35
  -2  -2  -2  218.90   13.79
   2   2   2  205.70   13.04
   2   2   2  211.70   13.28
  -2  -2  -3  139.10    9.04
  -2  -2  -3  137.30    9.01
   2   2   3  133.40    8.63
   2   2   3  143.90    9.48
  -2  -2  -4 6017.00  367.60
  -2  -2  -4 5585.00  341.20
   2   2   4 5754.00  351.50
   2   2   4 5555.00  339.50
  -2  -2  -5  341.40   21.40
  -2  -2  -5  329.50   20.68
   2   2   5  363.40   22.63
   2   2   5  341.50   21.61
  -2  -2  -6 3372.00  206.20
  -2  -2  -6 3306.00  202.10
   2   2   6 3606.00  220.40
   2   2   6 3414.00  208.80
  -2  -2  -7   61.35    5.45
  -2  -2  -7   55.08    5.03
   2   2   7   57.11    5.14
   2   2   7   60.30    5.78
  -2  -2  -8  892.40   55.07
  -2  -2  -8  820.80   50.67
   2   2   8 1055.00   64.90
   2   2   8  867.00   53.78
  -2  -2  -9  148.00   10.51
   2   2   9  133.20   10.89
   2   2   9  162.00   11.16
  -2  -2 -10 1150.00   70.83
   2   2  10 1001.00   61.87
   2   2  10 1207.00   74.32
  -2  -2 -11    0.22    5.49
  -2  -2 -11    2.57    6.24
   2   2  11   -1.89    5.95
   2   2  11    0.47    6.38
  -2  -2 -12  804.70   50.08
  -2  -2 -12  765.60   47.59
   2   2  12  918.90   57.01
   2   2  12  834.00   51.96
  -2  -2 -13   16.84    8.36
  -2  -2 -13   11.52    7.15
   2   2  13    0.02    7.64
   2   2  13    6.54    7.82
  -2  -2 -14   98.15   10.95
  -2  -2 -14  104.00   11.34
   2   2  14  105.90   10.90
   2   2  14  100.90   11.06
  -1  -2  13  139.20   11.42
  -1  -2  13  173.60   14.86
   1   2 -13  176.10   13.68
   1   2 -13  157.60   15.37
  -1  -2  12   27.69    6.53
  -1  -2  12   19.54    8.39
   1   2 -12   31.49    7.04
   1   2 -12   48.36   10.68
  -1  -2  11  397.00   25.32
  -1  -2  11  425.80   27.58
   1   2 -11  462.00   29.22
   1   2 -11  414.20   27.63
  -1  -2  10   37.09    6.03
  -1  -2  10   45.73    8.13
   1   2 -10   35.00    8.28
   1   2 -10   33.71    5.89
  -1  -2   9  267.90   18.19
  -1  -2   9  258.30   16.86
   1   2  -9  310.70   20.21
   1   2  -9  267.60   18.50
  -1  -2   8   29.27    5.16
  -1  -2   8   29.31    6.38
   1   2  -8   27.07    6.89
   1   2  -8   28.04    5.41
  -1  -2   7  871.40   53.74
  -1  -2   7  947.40   58.54
   1   2  -7 1032.00   63.67
   1   2  -7 1009.00   62.45
  -1  -2   6  959.30   59.04
  -1  -2   6  964.60   59.50
   1   2  -6  994.40   61.23
   1   2  -6 1034.00   63.74
  -1  -2   5 1055.00   64.78
  -1  -2   5 1145.00   70.46
   1   2  -5 1128.00   69.43
   1   2  -5 1112.00   68.33
  -1  -2   4   73.74    5.72
  -1  -2   4   62.65    5.39
   1   2  -4   68.99    5.66
   1   2  -4   68.70    6.09
  -1  -2   3 3161.00  193.20
  -1  -2   3 3311.00  202.40
   1   2  -3 3167.00  193.70
   1   2  -3 3029.00  185.20
  -1  -2   2  184.20   11.80
  -1  -2   2  182.50   11.74
   1   2  -2  175.50   11.47
   1   2  -2  167.90   10.83
  -1  -2   1 1585.00   97.01
  -1  -2   1 1582.00   96.82
   1   2  -1 1655.00  101.30
   1   2  -1 1544.00   94.56
  -1  -2   0   22.66    2.55
  -1  -2   0   30.08    3.02
   1   2   0   30.27    3.08
   1   2   0   30.33    3.08
  -1  -2  -1  344.80   21.35
  -1  -2  -1  372.00   23.09
   1   2   1  378.70   23.45
   1   2   1  363.70   22.62
  -1  -2  -2  100.50    6.72
  -1  -2  -2  109.10    7.42
   1   2   2  104.50    7.17
   1   2   2  100.30    6.69
  -1  -2  -3  294.40   18.47
  -1  -2  -3  317.30   19.78
   1   2   3  278.70   17.38
   1   2   3  308.30   19.36
  -1  -2  -4  187.60   12.14
  -1  -2  -4  210.70   13.40
   1   2   4  224.70   14.48
   1   2   4  199.00   12.63
  -1  -2  -5 1894.00  115.90
  -1  -2  -5 1676.00  102.70
   1   2   5 1817.00  111.20
   1   2   5 1769.00  108.40
  -1  -2  -6   38.12    4.58
  -1  -2  -6   42.87    4.66
   1   2   6   40.46    4.24
   1   2   6   38.12    4.69
  -1  -2  -7  698.20   43.19
  -1  -2  -7  686.80   42.45
   1   2   7  702.80   43.41
   1   2   7  670.30   41.65
  -1  -2  -8  125.90    9.09
  -1  -2  -8  119.20    8.64
   1   2   8  132.90    9.84
   1   2   8  129.60    9.23
  -1  -2  -9  168.50   11.62
  -1  -2  -9  197.70   13.49
   1   2   9  193.60   12.90
   1   2   9  189.10   13.21
  -1  -2 -10   46.29    5.77
  -1  -2 -10   29.64    5.23
   1   2  10   36.98    5.96
  -1  -2 -11 1742.00  106.90
  -1  -2 -11 1466.00   90.03
   1   2  11 1859.00  114.10
   1   2  11 1644.00  101.00
  -1  -2 -12   18.75    6.09
  -1  -2 -12    9.97    6.72
   1   2  12   17.38    6.59
   1   2  12   18.66    6.67
  -1  -2 -13  377.80   24.60
  -1  -2 -13  379.70   24.74
   1   2  13  404.70   26.20
   1   2  13  421.30   27.21
  -1  -2 -14   -3.84    8.45
  -1  -2 -14   -1.89    8.47
   1   2  14    7.13    7.32
   1   2  14   -4.14    8.23
   0  -2  13   39.16    7.73
   0  -2  13   26.40    9.90
   0   2 -13   47.90    8.48
   0   2 -13   41.37   11.23
   0  -2  12  316.30   20.90
   0  -2  12  368.90   24.72
   0   2 -12  405.50   26.27
   0   2 -12  397.40   26.94
   0  -2  11    5.76    5.61
   0  -2  11   -6.58    8.07
   0   2 -11    2.32    5.97
   0   2 -11    9.40    9.51
   0  -2  10  340.50   22.69
   0  -2  10  307.60   19.89
   0   2 -10  326.30   22.37
   0   2 -10  373.60   23.93
   0  -2   9  254.70   16.74
   0  -2   9  287.30   19.40
   0   2  -9  301.20   20.43
   0   2  -9  317.00   20.52
   0  -2   8    6.15    6.56
   0  -2   8    7.03    4.73
   0   2  -8    4.24    5.93
   0   2  -8    3.38    5.63
   0  -2   7   25.49    4.33
   0  -2   7   21.43    5.72
   0   2  -7   18.11    5.51
   0   2  -7   18.47    6.28
   0  -2   6  524.60   32.85
   0  -2   6  529.50   32.83
   0   2  -6  564.70   35.15
   0   2  -6  560.70   35.03
   0  -2   5   23.85    4.76
   0  -2   5   24.17    3.89
   0   2  -5   21.17    4.66
   0   2  -5   19.06    4.10
   0  -2   4 1516.00   92.93
   0  -2   4 1454.00   89.19
   0   2  -4 1407.00   86.29
   0   2  -4 1497.00   91.90
   0  -2   3   12.53    2.97
   0  -2   3    5.22    3.25
   0   2  -3    7.44    3.27
   0   2  -3    7.84    2.78
   0  -2   2  545.50   33.67
   0  -2   2  557.70   34.49
   0   2  -2  572.50   35.45
   0   2  -2  542.70   33.58
   0  -2   1  146.50    9.60
   0  -2   1  146.80    9.52
   0   2  -1  150.40    9.87
   0   2  -1  152.90   10.16
   0  -2   0 2993.00  183.00
   0  -2   0 2906.00  177.70
   0   2   0 3054.00  186.70
   0   2   0 2969.00  181.60
   0  -2  -1  153.70    9.86
   0  -2  -1  146.30    9.52
   0   2   1  144.40    9.49
   0   2   1  143.60    9.39
   0  -2  -2  557.80   34.35
   0  -2  -2  518.30   32.03
   0   2   2  513.60   31.82
   0   2   2  556.30   34.30
   0  -2  -3    8.34    2.80
   0  -2  -3    8.43    2.20
   0   2   3    9.19    2.26
   0   2   3    7.85    3.04
   0  -2  -4 1465.00   89.77
   0  -2  -4 1599.00   97.93
   0   2   4 1574.00   96.40
   0   2   4 1481.00   90.83
   0  -2  -5   25.11    3.49
   0  -2  -5   23.17    3.78
   0   2   5   26.18    4.24
   0   2   5   26.03    3.28
   0  -2  -6  575.00   35.68
   0  -2  -6  656.40   40.56
   0   2   6  627.20   38.76
   0   2   6  603.00   37.55
   0  -2  -7   13.50    3.81
   0  -2  -7   28.38    4.13
   0   2   7   20.94    4.07
   0   2   7   24.69    4.71
   0  -2  -8   10.89    4.00
   0  -2  -8   25.94    5.18
   0   2   8    9.08    4.22
   0   2   8   15.45    4.84
   0  -2  -9  267.90   17.46
   0  -2  -9  298.80   19.19
   0   2   9  339.00   21.50
   0   2   9  312.10   20.20
   0  -2 -10  330.00   21.09
   0  -2 -10  353.00   22.57
   0   2  10  343.60   22.11
   0   2  10  401.00   25.42
   0  -2 -11    1.59    5.70
   0  -2 -11    5.87    5.21
   0   2  11   15.07    5.57
   0   2  11    7.58    5.66
   0  -2 -12  457.30   29.13
   0  -2 -12  412.20   26.42
   0   2  12  443.60   28.28
   0   2  12  501.70   31.82
   0  -2 -13   47.11    8.21
   0  -2 -13   53.20    7.68
   0   2  13   55.70    8.23
   0   2  13   52.63    8.40
   0  -2 -14  139.00   12.21
   0  -2 -14  164.70   13.31
   0   2  14  178.60   14.09
   0   2  14  164.30   13.06
   1  -2  13  278.50   19.59
   1  -2  13  265.60   19.82
  -1   2 -13  309.10   21.09
  -1   2 -13  318.50   22.75
  -1   2 -12    9.41   10.29
   1  -2  11 1351.00   83.24
   1  -2  11 1442.00   89.15
  -1   2 -11 1668.00  102.70
  -1   2 -11 1527.00   94.56
   1  -2  10   42.08    8.44
   1  -2  10   36.24    6.07
  -1   2 -10   53.78    9.20
  -1   2 -10   33.56    6.60
   1  -2   9  157.30   11.29
   1  -2   9  164.50   12.80
  -1   2  -9  191.90   13.41
  -1   2  -9  169.20   13.10
   1  -2   8  131.50   10.57
   1  -2   8  101.30    8.12
  -1   2  -8  117.40    9.59
  -1   2  -8  115.00    9.89
   1  -2   7  653.90   40.83
   1  -2   7  664.80   41.33
  -1   2  -7  689.20   43.08
  -1   2  -7  696.30   43.42
   1  -2   6   30.88    5.67
   1  -2   6   34.08    4.71
  -1   2  -6   43.78    5.73
  -1   2  -6   37.44    5.78
   1  -2   5 1602.00   98.32
   1  -2   5 1617.00   99.15
  -1   2  -5 1537.00   94.29
  -1   2  -5 1565.00   96.07
   1  -2   4  199.60   13.16
   1  -2   4  204.30   13.37
  -1   2  -4  171.90   11.30
  -1   2  -4  199.40   13.25
   1  -2   3  300.60   19.06
   1  -2   3  287.60   18.12
  -1   2  -3  262.70   16.71
  -1   2  -3  304.40   19.33
   1  -2   2  101.10    7.03
   1  -2   2  107.50    7.58
  -1   2  -2  103.70    7.41
  -1   2  -2  112.10    7.92
   1  -2   1  367.70   22.97
   1  -2   1  341.20   21.26
  -1   2  -1  368.50   23.09
  -1   2  -1  351.80   22.02
   1  -2   0   24.82    3.19
   1  -2   0   20.76    2.61
  -1   2   0   26.25    3.43
  -1   2   0   24.94    3.32
   1  -2  -1 1579.00   96.70
   1  -2  -1 1543.00   94.47
  -1   2   1 1684.00  103.20
  -1   2   1 1513.00   92.78
   1  -2  -2  195.90   12.65
   1  -2  -2  175.90   11.28
  -1   2   2  171.60   11.24
  -1   2   2  164.70   10.62
   1  -2  -3 3129.00  191.30
   1  -2  -3 3468.00  212.10
  -1   2   3 3116.00  190.60
  -1   2   3 3102.00  189.60
   1  -2  -4   74.22    5.60
   1  -2  -4   74.52    5.87
  -1   2   4   67.36    5.66
  -1   2   4   59.03    4.61
   1  -2  -5 1160.00   71.22
   1  -2  -5 1247.00   76.48
  -1   2   5 1176.00   72.16
  -1   2   5 1216.00   74.82
   1  -2  -6 1132.00   69.53
   1  -2  -6 1015.00   62.43
  -1   2   6  969.10   59.83
  -1   2   6 1102.00   67.71
   1  -2  -7  887.90   54.70
   1  -2  -7  959.40   59.10
  -1   2   7  916.00   56.64
  -1   2   7  938.60   57.77
   1  -2  -8   34.98    4.75
   1  -2  -8   31.50    4.69
  -1   2   8   36.07    4.46
  -1   2   8   30.59    5.28
   1  -2  -9  274.70   17.85
   1  -2  -9  269.80   17.53
  -1   2   9  255.70   16.82
  -1   2   9  305.50   19.71
   1  -2 -10   40.31    5.59
   1  -2 -10   40.79    5.77
  -1   2  10   46.92    6.11
  -1   2  10   47.63    5.73
   1  -2 -11  445.80   28.26
   1  -2 -11  488.10   30.88
  -1   2  11  527.50   33.14
  -1   2  11  471.50   29.96
   1  -2 -12   22.46    6.08
   1  -2 -12   13.04    6.40
  -1   2  12   25.30    6.97
  -1   2  12   27.29    6.83
   1  -2 -13  181.40   13.62
   1  -2 -13  223.70   15.88
  -1   2  13  211.20   15.38
  -1   2  13  200.00   14.52
   1  -2 -14   25.11    7.57
   1  -2 -14   50.57    9.69
  -1   2  14   30.64    8.47
  -1   2  14   54.96    9.72
   2  -2  13    8.93    8.19
   2  -2  13   -2.11    9.65
  -2   2 -13   15.70    8.53
  -2   2 -13    6.39    8.34
   2  -2  12  734.90   46.34
   2  -2  12  666.10   41.80
  -2   2 -12  756.50   47.23
  -2   2 -12  823.70   51.36
   2  -2  11    9.10    8.13
   2  -2  11    3.04    5.85
  -2   2 -11    1.91    7.49
  -2   2 -11   -4.50    6.93
   2  -2  10 1031.00   63.86
  -2   2 -10 1051.00   65.01
  -2   2 -10 1119.00   69.11
   2  -2   9  132.00   10.57
   2  -2   9  129.10   10.80
  -2   2  -9  149.00   11.27
  -2   2  -9  137.20   10.63
   2  -2   8  883.00   54.88
   2  -2   8  863.40   53.79
  -2   2  -8  910.10   56.35
  -2   2  -8  896.20   55.47
   2  -2   7   52.12    6.60
   2  -2   7   50.01    7.79
  -2   2  -7   46.43    6.56
  -2   2  -7   48.94    6.16
   2  -2   6 3114.00  190.60
   2  -2   6 3300.00  202.20
  -2   2  -6 3205.00  196.10
  -2   2  -6 2993.00  183.20
  -2   2  -5  297.70   19.08
  -2   2  -5  298.80   19.32
   2  -2   4 6015.00  367.70
   2  -2   4 5732.00  350.50
   2  -2   3  141.00    9.57
   2  -2   3  144.90   10.06
  -2   2  -3  133.10    9.42
  -2   2  -3  119.30    8.35
   2  -2   2  203.10   13.13
   2  -2   2  213.80   13.98
  -2   2  -2  207.60   13.62
  -2   2  -2  194.60   12.79
   2  -2   1   15.11    2.83
   2  -2   1   14.79    3.33
  -2   2  -1    7.59    3.11
  -2   2  -1   11.14    3.41
   2  -2   0 1926.00  117.90
   2  -2   0 1985.00  121.60
  -2   2   0 1905.00  116.70
  -2   2   0 1977.00  121.10
   2  -2  -1   49.31    4.02
   2  -2  -1   52.73    4.61
  -2   2   1   47.77    4.51
  -2   2   1   56.65    4.97
   2  -2  -2 3680.00  224.90
   2  -2  -2 3612.00  220.80
  -2   2   2 3668.00  224.30
  -2   2   2 3593.00  219.60
   2  -2  -3   27.90    3.22
   2  -2  -3   28.11    3.82
  -2   2   3   23.60    3.58
  -2   2   3   20.62    3.04
   2  -2  -4 1845.00  113.00
   2  -2  -4 1725.00  105.80
  -2   2   4 1759.00  107.90
  -2   2   4 1645.00  100.80
   2  -2  -5  604.80   37.39
   2  -2  -5  573.20   35.54
  -2   2   5  613.30   38.20
  -2   2   5  558.40   34.56
   2  -2  -6 1502.00   92.18
   2  -2  -6 1319.00   80.94
  -2   2   6 1341.00   82.52
  -2   2   6 1436.00   88.07
   2  -2  -7  331.00   21.03
   2  -2  -7  283.60   18.18
  -2   2   7  295.50   19.05
  -2   2   7  305.80   19.38
   2  -2  -8 1051.00   64.71
   2  -2  -8  859.00   53.05
  -2   2   8  895.80   55.46
  -2   2   8 1009.00   62.10
   2  -2  -9   46.05    5.50
   2  -2  -9   40.89    5.46
  -2   2   9   48.56    6.07
  -2   2   9   53.24    5.78
   2  -2 -10 1304.00   80.19
   2  -2 -10 1199.00   73.75
  -2   2  10 1266.00   77.96
  -2   2  10 1471.00   90.37
   2  -2 -11  115.30    9.15
   2  -2 -11   98.78    8.54
  -2   2  11  104.80    8.73
  -2   2  11  119.30    9.38
   2  -2 -12  300.80   19.79
   2  -2 -12  269.90   17.89
  -2   2  12  330.50   21.74
  -2   2  12  300.90   20.10
   2  -2 -13   67.28    8.09
   2  -2 -13   76.14    8.46
  -2   2  13   82.44    8.73
  -2   2  13   86.41    8.48
   3  -2  13  116.00   13.42
   3  -2  13   70.62   12.25
  -3   2 -13  112.60   12.15
  -3   2 -13  103.50   10.97
   3  -2  12    1.35    9.19
   3  -2  12   22.14    9.93
  -3   2 -12   12.62    7.80
  -3   2 -12    2.30    8.46
   3  -2  11  814.30   50.91
   3  -2  11  779.30   49.13
  -3   2 -11  805.50   50.15
  -3   2 -11  878.70   54.62
   3  -2  10    2.11    7.51
   3  -2  10   -8.26    8.53
  -3   2 -10    6.86    7.27
  -3   2 -10   -1.42    6.99
   3  -2   9  382.20   24.97
   3  -2   9  399.10   26.00
  -3   2  -9  404.80   26.15
  -3   2  -9  387.60   24.92
   3  -2   8  117.90   10.06
   3  -2   8  120.60   10.55
  -3   2  -8  129.70   10.47
  -3   2  -8  107.00    9.11
   3  -2   7 1063.00   65.87
   3  -2   7 1070.00   66.15
  -3   2  -7 1094.00   67.43
  -3   2  -7 1103.00   67.96
   3  -2   6    9.19    5.24
   3  -2   6   15.76    6.14
  -3   2  -6   10.36    4.91
  -3   2  -6    3.65    5.00
   3  -2   5 5572.00  340.60
   3  -2   5 5645.00  345.10
  -3   2  -5 5288.00  323.20
  -3   2  -5 5433.00  332.00
   3  -2   4  434.80   27.35
   3  -2   4  453.40   28.57
  -3   2  -4  404.30   25.29
  -3   2  -4  447.70   28.02
   3  -2   3 2264.00  138.70
   3  -2   3 2296.00  140.70
  -3   2  -3 2375.00  145.40
  -3   2  -3 2209.00  135.20
   3  -2   2   84.15    6.58
   3  -2   2   81.75    6.82
  -3   2  -2   82.69    6.55
  -3   2  -2   79.64    6.12
   3  -2   1 2214.00  135.60
   3  -2   1 2430.00  148.80
  -3   2  -1 2362.00  144.60
  -3   2  -1 2346.00  143.50
   3  -2   0   78.33    5.92
   3  -2   0   89.53    6.85
  -3   2   0   95.65    7.01
  -3   2   0   88.24    6.35
   3  -2  -1 3928.00  240.20
   3  -2  -1 3982.00  243.50
  -3   2   1 4035.00  246.70
  -3   2   1 3826.00  234.00
   3  -2  -2    3.87    2.88
   3  -2  -2   -0.34    3.32
  -3   2   2   -0.36    3.09
  -3   2   2    0.40    2.63
  -3   2   3 5364.00  327.70
  -3   2   3 5203.00  318.10
   3  -2  -4  609.90   37.95
   3  -2  -4  570.50   35.36
   3  -2  -5 1417.00   86.99
   3  -2  -5 1280.00   78.73
  -3   2   5 1267.00   77.78
  -3   2   5 1347.00   82.87
   3  -2  -6    7.40    3.06
   3  -2  -6   14.63    4.19
  -3   2   6   12.20    3.59
  -3   2   6   16.28    4.50
   3  -2  -7 1299.00   79.85
   3  -2  -7 1065.00   65.50
  -3   2   7 1078.00   66.56
  -3   2   7 1190.00   73.14
   3  -2  -8   10.49    4.39
   3  -2  -8    3.00    4.50
  -3   2   8    7.71    5.07
  -3   2   8    9.21    4.11
   3  -2  -9 1835.00  112.60
   3  -2  -9 2100.00  128.70
  -3   2   9 2191.00  134.20
  -3   2   9 1839.00  112.80
   3  -2 -10    8.69    4.92
   3  -2 -10   10.95    5.46
  -3   2  10    6.26    5.45
  -3   2  10   13.01    5.18
   3  -2 -11  493.20   31.12
   3  -2 -11  509.60   32.02
  -3   2  11  575.40   36.04
  -3   2  11  530.60   33.44
   3  -2 -12  404.40   25.87
   3  -2 -12  378.60   24.49
  -3   2  12  404.40   25.92
  -3   2  12  436.50   27.84
   3  -2 -13  254.80   17.52
   3  -2 -13  269.20   18.37
  -3   2  13  316.70   20.93
  -3   2  13  274.30   18.53
   4  -2  13   -4.27   10.75
   4  -2  13    7.92   12.34
  -4   2 -13    0.10    9.41
  -4   2 -13   11.34    8.89
   4  -2  12  377.40   25.65
   4  -2  12  390.20   26.59
  -4   2 -12  408.00   26.92
  -4   2 -12  367.50   24.53
   4  -2  11    3.16    8.44
   4  -2  11   -1.16    8.71
  -4   2 -11   -2.04    7.94
  -4   2 -11    4.50    7.95
   4  -2  10  321.10   21.62
   4  -2  10  317.90   21.65
  -4   2 -10  323.50   21.46
  -4   2 -10  346.80   22.87
   4  -2   9   54.87    8.29
   4  -2   9   43.20    7.70
  -4   2  -9   57.28    7.89
  -4   2  -9   43.93    7.36
   4  -2   8  532.80   33.61
   4  -2   8  513.50   32.71
  -4   2  -8  533.30   33.48
  -4   2  -8  502.40   31.75
   4  -2   7  809.60   50.32
   4  -2   7  828.40   51.66
  -4   2  -7  855.10   53.02
  -4   2  -7  830.30   51.46
   4  -2   6 1313.00   80.98
   4  -2   6 1221.00   75.33
  -4   2  -6 1267.00   77.98
  -4   2  -6 1190.00   73.23
   4  -2   5   -1.39    4.80
   4  -2   5    2.50    5.93
  -4   2  -5    8.14    4.71
  -4   2  -5    0.16    4.17
   4  -2   4 2327.00  142.60
   4  -2   4 2318.00  142.00
  -4   2  -4 2111.00  129.30
  -4   2  -4 2242.00  137.20
   4  -2   3    7.06    3.90
   4  -2   3   10.98    4.48
  -4   2  -3    2.45    4.30
  -4   2  -3    5.78    3.69
   4  -2   2  920.80   56.83
   4  -2   2  970.50   59.81
  -4   2  -2  917.40   56.42
  -4   2  -2  991.70   61.09
   4  -2   1  129.00    9.02
   4  -2   1  145.70   10.32
  -4   2  -1  136.30    9.56
  -4   2  -1  127.70    8.83
   4  -2   0 1697.00  104.10
   4  -2   0 1670.00  102.40
  -4   2   0 1801.00  110.30
  -4   2   0 1689.00  103.60
   4  -2  -1  436.20   27.23
   4  -2  -1  458.50   28.75
  -4   2   1  443.80   27.76
  -4   2   1  462.90   28.76
   4  -2  -2 4603.00  281.40
   4  -2  -2 4393.00  268.60
  -4   2   2 4223.00  258.00
  -4   2   2 4359.00  266.50
   4  -2  -3   13.63    3.62
   4  -2  -3   16.11    4.61
  -4   2   3   14.87    4.13
  -4   2   3   18.02    3.06
   4  -2  -4 1704.00  104.70
   4  -2  -4 1706.00  104.70
  -4   2   4 1556.00   95.30
  -4   2   4 1611.00   98.86
   4  -2  -5   23.29    4.97
   4  -2  -5   19.73    4.21
  -4   2   5   18.59    4.10
  -4   2   5   15.75    3.40
   4  -2  -6 1191.00   73.38
   4  -2  -6 1352.00   83.18
  -4   2   6 1232.00   75.59
  -4   2   6 1146.00   70.55
   4  -2  -7  223.20   14.71
   4  -2  -7  241.80   16.20
  -4   2   7  229.80   14.74
  -4   2   7  217.70   14.58
   4  -2  -8 1735.00  106.70
   4  -2  -8 1442.00   88.51
  -4   2   8 1524.00   93.69
  -4   2   8 1661.00  101.70
   4  -2  -9  174.10   11.85
   4  -2  -9  199.40   14.15
  -4   2   9  184.20   12.23
  -4   2   9  180.80   12.78
   4  -2 -10 1766.00  108.40
   4  -2 -10 1929.00  118.60
  -4   2  10 2035.00  124.70
  -4   2  10 1680.00  103.30
  -4   2  11    4.00    6.85
  -4   2  11    5.59    5.29
   4  -2 -12  257.00   17.52
   4  -2 -12  258.90   17.68
  -4   2  12  250.90   17.80
   4  -2 -13    6.44    8.22
   4  -2 -13  -14.52    7.60
  -4   2  13    3.22    8.10
  -4   2  13   11.61    8.49
   5  -2  12   16.23   10.51
   5  -2  12   -3.10    9.44
  -5   2 -12    5.11    8.99
  -5   2 -12    2.97    8.96
   5  -2  11  152.30   13.86
   5  -2  11  146.10   13.20
  -5   2 -11  142.90   12.52
  -5   2 -11  170.30   13.63
   5  -2  10  105.10   10.94
   5  -2  10  100.60   10.93
  -5   2 -10  104.60    9.82
  -5   2 -10   95.32    9.96
   5  -2   9  473.30   30.54
   5  -2   9  439.10   28.31
  -5   2  -9  476.60   30.51
  -5   2  -9  413.00   26.62
   5  -2   8  198.10   14.16
   5  -2   8  215.80   15.53
  -5   2  -8  202.80   14.12
  -5   2  -8  193.20   13.95
   5  -2   7  469.70   29.94
   5  -2   7  485.10   30.86
  -5   2  -7  453.50   28.72
  -5   2  -7  472.50   29.89
   5  -2   6  116.70   10.53
   5  -2   6  112.10    9.52
  -5   2  -6  125.10    9.67
  -5   2  -6  125.00    9.73
   5  -2   5 1388.00   85.45
   5  -2   5 1463.00   90.09
  -5   2  -5 1371.00   84.25
  -5   2  -5 1340.00   82.40
   5  -2   4   36.24    6.38
   5  -2   4   39.76    5.66
  -5   2  -4   34.58    5.20
  -5   2  -4   36.88    5.38
   5  -2   3  470.50   29.49
   5  -2   3  471.20   29.56
  -5   2  -3  511.00   31.99
  -5   2  -3  433.80   27.15
   5  -2   2  629.60   39.21
   5  -2   2  604.50   37.63
  -5   2  -2  613.80   38.03
  -5   2  -2  699.80   43.39
   5  -2   1 1173.00   72.11
   5  -2   1 1247.00   76.70
  -5   2  -1 1222.00   75.11
  -5   2  -1 1177.00   72.27
   5  -2   0  347.80   22.23
   5  -2   0  330.10   20.94
  -5   2   0  360.80   22.71
  -5   2   0  366.50   23.20
   5  -2  -1 1347.00   82.74
   5  -2  -1 1364.00   83.90
  -5   2   1 1387.00   85.12
  -5   2   1 1377.00   84.42
   5  -2  -2  221.80   14.68
   5  -2  -2  188.60   12.45
  -5   2   2  171.90   11.21
  -5   2   2  201.30   13.28
   5  -2  -3 1010.00   62.19
   5  -2  -3 1085.00   66.91
  -5   2   3 1008.00   62.15
  -5   2   3  971.60   59.67
   5  -2  -4   15.01    4.43
   5  -2  -4   20.11    4.95
  -5   2   4   12.03    3.32
  -5   2   4   10.38    3.99
   5  -2  -5  648.30   40.38
   5  -2  -5  609.60   38.04
  -5   2   5  530.90   33.10
  -5   2   5  572.80   35.42
   5  -2  -6   14.47    4.79
   5  -2  -6   19.43    5.09
  -5   2   6   13.62    3.72
  -5   2   6   13.86    4.44
   5  -2  -7  330.70   21.60
   5  -2  -7  300.90   19.31
  -5   2   7  279.60   18.23
  -5   2   7  308.20   19.48
   5  -2  -8    8.03    4.09
   5  -2  -8   20.25    6.44
  -5   2   8    2.46    4.06
  -5   2   8   -0.18    4.77
   5  -2  -9 1772.00  109.00
   5  -2  -9 1498.00   91.95
  -5   2   9 1640.00  100.80
  -5   2   9 1738.00  106.50
   5  -2 -10  103.40    8.16
   5  -2 -10  114.40   10.87
  -5   2  10  118.60    9.09
  -5   2  10   90.12    8.49
   5  -2 -11  550.40   35.10
   5  -2 -11  490.80   30.83
  -5   2  11  528.90   33.54
  -5   2  11  657.90   40.93
   5  -2 -12  -13.51    5.81
   5  -2 -12   -2.95    7.80
  -5   2  12    2.87    5.34
  -5   2  12    2.30    6.04
   5  -2 -13  177.10   15.71
   5  -2 -13  154.10   12.02
  -5   2  13  177.90   14.47
  -5   2  13  197.00   14.05
   6  -2  12   54.01   13.22
   6  -2  12   62.43   10.98
  -6   2 -12   77.94   10.93
  -6   2 -12   81.74   10.53
   6  -2  11    0.03    9.73
   6  -2  11    8.66    9.90
  -6   2 -11    4.68    9.08
  -6   2 -11   17.82    8.83
   6  -2  10   42.02    8.92
   6  -2  10   49.57    9.67
  -6   2 -10   49.29    8.52
  -6   2 -10   55.15    9.22
   6  -2   9   47.72    8.42
   6  -2   9   55.06    9.05
  -6   2  -9   56.50    8.56
  -6   2  -9   56.79    8.19
   6  -2   8  368.60   24.38
   6  -2   8  378.80   24.82
  -6   2  -8  380.60   24.68
  -6   2  -8  385.10   24.97
   6  -2   7    0.84    6.95
   6  -2   7   -5.71    6.65
  -6   2  -7   -6.28    6.75
  -6   2  -7   -1.37    6.25
   6  -2   6  553.80   35.14
   6  -2   6  540.80   34.13
  -6   2  -6  531.40   33.48
  -6   2  -6  538.90   33.82
   6  -2   5  153.30   11.35
   6  -2   5  131.90   11.12
  -6   2  -5  145.50   10.74
  -6   2  -5  136.90   10.24
   6  -2   4   99.93    8.94
   6  -2   4   94.26    8.08
  -6   2  -4   95.79    7.96
  -6   2  -4   95.89    8.13
   6  -2   3    3.21    4.88
   6  -2   3    2.96    5.00
  -6   2  -3   -2.88    5.32
  -6   2  -3    3.10    4.35
   6  -2   2  968.00   59.81
   6  -2   2  947.80   58.54
  -6   2  -2  986.30   60.76
  -6   2  -2  997.50   61.57
   6  -2   1  763.90   47.29
   6  -2   1  783.20   48.55
  -6   2  -1  795.00   49.19
  -6   2  -1  824.80   50.88
   6  -2   0 1083.00   66.73
   6  -2   0 1000.00   61.60
  -6   2   0 1106.00   67.99
  -6   2   0 1100.00   67.74
   6  -2  -1    7.84    3.62
   6  -2  -1    5.43    4.49
  -6   2   1   13.33    4.21
  -6   2   1    5.53    3.48
   6  -2  -2 1157.00   71.29
   6  -2  -2 1175.00   72.33
  -6   2   2 1119.00   68.68
  -6   2   2 1123.00   69.13
   6  -2  -3   20.94    5.03
   6  -2  -3   15.43    4.70
  -6   2   3   22.51    4.29
  -6   2   3   24.10    3.89
   6  -2  -4  457.20   28.78
   6  -2  -4  460.20   29.00
  -6   2   4  421.40   26.29
  -6   2   4  402.90   25.46
   6  -2  -5   22.13    5.62
   6  -2  -5   14.35    4.57
  -6   2   5   10.98    4.49
  -6   2   5   13.48    3.68
   6  -2  -6  272.60   17.82
   6  -2  -6  292.00   19.07
  -6   2   6  275.50   17.56
  -6   2   6  240.00   15.93
   6  -2  -7   -3.73    5.94
   6  -2  -7    0.52    4.46
  -6   2   7    4.36    5.28
  -6   2   7    4.05    3.79
   6  -2  -8  245.10   16.10
   6  -2  -8  256.40   17.44
  -6   2   8  244.90   15.71
  -6   2   8  241.90   16.26
   6  -2  -9   12.05    7.22
   6  -2  -9    5.16    4.27
  -6   2   9    7.26    5.76
  -6   2   9   13.87    4.64
   6  -2 -10  290.60   18.87
   6  -2 -10  338.10   22.50
  -6   2  10  334.80   21.27
  -6   2  10  307.50   20.36
   6  -2 -11   20.67    7.94
   6  -2 -11   13.04    5.51
  -6   2  11   26.00    7.18
  -6   2  11   24.54    5.54
   6  -2 -12  107.20    8.75
   6  -2 -12  136.20   12.60
  -6   2  12  136.20   10.29
  -6   2  12  125.10   11.20
   7  -2  11   51.59   10.03
   7  -2  11   44.89   10.77
  -7   2 -11   67.25   11.56
  -7   2 -11   79.43   11.80
   7  -2  10   12.03   10.14
   7  -2  10    2.27    8.79
  -7   2 -10   23.50    8.74
  -7   2 -10   15.86    8.47
   7  -2   9  376.60   24.93
   7  -2   9  387.10   25.70
  -7   2  -9  371.90   24.41
  -7   2  -9  389.90   25.58
   7  -2   8    7.22    8.58
   7  -2   8   14.02    7.65
  -7   2  -8   28.83    7.60
  -7   2  -8   16.97    7.22
   7  -2   7  647.30   40.93
   7  -2   7  654.90   41.19
  -7   2  -7  666.30   41.70
  -7   2  -7  664.70   41.61
   7  -2   6  109.50   10.05
   7  -2   6   83.36    8.71
  -7   2  -6   85.49    8.88
  -7   2  -6   86.91    8.73
   7  -2   5  207.40   14.60
   7  -2   5  233.50   16.70
  -7   2  -5  216.20   14.83
  -7   2  -5  208.80   14.41
   7  -2   4  346.20   22.56
   7  -2   4  332.70   21.60
  -7   2  -4  311.10   20.11
  -7   2  -4  337.30   21.61
   7  -2   3   55.87    6.66
   7  -2   3   46.23    5.46
  -7   2  -3   52.16    6.56
  -7   2  -3   55.32    6.40
   7  -2   2    7.56    5.90
   7  -2   2   16.86    5.35
  -7   2  -2   17.31    4.69
  -7   2  -2   24.80    5.81
   7  -2   1  949.20   58.61
   7  -2   1 1032.00   63.70
  -7   2  -1 1034.00   63.82
  -7   2  -1 1056.00   65.04
   7  -2   0   20.47    5.38
   7  -2   0   20.47    4.64
  -7   2   0   24.78    4.35
  -7   2   0   30.92    5.28
   7  -2  -1 1038.00   64.03
   7  -2  -1 1012.00   62.45
  -7   2   1 1042.00   64.27
  -7   2   1 1076.00   66.14
   7  -2  -2   58.51    6.50
   7  -2  -2   63.46    6.27
  -7   2   2   66.07    5.92
  -7   2   2   60.76    6.31
   7  -2  -3  307.90   19.83
   7  -2  -3  319.70   20.75
  -7   2   3  292.80   18.89
  -7   2   3  284.00   18.06
   7  -2  -4   26.96    5.06
   7  -2  -4   25.51    5.28
  -7   2   4   23.88    4.04
  -7   2   4   18.93    4.49
   7  -2  -5 1508.00   92.83
   7  -2  -5 1356.00   83.44
  -7   2   5 1240.00   76.36
  -7   2   5 1331.00   81.63
   7  -2  -6   12.40    5.12
   7  -2  -6   18.53    6.17
  -7   2   6   12.74    4.11
  -7   2   6   20.01    5.11
   7  -2  -7  551.90   34.93
   7  -2  -7  506.60   31.75
  -7   2   7  447.90   28.28
  -7   2   7  484.30   30.14
   7  -2  -8   26.53    5.72
   7  -2  -8   36.72    7.14
  -7   2   8   17.76    4.52
  -7   2   8   31.36    6.03
   7  -2  -9  418.10   27.30
   7  -2  -9  377.10   24.12
  -7   2   9  363.60   23.58
  -7   2   9  412.50   26.01
   7  -2 -10   13.95    5.17
   7  -2 -10   10.90    8.42
  -7   2  10   14.38    5.69
  -7   2  10   21.96    6.52
   7  -2 -11  140.60   12.33
   7  -2 -11  138.80   11.08
  -7   2  11  137.80   11.42
  -7   2  11  167.90   12.32
   7  -2 -12   -2.06    5.71
   7  -2 -12   -3.92    9.95
  -7   2  12    2.63    6.01
  -7   2  12    7.08    7.80
   8  -2  11    6.00    9.60
   8  -2  11   -4.69   12.73
  -8   2 -11    8.27   10.21
  -8   2 -11   -6.67   12.59
   8  -2  10  170.80   14.89
   8  -2  10  208.30   16.87
  -8   2 -10  186.90   15.37
  -8   2 -10  201.30   15.59
   8  -2   9    5.55    8.70
   8  -2   9   -2.97    9.94
  -8   2  -9    6.02    8.10
  -8   2  -9   17.92    8.33
   8  -2   8  656.90   41.43
   8  -2   8  736.10   46.42
  -8   2  -8  709.70   44.59
  -8   2  -8  732.00   45.83
   8  -2   7    5.58    7.41
   8  -2   7   -0.15    7.83
  -8   2  -7   -1.95    7.54
  -8   2  -7   -9.47    7.86
   8  -2   6 1603.00   98.63
   8  -2   6 1572.00   96.81
  -8   2  -6 1549.00   95.24
  -8   2  -6 1572.00   96.61
   8  -2   5   31.90    6.92
   8  -2   5   49.93    8.64
  -8   2  -5   29.11    6.29
  -8   2  -5   33.51    6.91
   8  -2   4  164.50   12.65
   8  -2   4  168.60   12.48
  -8   2  -4  172.30   12.32
  -8   2  -4  170.10   12.40
   8  -2   3   20.93    5.83
   8  -2   3   16.85    6.11
  -8   2  -3   27.78    5.92
  -8   2  -3   27.96    5.79
   8  -2   2 1037.00   64.14
   8  -2   2  927.80   57.39
  -8   2  -2 1034.00   63.75
  -8   2  -2 1022.00   63.22
   8  -2   1   14.46    4.88
   8  -2   1   17.92    5.98
  -8   2  -1   14.35    6.21
  -8   2  -1   15.11    5.17
   8  -2   0 1374.00   84.58
   8  -2   0 1336.00   82.21
  -8   2   0 1404.00   86.22
  -8   2   0 1393.00   85.70
   8  -2  -1  120.00    9.67
   8  -2  -1  130.00   10.01
  -8   2   1  111.10    8.87
  -8   2   1  116.70    8.55
   8  -2  -2  290.60   19.10
   8  -2  -2  271.30   17.77
  -8   2   2  243.90   15.88
  -8   2   2  250.80   16.55
   8  -2  -3   -7.88    5.14
   8  -2  -3    3.63    5.16
  -8   2   3    5.81    4.01
  -8   2   3   15.34    4.94
   8  -2  -4  652.90   40.79
   8  -2  -4  577.80   36.17
  -8   2   4  571.90   35.48
  -8   2   4  573.60   35.89
   8  -2  -5   -5.77    6.47
   8  -2  -5   -7.64    5.25
  -8   2   5   -2.42    4.81
  -8   2   5    0.51    3.80
   8  -2  -6 1233.00   76.13
   8  -2  -6 1165.00   71.77
  -8   2   6 1116.00   68.87
  -8   2   6 1114.00   68.42
   8  -2  -7  117.00    9.20
   8  -2  -7  109.60    9.77
  -8   2   7  110.90    8.42
  -8   2   7   99.92    8.76
   8  -2  -8  924.90   57.20
   8  -2  -8 1019.00   63.33
  -8   2   8  881.80   54.67
  -8   2   8  965.90   59.44
   8  -2  -9   27.29    8.45
   8  -2  -9   29.81    6.58
  -8   2   9   27.72    5.70
  -8   2   9   21.68    6.11
   8  -2 -10  317.90   20.93
   8  -2 -10  333.00   22.49
  -8   2  10  349.70   22.50
  -8   2  10  345.40   22.76
   8  -2 -11  185.90   15.23
   8  -2 -11  163.40   12.81
  -8   2  11  166.20   12.98
  -8   2  11  192.10   13.90
   9  -2  10  -14.21   13.32
   9  -2  10   -0.64    9.36
  -9   2 -10   -4.06   11.30
  -9   2 -10    9.46   11.18
   9  -2   9  157.40   14.74
   9  -2   9  131.60   13.28
  -9   2  -9  155.40   14.69
  -9   2  -9  168.40   14.82
   9  -2   8    0.02    8.66
   9  -2   8   16.17   10.37
  -9   2  -8   16.49    8.99
  -9   2  -8   13.63    9.23
   9  -2   7  822.50   51.63
   9  -2   7  804.80   50.62
  -9   2  -7  782.50   48.98
  -9   2  -7  828.80   51.78
   9  -2   6   10.66    7.60
   9  -2   6   -6.79    8.94
  -9   2  -6   -0.23    7.44
  -9   2  -6   -0.50    7.44
   9  -2   5  734.40   46.01
   9  -2   5  789.00   49.41
  -9   2  -5  685.20   42.83
  -9   2  -5  711.80   44.49
   9  -2   4   24.29    7.25
   9  -2   4   19.46    7.66
  -9   2  -4   17.57    6.57
  -9   2  -4   19.04    6.04
   9  -2   3  837.40   52.05
   9  -2   3  827.40   51.48
  -9   2  -3  767.20   47.74
  -9   2  -3  851.90   52.82
   9  -2   2   44.18    6.83
   9  -2   2   52.74    7.36
  -9   2  -2   66.84    8.48
  -9   2  -2   42.90    6.55
   9  -2   1 1744.00  107.10
   9  -2   1 1862.00  114.50
  -9   2  -1 1942.00  119.30
  -9   2  -1 1850.00  113.50
   9  -2   0  129.20   10.16
   9  -2   0  130.00   11.12
  -9   2   0  125.90    9.97
  -9   2   0  134.60   10.02
   9  -2  -1 1501.00   92.30
   9  -2  -1 1501.00   92.40
  -9   2   1 1485.00   91.14
  -9   2   1 1552.00   95.47
   9  -2  -2   13.71    6.14
   9  -2  -2   13.21    6.53
  -9   2   2    8.05    4.64
  -9   2   2    5.73    5.93
   9  -2  -3  199.20   14.18
   9  -2  -3  190.10   13.52
  -9   2   3  159.30   10.83
  -9   2   3  177.10   12.92
   9  -2  -4   66.96    8.47
   9  -2  -4   88.48    8.41
  -9   2   4   69.37    7.56
  -9   2   4   78.93    6.59
   9  -2  -5 1053.00   65.13
   9  -2  -5 1050.00   64.83
  -9   2   5  978.90   60.55
  -9   2   5  981.20   60.34
   9  -2  -6   10.86    6.66
   9  -2  -6    8.89    5.45
  -9   2   6    5.95    5.48
  -9   2   6   -4.09    4.64
   9  -2  -7 1071.00   66.52
   9  -2  -7 1027.00   63.49
  -9   2   7 1056.00   64.94
  -9   2   7  955.10   59.18
   9  -2  -8    6.94    7.65
   9  -2  -8    3.68    6.13
  -9   2   8    7.76    5.02
  -9   2   8    8.82    6.84
   9  -2  -9  312.40   20.81
   9  -2  -9  292.80   21.00
  -9   2   9  328.40   21.14
  -9   2   9  274.60   18.75
   9  -2 -10   77.97   10.98
   9  -2 -10   54.03    8.33
  -9   2  10   58.97    8.89
  -9   2  10   56.23    7.09
  10  -2   8   92.81   11.26
  10  -2   8   86.83   13.22
 -10   2  -8   82.45   11.19
 -10   2  -8   64.24   11.27
  10  -2   7    6.96    9.49
  10  -2   7   18.55   10.07
 -10   2  -7   10.85    9.34
 -10   2  -7    7.08    9.87
  10  -2   6  392.60   25.96
  10  -2   6  389.80   26.35
 -10   2  -6  405.00   26.95
 -10   2  -6  410.30   27.03
  10  -2   5   15.30    8.06
  10  -2   5   27.93    9.09
 -10   2  -5    8.46    8.27
 -10   2  -5    1.14    7.82
  10  -2   4  254.90   18.34
  10  -2   4  222.90   16.25
 -10   2  -4  232.60   16.40
 -10   2  -4  238.40   16.56
  10  -2   3   87.50    9.35
  10  -2   3   94.70   10.24
 -10   2  -3   96.31    9.66
 -10   2  -3   74.10    8.66
  10  -2   2  620.50   38.97
  10  -2   2  653.60   40.94
 -10   2  -2  700.20   44.02
 -10   2  -2  688.00   42.99
  10  -2   1    8.17    6.78
  10  -2   1   10.96    6.70
 -10   2  -1    3.07    7.79
 -10   2  -1   11.36    6.11
  10  -2   0 1567.00   96.39
  10  -2   0 1629.00  100.10
 -10   2   0 1567.00   96.19
 -10   2   0 1703.00  104.80
  10  -2  -1   99.86    9.07
  10  -2  -1  106.50    9.53
 -10   2   1  100.80    8.51
 -10   2   1  103.10    9.91
  10  -2  -2  463.10   29.51
  10  -2  -2  449.80   28.72
 -10   2   2  385.00   24.34
 -10   2   2  449.90   28.90
  10  -2  -3   10.01    7.17
  10  -2  -3    3.71    6.57
 -10   2   3   -9.06    6.12
 -10   2   3    2.51    4.97
  10  -2  -4  818.70   51.22
  10  -2  -4  728.00   45.41
 -10   2   4  703.30   43.52
 -10   2   4  724.80   45.32
  10  -2  -5   41.87    6.90
  10  -2  -5   36.93    7.32
 -10   2   5   31.82    5.30
 -10   2   5   47.20    6.79
  10  -2  -6  931.40   58.04
  10  -2  -6  916.70   56.79
 -10   2   6  926.00   57.11
 -10   2   6  863.60   53.66
  10  -2  -7   -6.99    7.01
  10  -2  -7    4.87    8.77
 -10   2   7   -4.00    5.63
 -10   2   7    5.40    7.53
  10  -2  -8  713.30   44.69
  10  -2  -8  709.50   45.10
 -10   2   8  665.90   41.91
 -10   2   8  689.70   42.79
  10  -2  -9  146.30   12.33
  10  -2  -9  157.40   15.12
 -10   2   9  160.60   13.15
 -10   2   9  170.20   12.37
  11  -2   7  109.90   14.47
  11  -2   7  143.70   13.40
 -11   2  -7  133.10   12.99
 -11   2  -7  143.50   14.14
  11  -2   6   13.79    9.82
  11  -2   6   -1.50   11.92
 -11   2  -6    8.15   10.57
 -11   2  -6   15.70    8.91
  11  -2   5  111.00   11.11
  11  -2   5  110.70   12.71
 -11   2  -5  125.30   12.44
 -11   2  -5  127.20   12.92
  11  -2   4   79.64    9.93
  11  -2   4   54.24   10.76
 -11   2  -4   61.06    9.74
 -11   2  -4   78.02   10.18
  11  -2   3  230.10   16.59
  11  -2   3  247.70   18.06
 -11   2  -3  229.10   17.03
 -11   2  -3  252.40   17.98
  11  -2   2  265.20   18.50
  11  -2   2  292.90   19.84
 -11   2  -2  302.50   21.22
 -11   2  -2  284.10   19.35
  11  -2   1  334.20   22.00
  11  -2   1  310.40   21.12
 -11   2  -1  334.10   23.00
 -11   2  -1  276.80   18.51
  11  -2   0    7.30    7.14
  11  -2   0    4.47    7.95
 -11   2   0    1.58    6.34
 -11   2   0    1.87    9.09
  11  -2  -1  397.10   25.80
  11  -2  -1  394.80   25.55
 -11   2   1  331.20   21.67
 -11   2   1  397.50   26.02
  11  -2  -2   -7.91    8.02
  11  -2  -2    5.76    7.08
 -11   2   2   -0.79    5.93
 -11   2   2   -6.17    8.62
  11  -2  -3  289.90   20.08
  11  -2  -3  256.40   17.93
 -11   2   3  249.10   16.60
 -11   2   3  266.30   18.60
  11  -2  -4   34.33    7.96
  11  -2  -4   23.03    8.65
 -11   2   4    2.75    8.30
 -11   2   4    8.01    5.61
  11  -2  -5  375.20   24.83
  11  -2  -5  383.30   25.00
 -11   2   5  369.80   24.34
 -11   2   5  347.80   22.41
  11  -2  -6  153.50   13.77
  11  -2  -6  137.00   11.96
 -11   2   6  147.00   11.15
 -11   2   6  149.50   12.31
  11  -2  -7  608.30   38.26
  11  -2  -7  580.10   37.37
 -11   2   7  610.80   38.30
 -11   2   7  584.50   37.17
  11  -2  -8   11.12    7.59
  11  -2  -8   18.49   11.10
 -11   2   8   12.40    9.40
 -11   2   8   17.07    7.79
  12  -2   5   50.45   11.10
  12  -2   5   54.75   13.85
 -12   2  -5   43.28   10.71
 -12   2  -5   36.11   11.78
  12  -2   4  191.30   15.76
  12  -2   4  234.90   19.36
 -12   2  -4  215.00   16.34
 -12   2  -4  186.40   15.64
  12  -2   3   59.81   11.38
  12  -2   3   57.92   10.57
 -12   2  -3   53.48    9.07
 -12   2  -3   60.71   10.90
  12  -2   2  136.40   13.15
  12  -2   2  151.00   13.01
 -12   2  -2  155.70   14.34
 -12   2  -2  144.40   11.77
  12  -2   1    5.45    8.40
  12  -2   1   -1.62    8.57
 -12   2  -1   -2.30    7.33
 -12   2  -1   20.13   10.74
  12  -2   0  239.90   17.36
  12  -2   0  246.90   17.95
 -12   2   0  210.70   15.36
 -12   2   0  251.40   19.06
  12  -2  -1   17.36    8.65
  12  -2  -1   13.58    8.87
 -12   2   1   15.05    7.01
 -12   2   1   16.33   10.94
  12  -2  -2  102.40   11.71
  12  -2  -2  107.80   12.04
 -12   2   2  106.40   12.32
 -12   2   2  104.30    9.44
  12  -2  -3  161.60   14.33
  12  -2  -3  136.20   12.72
 -12   2   3  151.70   13.44
 -12   2   3  125.90   10.39
  12  -2  -4  295.20   20.52
  12  -2  -4  293.60   20.15
 -12   2   4  274.90   18.28
 -12   2   4  301.10   21.44
  12  -2  -5   -7.57    8.85
  12  -2  -5  -11.98   10.17
 -12   2   5   -3.01    6.88
 -12   2   5   -4.01    9.27
  12  -2  -6  141.70   12.98
  12  -2  -6  141.00   14.13
 -12   2   6  138.60   12.88
 -12   2   6  178.90   14.14
  13  -2   1   96.62   13.55
  13  -2   1  101.80   11.49
 -13   2  -1  108.60   11.86
 -13   2  -1  117.20   13.21
  13  -2   0   38.37   12.23
  13  -2   0   45.77    9.90
 -13   2   0   60.35   13.20
 -13   2   0   46.75    9.13
  13  -2  -1   23.01   10.80
  13  -2  -1   20.51   12.56
 -13   2   1   22.40   12.18
 -13   2   1   29.42    8.21
  13  -2  -2    9.60   12.08
  13  -2  -2   10.51   10.82
 -13   2   2    8.13    7.51
 -13   2   2  -11.30   11.78
 -10  -3   8  113.00   15.88
  10   3  -8  112.60   15.84
 -10  -3   7  311.90   22.90
 -10  -3   7  343.40   23.54
  10   3  -7  313.20   23.39
 -10  -3   6    7.05    9.66
 -10  -3   6   -2.35    7.29
  10   3  -6   -8.14    6.59
  10   3  -6   -4.25   10.30
  -9  -3   9    8.77   11.63
  -9  -3   9   -6.54   11.84
   9   3  -9    5.88   14.06
   9   3  -9   19.46    8.82
  -9  -3   8  485.60   32.69
  -9  -3   8  581.40   37.28
   9   3  -8  520.00   34.71
   9   3  -8  554.50   35.19
  -9  -3   7    4.66   10.70
  -9  -3   7    6.58    8.42
   9   3  -7    5.88    6.88
   9   3  -7    2.38   11.69
  -9  -3   6  837.00   52.11
  -9  -3   6  794.50   49.97
   9   3  -6  768.90   47.70
   9   3  -6  756.10   47.62
  -9  -3   5   78.22    8.98
  -9  -3   5   91.47    8.55
   9   3  -5   77.88    8.39
  -8  -3  10  123.80   14.32
   8   3 -10   87.90   14.72
  -8  -3   9  403.80   27.56
  -8  -3   9  455.50   30.03
   8   3  -9  371.30   26.60
   8   3  -9  444.50   28.39
  -8  -3   8   51.70   10.72
  -8  -3   8   68.24   10.04
   8   3  -8   64.89    7.91
   8   3  -8   57.59   11.23
  -8  -3   7  627.60   40.26
  -8  -3   7  703.90   44.16
   8   3  -7  684.50   42.57
   8   3  -7  653.50   41.69
  -8  -3   6   14.92    7.15
  -8  -3   6   15.50    8.58
   8   3  -6   21.62    5.66
   8   3  -6    6.52    9.27
  -8  -3   5  309.10   20.70
  -8  -3   5  321.10   20.93
   8   3  -5  303.30   19.44
   8   3  -5  305.70   20.40
  -8  -3   4   28.52    5.62
  -8  -3   4   31.34    6.18
   8   3  -4   10.33    5.26
   8   3  -4   26.01    4.38
  -8  -3  -7  380.60   24.53
  -8  -3  -7  406.80   25.85
   8   3   7  384.70   24.38
   8   3   7  387.50   24.69
  -8  -3  -8   -3.83    8.32
  -8  -3  -8    8.87    9.10
   8   3   8    8.28    6.95
   8   3   8   -5.21    6.74
  -8  -3  -9  311.30   22.52
  -8  -3  -9  354.10   24.42
  -7  -3  11   67.01   11.64
   7   3 -11   49.29   12.79
   7   3 -11   68.23    9.25
  -7  -3  10  217.00   17.29
   7   3 -10  175.30   17.02
   7   3 -10  214.90   15.27
  -7  -3   9    0.63    9.54
  -7  -3   9   12.00    8.80
   7   3  -9    3.02    6.90
   7   3  -9  -16.28   11.24
  -7  -3   8  568.70   36.23
  -7  -3   8  516.10   33.50
   7   3  -8  501.10   32.59
   7   3  -8  580.30   36.28
  -7  -3   7   29.92    8.21
  -7  -3   7   31.04    9.24
   7   3  -7   14.68    8.38
   7   3  -7   18.15    5.87
  -7  -3   6  352.80   23.61
  -7  -3   6  381.90   24.80
   7   3  -6  360.80   22.94
   7   3  -6  332.50   22.24
  -7  -3   5   -6.25    6.90
  -7  -3   5    2.02    6.13
   7   3  -5    0.12    4.42
   7   3  -5   -1.95    6.85
  -7  -3   4  107.10    8.76
  -7  -3   4  124.40    9.83
   7   3  -4  139.90    9.67
   7   3  -4  129.00    9.71
  -7  -3   3   18.84    4.60
  -7  -3   3   17.85    4.86
   7   3  -3   26.34    3.88
   7   3  -3   15.16    4.42
  -7  -3  -5  234.40   15.13
  -7  -3  -5  223.90   14.38
   7   3   5  215.00   13.67
   7   3   5  220.80   14.13
  -7  -3  -6  552.60   34.45
  -7  -3  -6  542.60   34.00
   7   3   6  520.60   32.33
   7   3   6  498.60   31.10
  -7  -3  -7    7.10    6.93
  -7  -3  -7   28.12    7.66
   7   3   7   16.01    6.00
   7   3   7    8.38    5.05
  -7  -3  -8  353.90   23.81
  -7  -3  -8  326.60   21.39
   7   3   8  313.60   20.66
   7   3   8  317.00   20.76
  -7  -3  -9   18.16   11.27
  -7  -3  -9   -3.01    7.64
   7   3   9   -4.90    7.74
   7   3   9   -5.12    8.93
  -7  -3 -10  213.50   17.06
  -7  -3 -10  193.10   17.88
   7   3  10  182.50   15.02
   7   3  10  167.70   14.05
  -6  -3  11   84.53   12.49
  -6  -3  11   52.30    8.82
   6   3 -11   71.12   11.88
  -6  -3  10   -6.09    9.71
  -6  -3  10   -2.21    6.71
   6   3 -10    9.14    7.22
   6   3 -10    7.04   11.06
  -6  -3   9  362.70   24.33
   6   3  -9  350.70   24.23
  -6  -3   8    0.63    7.94
  -6  -3   8   16.23    8.21
   6   3  -8   12.19    8.11
   6   3  -8    4.38    6.28
  -6  -3   7  906.30   56.42
  -6  -3   7  985.30   61.17
   6   3  -7 1025.00   63.23
   6   3  -7  974.00   60.61
  -6  -3   6   49.68    7.88
  -6  -3   6   47.36    7.58
   6   3  -6   47.90    6.27
   6   3  -6   38.40    8.16
  -6  -3   5  126.70   10.14
  -6  -3   5  131.20   10.47
   6   3  -5  108.90    9.88
   6   3  -5  139.10   10.10
  -6  -3   4   -3.41    4.88
  -6  -3   4   -3.08    5.09
   6   3  -4   -1.60    4.37
   6   3  -4    4.30    5.66
  -6  -3   3  380.90   23.95
  -6  -3   3  409.10   25.74
   6   3  -3  391.10   24.63
   6   3  -3  428.40   26.67
  -6  -3   2    7.82    3.68
  -6  -3   2   -0.12    3.33
   6   3  -2    0.21    3.01
   6   3  -2   11.90    3.64
  -6  -3   1  993.50   61.09
  -6  -3   1  948.20   58.30
   6   3  -1 1170.00   71.88
   6   3  -1  934.30   57.49
  -6  -3  -3  143.20    9.49
   6   3   3  158.10   10.07
   6   3   3  129.30    8.49
  -6  -3  -4  137.80    9.35
  -6  -3  -4  163.20   11.04
   6   3   4  135.60    9.09
  -6  -3  -5  534.60   33.28
  -6  -3  -5  579.30   36.05
   6   3   5  570.30   35.23
   6   3   5  531.70   33.00
  -6  -3  -6  141.90   10.72
  -6  -3  -6  157.00   11.70
   6   3   6  146.40   10.17
   6   3   6  140.90   10.07
  -6  -3  -7  636.10   39.66
  -6  -3  -7  648.50   40.61
   6   3   7  625.90   39.00
   6   3   7  625.20   38.76
  -6  -3  -8   -3.34    6.18
  -6  -3  -8   -6.10    7.30
   6   3   8    1.13    6.34
   6   3   8   -4.46    5.71
  -6  -3  -9   84.01    8.64
  -6  -3  -9   81.53   10.68
   6   3   9   68.33    8.59
   6   3   9   77.73    8.28
  -6  -3 -10  188.80   14.15
  -6  -3 -10  207.30   16.84
   6   3  10  196.50   14.75
   6   3  10  204.50   14.94
  -6  -3 -11  185.10   15.04
  -6  -3 -11  215.70   17.84
   6   3  11  186.70   15.55
   6   3  11  198.40   15.85
  -5  -3  12  135.80   14.20
   5   3 -12  151.20   12.57
  -5  -3  11   -4.38    7.36
  -5  -3  11    5.86    9.92
   5   3 -11   18.84   11.23
   5   3 -11   10.61    7.25
  -5  -3  10  282.70   19.87
  -5  -3  10  236.70   16.05
   5   3 -10  266.50   19.88
  -5  -3   9   72.53    9.24
  -5  -3   9   78.47    9.55
   5   3  -9   93.08    8.57
   5   3  -9   71.35   10.56
  -5  -3   8  752.50   47.04
  -5  -3   8  813.80   50.70
   5   3  -8  858.50   53.15
   5   3  -8  791.10   49.53
  -5  -3   7   10.70    7.21
  -5  -3   7   19.18    6.63
   5   3  -7   24.78    5.89
   5   3  -7    8.14    8.39
  -5  -3   6  598.90   37.61
  -5  -3   6  600.30   37.56
   5   3  -6  619.60   38.98
   5   3  -6  682.60   42.43
  -5  -3   5    6.31    5.41
  -5  -3   5   10.11    5.97
   5   3  -5    7.39    6.44
   5   3  -5   15.34    5.01
  -5  -3   4  582.60   36.22
  -5  -3   4  567.80   35.40
   5   3  -4  657.20   40.72
   5   3  -4  613.50   38.32
  -5  -3   3    3.25    4.20
  -5  -3   3   -2.10    4.64
   5   3  -3   -6.76    5.09
   5   3  -3   -1.93    3.77
  -5  -3   2 1063.00   65.33
  -5  -3   2 1110.00   68.16
   5   3  -2 1059.00   65.11
   5   3  -2 1144.00   70.19
  -5  -3   1  114.60    8.01
  -5  -3   1  115.30    7.91
   5   3  -1  115.30    8.22
   5   3  -1  114.30    7.73
  -5  -3   0 1627.00   99.67
  -5  -3   0 1695.00  103.90
   5   3   0 1665.00  102.00
   5   3   0 1567.00   96.06
  -5  -3  -1  963.10   59.12
  -5  -3  -1  915.10   56.24
   5   3   1  904.60   55.54
   5   3   1  786.90   48.35
  -5  -3  -2  223.90   14.21
  -5  -3  -2  188.90   12.27
   5   3   2  217.00   13.80
   5   3   2  214.00   13.76
  -5  -3  -3  149.00   10.01
  -5  -3  -3  174.60   11.42
   5   3   3  146.70    9.90
   5   3   3  180.80   11.79
  -5  -3  -4  469.80   29.35
  -5  -3  -4  476.10   29.63
   5   3   4  435.70   27.29
   5   3   4  531.60   32.94
  -5  -3  -5    4.66    3.99
  -5  -3  -5   15.30    4.34
   5   3   5   11.41    4.22
   5   3   5    8.32    3.64
  -5  -3  -6 1110.00   68.34
  -5  -3  -6 1138.00   70.07
   5   3   6 1219.00   74.82
   5   3   6 1062.00   65.38
  -5  -3  -7  335.10   21.56
  -5  -3  -7  344.40   22.53
   5   3   7  361.60   22.79
   5   3   7  325.00   20.86
  -5  -3  -8  195.30   13.90
  -5  -3  -8  216.40   15.38
   5   3   8  205.20   14.14
   5   3   8  206.60   13.89
  -5  -3  -9   42.88    8.64
  -5  -3  -9   36.22    6.57
   5   3   9   40.78    6.86
   5   3   9   35.23    6.04
  -5  -3 -10  101.30    9.73
  -5  -3 -10  107.10   11.48
   5   3  10  106.70    9.57
   5   3  10  100.20    9.18
  -5  -3 -11   60.70   10.34
  -5  -3 -11   51.98    8.67
   5   3  11   66.49    8.91
   5   3  11   57.27    9.54
  -4  -3  12   38.14    7.22
  -4  -3  12   35.73   10.12
   4   3 -12   58.24    8.44
   4   3 -12   50.34   11.47
  -4  -3  11  730.30   46.15
   4   3 -11  606.60   39.04
   4   3 -11  770.90   48.04
  -4  -3  10  210.70   15.85
   4   3 -10  232.50   15.97
   4   3 -10  228.80   17.50
  -4  -3   9  607.80   38.18
  -4  -3   9  634.30   40.08
   4   3  -9  628.20   40.00
   4   3  -9  668.00   41.52
  -4  -3   8  153.30   12.16
  -4  -3   8  176.40   13.32
   4   3  -8  194.40   13.38
   4   3  -8  154.50   13.12
  -4  -3   7  924.50   57.33
  -4  -3   7  978.40   60.53
   4   3  -7 1016.00   62.94
   4   3  -7 1127.00   69.41
  -4  -3   6  119.90    9.75
  -4  -3   6  114.20    9.25
   4   3  -6  140.20   10.55
   4   3  -6  134.90   10.84
  -4  -3   5  860.60   53.20
  -4  -3   5  887.30   54.89
   4   3  -5  971.50   59.89
   4   3  -5  889.80   55.15
  -4  -3   4  115.60    8.68
  -4  -3   4  118.30    9.15
   4   3  -4  112.60    9.19
   4   3  -4  120.50    8.80
  -4  -3   3 1319.00   81.07
  -4  -3   3 1309.00   80.34
   4   3  -3 1259.00   77.41
   4   3  -3 1298.00   79.68
  -4  -3   2  286.20   18.23
  -4  -3   2  279.80   17.85
   4   3  -2  311.20   19.86
   4   3  -2  310.80   19.72
  -4  -3   1 2570.00  157.20
  -4  -3   1 2476.00  151.50
   4   3  -1 2581.00  157.90
   4   3  -1 2363.00  144.60
  -4  -3   0    4.36    3.46
  -4  -3   0    1.86    3.62
   4   3   0   -2.85    4.13
   4   3   0    2.17    3.08
  -4  -3  -1 1141.00   70.05
  -4  -3  -1 1116.00   68.43
   4   3   1 1077.00   66.05
   4   3   1 1238.00   76.05
  -4  -3  -2   14.72    3.55
  -4  -3  -2    2.49    3.57
   4   3   2   13.21    3.25
   4   3   2    5.70    3.64
  -4  -3  -3 1083.00   66.49
  -4  -3  -3 1005.00   61.77
   4   3   3  954.30   58.72
   4   3   3 1054.00   64.69
  -4  -3  -4   14.57    3.99
  -4  -3  -4   15.12    3.74
   4   3   4   13.68    4.15
   4   3   4   18.07    3.56
  -4  -3  -5 1393.00   85.55
  -4  -3  -5 1465.00   89.86
   4   3   5 1291.00   79.34
   4   3   5 1514.00   92.75
  -4  -3  -6  139.10    9.81
  -4  -3  -6  140.20   10.00
   4   3   6  178.10   11.97
   4   3   6  162.30   11.44
  -4  -3  -7 1485.00   91.18
  -4  -3  -7 1492.00   91.69
   4   3   7 1611.00   98.80
   4   3   7 1536.00   94.45
  -4  -3  -8  522.20   32.70
  -4  -3  -8  563.80   35.35
   4   3   8  597.00   37.14
   4   3   8  579.10   36.46
  -4  -3  -9  223.20   15.64
  -4  -3  -9  194.30   13.68
   4   3   9  230.00   15.83
   4   3   9  248.50   16.51
  -4  -3 -10    0.13    7.76
  -4  -3 -10   -8.59    6.04
   4   3  10    5.71    6.28
   4   3  10   -0.24    6.16
  -4  -3 -11  205.00   15.08
  -4  -3 -11  246.30   18.24
   4   3  11  220.90   15.65
   4   3  11  237.30   16.62
  -4  -3 -12   -2.78    9.73
  -4  -3 -12   -2.39    7.94
   4   3  12   -8.11    8.00
   4   3  12  -11.45    9.29
  -3  -3  13  136.10   13.10
  -3  -3  13   90.21   13.90
   3   3 -13  124.50   12.74
   3   3 -13  134.40   15.03
  -3  -3  12  470.80   31.04
   3   3 -12  516.60   34.17
   3   3 -12  518.10   32.77
  -3  -3  11   77.83   10.04
  -3  -3  11   95.22    9.86
   3   3 -11   85.35    8.35
   3   3 -11   82.35   11.67
  -3  -3  10  869.30   54.16
  -3  -3  10  858.20   53.30
   3   3 -10  884.20   55.47
   3   3 -10  993.00   61.24
  -3  -3   9    9.57    6.87
  -3  -3   9    5.49    7.12
   3   3  -9   -2.58    8.61
   3   3  -9    4.80    5.43
  -3  -3   8 1002.00   61.96
  -3  -3   8 1103.00   68.33
   3   3  -8 1016.00   63.29
   3   3  -8 1117.00   68.84
  -3  -3   7   13.47    6.27
  -3  -3   7   22.08    6.23
   3   3  -7   11.84    7.23
   3   3  -7   18.34    5.86
  -3  -3   6  978.00   60.39
  -3  -3   6  999.60   61.84
   3   3  -6 1016.00   62.68
   3   3  -6  984.00   60.95
  -3  -3   5   19.61    5.60
  -3  -3   5   15.16    5.16
   3   3  -5   23.74    6.43
   3   3  -5   14.30    4.73
  -3  -3   4 2104.00  128.90
  -3  -3   4 2204.00  135.00
   3   3  -4 2265.00  138.90
   3   3  -4 2190.00  134.10
  -3  -3   3  383.80   24.29
  -3  -3   3  389.00   24.46
   3   3  -3  371.30   23.38
   3   3  -3  360.00   22.95
  -3  -3   2 2110.00  129.20
  -3  -3   2 2054.00  125.80
   3   3  -2 1898.00  116.20
   3   3  -2 2077.00  127.30
  -3  -3   1    6.93    3.27
  -3  -3   1    5.29    3.86
   3   3  -1    7.39    4.16
   3   3  -1    6.32    3.21
  -3  -3   0 1776.00  108.80
  -3  -3   0 1767.00  108.20
   3   3   0 1863.00  114.10
   3   3   0 1970.00  120.70
  -3  -3  -1    0.49    3.63
  -3  -3  -1    4.11    3.63
   3   3   1   -1.23    3.38
   3   3   1   -1.37    3.62
  -3  -3  -2 1462.00   89.59
  -3  -3  -2 1513.00   92.75
   3   3   2 1420.00   87.13
  -3  -3  -3  250.10   16.02
  -3  -3  -3  248.20   16.07
   3   3   3  206.60   13.29
   3   3   3  202.10   13.23
  -3  -3  -4 1267.00   77.75
  -3  -3  -4 1151.00   70.75
   3   3   4 1182.00   72.54
   3   3   4 1146.00   70.47
  -3  -3  -5  423.10   26.54
  -3  -3  -5  460.10   28.76
   3   3   5  456.30   28.40
   3   3   5  420.00   26.49
  -3  -3  -6 2207.00  135.10
  -3  -3  -6 2125.00  130.20
   3   3   6 2268.00  138.80
   3   3   6 2133.00  130.80
  -3  -3  -7  184.10   12.48
  -3  -3  -7  180.90   12.28
   3   3   7  174.20   12.41
   3   3   7  200.80   13.35
  -3  -3  -8  793.60   49.13
  -3  -3  -8  751.90   46.63
   3   3   8  811.50   50.51
   3   3   8  880.60   54.32
  -3  -3  -9   -1.34    5.83
  -3  -3  -9    6.56    5.08
   3   3   9   15.42    5.69
   3   3   9    8.16    5.77
  -3  -3 -10  459.70   29.25
  -3  -3 -10  477.40   30.27
   3   3  10  480.40   30.50
   3   3  10  562.40   35.48
  -3  -3 -11    6.17    7.28
  -3  -3 -11    0.79    8.53
   3   3  11   15.74    6.94
   3   3  11   11.08    7.16
  -3  -3 -12  343.60   22.75
   3   3  12  367.40   24.13
  -2  -3  13   34.75   11.94
  -2  -3  13   66.32   10.50
   2   3 -13   39.74   11.51
   2   3 -13   54.94   10.51
  -2  -3  12  189.80   15.96
  -2  -3  12  186.40   14.91
   2   3 -12  202.10   15.13
   2   3 -12  200.50   16.60
  -2  -3  11  680.40   42.82
  -2  -3  11  687.60   43.53
   2   3 -11  693.40   44.07
   2   3 -11  745.70   46.36
  -2  -3  10    6.07    8.59
  -2  -3  10   25.45    7.18
   2   3 -10   13.49    6.50
   2   3 -10   33.98   10.02
  -2  -3   9  643.30   40.53
  -2  -3   9  704.00   44.05
   2   3  -9  723.70   44.94
   2   3  -9  689.50   43.59
  -2  -3   8   46.40    7.38
  -2  -3   8   64.08    7.92
   2   3  -8   45.01    8.24
   2   3  -8   60.51    6.62
  -2  -3   7  333.20   21.78
  -2  -3   7  360.20   23.10
   2   3  -7  347.50   22.37
   2   3  -7  352.90   23.09
  -2  -3   6  892.80   55.19
  -2  -3   6  879.70   54.48
   2   3  -6  914.60   56.70
   2   3  -6  940.80   58.09
  -2  -3   5 1688.00  103.60
  -2  -3   5 1754.00  107.60
   2   3  -5 1786.00  109.70
   2   3  -5 1734.00  106.40
  -2  -3   4    8.45    4.70
  -2  -3   4    1.74    5.40
   2   3  -4   11.08    4.64
   2   3  -4    2.80    5.46
  -2  -3   3 2156.00  132.00
  -2  -3   3 2179.00  133.40
   2   3  -3 2179.00  133.50
   2   3  -3 2006.00  122.90
  -2  -3   2   20.01    4.61
  -2  -3   2   18.85    4.32
   2   3  -2    8.75    4.16
   2   3  -2   13.31    3.85
  -2  -3   1 1828.00  112.00
  -2  -3   1 1692.00  103.70
   2   3  -1 1767.00  108.30
   2   3  -1 1837.00  112.60
  -2  -3   0   76.36    6.22
  -2  -3   0   74.04    5.54
   2   3   0   85.04    6.69
   2   3   0   90.88    6.99
  -2  -3  -1 1062.00   65.15
  -2  -3  -1 1093.00   67.17
   2   3   1 1161.00   71.34
   2   3   1 1136.00   69.72
  -2  -3  -2   40.93    4.56
  -2  -3  -2   35.83    4.52
   2   3   2   41.49    4.65
   2   3   2   27.74    3.59
  -2  -3  -3 2144.00  131.20
  -2  -3  -3 2028.00  124.20
   2   3   3 2000.00  122.50
   2   3   3 2029.00  124.20
  -2  -3  -4  325.40   20.59
  -2  -3  -4  385.60   24.20
   2   3   4  335.50   21.25
   2   3   4  315.20   19.86
  -2  -3  -5 1387.00   85.13
  -2  -3  -5 1332.00   81.86
   2   3   5 1326.00   81.33
   2   3   5 1275.00   78.41
  -2  -3  -6   31.22    5.05
  -2  -3  -6   29.14    4.72
   2   3   6   24.18    4.21
   2   3   6   26.54    4.49
  -2  -3  -7  805.80   49.81
  -2  -3  -7  851.30   52.58
   2   3   7  883.80   54.49
   2   3   7  766.00   47.58
  -2  -3  -8   64.68    6.22
  -2  -3  -8   63.96    6.52
   2   3   8   74.10    6.54
   2   3   8   75.83    7.06
  -2  -3  -9  625.40   38.95
  -2  -3  -9  650.80   40.55
   2   3   9  644.00   40.17
   2   3   9  726.10   45.10
  -2  -3 -10   67.06    7.83
  -2  -3 -10   51.39    6.34
   2   3  10   60.51    7.44
   2   3  10   68.96    7.71
  -2  -3 -11  357.70   23.11
  -2  -3 -11  286.20   19.17
   2   3  11  303.00   20.16
  -2  -3 -12   14.78    8.42
  -2  -3 -12    8.24    6.78
   2   3  12   17.48    7.56
   2   3  12    1.89    7.29
  -2  -3 -13  568.80   36.56
   2   3  13  545.80   34.70
  -1  -3  13   14.95   11.49
  -1  -3  13    1.50    8.35
   1   3 -13   21.17   11.96
   1   3 -13  -15.73    8.82
  -1  -3  12  291.10   21.56
  -1  -3  12  269.70   18.79
   1   3 -12  261.30   20.07
   1   3 -12  278.70   19.30
  -1  -3  11    8.34    9.29
  -1  -3  11   15.86    7.66
   1   3 -11   19.53   10.58
   1   3 -11   15.17    6.79
  -1  -3  10  603.00   38.39
  -1  -3  10  559.80   35.38
   1   3 -10  591.20   37.91
   1   3 -10  630.90   39.35
  -1  -3   9   92.25    9.49
  -1  -3   9  109.90    9.57
   1   3  -9  112.20    9.03
   1   3  -9  103.70   11.45
  -1  -3   8  270.60   18.49
  -1  -3   8  266.50   17.96
   1   3  -8  270.40   19.04
   1   3  -8  289.90   18.77
  -1  -3   7  162.70   11.99
  -1  -3   7  150.30   11.62
   1   3  -7  171.00   13.15
   1   3  -7  163.40   11.96
  -1  -3   6  190.90   13.47
  -1  -3   6  199.30   13.76
   1   3  -6  207.40   14.82
   1   3  -6  192.40   13.26
  -1  -3   5  457.80   28.83
  -1  -3   5  443.00   27.96
   1   3  -5  479.70   30.18
   1   3  -5  480.90   30.58
  -1  -3   4 1601.00   98.25
  -1  -3   4 1559.00   95.72
   1   3  -4 1638.00  100.70
   1   3  -4 1467.00   90.08
  -1  -3   3   66.33    6.64
  -1  -3   3   62.78    5.77
   1   3  -3   54.42    5.23
   1   3  -3   60.65    6.00
  -1  -3   2 1213.00   74.49
  -1  -3   2 1262.00   77.46
   1   3  -2 1269.00   77.99
   1   3  -2 1237.00   76.01
  -1  -3   1   10.23    4.10
  -1  -3   1   16.72    3.49
   1   3  -1    8.73    4.00
   1   3  -1   14.67    4.20
  -1  -3   0  171.30   11.47
  -1  -3   0  159.70   10.61
   1   3   0  174.60   11.72
   1   3   0  183.50   12.21
  -1  -3  -1  104.80    7.65
  -1  -3  -1   93.79    6.77
   1   3   1  113.90    8.02
   1   3   1   97.04    7.25
  -1  -3  -2 1737.00  106.40
  -1  -3  -2 1727.00  105.90
   1   3   2 1819.00  111.50
   1   3   2 1719.00  105.30
  -1  -3  -3   66.48    5.71
  -1  -3  -3   65.02    5.67
   1   3   3   56.60    5.28
   1   3   3   55.21    5.35
  -1  -3  -4 1798.00  110.10
  -1  -3  -4 1650.00  101.20
   1   3   4 1756.00  107.70
   1   3   4 1613.00   98.83
  -1  -3  -5   95.84    7.54
  -1  -3  -5   90.61    7.27
   1   3   5   84.91    6.61
   1   3   5   79.02    6.66
  -1  -3  -6  758.90   46.96
  -1  -3  -6  894.00   55.14
   1   3   6  855.90   52.77
   1   3   6  779.00   48.28
  -1  -3  -7    1.79    4.24
  -1  -3  -7    1.31    4.84
   1   3   7    3.09    4.32
   1   3   7    7.70    5.20
  -1  -3  -8  415.00   26.18
  -1  -3  -8  475.30   29.84
   1   3   8  438.70   27.88
   1   3   8  481.10   30.14
  -1  -3  -9  256.90   16.86
  -1  -3  -9  226.10   15.09
   1   3   9  282.80   18.55
   1   3   9  256.70   17.09
  -1  -3 -10  406.60   25.78
  -1  -3 -10  445.40   28.23
   1   3  10  423.30   27.05
   1   3  10  542.30   34.13
  -1  -3 -11    2.02    6.80
  -1  -3 -11   -5.25    5.41
   1   3  11   -2.88    6.80
   1   3  11   -0.86    6.37
  -1  -3 -12  209.80   14.99
   1   3  12  234.60   16.64
  -1  -3 -13   -5.55    8.59
  -1  -3 -13   27.28    9.23
   1   3  13   15.96    8.71
   1   3  13   13.49    7.53
   0  -3  12   -4.03   10.12
   0  -3  12   13.14    8.76
   0   3 -12   12.63   11.01
   0   3 -12   11.23    8.02
   0  -3  11  356.70   23.99
   0  -3  11  354.30   23.34
   0   3 -11  391.40   26.71
   0   3 -11  399.10   25.79
   0  -3  10   88.86    9.48
   0  -3  10   75.36    9.38
   0   3 -10   84.70    8.04
   0   3 -10   89.98   11.09
   0  -3   9  642.20   40.47
   0  -3   9  717.50   44.76
   0   3  -9  726.20   45.07
   0   3  -9  710.60   45.01
   0  -3   8  293.00   19.70
   0  -3   8  294.90   19.51
   0   3  -8  335.40   22.66
   0   3  -8  333.30   21.51
   0  -3   7   95.17    8.78
   0  -3   7  104.00    8.60
   0   3  -7  107.80    8.96
   0   3  -7  108.80   10.12
   0  -3   6  175.50   13.08
   0  -3   6  185.70   12.87
   0   3  -6  178.70   12.64
   0   3  -6  185.40   13.58
   0  -3   5 1015.00   62.64
   0  -3   5 1071.00   66.12
   0   3  -5 1060.00   65.42
   0   3  -5 1085.00   67.06
   0  -3   4   66.44    6.40
   0  -3   4   82.34    7.74
   0   3  -4   65.18    6.15
   0   3  -4   73.28    7.11
   0  -3   3 1362.00   83.63
   0  -3   3 1293.00   79.38
   0   3  -3 1346.00   82.76
   0   3  -3 1162.00   71.42
   0  -3   2    9.40    3.80
   0  -3   2    6.87    4.30
   0   3  -2   10.71    4.65
   0   3  -2    8.40    4.60
   0  -3   1  168.40   11.15
   0  -3   1  170.80   11.45
   0   3  -1  180.80   12.19
   0   3  -1  182.50   12.23
   0  -3   0    1.68    3.40
   0  -3   0    0.23    3.17
   0   3   0    0.58    3.97
   0   3   0    0.59    4.04
   0  -3  -1  157.90   10.48
   0  -3  -1  172.20   11.57
   0   3   1  179.20   12.11
   0   3   1  159.80   10.78
   0  -3  -2    3.81    3.15
   0  -3  -2   12.63    4.07
   0   3   2    2.99    2.97
   0   3   2   -0.13    4.02
   0  -3  -3 1433.00   87.87
   0  -3  -3 1418.00   87.03
   0   3   3 1293.00   79.48
   0   3   3 1253.00   76.88
   0  -3  -4   72.97    6.16
   0  -3  -4   80.81    6.81
   0   3   4   75.12    6.20
   0   3   4   70.50    6.39
   0  -3  -5 1082.00   66.58
   0  -3  -5 1153.00   70.86
   0   3   5 1054.00   64.76
   0   3   5  981.90   60.57
   0  -3  -6  184.70   12.51
   0  -3  -6  194.80   13.10
   0   3   6  181.40   12.29
   0   3   6  176.20   12.16
   0  -3  -7  101.50    8.16
   0  -3  -7  123.70    9.35
   0   3   7  103.10    8.23
   0   3   7  109.10    8.52
   0  -3  -8  342.60   21.89
   0   3   8  320.40   20.76
   0   3   8  371.80   23.66
   0  -3  -9  711.40   44.14
   0  -3  -9  636.70   39.63
   0   3   9  683.00   42.57
   0   3   9  788.70   48.88
   0  -3 -10  103.20    8.39
   0  -3 -10  101.30    8.71
   0   3  10   95.79    8.58
   0   3  10  122.40    9.72
   0  -3 -11  385.80   24.69
   0  -3 -11  329.80   21.35
   0   3  11  327.70   21.41
   0  -3 -12    5.19    6.31
   0  -3 -12   14.59    6.88
   0   3  12   12.07    6.73
   0   3  12   14.85    7.28
   0  -3 -13  121.80   11.11
   0  -3 -13   89.32    9.15
   0   3  13  104.50   10.34
   0   3  13   86.01    9.12
   1  -3  12  211.60   17.39
   1  -3  12  245.40   18.03
  -1   3 -12  232.10   16.84
  -1   3 -12  263.50   20.92
   1  -3  11    1.60    7.67
   1  -3  11   24.66    9.67
  -1   3 -11    1.52    7.03
  -1   3 -11    0.15   10.50
   1  -3  10  418.20   26.97
   1  -3  10  383.10   25.48
  -1   3 -10  442.90   29.42
  -1   3 -10  401.40   25.81
   1  -3   9  187.90   14.33
   1  -3   9  238.70   16.31
  -1   3  -9  228.00   15.43
  -1   3  -9  224.00   16.99
   1  -3   8  420.00   27.06
   1  -3   8  425.30   27.11
  -1   3  -8  411.50   26.14
  -1   3  -8  435.30   28.49
   1  -3   7    5.28    6.53
   1  -3   7    6.96    5.49
  -1   3  -7    9.49    7.25
  -1   3  -7   11.38    4.99
   1  -3   6  781.50   48.56
   1  -3   6  768.90   47.70
  -1   3  -6  804.80   50.18
  -1   3  -6  759.00   47.13
   1  -3   5   92.27    7.80
   1  -3   5   95.44    8.70
  -1   3  -5   79.23    7.31
  -1   3  -5   84.27    8.43
   1  -3   4 1678.00  102.90
   1  -3   4 1634.00  100.30
  -1   3  -4 1487.00   91.35
  -1   3  -4 1660.00  102.00
   1  -3   3   56.93    5.88
   1  -3   3   53.30    5.36
  -1   3  -3   51.37    5.69
  -1   3  -3   48.79    4.97
   1  -3   2 1734.00  106.30
   1  -3   2 1743.00  106.80
  -1   3  -2 1895.00  116.30
  -1   3  -2 1774.00  108.80
   1  -3   1   85.76    6.46
   1  -3   1  102.10    7.86
  -1   3  -1   95.31    7.45
  -1   3  -1  112.70    8.53
   1  -3   0  170.00   11.59
   1  -3   0  158.10   10.57
  -1   3   0  163.90   11.25
  -1   3   0  160.60   11.10
   1  -3  -1   11.09    4.43
   1  -3  -1   13.60    3.38
  -1   3   1   11.83    4.02
  -1   3   1   11.86    3.80
   1  -3  -2 1271.00   78.13
   1  -3  -2 1205.00   73.95
  -1   3   2 1203.00   74.04
  -1   3   2 1196.00   73.47
   1  -3  -3   62.87    5.78
   1  -3  -3   62.35    5.32
  -1   3   3   58.86    5.79
  -1   3   3   53.39    5.22
   1  -3  -4 1596.00   97.95
   1  -3  -4 1610.00   98.68
  -1   3   4 1474.00   90.55
  -1   3   4 1536.00   94.12
   1  -3  -5  453.40   28.52
   1  -3  -5  478.60   29.92
  -1   3   5  454.40   28.70
  -1   3   5  432.70   27.05
   1  -3  -6  211.90   14.02
   1  -3  -6  188.10   12.74
  -1   3   6  182.90   12.28
  -1   3   6  215.40   14.61
   1  -3  -7  161.70   11.44
   1  -3  -7  176.90   12.28
  -1   3   7  150.90   10.82
  -1   3   7  161.80   11.22
   1  -3  -8  281.50   18.31
   1  -3  -8  280.90   18.28
  -1   3   8  264.10   17.41
  -1   3   8  280.70   18.20
   1  -3  -9  116.20    9.42
   1  -3  -9  112.40    8.74
  -1   3   9  119.90    9.49
  -1   3   9  132.10   10.01
   1  -3 -10  531.00   33.31
   1  -3 -10  611.80   38.21
  -1   3  10  583.30   36.59
  -1   3  10  662.80   41.41
   1  -3 -11   27.88    6.76
   1  -3 -11   14.79    5.80
  -1   3  11   22.17    6.36
  -1   3  11   20.56    7.08
   1  -3 -12  300.90   19.89
   1  -3 -12  281.30   18.71
  -1   3  12  331.70   22.01
  -1   3  12  271.00   18.54
   1  -3 -13   14.61    7.74
   1  -3 -13   13.67    6.03
  -1   3  13   16.99    8.01
  -1   3  13    3.98    7.80
   2  -3  12   33.22   12.60
   2  -3  12    8.53    9.06
  -2   3 -12    2.35    8.81
  -2   3 -12    1.34   12.61
   2  -3  11  299.90   20.45
   2  -3  11  283.70   20.36
  -2   3 -11  286.40   21.25
  -2   3 -11  296.80   20.22
   2  -3  10   48.59    8.08
   2  -3  10   36.62    9.40
  -2   3 -10   35.10    7.12
  -2   3 -10   39.02   11.09
   2  -3   9  585.70   36.95
   2  -3   9  543.30   34.56
  -2   3  -9  598.20   37.53
  -2   3  -9  598.00   38.44
   2  -3   8   67.01    7.76
   2  -3   8   62.03    8.07
  -2   3  -8   58.59    9.89
  -2   3  -8   61.38    7.15
   2  -3   7  727.70   45.46
   2  -3   7  759.10   47.14
  -2   3  -7  725.70   45.01
  -2   3  -7  748.30   47.01
   2  -3   6   15.77    5.22
   2  -3   6   35.39    6.82
  -2   3  -6   21.61    5.68
  -2   3  -6   24.50    6.94
   2  -3   5 1234.00   75.97
   2  -3   5 1242.00   76.59
  -2   3  -5 1142.00   70.36
  -2   3  -5 1262.00   77.85
   2  -3   4  351.70   22.49
   2  -3   4  330.80   21.52
  -2   3  -4  339.20   21.80
  -2   3  -4  332.80   21.71
   2  -3   3 2059.00  126.20
   2  -3   3 2077.00  127.30
  -2   3  -3 1986.00  121.80
  -2   3  -3 2142.00  131.50
   2  -3   2   25.97    4.85
   2  -3   2   30.06    4.30
  -2   3  -2   31.93    5.27
  -2   3  -2   33.96    5.37
   2  -3   1 1045.00   64.27
   2  -3   1 1084.00   66.75
  -2   3  -1 1102.00   67.94
  -2   3  -1 1103.00   67.92
   2  -3   0   77.08    5.97
   2  -3   0   87.47    7.02
  -2   3   0   77.23    7.08
  -2   3   0   79.30    6.71
   2  -3  -1 1703.00  104.30
   2  -3  -1 1758.00  107.80
  -2   3   1 1739.00  106.70
  -2   3   1 1741.00  106.80
   2  -3  -2   10.94    3.56
   2  -3  -2   19.68    4.49
  -2   3   2    3.76    4.24
  -2   3   2   17.25    3.87
   2  -3  -3 2208.00  135.20
   2  -3  -3 2208.00  135.30
  -2   3   3 2099.00  128.70
  -2   3   3 2167.00  132.80
   2  -3  -4    2.78    4.22
   2  -3  -4    7.75    3.98
  -2   3   4    6.12    4.14
  -2   3   4    6.49    4.51
   2  -3  -5 1686.00  103.50
   2  -3  -5 1793.00  109.90
  -2   3   5 1626.00   99.70
  -2   3   5 1612.00   99.02
   2  -3  -6  946.60   58.37
   2  -3  -6  950.70   58.78
  -2   3   6  873.00   53.84
  -2   3   6  873.90   54.12
   2  -3  -7  385.00   24.42
   2  -3  -7  335.60   21.52
  -2   3   7  322.50   20.74
  -2   3   7  333.30   21.24
   2  -3  -8   63.33    6.89
   2  -3  -8   55.66    6.43
  -2   3   8   59.51    6.38
  -2   3   8   55.34    6.25
   2  -3  -9  748.90   46.51
   2  -3  -9  649.80   40.44
  -2   3   9  663.30   41.37
  -2   3   9  725.20   45.04
   2  -3 -10   20.85    5.40
   2  -3 -10   15.77    5.77
  -2   3  10   17.82    6.09
  -2   3  10   21.26    5.81
   2  -3 -11  766.70   47.61
   2  -3 -11  669.20   41.72
  -2   3  11  693.60   43.30
  -2   3  11  856.20   53.14
   2  -3 -12  209.90   14.73
   2  -3 -12  223.00   15.50
  -2   3  12  215.70   15.66
  -2   3  12  248.20   16.94
   3  -3  12  393.40   27.08
   3  -3  12  368.00   26.32
  -3   3 -12  417.00   27.78
  -3   3 -12  402.80   26.50
   3  -3  11    6.36    9.27
   3  -3  11    1.18    8.98
  -3   3 -11   -6.01    8.87
  -3   3 -11   -6.56    7.11
   3  -3  10  407.40   26.80
   3  -3  10  410.10   27.35
  -3   3 -10  399.80   26.17
  -3   3 -10  419.50   27.03
   3  -3   9    7.50    8.42
   3  -3   9   10.60    7.88
  -3   3  -9   -0.84    6.87
  -3   3  -9   -4.09    8.08
   3  -3   8  724.80   45.46
   3  -3   8  732.00   45.90
  -3   3  -8  724.70   45.27
  -3   3  -8  760.20   47.49
   3  -3   7  132.40   12.06
  -3   3  -7  152.60   11.58
  -3   3  -7  154.30   12.54
   3  -3   6 1864.00  114.70
   3  -3   6 2081.00  127.90
   3  -3   5  427.80   27.25
   3  -3   5  437.00   28.17
  -3   3  -5  390.00   24.97
  -3   3  -5  419.60   27.12
   3  -3   4 1057.00   65.27
   3  -3   4 1114.00   68.69
  -3   3  -4 1113.00   68.76
  -3   3  -4  994.50   61.50
   3  -3   3  232.60   15.46
   3  -3   3  231.40   15.58
  -3   3  -3  242.90   16.77
  -3   3  -3  222.00   15.23
   3  -3   2 1441.00   88.61
   3  -3   2 1423.00   87.38
  -3   3  -2 1411.00   86.84
  -3   3  -2 1517.00   93.40
   3  -3   1    7.21    4.76
   3  -3   1    4.28    4.10
  -3   3  -1   -4.34    4.96
  -3   3  -1    0.02    4.35
   3  -3   0 1762.00  108.00
   3  -3   0 1770.00  108.60
  -3   3   0 1791.00  110.00
  -3   3   0 1886.00  115.70
   3  -3  -1    6.63    4.67
   3  -3  -1    7.15    4.26
  -3   3   1    6.73    4.52
  -3   3   1    7.85    4.89
   3  -3  -2 1964.00  120.30
   3  -3  -2 2010.00  123.20
  -3   3   2 1953.00  119.90
  -3   3   2 2039.00  125.00
   3  -3  -3  347.00   22.02
   3  -3  -3  360.70   22.98
  -3   3   3  346.30   22.28
  -3   3   3  320.60   20.58
   3  -3  -4 2180.00  133.50
   3  -3  -4 2153.00  132.00
  -3   3   4 2044.00  125.40
  -3   3   4 2022.00  123.90
   3  -3  -5   16.36    5.10
   3  -3  -5   19.26    4.77
  -3   3   5   12.12    4.40
  -3   3   5   19.69    5.25
   3  -3  -6  953.40   58.93
   3  -3  -6 1052.00   64.80
  -3   3   6  872.00   54.01
  -3   3   6  971.40   59.86
   3  -3  -7   12.82    5.08
   3  -3  -7   23.02    5.20
  -3   3   7   14.59    5.07
  -3   3   7   20.07    4.92
   3  -3  -8 1023.00   63.16
   3  -3  -8 1079.00   66.48
  -3   3   8 1053.00   64.91
  -3   3   8 1118.00   69.09
   3  -3  -9   -1.08    5.78
   3  -3  -9    4.68    5.51
  -3   3   9    4.85    5.65
  -3   3   9    2.71    5.29
   3  -3 -10  975.80   60.27
   3  -3 -10  957.70   59.25
  -3   3  10 1015.00   62.69
  -3   3  10  894.00   55.42
   3  -3 -11  105.10    9.83
   3  -3 -11   97.59    8.53
  -3   3  11  119.30   10.55
  -3   3  11  106.60    9.62
   3  -3 -12  548.70   34.67
   3  -3 -12  461.00   29.31
  -3   3  12  516.70   32.93
  -3   3  12  589.70   37.34
   4  -3  11  180.20   15.33
   4  -3  11  152.90   14.12
  -4   3 -11  172.00   14.13
  -4   3 -11  159.80   12.60
   4  -3  10   13.38    8.69
   4  -3  10    3.03    8.81
  -4   3 -10   10.82    7.99
  -4   3 -10   -9.94    8.23
   4  -3   9  173.80   13.98
   4  -3   9  164.40   13.11
  -4   3  -9  163.80   12.90
  -4   3  -9  183.10   14.22
   4  -3   8  490.00   31.70
   4  -3   8  473.20   30.30
  -4   3  -8  475.60   30.22
  -4   3  -8  486.40   30.92
   4  -3   7 1348.00   83.27
   4  -3   7 1331.00   82.01
  -4   3  -7 1310.00   80.67
  -4   3  -7 1293.00   79.64
   4  -3   6  142.80   11.23
   4  -3   6  125.70   10.64
  -4   3  -6  122.80    9.81
  -4   3  -6  122.70    9.72
   4  -3   5 1246.00   76.82
   4  -3   5 1251.00   77.22
  -4   3  -5 1273.00   78.34
  -4   3  -5 1167.00   71.87
   4  -3   4    4.74    5.59
   4  -3   4   11.54    6.14
  -4   3  -4    9.28    5.57
  -4   3  -4   13.20    5.64
   4  -3   3  976.50   60.47
   4  -3   3 1026.00   63.63
  -4   3  -3  929.90   57.40
  -4   3  -3 1043.00   64.50
   4  -3   2    7.56    5.29
   4  -3   2    2.40    5.81
  -4   3  -2   17.30    6.08
  -4   3  -2    8.85    5.02
   4  -3   1 1115.00   68.87
   4  -3   1 1130.00   69.72
  -4   3  -1 1162.00   71.58
  -4   3  -1 1172.00   72.24
   4  -3   0   -2.33    5.32
   4  -3   0    0.45    5.34
  -4   3   0    3.69    5.68
  -4   3   0    2.87    5.03
  -4   3   1 2680.00  164.30
  -4   3   1 2808.00  172.00
   4  -3  -2  287.50   18.89
   4  -3  -2  319.80   20.71
   4  -3  -3 1270.00   78.25
   4  -3  -3 1192.00   73.36
  -4   3   3 1088.00   66.94
  -4   3   3 1234.00   76.12
   4  -3  -4  115.00    9.00
   4  -3  -4  106.10    8.51
  -4   3   4  117.20    9.19
  -4   3   4  103.80    8.07
   4  -3  -5  831.80   51.56
   4  -3  -5  914.60   56.52
  -4   3   5  853.10   52.90
  -4   3   5  792.90   49.04
   4  -3  -6  138.90   10.34
   4  -3  -6  126.10    9.38
  -4   3   6  107.70    8.65
  -4   3   6  105.80    8.48
   4  -3  -7  974.70   60.30
   4  -3  -7 1031.00   63.57
  -4   3   7  942.80   58.27
  -4   3   7  990.80   61.12
   4  -3  -8  165.40   12.03
   4  -3  -8  181.90   12.89
  -4   3   8  160.00   11.38
  -4   3   8  186.50   13.12
   4  -3  -9  612.70   38.39
   4  -3  -9  699.60   43.54
  -4   3   9  703.50   44.06
  -4   3   9  664.10   41.32
   4  -3 -10  226.00   15.47
   4  -3 -10  226.20   15.59
  -4   3  10  224.60   15.51
  -4   3  10  240.20   16.20
   4  -3 -11  698.20   43.62
   4  -3 -11  758.80   47.24
  -4   3  11  670.60   42.04
  -4   3  11  805.30   50.13
   4  -3 -12   53.67    7.82
   4  -3 -12   54.92    8.15
  -4   3  12   42.88    8.64
  -4   3  12   68.74    8.98
   5  -3  11   25.27   10.06
   5  -3  11   53.97   10.37
  -5   3 -11   43.96    9.48
  -5   3 -11   42.02    8.21
   5  -3  10   98.89   11.06
   5  -3  10   73.05    9.79
  -5   3 -10   86.35   10.21
  -5   3 -10   77.41    9.37
   5  -3   9   39.66    8.46
   5  -3   9   40.68    9.35
  -5   3  -9   30.74    8.16
  -5   3  -9   23.99    7.71
   5  -3   8  165.00   13.58
   5  -3   8  145.50   12.08
  -5   3  -8  159.80   12.50
  -5   3  -8  170.70   12.98
   5  -3   7  314.70   21.18
   5  -3   7  310.20   21.03
  -5   3  -7  311.50   20.69
  -5   3  -7  294.20   19.67
   5  -3   6 1005.00   62.43
   5  -3   6 1008.00   62.41
  -5   3  -6 1003.00   61.96
  -5   3  -6  933.60   57.77
   5  -3   5    7.43    6.42
   5  -3   5    4.62    6.49
  -5   3  -5   -1.76    6.22
  -5   3  -5    9.96    6.17
   5  -3   4  422.80   27.00
   5  -3   4  438.00   28.14
  -5   3  -4  396.80   25.34
  -5   3  -4  396.00   25.19
   5  -3   3  141.60   11.23
   5  -3   3  131.20   10.55
  -5   3  -3  167.30   12.53
  -5   3  -3  150.40   11.12
   5  -3   2  183.60   13.05
   5  -3   2  210.40   14.87
  -5   3  -2  229.40   15.81
  -5   3  -2  209.30   14.23
   5  -3   1  885.60   54.92
   5  -3   1  918.40   56.94
  -5   3  -1  944.90   58.49
  -5   3  -1  932.30   57.57
   5  -3   0 1642.00  100.90
   5  -3   0 1773.00  108.90
  -5   3   0 1767.00  108.50
  -5   3   0 1844.00  113.10
   5  -3  -1  110.70    9.22
   5  -3  -1  115.70    9.19
  -5   3   1  116.90    9.31
  -5   3   1  111.00    8.81
   5  -3  -2 1059.00   65.37
   5  -3  -2 1079.00   66.74
  -5   3   2 1035.00   63.84
  -5   3   2 1049.00   64.57
   5  -3  -3    6.11    5.53
   5  -3  -3    4.12    5.68
  -5   3   3   -3.88    4.59
  -5   3   3    1.49    4.20
   5  -3  -4  559.90   35.11
   5  -3  -4  538.60   33.98
  -5   3   4  538.50   33.81
  -5   3   4  521.50   32.47
   5  -3  -5   18.54    5.03
   5  -3  -5    8.34    6.71
  -5   3   5    5.94    5.24
  -5   3   5   10.49    3.94
   5  -3  -6  572.90   35.81
   5  -3  -6  659.40   41.60
  -5   3   6  557.10   34.98
  -5   3   6  606.40   37.63
   5  -3  -7   18.85    6.45
   5  -3  -7   26.80    5.42
  -5   3   7   19.45    4.99
  -5   3   7   16.33    5.68
   5  -3  -8  855.60   53.29
   5  -3  -8  794.50   49.38
  -5   3   8  706.90   44.06
  -5   3   8  815.80   50.45
  -5   3   9   88.18    8.74
  -5   3   9   93.61    8.53
   5  -3 -10  336.20   22.31
   5  -3 -10  322.60   21.47
  -5   3  10  314.60   21.29
   5  -3 -11   17.79    7.87
   5  -3 -11   17.02    7.18
  -5   3  11   10.58    6.97
  -5   3  11    3.13    6.80
   6  -3  11  129.10   12.61
  -6   3 -11  128.90   12.25
   6  -3  10  151.50   14.14
   6  -3  10  160.40   14.19
  -6   3 -10  147.70   12.32
  -6   3 -10  157.00   13.40
   6  -3   9   58.36    9.76
   6  -3   9   77.45   11.65
  -6   3  -9   56.28    8.27
  -6   3  -9   65.42    9.28
   6  -3   8   -2.42    8.04
   6  -3   8   -0.75    8.50
  -6   3  -8    3.12    7.57
  -6   3  -8   -2.74    7.65
   6  -3   7  571.30   36.37
   6  -3   7  549.20   35.01
  -6   3  -7  521.80   33.12
  -6   3  -7  538.30   34.22
   6  -3   6  120.70   11.20
   6  -3   6  122.30   10.68
  -6   3  -6  133.50   10.75
  -6   3  -6  134.00   10.66
   6  -3   5  515.60   32.97
   6  -3   5  510.40   32.31
  -6   3  -5  464.50   29.50
  -6   3  -5  498.20   31.54
   6  -3   4  138.00   11.26
   6  -3   4  151.80   11.49
  -6   3  -4  138.10   10.58
  -6   3  -4  143.60   10.69
   6  -3   3  129.20   10.58
   6  -3   3  132.50   10.61
  -6   3  -3  127.30    9.80
  -6   3  -3  144.80   11.25
   6  -3   2  254.80   17.29
   6  -3   2  258.80   17.62
  -6   3  -2  252.10   16.74
  -6   3  -2  259.60   17.54
   6  -3   1  327.60   21.34
   6  -3   1  339.60   22.04
  -6   3  -1  339.00   21.94
  -6   3  -1  348.20   22.59
   6  -3   0  164.80   11.99
   6  -3   0  179.30   12.80
  -6   3   0  171.50   12.13
  -6   3   0  185.80   12.95
   6  -3  -1 1072.00   66.19
   6  -3  -1 1046.00   64.74
  -6   3   1 1122.00   69.08
  -6   3   1 1052.00   65.00
   6  -3  -2   -2.25    6.51
   6  -3  -2   13.79    5.93
  -6   3   2   -1.43    5.09
  -6   3   2   -2.23    4.43
   6  -3  -3  418.20   26.54
   6  -3  -3  393.70   25.45
  -6   3   3  394.10   24.81
  -6   3   3  403.80   25.76
   6  -3  -4    2.57    4.83
   6  -3  -4  -10.02    6.31
  -6   3   4   -2.17    5.01
  -6   3   4   -0.80    4.96
   6  -3  -5  134.10    9.94
   6  -3  -5  124.30   10.69
  -6   3   5  110.20    8.18
  -6   3   5  113.40    9.04
   6  -3  -6   55.43    6.76
   6  -3  -6   65.01    8.95
  -6   3   6   46.30    6.60
  -6   3   6   48.62    5.53
   6  -3  -7  857.50   53.13
   6  -3  -7  954.20   59.30
  -6   3   7  924.50   56.96
  -6   3   7  848.90   52.71
   6  -3  -8   14.80    5.50
   6  -3  -8   21.65    8.10
  -6   3   8   13.37    5.11
  -6   3   8   13.86    6.38
   6  -3  -9  393.70   25.92
   6  -3  -9  401.70   25.88
  -6   3   9  360.10   22.87
  -6   3   9  356.80   23.37
   6  -3 -10    7.78    6.49
   6  -3 -10   15.62    9.18
  -6   3  10    1.83    6.34
  -6   3  10    7.49    5.93
   6  -3 -11  109.40   10.63
   6  -3 -11   96.12   12.69
  -6   3  11  100.00    9.33
  -6   3  11   97.39   10.25
   7  -3  10  143.20   14.47
   7  -3  10  136.90   13.22
  -7   3 -10  140.80   12.91
  -7   3 -10  126.00   12.46
   7  -3   9   10.61   11.70
   7  -3   9    6.95   10.27
  -7   3  -9    5.23    8.29
  -7   3  -9   11.10    8.83
   7  -3   8  270.20   19.59
   7  -3   8  262.10   18.93
  -7   3  -8  287.70   19.73
  -7   3  -8  277.70   19.21
   7  -3   7    9.57    8.15
   7  -3   7    8.49    8.85
  -7   3  -7   10.99    7.66
  -7   3  -7    8.71    7.68
   7  -3   6  473.20   30.60
   7  -3   6  473.60   30.59
  -7   3  -6  500.60   31.83
  -7   3  -6  448.10   28.63
   7  -3   5  242.50   17.06
   7  -3   5  228.60   16.79
  -7   3  -5  220.50   15.43
  -7   3  -5  238.60   16.50
   7  -3   4  612.60   38.24
   7  -3   4  607.80   38.43
  -7   3  -4  619.70   38.80
  -7   3  -4  568.80   35.77
   7  -3   3  271.30   18.24
   7  -3   3  235.50   16.61
  -7   3  -3  254.70   17.23
  -7   3  -3  264.00   18.16
   7  -3   2  251.60   16.92
   7  -3   2  206.50   14.98
  -7   3  -2  267.10   18.14
  -7   3  -2  217.90   15.07
   7  -3   1   64.58    7.16
   7  -3   1   48.38    7.14
  -7   3  -1   56.83    7.07
  -7   3  -1   51.87    7.40
   7  -3   0  964.20   59.80
   7  -3   0  987.30   60.94
  -7   3   0 1004.00   61.97
  -7   3   0 1035.00   63.98
   7  -3  -1  206.10   14.94
   7  -3  -1  210.60   14.44
  -7   3   1  211.80   14.43
  -7   3   1  206.00   14.29
   7  -3  -2  639.10   39.91
   7  -3  -2  646.10   40.52
  -7   3   2  666.80   41.66
  -7   3   2  623.80   38.73
   7  -3  -3   18.74    5.45
   7  -3  -3   18.10    6.87
  -7   3   3    5.27    4.86
  -7   3   3   13.41    5.69
   7  -3  -4  138.30   10.78
   7  -3  -4  146.60   11.86
  -7   3   4  114.20    9.45
  -7   3   4  125.90    9.28
   7  -3  -5    2.89    5.26
   7  -3  -5    7.53    7.29
  -7   3   5    8.70    4.67
  -7   3   5    0.99    5.71
   7  -3  -6  353.80   22.75
   7  -3  -6  380.10   25.11
  -7   3   6  330.90   21.52
  -7   3   6  324.60   20.64
   7  -3  -7   19.69    5.77
   7  -3  -7   11.54    7.32
  -7   3   7   15.05    5.15
  -7   3   7   28.47    6.24
   7  -3  -8  559.20   35.85
   7  -3  -8  508.50   32.17
  -7   3   8  510.30   32.37
  -7   3   8  577.40   35.98
   7  -3  -9    1.16    6.62
   7  -3  -9    7.94    8.18
  -7   3   9   -0.77    5.29
  -7   3   9    2.66    6.87
   7  -3 -10  173.20   14.92
   7  -3 -10  198.90   14.96
  -7   3  10  194.60   14.48
  -7   3  10  201.60   13.71
   8  -3   9  245.50   18.46
   8  -3   9  248.20   19.76
  -8   3  -9  252.70   18.27
  -8   3  -9  259.50   18.79
   8  -3   8  -10.25    9.51
   8  -3   8   -2.93    9.61
  -8   3  -8   -1.91    8.53
  -8   3  -8   10.15    9.12
   8  -3   7  335.60   22.92
   8  -3   7  380.10   25.58
  -8   3  -7  361.60   24.17
  -8   3  -7  345.00   23.14
   8  -3   6    0.63    8.61
   8  -3   6   12.65    8.53
  -8   3  -6   11.13    7.50
  -8   3  -6  -11.70    7.60
   8  -3   5  401.90   26.25
   8  -3   5  372.00   24.33
  -8   3  -5  380.00   24.72
  -8   3  -5  394.40   25.51
   8  -3   4  126.60   10.49
   8  -3   4  120.20   10.47
  -8   3  -4  111.90    9.70
  -8   3  -4  110.20    9.67
   8  -3   3  498.90   31.81
   8  -3   3  535.10   33.77
  -8   3  -3  505.40   31.93
  -8   3  -3  558.60   35.47
   8  -3   2    7.54    6.39
   8  -3   2   11.04    6.47
  -8   3  -2   19.18    7.64
  -8   3  -2   12.69    6.22
   8  -3   1  827.30   51.43
   8  -3   1  883.10   54.76
  -8   3  -1  975.80   60.28
  -8   3  -1  928.00   57.64
   8  -3   0  111.80    9.60
   8  -3   0  117.40   11.10
  -8   3   0  124.10   10.40
  -8   3   0  101.90    8.87
   8  -3  -1  820.90   51.20
   8  -3  -1  804.90   49.98
  -8   3   1  768.20   47.54
  -8   3   1  841.90   52.34
   8  -3  -2   15.22    6.23
   8  -3  -2   10.88    7.23
  -8   3   2   18.18    6.99
  -8   3   2   24.74    5.02
   8  -3  -3  746.70   46.76
   8  -3  -3  789.10   49.10
  -8   3   3  693.00   43.01
  -8   3   3  762.00   47.53
   8  -3  -4   17.72    6.59
   8  -3  -4   26.72    7.57
  -8   3   4   20.68    6.29
  -8   3   4   23.45    4.96
   8  -3  -5  326.00   22.08
   8  -3  -5  303.40   20.12
  -8   3   5  263.20   17.17
  -8   3   5  282.50   18.74
   8  -3  -6   23.35    6.06
   8  -3  -6   26.26    8.04
  -8   3   6   12.82    6.24
  -8   3   6   19.53    5.40
   8  -3  -7  677.60   42.94
   8  -3  -7  659.70   41.21
  -8   3   7  666.80   41.41
  -8   3   7  599.20   37.75
   8  -3  -8   64.68    8.30
   8  -3  -8   54.96    9.55
  -8   3   8   57.96    8.29
  -8   3   8   64.46    7.25
   8  -3  -9  455.60   29.95
   8  -3  -9  425.80   27.54
  -8   3   9  412.60   26.07
  -8   3   9  413.20   26.77
   9  -3   8  473.70   31.43
   9  -3   8  503.60   32.97
  -9   3  -8  503.60   32.52
  -9   3  -8  498.60   32.61
   9  -3   7    8.35   10.08
   9  -3   7   11.86   10.14
  -9   3  -7    1.78    9.41
  -9   3  -7    7.24    8.87
   9  -3   6  195.70   15.82
   9  -3   6  187.30   14.86
  -9   3  -6  193.90   14.61
  -9   3  -6  202.10   15.12
   9  -3   5   12.62    7.98
   9  -3   5   12.36    8.19
  -9   3  -5   14.13    7.58
  -9   3  -5   12.84    7.31
   9  -3   4  454.40   29.15
   9  -3   4  433.80   28.31
  -9   3  -4  458.40   29.26
  -9   3  -4  447.80   28.79
   9  -3   3   -0.20    7.66
   9  -3   3    5.86    7.10
  -9   3  -3    7.38    7.00
  -9   3  -3    6.63    7.39
   9  -3   2  709.70   44.29
   9  -3   2  679.60   42.67
  -9   3  -2  734.70   46.06
  -9   3  -2  754.30   47.04
   9  -3   1    8.28    6.53
   9  -3   1    5.80    7.05
  -9   3  -1   19.75    6.06
  -9   3  -1   10.54    7.40
   9  -3   0  692.50   43.30
   9  -3   0  683.50   42.91
  -9   3   0  678.10   42.49
  -9   3   0  683.60   42.61
   9  -3  -1   46.39    7.49
   9  -3  -1   46.27    6.99
  -9   3   1   45.38    6.24
  -9   3   1   55.53    7.66
   9  -3  -2  725.10   45.20
   9  -3  -2  677.00   42.38
  -9   3   2  686.90   42.99
  -9   3   2  632.50   39.43
   9  -3  -3   28.92    7.65
   9  -3  -3   24.93    6.89
  -9   3   3   24.98    6.12
  -9   3   3   20.34    7.19
   9  -3  -4  574.20   36.21
   9  -3  -4  574.10   36.74
  -9   3   4  543.90   34.42
  -9   3   4  513.10   32.03
   9  -3  -5   86.34   10.79
   9  -3  -5   89.01    9.31
  -9   3   5   81.50    7.59
  -9   3   5   65.81    7.88
   9  -3  -6  810.70   50.48
   9  -3  -6  763.70   47.94
  -9   3   6  745.60   46.56
  -9   3   6  746.20   46.22
   9  -3  -7   21.09    9.11
   9  -3  -7    5.07    6.64
  -9   3   7    8.62    6.23
  -9   3   7    9.00    6.83
   9  -3  -8  547.20   34.80
   9  -3  -8  554.30   35.58
  -9   3   8  484.30   30.98
  -9   3   8  527.00   33.05
   9  -3  -9    7.28   10.15
   9  -3  -9   12.60    8.13
  -9   3   9   12.39    6.99
  -9   3   9    3.35    7.66
  10  -3   7  198.50   16.80
  10  -3   7  192.30   15.47
 -10   3  -7  227.70   17.93
 -10   3  -7  220.20   17.91
  10  -3   6   27.37    9.34
  10  -3   6   31.47   10.65
 -10   3  -6   28.58    9.44
 -10   3  -6   25.79    8.85
  10  -3   5  200.20   15.76
  10  -3   5  200.50   15.66
 -10   3  -5  186.20   14.61
 -10   3  -5  195.30   14.99
  10  -3   4   12.48    8.87
  10  -3   4    0.52    8.66
 -10   3  -4   -8.61    7.79
 -10   3  -4    3.91    8.05
  10  -3   3  498.10   31.93
  10  -3   3  504.50   32.38
 -10   3  -3  505.90   32.29
 -10   3  -3  427.40   27.60
  10  -3   2   57.56    8.75
  10  -3   2   63.89    9.05
 -10   3  -2   72.69    8.49
 -10   3  -2   91.88   10.53
  10  -3   1  816.40   50.96
  10  -3   1  819.50   51.31
 -10   3  -1  834.90   51.84
 -10   3  -1  867.80   54.22
  10  -3   0  207.50   15.21
  10  -3   0  237.20   17.28
 -10   3   0  253.50   18.01
 -10   3   0  211.00   14.66
  10  -3  -1  263.90   18.42
  10  -3  -1  230.00   16.41
 -10   3   1  235.20   15.83
 -10   3   1  272.90   19.01
  10  -3  -2   12.80    7.12
  10  -3  -2   -0.67    7.59
 -10   3   2    4.73    8.15
 -10   3   2    7.62    5.88
  10  -3  -3  424.10   27.59
  10  -3  -3  433.60   28.30
 -10   3   3  388.90   24.90
 -10   3   3  419.50   27.18
  10  -3  -4   42.13    7.88
  10  -3  -4   38.85    9.77
 -10   3   4   26.64    5.71
 -10   3   4   25.92    7.37
  10  -3  -5  598.30   37.77
  10  -3  -5  665.60   42.30
 -10   3   5  573.50   35.76
 -10   3   5  595.20   37.73
  10  -3  -6    6.43    7.30
  10  -3  -6   -4.95    8.83
 -10   3   6    5.38    5.30
 -10   3   6   -6.08    7.44
  10  -3  -7  335.80   22.29
  10  -3  -7  323.10   22.32
 -10   3   7  350.40   22.68
 -10   3   7  327.50   21.81
  10  -3  -8  133.40   14.46
  10  -3  -8  142.30   12.40
 -10   3   8  150.80   12.39
 -10   3   8  138.80   12.79
  11  -3   5   11.80    9.40
  11  -3   5    0.11   11.56
 -11   3  -5   12.11   10.14
 -11   3  -5   23.22   10.64
  11  -3   4   75.77   10.35
  11  -3   4   70.15   10.64
 -11   3  -4   91.89   11.79
 -11   3  -4   81.75   10.80
  11  -3   3  278.80   19.66
  11  -3   3  278.30   19.65
 -11   3  -3  278.60   19.74
 -11   3  -3  273.00   19.29
  11  -3   2  564.20   36.31
  11  -3   2  563.10   36.05
 -11   3  -2  537.80   34.28
 -11   3  -2  585.10   37.81
  11  -3   1   23.93    9.75
  11  -3   1   10.05    8.41
 -11   3  -1   25.65    7.80
 -11   3  -1   16.10    9.27
  11  -3   0  238.70   17.49
  11  -3   0  299.90   20.77
 -11   3   0  231.80   16.04
 -11   3   0  273.90   19.57
  11  -3  -1    1.67    8.48
  11  -3  -1    0.36    8.77
 -11   3   1    9.75    6.87
 -11   3   1   15.10    9.10
  11  -3  -2  152.40   13.36
  11  -3  -2  171.30   13.30
 -11   3   2  147.30   11.60
 -11   3   2  169.40   13.47
  11  -3  -3   10.15    9.74
  11  -3  -3   21.44    8.32
 -11   3   3   -3.07    6.05
 -11   3   3   -1.35    9.02
  11  -3  -4  380.50   26.04
  11  -3  -4  315.60   21.45
 -11   3   4  347.50   22.49
 -11   3   4  337.00   23.01
  11  -3  -5   -3.56    9.55
  11  -3  -5   19.88    8.78
 -11   3   5    7.64    6.31
 -11   3   5   14.46    8.78
  11  -3  -6  412.00   27.77
  11  -3  -6  416.90   27.49
 -11   3   6  417.00   26.79
 -11   3   6  393.70   26.28
  12  -3   1  203.40   16.63
  12  -3   1  224.50   17.11
 -12   3  -1  203.20   15.24
 -12   3  -1  249.20   19.52
  12  -3   0    0.85    9.33
  12  -3   0    8.73    8.98
 -12   3   0  -13.57    8.32
 -12   3   0   12.75   11.02
  12  -3  -1   51.34   11.22
  12  -3  -1   45.00    9.84
 -12   3   1   49.88    9.00
 -12   3   1   59.39   11.35
  12  -3  -2   40.27   10.51
  12  -3  -2   57.07    9.93
 -12   3   2   60.62    9.40
 -12   3   2   55.16    9.94
  -9  -4   6   -6.86   10.61
  -9  -4   6    4.80   11.07
   9   4  -6  -16.27    9.29
   9   4  -6   -0.71   12.99
  -9  -4   5  164.00   13.41
  -9  -4   5  219.30   16.38
   9   4  -5  211.10   14.92
  -8  -4   8  132.90   14.57
  -8  -4   8  180.70   17.60
   8   4  -8  179.20   15.29
   8   4  -8  148.60   17.26
  -8  -4   7    6.86   11.30
  -8  -4   7   14.05   11.45
   8   4  -7    7.98    9.53
   8   4  -7    0.66   11.48
  -8  -4   6  225.20   18.57
  -8  -4   6  226.10   17.44
   8   4  -6  246.70   17.22
   8   4  -6  215.90   18.23
  -8  -4   5    5.27    9.14
  -8  -4   5    3.23    8.77
   8   4  -5    3.71    7.15
   8   4  -5    4.37    9.44
  -8  -4   4  309.20   20.86
  -8  -4   4  308.40   20.49
   8   4  -4  384.80   24.52
   8   4  -4  304.20   20.56
  -7  -4   9  224.50   18.44
  -7  -4   9  154.20   16.68
   7   4  -9  202.40   19.67
  -7  -4   8   11.52   10.34
  -7  -4   8    2.58   12.30
   7   4  -8    3.54    8.06
   7   4  -8  -14.88   13.53
  -7  -4   7  285.70   21.38
   7   4  -7  308.50   20.69
   7   4  -7  277.50   20.80
  -7  -4   6   14.52   10.36
  -7  -4   6    1.45   10.33
   7   4  -6   -5.89    6.78
   7   4  -6   -1.24   10.62
  -7  -4   5  509.70   33.31
  -7  -4   5  494.20   31.86
   7   4  -5  566.80   35.48
   7   4  -5  507.50   32.97
  -7  -4   4   10.50    7.59
  -7  -4   4    8.93    7.42
   7   4  -4    1.23    5.91
   7   4  -4   -0.73    7.83
  -7  -4   3  440.80   28.22
  -7  -4   3  429.70   27.45
   7   4  -3  442.60   27.72
   7   4  -3  442.30   28.25
  -7  -4   2  162.70   11.72
   7   4  -2  161.70   10.93
  -7  -4  -5  373.10   23.86
  -7  -4  -5  316.30   20.55
   7   4   5  377.00   23.75
   7   4   5  333.20   21.44
  -7  -4  -6   89.72    9.66
  -7  -4  -6   75.17    8.73
   7   4   6   86.29    8.19
   7   4   6   70.80    8.27
  -7  -4  -7  337.30   23.41
  -7  -4  -7  283.10   19.46
   7   4   7  319.90   21.31
   7   4   7  289.00   19.72
  -7  -4  -8   60.55   11.88
  -7  -4  -8   72.70   12.89
   7   4   8   51.61   10.13
   7   4   8   31.22    8.91
  -6  -4  10   88.60   14.14
  -6  -4   9  -15.41   10.31
  -6  -4   9   10.75   12.11
   6   4  -9    5.66   13.41
   6   4  -9    8.15    8.35
  -6  -4   8  412.20   27.77
  -6  -4   8  397.50   27.44
   6   4  -8  418.00   28.94
   6   4  -8  443.30   28.40
  -6  -4   7  120.00   12.41
  -6  -4   7  101.10   11.92
   6   4  -7  116.00   13.33
   6   4  -7  135.60   10.68
  -6  -4   6  498.30   32.54
  -6  -4   6  463.70   30.16
   6   4  -6  513.10   33.10
   6   4  -6  517.00   32.51
  -6  -4   5   27.99    9.07
  -6  -4   5   23.08    8.24
   6   4  -5   15.20    8.44
   6   4  -5   18.85    6.19
  -6  -4   4  775.20   48.65
  -6  -4   4  778.70   48.73
   6   4  -4  772.10   48.22
   6   4  -4  799.10   49.44
  -6  -4   3  124.00   10.80
  -6  -4   3  130.60   10.76
   6   4  -3  119.30   10.39
   6   4  -3  137.00   10.04
  -6  -4   2  524.50   32.97
  -6  -4   2  559.90   35.12
   6   4  -2  563.30   35.25
   6   4  -2  507.50   31.56
  -6  -4   1   10.60    5.75
  -6  -4   1    5.27    5.11
   6   4  -1    7.24    4.20
   6   4  -1   11.10    3.95
  -6  -4   0  227.30   15.16
  -6  -4   0  247.30   16.20
   6   4   0  252.80   16.21
   6   4   0  246.50   15.65
  -6  -4  -1   80.77    7.37
  -6  -4  -1  112.10    8.79
   6   4   1   89.21    6.89
   6   4   1   94.76    6.89
  -6  -4  -2 1123.00   69.19
  -6  -4  -2 1018.00   62.75
   6   4   2 1187.00   72.96
  -6  -4  -3   13.06    5.64
  -6  -4  -3   20.55    5.83
   6   4   3   15.06    5.25
   6   4   3   12.74    4.86
  -6  -4  -4  722.40   44.98
  -6  -4  -4  631.00   39.38
   6   4   4  707.20   44.00
  -6  -4  -5    0.84    7.45
  -6  -4  -5   -1.89    6.66
   6   4   5   10.98    6.41
   6   4   5   -2.55    5.69
  -6  -4  -6  350.30   23.40
  -6  -4  -6  308.40   20.83
   6   4   6  321.40   21.37
   6   4   6  374.70   24.03
  -6  -4  -7    3.73    8.37
  -6  -4  -7   -6.17    9.00
   6   4   7   -7.41    7.69
   6   4   7    3.60    6.13
  -6  -4  -8  616.80   39.58
  -6  -4  -8  574.10   36.72
   6   4   8  519.10   33.32
   6   4   8  553.40   34.83
  -6  -4  -9  175.80   16.26
  -6  -4  -9  158.60   14.82
   6   4   9  166.40   14.07
   6   4   9  160.60   12.76
  -5  -4  10   43.83    9.64
  -5  -4  10   48.84   13.02
   5   4 -10   73.44   13.11
   5   4 -10   46.81    8.78
  -5  -4   9  380.00   25.68
  -5  -4   9  377.50   26.46
   5   4  -9  389.20   27.67
   5   4  -9  391.90   25.31
  -5  -4   8  227.60   16.97
  -5  -4   8  208.00   17.04
   5   4  -8  215.80   18.18
   5   4  -8  235.30   15.98
  -5  -4   7  431.10   28.31
  -5  -4   7  373.50   25.42
   5   4  -7  415.80   27.94
   5   4  -7  465.90   29.46
  -5  -4   6  202.30   15.33
  -5  -4   6  182.00   14.43
   5   4  -6  220.40   16.39
   5   4  -6  219.00   15.09
  -5  -4   5  691.90   43.64
  -5  -4   5  639.50   40.40
   5   4  -5  678.90   42.71
   5   4  -5  695.00   43.17
  -5  -4   4   18.68    8.12
  -5  -4   4   16.69    7.53
   5   4  -4   17.06    7.19
   5   4  -4   20.77    5.35
  -5  -4   3  895.10   55.59
  -5  -4   3  905.20   56.12
   5   4  -3  949.10   58.81
   5   4  -3  948.40   58.44
  -5  -4   2  179.50   13.23
  -5  -4   2  197.80   14.05
   5   4  -2  221.20   15.44
   5   4  -2  192.70   12.98
  -5  -4   1  308.90   20.38
  -5  -4   1  351.80   22.76
   5   4  -1  332.30   21.60
   5   4  -1  332.70   21.12
  -5  -4   0   88.40    8.25
  -5  -4   0  104.60    9.04
   5   4   0   92.94    7.46
  -5  -4  -1  501.80   31.69
  -5  -4  -1  509.90   32.00
   5   4   1  443.30   27.63
   5   4   1  435.10   27.17
  -5  -4  -2   24.55    6.53
  -5  -4  -2   15.81    5.99
   5   4   2   17.53    6.11
   5   4   2   11.00    4.18
  -5  -4  -3 1048.00   64.65
  -5  -4  -3  955.60   59.05
   5   4   3 1019.00   62.91
   5   4   3 1039.00   63.91
  -5  -4  -4   74.18    7.77
  -5  -4  -4   87.70    8.52
   5   4   4   80.48    8.07
   5   4   4   79.35    6.75
  -5  -4  -5  446.10   28.34
  -5  -4  -5  432.80   27.71
   5   4   5  425.90   27.17
   5   4   5  509.10   31.83
  -5  -4  -6   -1.02    6.52
  -5  -4  -6   12.08    7.81
   5   4   6    5.17    6.94
   5   4   6    3.14    5.05
  -5  -4  -7  361.70   23.83
  -5  -4  -7  367.50   24.03
   5   4   7  346.70   22.76
   5   4   7  419.00   26.60
  -5  -4  -8    5.45    8.10
  -5  -4  -8    9.88    7.64
   5   4   8    5.93    7.08
   5   4   8   -4.53    6.83
  -5  -4  -9  694.30   44.07
  -5  -4  -9  632.80   40.29
   5   4   9  591.90   37.64
   5   4   9  649.90   40.90
  -5  -4 -10  229.90   18.30
  -5  -4 -10  202.50   16.73
   5   4  10  198.10   15.39
   5   4  10  191.80   15.38
  -4  -4  11   20.88   10.44
  -4  -4  11    5.77   12.37
   4   4 -11   29.53   11.60
   4   4 -11   23.53    8.51
  -4  -4  10  114.30   11.90
  -4  -4  10  112.90   13.31
   4   4 -10  115.50   13.73
   4   4 -10  119.20   10.62
  -4  -4   9    3.60    9.10
  -4  -4   9   10.00    9.97
   4   4  -9    3.78   11.93
   4   4  -9   11.61    6.99
  -4  -4   8  375.10   24.97
  -4  -4   8  386.90   26.24
   4   4  -8  408.40   27.51
   4   4  -8  441.90   28.22
  -4  -4   7   29.38    8.39
  -4  -4   7   15.47    8.56
   4   4  -7   14.27   10.26
   4   4  -7   32.45    6.67
  -4  -4   6  400.80   26.23
  -4  -4   6  357.70   23.87
   4   4  -6  394.60   26.14
   4   4  -6  401.70   25.72
  -4  -4   5   -3.66    6.49
  -4  -4   5   -2.53    7.26
   4   4  -5    7.69    8.16
   4   4  -5   -4.47    6.03
  -4  -4   4  619.80   38.86
  -4  -4   4  571.60   36.08
   4   4  -4  597.30   37.73
   4   4  -4  595.90   37.28
  -4  -4   3   25.65    6.17
  -4  -4   3   27.03    6.84
   4   4  -3   20.63    6.94
   4   4  -3   28.29    6.01
  -4  -4   2  865.20   53.49
  -4  -4   2  920.80   57.03
   4   4  -2  851.60   52.87
   4   4  -2  887.80   54.90
  -4  -4   1 1060.00   65.34
  -4  -4   1 1101.00   67.88
   4   4  -1 1153.00   71.15
   4   4  -1 1056.00   65.02
  -4  -4   0  256.80   16.94
  -4  -4   0  257.30   17.05
   4   4   0  215.40   14.59
   4   4   0  238.40   15.69
  -4  -4  -1  156.70   11.43
  -4  -4  -1  166.90   12.10
   4   4   1  195.00   13.91
  -4  -4  -2  677.00   42.13
  -4  -4  -2  694.60   43.23
   4   4   2  747.40   46.49
   4   4   2  637.00   39.43
  -4  -4  -3   -3.91    6.05
  -4  -4  -3  -11.02    6.10
   4   4   3    1.68    5.80
   4   4   3    4.48    4.52
  -4  -4  -4  667.70   41.74
  -4  -4  -4  610.10   38.22
   4   4   4  650.50   40.63
   4   4   4  669.40   41.42
  -4  -4  -5   31.40    6.66
  -4  -4  -5   25.04    7.12
   4   4   5   23.15    6.29
   4   4   5   25.06    5.05
  -4  -4  -6  135.50   11.02
  -4  -4  -6  147.20   11.91
   4   4   6  136.60   10.62
   4   4   6  159.30   11.34
  -4  -4  -7   47.41    7.44
  -4  -4  -7   64.11    8.61
   4   4   7   55.00    7.32
   4   4   7   73.46    7.74
  -4  -4  -8  542.30   34.51
  -4  -4  -8  561.00   35.65
   4   4   8  493.50   31.31
   4   4   8  587.10   36.80
  -4  -4  -9   19.35    8.26
  -4  -4  -9   15.84    8.79
   4   4   9   16.50    7.36
   4   4   9   22.78    7.58
  -4  -4 -10  423.30   28.12
  -4  -4 -10  423.00   28.15
   4   4  10  386.00   25.43
   4   4  10  427.90   27.97
  -3  -4  11   50.79   10.15
  -3  -4  11   39.44   12.05
   3   4 -11   26.52   12.92
   3   4 -11   39.24    7.86
  -3  -4  10   23.78    9.44
  -3  -4  10   19.15    9.48
   3   4 -10   26.17   12.39
   3   4 -10   32.46    7.77
  -3  -4   9  287.80   19.68
  -3  -4   9  258.40   18.59
   3   4  -9  301.20   21.71
   3   4  -9  335.70   21.95
  -3  -4   8   34.78    7.72
  -3  -4   8   30.51    8.79
   3   4  -8   41.43   11.26
   3   4  -8   27.03    6.71
  -3  -4   7  459.30   29.34
  -3  -4   7  413.00   26.93
   3   4  -7  487.10   31.69
   3   4  -7  470.50   29.66
  -3  -4   6   -1.44    7.03
  -3  -4   6  -12.69    7.60
   3   4  -6   -2.79    8.35
   3   4  -6    2.07    5.85
  -3  -4   5  255.10   17.36
  -3  -4   5  252.70   17.56
   3   4  -5  235.60   16.59
   3   4  -5  248.60   16.76
  -3  -4   4 1046.00   64.63
  -3  -4   4  998.70   61.84
   3   4  -4 1023.00   63.37
   3   4  -4 1031.00   63.67
  -3  -4   3  839.70   52.05
  -3  -4   3  861.50   53.49
   3   4  -3  799.50   49.76
   3   4  -3  829.20   51.39
  -3  -4   2    6.03    5.55
  -3  -4   2    2.20    6.53
   3   4  -2    7.67    6.38
   3   4  -2    3.62    5.23
  -3  -4   1  553.40   34.56
  -3  -4   1  641.80   40.08
   3   4  -1  663.60   41.46
   3   4  -1  532.10   33.25
  -3  -4   0   41.94    6.16
  -3  -4   0   56.05    6.99
   3   4   0   53.46    6.86
   3   4   0   47.34    6.59
  -3  -4  -1  530.60   33.14
  -3  -4  -1  566.80   35.45
   3   4   1  586.90   36.84
   3   4   1  452.10   28.41
  -3  -4  -2    5.76    5.07
  -3  -4  -2   -0.87    5.45
   3   4   2    2.01    5.76
   3   4   2    1.71    4.38
  -3  -4  -3  724.90   45.00
  -3  -4  -3  688.20   42.91
   3   4   3  721.10   44.98
   3   4   3  673.90   41.73
  -3  -4  -4    0.85    5.28
  -3  -4  -4    7.88    6.40
   3   4   4   -3.58    5.87
   3   4   4    0.37    4.89
  -3  -4  -5  317.00   20.63
  -3  -4  -5  336.20   22.11
   3   4   5  305.20   20.11
   3   4   5  327.70   21.08
  -3  -4  -6  132.80   10.70
  -3  -4  -6  144.40   11.31
   3   4   6  117.20    9.73
   3   4   6  149.10   10.86
  -3  -4  -7  190.60   13.66
  -3  -4  -7  198.80   14.33
   3   4   7  172.60   12.61
   3   4   7  218.20   14.74
  -3  -4  -8   12.98    6.58
  -3  -4  -8   -0.15    7.53
   3   4   8   -4.49    5.43
   3   4   8   -3.09    6.53
  -3  -4  -9  399.10   26.00
  -3  -4  -9  391.70   25.85
   3   4   9  367.80   23.64
   3   4   9  437.40   28.05
  -3  -4 -10   49.73    9.04
  -3  -4 -10   49.32    9.47
   3   4  10   56.07    9.14
   3   4  10   67.55    8.90
  -3  -4 -11  258.10   18.35
  -3  -4 -11  243.20   18.16
   3   4  11  307.20   21.44
   3   4  11  261.40   18.59
  -2  -4  11   22.74   10.50
  -2  -4  11   31.59    9.00
   2   4 -11   21.49    7.59
   2   4 -11   32.25   11.98
  -2  -4  10  139.30   13.51
  -2  -4  10  168.60   13.53
   2   4 -10  178.80   13.26
   2   4 -10  162.30   15.18
  -2  -4   9   22.30    8.66
  -2  -4   9   19.43    8.34
   2   4  -9   21.51    6.64
   2   4  -9   36.82   10.58
  -2  -4   8  559.30   35.60
  -2  -4   8  567.10   35.81
   2   4  -8  608.70   39.04
   2   4  -8  626.10   39.10
  -2  -4   7   96.09    9.62
  -2  -4   7   68.22    8.80
   2   4  -7   84.64    7.97
   2   4  -7   71.98   10.65
  -2  -4   6  488.00   31.30
  -2  -4   6  499.10   31.64
   2   4  -6  472.80   29.72
   2   4  -6  498.80   32.19
  -2  -4   5   52.29    8.09
  -2  -4   5   62.70    7.43
   2   4  -5   55.98    7.05
   2   4  -5   66.23    8.66
  -2  -4   4  292.70   19.38
  -2  -4   4  307.40   20.69
   2   4  -4  274.70   18.23
   2   4  -4  306.20   20.56
  -2  -4   3  415.60   26.73
  -2  -4   3  403.80   25.88
   2   4  -3  396.40   25.59
   2   4  -3  377.30   24.19
  -2  -4   2  870.70   53.85
  -2  -4   2  942.60   58.28
   2   4  -2  911.90   56.52
   2   4  -2  835.50   51.66
  -2  -4   1    8.83    5.43
  -2  -4   1    0.25    5.97
   2   4  -1    4.78    6.18
   2   4  -1   -1.40    6.50
  -2  -4   0  877.60   54.31
  -2  -4   0  843.40   52.13
   2   4   0  910.50   56.42
   2   4   0  893.60   55.36
  -2  -4  -1  189.10   13.32
  -2  -4  -1  175.30   12.39
   2   4   1  172.90   12.42
   2   4   1  143.00   10.72
  -2  -4  -2  694.70   43.23
  -2  -4  -2  671.00   41.62
   2   4   2  753.50   46.93
   2   4   2  607.70   37.83
  -2  -4  -3  639.70   39.99
  -2  -4  -3  583.00   36.36
   2   4   3  578.30   36.28
   2   4   3  564.60   35.20
  -2  -4  -4  829.40   51.46
  -2  -4  -4  853.50   52.79
   2   4   4  810.80   50.35
   2   4   4  765.80   47.38
  -2  -4  -5   28.13    6.03
  -2  -4  -5   43.62    7.41
   2   4   5   24.56    4.97
   2   4   5   26.49    5.64
  -2  -4  -6  313.90   20.52
  -2  -4  -6  318.30   20.71
   2   4   6  327.60   20.95
   2   4   6  300.90   19.91
  -2  -4  -7    3.50    6.27
  -2  -4  -7   -4.44    6.70
   2   4   7    7.55    5.56
   2   4   7    4.38    5.14
  -2  -4  -8  358.90   23.22
  -2  -4  -8  344.70   22.75
   2   4   8  377.90   24.30
   2   4   8  396.00   25.50
  -2  -4  -9   -2.15    6.98
  -2  -4  -9    5.53    6.90
   2   4   9    6.03    7.05
   2   4   9    6.99    6.46
  -2  -4 -10  237.50   16.80
  -2  -4 -10  243.60   17.32
   2   4  10  245.20   17.18
   2   4  10  252.50   17.56
  -2  -4 -11  112.90   11.67
  -2  -4 -11  117.80   11.91
   2   4  11  121.40   10.80
   2   4  11  112.80   10.71
  -1  -4  11  144.20   14.77
  -1  -4  11  146.80   12.68
   1   4 -11  176.30   13.93
   1   4 -11  152.70   15.30
  -1  -4  10   37.33   10.28
  -1  -4  10   22.12    8.86
   1   4 -10   34.69    7.14
   1   4 -10   25.85   12.25
  -1  -4   9  454.80   29.24
  -1  -4   9  467.40   30.58
   1   4  -9  449.20   28.46
   1   4  -9  459.30   30.42
  -1  -4   8   35.24    7.44
  -1  -4   8   26.85    8.55
   1   4  -8   37.73    5.95
   1   4  -8   27.41    9.54
  -1  -4   7 1072.00   66.38
  -1  -4   7 1095.00   67.72
   1   4  -7 1126.00   69.89
   1   4  -7 1057.00   65.17
  -1  -4   6   56.31    8.10
  -1  -4   6   55.31    7.86
   1   4  -6   63.75    7.27
   1   4  -6   68.72    9.17
  -1  -4   5  416.00   26.60
  -1  -4   5  441.00   28.55
   1   4  -5  408.30   25.97
   1   4  -5  409.70   26.86
  -1  -4   4  199.90   14.34
  -1  -4   4  217.50   15.02
   1   4  -4  211.60   15.17
   1   4  -4  173.50   12.42
  -1  -4   3  674.50   42.06
  -1  -4   3  684.50   42.70
   1   4  -3  676.20   42.35
   1   4  -3  608.90   37.95
  -1  -4   2   85.85    7.68
  -1  -4   2   98.95    8.70
   1   4  -2   77.76    8.43
  -1  -4   1  999.00   61.61
  -1  -4   1 1068.00   65.87
   1   4  -1 1076.00   66.53
   1   4  -1 1104.00   68.26
  -1  -4   0   24.05    5.85
  -1  -4   0   26.96    5.61
   1   4   0   27.55    6.63
   1   4   0   31.76    6.82
  -1  -4  -1 1047.00   64.48
  -1  -4  -1 1048.00   64.63
   1   4   1 1089.00   67.25
   1   4   1 1129.00   69.65
  -1  -4  -2  458.10   29.06
  -1  -4  -2  437.40   27.56
   1   4   2  451.70   28.72
   1   4   2  380.90   24.26
  -1  -4  -3  874.30   54.11
  -1  -4  -3  864.20   53.46
   1   4   3  796.60   49.28
   1   4   3  847.90   52.65
  -1  -4  -4   81.39    8.14
  -1  -4  -4   73.18    8.09
   1   4   4   73.06    7.80
   1   4   4   69.80    6.70
  -1  -4  -5  795.50   49.35
  -1  -4  -5  806.90   50.11
   1   4   5  725.70   45.26
   1   4   5  691.30   42.86
  -1  -4  -6   31.92    5.93
  -1  -4  -6   34.28    6.54
   1   4   6   25.48    6.05
   1   4   6   28.21    5.54
  -1  -4  -7  820.40   50.94
  -1  -4  -7  852.00   52.85
   1   4   7  864.40   53.56
   1   4   7  884.10   54.78
  -1  -4  -8   -0.45    5.92
  -1  -4  -8    5.29    6.17
   1   4   8    6.80    6.36
   1   4   8   10.83    6.06
  -1  -4  -9  377.20   24.82
  -1  -4  -9  337.80   22.02
   1   4   9  330.70   21.44
   1   4   9  371.30   24.13
  -1  -4 -10  301.50   20.92
  -1  -4 -10  264.90   18.30
   1   4  10  263.30   18.15
   1   4  10  298.80   20.00
  -1  -4 -11  218.10   16.39
  -1  -4 -11  221.30   16.38
   1   4  11  254.40   17.78
   1   4  11  254.70   17.71
   0  -4  11   17.77    8.94
   0  -4  11    5.74   11.19
   0   4 -11   14.12    8.44
   0   4 -11   13.54   12.18
   0  -4  10  260.20   19.45
   0  -4  10  260.20   18.34
   0   4 -10  288.70   21.63
   0   4 -10  267.00   18.13
   0  -4   9   -7.69    7.19
   0  -4   9  -11.42    8.59
   0   4  -9   -2.91    9.92
   0   4  -9   -1.52    6.33
   0  -4   8  738.90   46.32
   0  -4   8  803.90   50.03
   0   4  -8  808.90   50.13
   0   4  -8  830.50   52.15
   0  -4   7   10.38    6.37
   0  -4   7    6.68    8.44
   0   4  -7   14.72    8.48
   0   4  -7   -3.60    5.98
   0  -4   6 1020.00   63.06
   0  -4   6  988.30   61.36
   0   4  -6  995.00   61.92
   0   4  -6  922.80   56.99
   0  -4   5   42.97    6.40
   0  -4   5   37.22    8.21
   0   4  -5   51.67    8.79
   0   4  -5   52.54    6.51
   0  -4   4  764.90   47.56
   0  -4   4  742.60   46.30
   0   4  -4  685.70   42.65
   0   4  -4  741.00   46.40
   0  -4   3   82.01    7.86
   0  -4   3   74.72    8.03
   0   4  -3   85.55    8.74
   0   4  -3   70.06    6.98
   0  -4   2  882.20   54.63
   0  -4   2  852.00   52.73
   0   4  -2  929.40   57.68
   0   4  -2  879.90   54.71
   0  -4   1   31.98    6.14
   0  -4   1   37.63    5.92
   0   4  -1   28.00    6.86
   0   4  -1   24.17    6.33
   0  -4   0 1359.00   83.64
   0  -4   0 1357.00   83.43
   0   4   0 1412.00   86.97
   0   4   0 1510.00   92.88
   0  -4  -1   25.72    6.13
   0  -4  -1   29.38    5.95
   0   4   1   27.50    5.81
   0   4   1   29.47    6.73
   0  -4  -2  854.00   52.86
   0  -4  -2  899.40   55.62
   0   4   2  939.80   58.26
   0   4   2  764.20   47.39
   0  -4  -3   75.69    7.65
   0  -4  -3   75.25    7.25
   0   4   3   71.55    7.27
   0   4   3   68.00    7.09
   0  -4  -4  800.40   49.58
   0  -4  -4  738.70   46.03
   0   4   4  682.90   42.69
   0   4   4  713.90   44.29
   0  -4  -5   43.38    6.34
   0  -4  -5   51.77    6.97
   0   4   5   42.36    6.17
   0   4   5   38.39    5.84
   0  -4  -6 1017.00   62.80
   0  -4  -6 1030.00   63.64
   0   4   6  920.70   56.90
   0   4   6  965.90   59.66
   0  -4  -7    4.31    6.02
   0  -4  -7    4.97    5.99
   0   4   7   -1.48    5.79
   0   4   7   -4.87    5.75
   0  -4  -8  911.30   56.43
   0  -4  -8  910.60   56.40
   0   4   8  729.60   45.42
   0   4   8  909.30   56.36
   0  -4  -9    8.79    6.40
   0  -4  -9   -2.82    6.62
   0   4   9   -2.25    6.51
   0   4   9   -0.32    6.88
   0  -4 -10  321.30   21.34
   0  -4 -10  337.10   22.31
   0   4  10  343.00   22.56
   0   4  10  305.70   20.41
   0  -4 -11    5.27    8.01
   0  -4 -11   21.11    8.37
   0   4  11   11.56    7.19
   0   4  11   14.50    7.89
   1  -4  11  171.50   13.81
   1  -4  11  160.00   15.12
  -1   4 -11  181.80   13.73
  -1   4 -11  189.80   16.92
   1  -4  10  216.30   16.04
   1  -4  10  216.50   16.69
  -1   4 -10  206.60   17.86
  -1   4 -10  218.40   15.29
   1  -4   9  308.00   20.73
   1  -4   9  287.00   20.15
  -1   4  -9  323.50   22.80
  -1   4  -9  310.80   20.38
   1  -4   8  -11.26    9.06
   1  -4   8    7.51    6.88
  -1   4  -8    5.66    9.14
  -1   4  -8    1.26    6.42
   1  -4   7  768.80   47.99
   1  -4   7  755.90   47.35
  -1   4  -7  784.80   49.32
  -1   4  -7  781.20   48.43
   1  -4   6   31.00    8.20
   1  -4   6   28.18    6.44
  -1   4  -6   38.87    8.36
  -1   4  -6   34.73    6.07
   1  -4   5  769.30   47.82
   1  -4   5  747.10   46.65
  -1   4  -5  761.90   47.85
  -1   4  -5  660.60   41.09
   1  -4   4   67.49    8.07
   1  -4   4   72.59    7.52
  -1   4  -4   81.63    9.18
  -1   4  -4   64.55    6.49
   1  -4   3  877.00   54.27
   1  -4   3  870.50   53.88
  -1   4  -3  920.10   57.16
  -1   4  -3  822.40   50.90
   1  -4   2  425.30   27.17
   1  -4   2  468.10   29.54
  -1   4  -2  492.90   31.33
  -1   4  -2  464.40   29.50
   1  -4   1 1054.00   65.02
   1  -4   1 1086.00   67.07
  -1   4  -1 1087.00   67.23
  -1   4  -1 1098.00   67.83
   1  -4   0   25.91    6.08
   1  -4   0   25.83    5.59
  -1   4   0   12.22    5.74
  -1   4   0   20.25    7.76
   1  -4  -1 1082.00   66.68
   1  -4  -1 1028.00   63.46
  -1   4   1 1071.00   66.23
  -1   4   1 1078.00   66.66
   1  -4  -2  104.20    8.76
   1  -4  -2   98.10    8.92
  -1   4   2   88.56    8.27
  -1   4   2   85.41    7.75
   1  -4  -3  674.50   41.91
   1  -4  -3  682.80   42.54
  -1   4   3  673.30   42.04
  -1   4   3  656.50   40.91
   1  -4  -4  207.50   14.56
   1  -4  -4  210.60   14.50
  -1   4   4  213.30   14.64
  -1   4   4  181.90   13.19
   1  -4  -5  428.70   27.26
   1  -4  -5  401.40   25.62
  -1   4   5  405.70   25.80
  -1   4   5  386.40   24.63
   1  -4  -6   58.62    7.20
   1  -4  -6   65.98    6.99
  -1   4   6   59.30    6.29
  -1   4   6   61.22    6.94
   1  -4  -7 1242.00   76.50
   1  -4  -7 1131.00   69.83
  -1   4   7 1107.00   68.28
  -1   4   7 1163.00   71.65
   1  -4  -8   22.93    6.11
   1  -4  -8   20.85    6.25
  -1   4   8   34.40    5.97
  -1   4   8   17.40    6.36
   1  -4  -9  481.70   30.52
   1  -4  -9  508.00   32.33
  -1   4   9  528.80   33.51
  -1   4   9  446.30   28.37
   1  -4 -10   27.24    7.12
   1  -4 -10   19.61    7.68
  -1   4  10   22.74    6.85
  -1   4  10   28.42    7.95
   1  -4 -11  194.60   14.79
   1  -4 -11  172.70   13.08
  -1   4  11  174.50   13.31
  -1   4  11  216.00   16.20
   2  -4  10  186.30   15.31
   2  -4  10  194.90   14.73
  -2   4 -10  200.20   17.15
  -2   4 -10  193.30   14.34
   2  -4   9    2.10    7.49
   2  -4   9   -4.05    8.28
  -2   4  -9    2.15    6.50
  -2   4  -9    1.28   10.07
   2  -4   8  324.50   21.42
   2  -4   8  310.10   21.72
  -2   4  -8  318.50   22.14
  -2   4  -8  305.50   20.10
   2  -4   7   -0.82    6.65
   2  -4   7    4.23    8.20
  -2   4  -7    4.30    8.86
  -2   4  -7    9.37    6.06
   2  -4   6  312.10   21.21
   2  -4   6  288.00   19.19
  -2   4  -6  326.20   22.21
  -2   4  -6  286.80   18.79
   2  -4   5   25.49    6.57
   2  -4   5   40.23    7.68
  -2   4  -5   20.78    8.01
  -2   4  -5   22.94    5.41
   2  -4   4  797.10   49.63
   2  -4   4  835.10   51.73
  -2   4  -4  796.70   49.90
  -2   4  -4  695.70   43.22
   2  -4   3  545.00   34.17
   2  -4   3  562.70   35.30
  -2   4  -3  619.30   38.74
  -2   4  -3  596.70   37.75
   2  -4   2  708.30   44.14
   2  -4   2  667.50   41.54
  -2   4  -2  756.00   47.03
  -2   4  -2  709.40   44.39
   2  -4   1  174.00   12.27
   2  -4   1  161.70   11.84
  -2   4  -1  187.60   13.75
  -2   4  -1  206.00   14.54
   2  -4   0  785.70   48.70
   2  -4   0  865.30   53.62
  -2   4   0  873.40   54.22
  -2   4   0  908.80   56.47
   2  -4  -1    7.58    5.39
   2  -4  -1   10.56    5.70
  -2   4   1   -0.73    5.63
  -2   4   1    8.24    6.41
   2  -4  -2  892.20   55.29
   2  -4  -2  938.50   57.92
  -2   4   2  880.00   54.55
  -2   4   2  885.50   54.86
   2  -4  -3  363.60   23.15
   2  -4  -3  406.20   25.93
  -2   4   3  381.10   24.42
  -2   4   3  382.60   24.49
   2  -4  -4  294.90   19.44
   2  -4  -4  288.90   18.90
  -2   4   4  299.10   19.42
  -2   4   4  255.60   17.07
   2  -4  -5   58.02    6.97
   2  -4  -5   54.86    6.49
  -2   4   5   49.76    6.62
  -2   4   5   49.95    6.42
   2  -4  -6  491.00   31.09
   2  -4  -6  586.00   36.71
  -2   4   6  469.00   29.70
  -2   4   6  453.50   28.72
   2  -4  -7   80.39    8.12
   2  -4  -7   80.49    8.45
  -2   4   7   75.76    7.81
  -2   4   7   85.95    8.20
   2  -4  -8  610.00   38.26
   2  -4  -8  633.60   39.80
  -2   4   8  578.30   36.35
  -2   4   8  675.00   42.08
   2  -4  -9   20.72    6.76
   2  -4  -9   33.81    7.30
  -2   4   9   20.27    6.45
  -2   4   9   30.69    7.04
   2  -4 -10  178.30   13.17
   2  -4 -10  193.40   14.69
  -2   4  10  180.40   13.51
  -2   4  10  181.40   13.20
   2  -4 -11   26.83    8.47
   2  -4 -11   39.05    8.21
  -2   4  11   14.22    8.48
  -2   4  11   33.46    7.93
   3  -4  10   43.43    9.31
   3  -4  10   39.85   10.93
  -3   4 -10   32.39   10.73
  -3   4 -10   40.11    8.60
   3  -4   9  309.30   20.82
   3  -4   9  271.90   20.02
  -3   4  -9  315.80   22.62
  -3   4  -9  292.80   19.71
   3  -4   8    4.02    8.76
   3  -4   8    1.52    7.10
  -3   4  -8   -6.33    9.62
  -3   4  -8    1.48    6.79
   3  -4   7  179.60   13.26
   3  -4   7  152.20   13.48
  -3   4  -7  150.40   11.65
  -3   4  -7  178.10   14.83
   3  -4   6  144.10   11.38
   3  -4   6  118.50   11.59
  -3   4  -6   95.77   10.94
  -3   4  -6  111.30    9.14
   3  -4   5  301.30   20.03
   3  -4   5  293.40   19.82
  -3   4  -5  288.60   20.31
  -3   4  -5  260.80   17.19
   3  -4   4   11.85    7.02
   3  -4   4    5.54    6.00
  -3   4  -4   10.57    7.94
  -3   4  -4    6.76    5.13
   3  -4   3  675.50   42.11
   3  -4   3  664.40   41.42
  -3   4  -3  684.40   43.05
  -3   4  -3  713.10   44.41
   3  -4   2   -0.43    5.41
   3  -4   2   -2.24    6.22
  -3   4  -2    3.53    7.17
  -3   4  -2   -2.77    6.12
   3  -4   1  544.60   34.29
   3  -4   1  537.80   33.75
  -3   4  -1  578.30   36.63
  -3   4  -1  564.90   35.43
   3  -4   0   57.72    6.47
   3  -4   0   50.62    7.01
  -3   4   0   60.44    7.27
  -3   4   0   65.11    8.33
   3  -4  -1  563.50   35.21
   3  -4  -1  583.60   36.63
  -3   4   1  621.40   39.04
  -3   4   1  588.30   36.81
   3  -4  -2    3.15    5.16
   3  -4  -2    2.70    5.71
  -3   4   2    9.71    5.65
  -3   4   2    0.99    5.53
   3  -4  -3  803.70   49.80
   3  -4  -3  837.90   52.02
  -3   4   3  754.30   46.90
  -3   4   3  773.00   47.90
   3  -4  -4 1040.00   64.29
   3  -4  -4 1028.00   63.37
  -3   4   4  933.30   57.76
  -3   4   4  959.20   59.24
   3  -4  -5  264.40   17.70
   3  -4  -5  242.00   16.20
  -3   4   5  214.00   14.66
  -3   4   5  229.60   15.45
   3  -4  -6    7.96    6.39
   3  -4  -6    3.08    6.22
  -3   4   6   -4.69    5.71
  -3   4   6    3.47    5.74
   3  -4  -7  480.40   30.30
   3  -4  -7  464.00   29.63
  -3   4   7  450.60   28.62
  -3   4   7  447.50   28.38
   3  -4  -8   31.09    6.94
   3  -4  -8   32.70    6.26
  -3   4   8   26.24    6.38
  -3   4   8   35.79    6.73
   3  -4  -9  289.80   19.70
   3  -4  -9  300.90   19.91
  -3   4   9  288.40   19.36
  -3   4   9  323.20   21.31
   3  -4 -10   29.85    7.79
   3  -4 -10   30.81    7.33
  -3   4  10   16.35    7.26
  -3   4  10   29.96    6.85
   3  -4 -11   51.64    9.50
   3  -4 -11   49.63    8.71
  -3   4  11   46.20    9.12
  -3   4  11   35.75    8.33
   4  -4  10  224.80   18.15
  -4   4 -10  284.30   20.98
   4  -4   9    9.84   12.89
   4  -4   9    3.25   11.61
  -4   4  -9    3.20   10.25
  -4   4  -9   -2.70    9.14
   4  -4   8  423.10   28.52
   4  -4   8  430.70   28.83
  -4   4  -8  433.00   28.55
   4  -4   7   59.57    9.14
   4  -4   7   40.37    9.13
  -4   4  -7   53.04   10.40
  -4   4  -7   35.84    7.37
   4  -4   6  115.80   10.74
   4  -4   6  111.50   11.46
  -4   4  -6  101.30    9.12
  -4   4  -6  109.60   11.36
   4  -4   5   18.07    6.95
   4  -4   5   19.10    8.59
  -4   4  -5   10.93    8.53
  -4   4  -5   20.66    5.66
   4  -4   4  594.30   37.58
   4  -4   4  591.70   37.12
  -4   4  -4  578.80   37.05
  -4   4  -4  513.40   32.22
   4  -4   3   -6.44    5.94
   4  -4   3   -2.76    6.86
  -4   4  -3    2.04    6.51
  -4   4  -3   -1.97    8.27
   4  -4   2  649.50   40.64
   4  -4   2  659.30   41.10
  -4   4  -2  692.60   43.62
  -4   4  -2  707.60   44.20
   4  -4   1  157.50   11.39
   4  -4   1  176.10   12.86
  -4   4  -1  184.40   14.27
  -4   4  -1  204.10   14.41
   4  -4   0  290.70   19.32
   4  -4   0  246.60   16.41
  -4   4   0  266.10   17.86
  -4   4   0  277.90   19.09
   4  -4  -1 1067.00   65.95
   4  -4  -1 1094.00   67.47
  -4   4   1 1026.00   63.33
  -4   4   1 1107.00   68.53
   4  -4  -2  907.10   56.29
   4  -4  -2  863.20   53.40
  -4   4   2  830.20   51.55
  -4   4   2  846.30   52.49
   4  -4  -3   38.35    6.41
   4  -4  -3   34.01    7.43
  -4   4   3   26.84    6.28
  -4   4   3   34.76    6.25
   4  -4  -4  629.70   39.50
   4  -4  -4  582.40   36.50
  -4   4   4  564.20   35.44
  -4   4   4  532.40   33.52
   4  -4  -5    3.38    6.25
   4  -4  -5    3.10    6.06
  -4   4   5   -0.38    5.71
  -4   4   5    1.78    5.25
   4  -4  -6  405.80   26.05
   4  -4  -6  419.90   26.91
  -4   4   6  390.00   24.96
  -4   4   6  368.30   23.76
   4  -4  -7   20.24    6.61
   4  -4  -7   35.51    7.17
  -4   4   7   26.07    6.86
  -4   4   7   27.12    6.43
   4  -4  -8  419.30   26.95
   4  -4  -8  427.80   27.35
  -4   4   8  404.60   25.98
  -4   4   8  370.90   24.06
   4  -4  -9    0.47    6.78
   4  -4  -9   12.22    6.64
  -4   4   9   10.01    7.02
  -4   4   9    8.93    6.37
   4  -4 -10  119.70   11.14
   4  -4 -10  120.50   11.24
  -4   4  10  135.50   11.59
  -4   4  10  110.40   10.71
   5  -4   9  455.70   30.41
   5  -4   9  460.00   30.52
  -5   4  -9  457.20   29.67
  -5   4  -9  467.80   30.48
   5  -4   8   -3.09    9.41
   5  -4   8   17.25    9.28
  -5   4  -8    1.03    7.72
  -5   4  -8    3.96    8.15
   5  -4   7  315.90   21.69
   5  -4   7  332.60   22.96
  -5   4  -7  282.10   19.26
  -5   4  -7  315.50   21.35
   5  -4   6    9.39    8.35
   5  -4   6   -3.27    8.49
  -5   4  -6   -4.34    6.94
  -5   4  -6    1.53    7.31
   5  -4   5  370.50   24.79
   5  -4   5  405.20   26.44
  -5   4  -5  390.60   25.36
  -5   4  -5  388.00   25.05
   5  -4   4   80.95    9.65
   5  -4   4   65.85    8.41
  -5   4  -4   66.00    7.94
  -5   4  -4   61.29    7.93
   5  -4   3  927.10   57.53
   5  -4   3  906.20   56.50
  -5   4  -3  886.40   55.03
  -5   4  -3  941.30   58.52
   5  -4   2   13.41    7.20
   5  -4   2   14.07    7.46
  -5   4  -2   23.88    7.73
  -5   4  -2   29.96    7.45
  -5   4  -1  522.00   33.68
  -5   4  -1  528.70   33.94
   5  -4   0  107.80    9.94
   5  -4   0   98.91    9.63
   5  -4  -1  352.50   23.12
   5  -4  -1  345.40   22.64
  -5   4   1  346.60   22.74
  -5   4   1  369.80   24.52
   5  -4  -2  191.50   13.94
   5  -4  -2  181.50   13.06
  -5   4   2  156.30   11.92
  -5   4   2  197.10   14.13
   5  -4  -3  922.30   57.28
   5  -4  -3  905.30   56.00
  -5   4   3  803.60   50.06
  -5   4   3  847.70   52.60
   5  -4  -4   24.25    6.41
   5  -4  -4   19.06    7.07
  -5   4   4   24.18    6.70
  -5   4   4   18.93    5.84
   5  -4  -5  681.20   42.48
   5  -4  -5  689.20   43.24
  -5   4   5  593.40   37.19
  -5   4   5  587.30   36.87
   5  -4  -6  226.80   15.79
   5  -4  -6  211.80   15.01
  -5   4   6  189.10   13.64
  -5   4   6  196.00   13.71
   5  -4  -7  411.80   26.43
   5  -4  -7  431.20   27.92
  -5   4   7  387.40   25.06
  -5   4   7  398.30   25.55
   5  -4  -8  234.30   16.16
   5  -4  -8  240.10   16.77
  -5   4   8  246.50   17.17
  -5   4   8  221.70   15.69
   5  -4  -9  342.40   22.74
   5  -4  -9  392.50   25.54
  -5   4   9  384.70   25.22
  -5   4   9  411.40   26.62
   6  -4   8  439.90   29.37
   6  -4   8  396.20   26.64
  -6   4  -8  424.00   27.66
  -6   4  -8  449.00   29.46
   6  -4   7    7.16    9.99
   6  -4   7   14.07    9.38
  -6   4  -7   -3.53    7.88
  -6   4  -7   -5.90    8.19
   6  -4   6  297.20   20.48
   6  -4   6  303.10   21.34
  -6   4  -6  275.00   19.08
  -6   4  -6  270.60   18.35
   6  -4   5   -3.56    8.06
   6  -4   5    5.36    8.38
  -6   4  -5   -4.39    7.33
  -6   4  -5    9.93    7.36
   6  -4   4  632.60   40.11
   6  -4   4  658.90   41.38
  -6   4  -4  639.00   40.13
  -6   4  -4  589.10   37.13
   6  -4   3   15.62    7.47
   6  -4   3   16.59    7.18
  -6   4  -3   26.10    8.60
  -6   4  -3   17.62    7.20
   6  -4   2 1005.00   62.46
   6  -4   2  995.10   61.62
  -6   4  -2 1151.00   71.29
  -6   4  -2 1075.00   66.46
   6  -4   1  101.70   10.16
   6  -4   1  112.30   10.06
  -6   4  -1  126.30   10.72
  -6   4  -1  120.40   11.17
   6  -4   0  293.30   19.97
   6  -4   0  303.60   20.28
  -6   4   0  297.70   19.78
  -6   4   0  319.40   20.91
   6  -4  -1   10.72    7.47
   6  -4  -1    8.10    6.52
  -6   4   1    1.12    6.79
  -6   4   1   10.18    6.80
   6  -4  -2  576.20   36.60
   6  -4  -2  602.10   37.83
  -6   4   2  579.20   36.61
  -6   4   2  543.40   34.03
   6  -4  -3  122.90   10.69
   6  -4  -3  127.70   10.70
  -6   4   3  114.40   10.27
  -6   4   3  119.30    9.80
   6  -4  -4  698.40   43.90
   6  -4  -4  837.40   52.17
  -6   4   4  702.60   44.01
  -6   4   4  711.40   44.23
   6  -4  -5   27.24    9.32
   6  -4  -5   14.91    7.02
  -6   4   5   25.24    6.93
  -6   4   5   19.29    5.18
   6  -4  -6  532.80   34.35
   6  -4  -6  562.30   35.74
  -6   4   6  463.40   29.36
  -6   4   6  476.10   30.42
  -6   4   7   99.93   10.29
   6  -4  -8  429.30   28.51
   6  -4  -8  418.50   27.40
  -6   4   8  404.40   26.94
  -6   4   8  376.40   24.98
   6  -4  -9    1.21    8.94
   6  -4  -9   -4.25    8.40
  -6   4   9  -10.90    8.89
  -6   4   9   -0.83    8.21
   7  -4   7  243.80   18.75
   7  -4   7  259.40   19.52
  -7   4  -7  221.90   16.62
  -7   4  -7  246.80   17.72
   7  -4   6   79.25   11.12
   7  -4   6   88.08   11.04
  -7   4  -6   53.67    8.90
  -7   4  -6   63.81    9.16
   7  -4   5  334.70   22.71
   7  -4   5  321.40   21.91
  -7   4  -5  345.00   23.12
  -7   4  -5  299.00   20.07
   7  -4   4   12.37    7.73
   7  -4   4    2.60    8.59
  -7   4  -4   -2.37    7.76
  -7   4  -4    1.39    6.92
   7  -4   3  681.10   43.11
   7  -4   3  690.80   43.27
  -7   4  -3  747.70   46.94
  -7   4  -3  712.80   44.60
   7  -4   2    0.01    7.42
   7  -4   2    1.13    7.62
  -7   4  -2   -5.34    7.95
  -7   4  -2   -2.46    7.02
   7  -4   1  574.00   36.12
   7  -4   1  547.50   34.98
  -7   4  -1  599.00   37.64
  -7   4  -1  594.60   37.70
   7  -4   0    6.06    6.89
   7  -4   0    0.72    7.48
  -7   4   0    1.99    7.20
  -7   4   0    3.41    7.05
   7  -4  -1  405.00   26.85
   7  -4  -1  429.70   27.61
  -7   4   1  394.00   25.29
  -7   4   1  431.60   27.90
   7  -4  -2  176.80   13.27
   7  -4  -2  161.60   13.60
  -7   4   2  143.80   10.50
  -7   4   2  185.90   14.16
   7  -4  -3  498.10   31.69
   7  -4  -3  479.40   30.88
  -7   4   3  498.10   31.87
  -7   4   3  466.40   29.44
   7  -4  -4   22.29    8.59
   7  -4  -4    7.71    7.56
  -7   4   4   -3.99    5.85
  -7   4   4   -0.06    7.70
   7  -4  -5  511.50   32.51
   7  -4  -5  491.60   31.88
  -7   4   5  484.30   31.03
  -7   4   5  447.60   28.22
   7  -4  -6    0.44    8.91
   7  -4  -6   -0.82    7.28
  -7   4   6    3.17    5.92
  -7   4   6    4.18    6.95
   7  -4  -7  257.40   18.79
   7  -4  -7  292.70   19.94
  -7   4   7  253.20   17.61
  -7   4   7  262.90   17.48
   7  -4  -8   10.83    7.49
   7  -4  -8   -1.05    9.94
  -7   4   8    8.65    6.80
  -7   4   8   -4.53    7.60
   8  -4   6  165.10   15.29
   8  -4   6  155.00   14.24
  -8   4  -6  170.20   13.54
  -8   4  -6  196.90   15.49
   8  -4   5  153.60   13.44
   8  -4   5  127.20   12.94
  -8   4  -5  145.60   12.38
  -8   4  -5  157.00   13.17
   8  -4   4  218.10   16.81
   8  -4   4  220.80   16.43
  -8   4  -4  241.70   17.01
  -8   4  -4  207.90   15.15
   8  -4   3   18.78    8.20
   8  -4   3   10.79    9.03
  -8   4  -3    3.25    8.32
  -8   4  -3    0.79    8.26
   8  -4   2  406.90   26.46
   8  -4   2  415.80   27.54
  -8   4  -2  432.80   28.28
  -8   4  -2  464.20   30.12
   8  -4   1   44.39    8.19
   8  -4   1   31.45    8.95
  -8   4  -1   44.85    8.90
  -8   4  -1   41.01    8.30
   8  -4   0  381.90   24.89
   8  -4   0  380.10   25.30
  -8   4   0  390.20   25.55
  -8   4   0  379.80   25.08
   8  -4  -1  120.30   10.62
   8  -4  -1  100.90   11.65
  -8   4   1   95.72    8.88
  -8   4   1  100.40    9.87
   8  -4  -2  411.50   27.23
   8  -4  -2  417.10   26.94
  -8   4   2  394.80   25.21
  -8   4   2  461.40   29.65
   8  -4  -3   85.97   10.66
   8  -4  -3  107.30   10.15
  -8   4   3   83.68    8.45
  -8   4   3   84.40   10.25
   8  -4  -4  346.00   23.24
   8  -4  -4  372.50   24.64
  -8   4   4  370.40   23.94
  -8   4   4  363.20   24.17
   8  -4  -5    0.07    9.42
   8  -4  -5    3.67    7.63
  -8   4   5   -4.85    5.81
  -8   4   5    5.55    7.35
   8  -4  -6  231.30   18.34
   8  -4  -6  230.30   16.57
  -8   4   6  200.90   14.04
  -8   4   6  231.90   16.71
   8  -4  -7   19.03    9.71
   8  -4  -7   -0.21    8.98
  -8   4   7    4.05    6.85
  -8   4   7    6.47    8.30
   9  -4   5  129.70   13.76
   9  -4   5  127.40   13.44
  -9   4  -5  137.20   12.75
  -9   4  -5  135.60   11.97
   9  -4   4   16.16   10.21
   9  -4   4   18.05    9.56
  -9   4  -4   23.42    8.34
  -9   4  -4   33.59    9.61
   9  -4   3  152.60   14.00
   9  -4   3  140.50   11.90
  -9   4  -3  171.00   13.95
  -9   4  -3  147.30   13.47
   9  -4   2    2.94    9.22
   9  -4   2    5.06    8.51
  -9   4  -2    3.80    8.80
  -9   4  -2   -0.88    9.45
   9  -4   1  123.40   12.17
   9  -4   1  117.60   11.19
  -9   4  -1  140.50   12.02
  -9   4  -1  134.30   12.32
   9  -4   0    8.32    7.95
   9  -4   0    3.98    8.70
  -9   4   0   -2.30    8.63
  -9   4   0    1.85    6.60
   9  -4  -1  394.50   25.83
   9  -4  -1  365.90   25.01
  -9   4   1  351.40   22.79
  -9   4   1  402.50   26.59
   9  -4  -2  175.00   13.72
   9  -4  -2  161.30   14.14
  -9   4   2  144.50   11.54
  -9   4   2  185.40   14.22
   9  -4  -3  295.50   20.34
   9  -4  -3  293.50   20.81
  -9   4   3  297.40   20.59
  -9   4   3  269.80   18.33
   9  -4  -4    1.71    9.77
   9  -4  -4    1.60    8.44
  -9   4   4   -1.28    5.92
  -9   4   4   13.01    8.61
   9  -4  -5  215.40   17.59
   9  -4  -5  227.30   16.69
  -9   4   5  188.90   13.62
  -9   4   5  188.30   14.35
  -9   4   6   -6.96    7.74
  10  -4   3   33.33   11.40
  10  -4   3   11.58    9.57
 -10   4  -3   32.14    9.01
 -10   4  -3   34.58   10.61
  10  -4   2   64.78    9.39
  10  -4   2   56.62   10.87
 -10   4  -2   48.90   10.30
 -10   4  -2   42.88    9.37
  10  -4   1   76.58   10.23
  10  -4   1   83.30   11.73
 -10   4  -1  103.20   12.19
 -10   4  -1   79.13   10.58
  10  -4   0  154.20   13.26
  10  -4   0  161.40   14.69
 -10   4   0  127.40   13.30
 -10   4   0  114.70   10.60
  10  -4  -1   18.72   10.64
  10  -4  -1    4.67    9.04
 -10   4   1   15.68    8.38
 -10   4   1    2.26    7.00
  10  -4  -2  281.00   20.80
  10  -4  -2  257.30   18.25
 -10   4   2  263.40   18.28
 -10   4   2  300.10   20.29
  10  -4  -3   46.12   11.48
  10  -4  -3   54.26    9.74
 -10   4   3   38.29    8.15
 -10   4   3   48.30    9.28
  10  -4  -4  130.50   14.29
  10  -4  -4  121.00   11.59
 -10   4   4  123.60   11.39
 -10   4   4  120.40   11.76
  -7  -5   5    9.12   13.64
  -7  -5   5   13.23   14.99
   7   5  -5   -9.58   10.50
   7   5  -5   -0.01   15.43
  -7  -5   4  589.80   38.10
  -7  -5   4  572.70   37.69
   7   5  -4  594.10   37.64
   7   5  -4  623.70   40.47
  -7  -5   3   -9.62   10.42
  -7  -5   3    2.61   10.98
   7   5  -3   -5.37    7.63
   7   5  -3   -9.89    9.94
  -7  -5   2  206.20   16.03
  -7  -5   2  248.10   18.13
  -7  -5   1    1.57    9.66
  -7  -5   1   -0.88    9.46
   7   5  -1   11.07    6.39
   7   5  -1   12.62    7.88
  -6  -5   6   27.95   11.88
  -6  -5   6    9.78   13.57
   6   5  -6    9.76   15.42
   6   5  -6   20.10    8.45
  -6  -5   5  586.70   38.45
  -6  -5   5  631.50   41.49
   6   5  -5  697.20   43.76
   6   5  -5  613.40   40.23
  -6  -5   4   15.85   11.83
  -6  -5   4   -1.10   11.73
   6   5  -4   -8.94   13.36
   6   5  -4   12.15    8.25
  -6  -5   3  455.40   30.36
  -6  -5   3  444.70   29.79
   6   5  -3  503.40   33.54
   6   5  -3  449.50   28.83
  -6  -5   2   -3.37   11.11
  -6  -5   2   -8.88   10.12
   6   5  -2   -4.17    9.65
   6   5  -2    3.95    6.68
  -6  -5   1  353.60   23.93
  -6  -5   1  457.60   29.95
   6   5  -1  404.70   25.79
  -6  -5   0   24.11    9.27
  -6  -5   0   12.49    8.05
   6   5   0   18.41    7.83
   6   5   0   18.49    6.18
  -6  -5  -1  459.20   30.05
  -6  -5  -1  556.20   35.40
   6   5   1  545.40   34.28
   6   5   1  448.10   28.84
  -6  -5  -2    8.53    9.22
  -6  -5  -2   -6.96    8.70
   6   5   2   -1.90    8.58
   6   5   2  -10.57    6.06
  -6  -5  -3  363.30   24.36
  -6  -5  -3  316.80   22.21
   6   5   3  336.20   21.90
  -6  -5  -4   23.92    9.81
  -6  -5  -4   21.64   10.68
   6   5   4   33.95    9.70
   6   5   4   50.51   10.25
  -6  -5  -5  375.70   25.87
  -6  -5  -5  343.50   24.73
   6   5   5  405.80   27.39
  -6  -5  -6   33.53   12.12
   6   5   6   18.49    9.56
  -5  -5   7   19.14   14.81
  -5  -5   7    0.28   10.72
   5   5  -7   -2.86   14.24
   5   5  -7   16.25    8.47
  -5  -5   6  355.70   25.91
  -5  -5   6  397.80   27.25
   5   5  -6  440.90   28.43
   5   5  -6  418.10   29.60
  -5  -5   5   27.13   12.22
  -5  -5   5   25.67    9.98
   5   5  -5   23.82   13.31
   5   5  -5    7.83    6.88
  -5  -5   4  318.80   23.10
  -5  -5   4  282.70   20.89
   5   5  -4  338.20   24.27
   5   5  -4  300.90   20.06
  -5  -5   3    9.91    9.73
  -5  -5   3    3.50   11.07
   5   5  -3    6.20    6.42
   5   5  -3   -5.67   10.89
  -5  -5   2  108.60   13.01
  -5  -5   2  120.80   11.76
   5   5  -2  131.70   13.40
   5   5  -2  111.80    9.89
  -5  -5   1  113.20   12.53
  -5  -5   1   87.32   12.29
   5   5  -1   84.79    8.54
   5   5  -1   62.62    9.34
  -5  -5   0  658.90   41.79
  -5  -5   0  536.40   34.75
   5   5   0  554.40   34.82
  -5  -5  -1   64.57   10.25
  -5  -5  -1   74.88   10.23
   5   5   1   53.92    8.19
   5   5   1   66.48    7.18
  -5  -5  -2  596.60   37.91
  -5  -5  -2  588.40   37.74
   5   5   2  535.90   34.02
  -5  -5  -3    5.68   10.03
  -5  -5  -3   -5.70    9.24
   5   5   3    1.26    8.16
   5   5   3   -0.26    9.10
  -5  -5  -4  316.70   21.99
  -5  -5  -4  318.30   22.21
   5   5   4  395.90   26.64
   5   5   4  372.70   24.48
  -5  -5  -5    2.64    9.43
  -5  -5  -5   -6.66   12.33
   5   5   5   12.46   10.54
   5   5   5   -7.24    7.82
  -5  -5  -6  303.20   22.12
   5   5   6  333.30   23.41
   5   5   6  372.50   24.53
  -5  -5  -7   -4.83   10.36
  -5  -5  -7   29.93   12.90
   5   5   7   26.26    9.33
   5   5   7   23.45   10.29
  -4  -5   8    0.30    9.86
  -4  -5   8    9.45   12.89
   4   5  -8   -1.09    8.28
   4   5  -8   13.03   13.10
  -4  -5   7  160.10   16.08
  -4  -5   7  166.70   14.44
   4   5  -7  160.90   12.83
   4   5  -7  177.00   16.70
  -4  -5   6   -3.32   11.26
  -4  -5   6  -24.01   11.17
   4   5  -6   -1.74    6.87
   4   5  -6   -3.69   12.11
  -4  -5   5  440.40   29.16
  -4  -5   5  469.80   31.22
   4   5  -5  478.70   32.04
   4   5  -5  458.90   29.16
  -4  -5   4   13.43   10.51
  -4  -5   4   15.71    9.18
   4   5  -4   14.90   11.20
   4   5  -4    7.96    6.25
  -4  -5   3   14.18    9.21
  -4  -5   3   25.15    9.97
   4   5  -3   27.47   11.08
   4   5  -3   14.35    6.72
  -4  -5   2  131.60   12.91
  -4  -5   2  120.90   12.53
   4   5  -2  117.10   10.15
   4   5  -2  135.10   13.02
  -4  -5   1  119.80   12.54
  -4  -5   1  105.80   11.62
   4   5  -1  129.10   11.86
   4   5  -1  112.70    9.63
  -4  -5   0   34.75    9.18
  -4  -5   0   21.10    9.90
   4   5   0   18.48    6.77
   4   5   0   17.04    6.88
  -4  -5  -1  671.40   42.41
   4   5   1  708.10   44.50
  -4  -5  -2   16.64    9.58
  -4  -5  -2   18.88    8.99
   4   5   2   13.89    6.77
   4   5   2   26.50    9.29
  -4  -5  -3  197.10   15.11
  -4  -5  -3  236.90   17.80
   4   5   3  257.20   18.55
   4   5   3  193.60   14.41
  -4  -5  -4   -1.58   10.80
  -4  -5  -4    7.97    9.33
   4   5   4  -10.26    8.61
   4   5   4    4.94    7.76
  -4  -5  -5  255.40   18.70
  -4  -5  -5  208.30   15.89
   4   5   5  228.90   16.46
   4   5   5  228.20   16.93
  -4  -5  -6    9.22    9.86
  -4  -5  -6   -9.34    9.26
   4   5   6   23.20    9.40
   4   5   6   -1.61    9.10
  -4  -5  -7  146.00   15.49
  -4  -5  -7   99.17   11.79
   4   5   7  126.80   12.39
   4   5   7  145.30   13.36
  -3  -5   8   54.03   12.16
  -3  -5   8   41.72   10.37
   3   5  -8   45.48    7.95
   3   5  -8   48.00   13.43
  -3  -5   7    4.62   11.13
  -3  -5   7    0.67   10.21
   3   5  -7    2.06    7.03
   3   5  -7   11.09   12.54
  -3  -5   6  468.70   30.84
  -3  -5   6  458.40   30.42
   3   5  -6  458.50   30.90
   3   5  -6  478.70   30.35
  -3  -5   5   12.65    9.65
  -3  -5   5    5.34    9.36
   3   5  -5    6.66    6.47
   3   5  -5   14.38   10.69
  -3  -5   4  175.50   15.02
  -3  -5   4  163.70   13.88
   3   5  -4  173.50   15.20
   3   5  -4  181.50   13.36
  -3  -5   3  150.70   12.91
  -3  -5   3  159.20   14.26
   3   5  -3  150.50   11.58
   3   5  -3  165.70   15.03
  -3  -5   2    2.67    8.98
  -3  -5   2  -23.83    9.43
   3   5  -2    7.40    6.32
   3   5  -2   -5.81    8.47
  -3  -5   1    8.04    8.79
  -3  -5   1   20.83    8.06
   3   5  -1   10.33    8.32
   3   5  -1    7.89    6.27
  -3  -5   0  368.50   24.84
  -3  -5   0  390.60   25.73
   3   5   0  410.60   26.55
  -3  -5  -1   11.38    8.73
  -3  -5  -1    4.86    7.98
   3   5   1    4.39    8.16
   3   5   1    0.87    7.07
  -3  -5  -2  362.10   24.11
  -3  -5  -2  356.90   24.05
   3   5   2  398.80   26.19
  -3  -5  -3    7.34    9.30
  -3  -5  -3    0.60    9.18
   3   5   3    9.73    6.68
   3   5   3    4.05    7.41
  -3  -5  -4  112.30   11.59
  -3  -5  -4  129.80   12.69
   3   5   4  125.10   11.63
  -3  -5  -5  150.10   13.34
  -3  -5  -5  120.00   11.57
   3   5   5  132.00   12.25
   3   5   5  121.80   11.33
  -3  -5  -6  264.60   19.91
  -3  -5  -6  214.50   16.19
   3   5   6  245.20   17.60
   3   5   6  223.80   16.15
  -3  -5  -7   13.41   10.88
  -3  -5  -7    3.74    9.65
   3   5   7   20.89    8.57
   3   5   7  -13.28    9.25
  -3  -5  -8  197.20   17.67
   3   5   8  207.60   16.89
   3   5   8  165.40   13.49
  -2  -5   9   51.56   13.54
  -2  -5   9   83.89   12.53
   2   5  -9   71.17    9.58
  -2  -5   8    0.63    9.25
  -2  -5   8  -16.92   11.85
   2   5  -8   -5.96    6.96
   2   5  -8    3.70   11.96
  -2  -5   7  298.60   21.63
  -2  -5   7  312.60   21.97
   2   5  -7  343.00   24.96
   2   5  -7  360.00   23.46
  -2  -5   6  108.90   11.81
  -2  -5   6   92.88   11.84
   2   5  -6   88.38   12.74
   2   5  -6   87.49    8.81
  -2  -5   5  696.70   43.91
  -2  -5   5  651.30   41.21
   2   5  -5  699.90   44.80
   2   5  -5  699.50   43.72
  -2  -5   4   82.52   10.42
  -2  -5   4   79.86    9.34
   2   5  -4   89.12   11.88
   2   5  -4   75.70    8.67
  -2  -5   3   79.16    9.68
  -2  -5   3   83.69   10.22
   2   5  -3   73.17    7.73
   2   5  -3   76.86   11.17
  -2  -5   2   -5.56    7.27
  -2  -5   2   -0.04    8.78
   2   5  -2    2.50   10.55
   2   5  -2    3.85    5.47
  -2  -5   1  158.20   12.62
  -2  -5   1  158.40   12.81
   2   5  -1  155.80   11.37
   2   5  -1  184.20   15.96
  -2  -5   0   11.33    6.96
  -2  -5   0   23.34    8.50
   2   5   0   20.73    8.63
   2   5   0   27.60    7.53
  -2  -5  -1  565.20   35.91
  -2  -5  -1  593.70   37.59
   2   5   1  648.30   40.90
  -2  -5  -2    8.81    7.93
  -2  -5  -2   10.89    8.66
   2   5   2   18.36    7.03
   2   5   2   25.25    7.74
  -2  -5  -3   77.63    9.74
  -2  -5  -3   93.79   10.53
   2   5   3  101.70    9.74
   2   5   3   80.99    9.04
  -2  -5  -4   -3.47    9.12
  -2  -5  -4    8.58    8.94
   2   5   4   -8.94    7.38
   2   5   4   -1.37    7.42
  -2  -5  -5  140.90   12.40
  -2  -5  -5  174.60   15.00
   2   5   5  170.40   13.20
  -2  -5  -6    8.57   10.43
  -2  -5  -6    5.52    9.07
   2   5   6   20.09    8.46
   2   5   6   11.09    7.43
  -2  -5  -7  347.60   23.57
  -2  -5  -7  419.10   28.12
   2   5   7  435.80   28.50
   2   5   7  362.70   24.00
  -2  -5  -8   12.38   11.71
  -2  -5  -8    5.33    9.17
   2   5   8   14.84    7.17
   2   5   8   23.87    9.30
  -1  -5   9   16.73   12.02
  -1  -5   9   24.18    9.12
   1   5  -9   24.98    7.83
   1   5  -9    2.17   12.27
  -1  -5   8  256.80   18.29
  -1  -5   8  234.30   18.19
   1   5  -8  252.50   17.39
   1   5  -8  241.80   19.36
  -1  -5   7    4.13    8.63
  -1  -5   7   -8.15    9.87
   1   5  -7   12.99   11.44
   1   5  -7   -0.44    6.87
  -1  -5   6  766.10   48.07
  -1  -5   6  687.50   43.40
   1   5  -6  766.00   47.63
   1   5  -6  758.00   48.32
  -1  -5   5   14.02    8.51
  -1  -5   5   14.71   10.12
   1   5  -5   22.04    7.21
   1   5  -5    7.47   10.09
  -1  -5   4  666.80   42.27
  -1  -5   4  634.60   40.00
   1   5  -4  657.10   41.06
   1   5  -4  699.30   44.53
  -1  -5   3   -1.57    7.46
  -1  -5   3  -11.26    8.55
   1   5  -3    6.94    8.78
   1   5  -3   -2.20    5.92
  -1  -5   2  465.80   29.96
  -1  -5   2  437.40   28.17
   1   5  -2  527.00   33.98
   1   5  -2  399.40   25.48
  -1  -5   1    2.72    7.80
  -1  -5   1   -2.23    8.12
   1   5  -1   -6.70    9.68
   1   5  -1   -9.51    6.92
  -1  -5   0 1079.00   66.81
  -1  -5   0 1154.00   71.41
   1   5   0 1257.00   77.57
   1   5   0 1201.00   74.41
  -1  -5  -1   23.07    8.14
  -1  -5  -1   23.33    7.45
   1   5   1   20.79    6.92
   1   5   1   31.00    8.02
  -1  -5  -2  488.10   31.03
  -1  -5  -2  501.90   32.05
   1   5   2  467.70   29.81
  -1  -5  -3   39.37    7.83
  -1  -5  -3   47.25    8.24
   1   5   3   54.57    8.07
  -1  -5  -4  103.60   10.25
  -1  -5  -4  105.90   10.85
   1   5   4   86.09    8.97
   1   5   4  123.00   10.78
  -1  -5  -5  -11.26    8.03
  -1  -5  -5   10.80    8.74
   1   5   5   14.72    6.76
   1   5   5   -5.33    7.34
  -1  -5  -6  256.30   18.09
  -1  -5  -6  258.80   18.74
   1   5   6  268.50   18.72
   1   5   6  268.40   18.58
  -1  -5  -7    1.26    8.49
  -1  -5  -7    5.35   10.41
   1   5   7    1.19    7.13
   1   5   7   -1.44    7.85
  -1  -5  -8  408.40   27.02
   1   5   8  440.50   28.81
   1   5   8  385.00   25.07
  -1  -5  -9    0.88    9.24
  -1  -5  -9   -7.02    9.44
   1   5   9    8.07    9.80
   1   5   9   -4.52    8.56
   0  -5   9  240.20   17.45
   0  -5   9  216.90   18.23
   0   5  -9  268.30   18.74
   0   5  -9  236.00   19.26
   0  -5   8   96.51   12.14
   0  -5   8   98.03   10.54
   0   5  -8   87.61   13.08
   0   5  -8  100.40    9.35
   0  -5   7  344.10   23.85
   0  -5   7  365.60   24.36
   0   5  -7  375.00   24.38
   0   5  -7  380.90   26.24
   0  -5   6   11.41    9.40
   0  -5   6   17.06    8.14
   0   5  -6   -2.61    6.54
   0   5  -6    4.81   10.52
   0  -5   5  475.10   30.55
   0  -5   5  465.40   30.49
   0   5  -5  469.90   31.16
   0   5  -5  431.70   27.63
   0  -5   4   17.45    7.42
   0  -5   4   17.51    8.98
   0   5  -4   19.51    6.39
   0   5  -4   12.39   10.42
   0  -5   3  512.80   32.79
   0  -5   3  467.20   29.86
   0   5  -3  500.70   32.65
   0   5  -3  425.70   27.14
   0  -5   2   -6.33    7.88
   0  -5   2   10.21    7.56
   0   5  -2   -3.61    7.34
   0   5  -2   -6.36    9.44
   0  -5   1 1377.00   84.93
   0  -5   1 1371.00   84.48
   0   5  -1 1509.00   93.17
   0   5  -1 1495.00   92.02
   0  -5   0    1.63    6.61
   0  -5   0    0.54    7.57
   0   5   0   -9.17    8.98
   0   5   0   -7.11    7.81
   0  -5  -1 1432.00   88.18
   0  -5  -1 1475.00   90.86
   0   5   1 1435.00   88.39
   0  -5  -2   -1.89    7.37
   0  -5  -2   -2.63    6.91
   0   5   2   -2.88    6.55
   0   5   2    9.60    6.91
   0  -5  -3  470.20   29.99
   0  -5  -3  505.70   32.33
   0   5   3  506.50   32.22
   0  -5  -4   10.23    7.78
   0  -5  -4   18.49    7.93
   0   5   4   20.23    6.87
   0   5   4   17.11    6.95
   0  -5  -5  528.20   33.79
   0  -5  -5  500.60   31.96
   0   5   5  429.00   27.89
   0   5   5  449.90   28.74
   0  -5  -6   14.71    7.53
   0  -5  -6    0.29    7.99
   0   5   6    4.26    7.68
   0   5   6   -3.53    7.78
   0  -5  -7  432.20   28.46
   0  -5  -7  393.40   25.95
   0   5   7  393.70   25.64
   0   5   7  390.10   25.25
   0  -5  -8  119.10   12.08
   0  -5  -8  121.50   11.53
   0   5   8  116.10   10.84
   0   5   8  110.20   10.50
   0  -5  -9  273.40   20.00
   0  -5  -9  341.70   23.34
   0   5   9  298.00   20.16
   0   5   9  305.80   21.24
   1  -5   8  364.40   24.31
   1  -5   8  361.60   25.52
  -1   5  -8  394.00   25.72
  -1   5  -8  404.90   27.79
   1  -5   7    3.12    8.16
   1  -5   7  -10.90   10.08
  -1   5  -7    0.39    7.63
  -1   5  -7  -12.05   10.23
   1  -5   6  235.70   17.76
   1  -5   6  241.50   17.25
  -1   5  -6  255.60   19.06
  -1   5  -6  248.10   16.93
   1  -5   5    9.69    7.96
   1  -5   5   15.00    9.09
  -1   5  -5   -3.96    6.02
  -1   5  -5    7.36    9.47
   1  -5   4   97.42    9.65
   1  -5   4  105.10   11.34
  -1   5  -4   89.19    8.55
  -1   5  -4  119.30   12.59
   1  -5   3   42.35    8.38
   1  -5   3   37.36    8.62
  -1   5  -3   40.36    6.67
  -1   5  -3   39.61    9.43
   1  -5   2  458.10   29.56
   1  -5   2  472.80   30.27
  -1   5  -2  467.90   30.14
  -1   5  -2  474.70   31.12
   1  -5   1   22.80    6.93
   1  -5   1   29.32    8.22
  -1   5  -1   28.15    7.59
  -1   5  -1   38.23   10.59
   1  -5   0 1183.00   73.03
   1  -5   0 1184.00   73.16
  -1   5   0 1211.00   74.80
  -1   5   0 1173.00   72.75
   1  -5  -1    3.84    7.73
   1  -5  -1    5.43    6.74
  -1   5   1   -1.82    6.79
  -1   5   1    4.92    6.76
   1  -5  -2  460.90   29.51
   1  -5  -2  451.20   28.83
  -1   5   2  454.60   28.97
  -1   5   2  387.10   25.17
   1  -5  -3    3.75    7.02
   1  -5  -3   -5.24    7.69
  -1   5   3    4.55    7.09
  -1   5   3  -11.09    7.77
   1  -5  -4  700.80   43.85
   1  -5  -4  696.40   43.74
  -1   5   4  637.40   40.00
  -1   5   4  683.30   42.89
   1  -5  -5   26.01    8.21
   1  -5  -5   14.00    7.53
  -1   5   5   15.85    6.52
  -1   5   5   25.58    7.36
   1  -5  -6  904.90   56.24
   1  -5  -6  828.20   51.84
  -1   5   6  683.20   42.89
  -1   5   6  806.50   50.20
   1  -5  -7    3.40    8.14
   1  -5  -7   -0.62    9.68
  -1   5   7   12.19    7.30
  -1   5   7    6.87    7.72
   1  -5  -8  285.70   20.10
   1  -5  -8  287.40   20.08
  -1   5   8  308.40   21.60
  -1   5   8  255.50   17.55
   1  -5  -9   23.92    9.33
   1  -5  -9   20.99    9.22
  -1   5   9   21.22    7.68
  -1   5   9   22.40    8.87
   2  -5   8   27.58    8.67
   2  -5   8   23.32   10.72
  -2   5  -8    0.37   11.26
  -2   5  -8   11.85    8.26
   2  -5   7  334.10   23.58
   2  -5   7  354.80   23.73
  -2   5  -7  341.10   24.44
  -2   5  -7  333.30   22.11
   2  -5   6    6.50    7.95
   2  -5   6   18.85    9.70
  -2   5  -6    4.53   10.34
  -2   5  -6   -4.85    6.64
   2  -5   5  149.70   13.38
   2  -5   5  138.30   11.92
  -2   5  -5  144.20   13.84
  -2   5  -5  123.10   10.15
   2  -5   4   12.00    6.91
   2  -5   4   -3.45    8.31
  -2   5  -4    8.96    6.27
  -2   5  -4    7.93    8.88
   2  -5   3   78.28    8.42
   2  -5   3   82.72    9.69
  -2   5  -3   79.43    7.85
  -2   5  -3   80.14   10.69
   2  -5   2   16.88    6.57
   2  -5   2   10.27    7.96
  -2   5  -2   16.42    7.12
  -2   5  -2   14.06    8.63
   2  -5   1  566.50   35.92
   2  -5   1  554.80   35.10
  -2   5  -1  584.00   36.85
  -2   5  -1  576.10   36.95
   2  -5   0   19.81    7.21
   2  -5   0   21.55    6.58
  -2   5   0   19.04    8.97
  -2   5   0   28.08    7.50
   2  -5  -1  173.50   13.46
   2  -5  -1  171.00   13.12
  -2   5   1  154.40   12.96
  -2   5   1  157.90   11.77
   2  -5  -2    1.96    7.48
   2  -5  -2    7.83    7.34
  -2   5   2    3.57    6.66
  -2   5   2   -0.78    6.57
   2  -5  -3   87.69    9.92
   2  -5  -3   77.81    8.93
  -2   5   3   85.69    8.63
   2  -5  -4   73.44    9.42
   2  -5  -4   77.75    9.06
  -2   5   4   87.34    8.83
   2  -5  -5  769.10   48.20
   2  -5  -5  788.90   49.29
  -2   5   5  638.70   40.09
  -2   5   5  678.30   42.38
   2  -5  -6   93.57   10.27
  -2   5   6  108.80    9.89
  -2   5   6   70.83    9.21
   2  -5  -7  441.50   29.04
   2  -5  -7  350.70   23.45
  -2   5   7  357.90   23.78
  -2   5   7  344.90   22.55
   2  -5  -8   16.19    9.17
   2  -5  -8    0.15    9.15
  -2   5   8    4.36    6.76
  -2   5   8   -2.70    8.20
   2  -5  -9  101.10   11.27
   2  -5  -9   77.26   11.61
  -2   5   9   99.35   12.28
   3  -5   7   -2.60    8.64
   3  -5   7    2.26   10.52
  -3   5  -7   -2.86    7.46
  -3   5  -7   19.60   10.83
   3  -5   6  231.70   17.60
   3  -5   6  219.20   16.14
  -3   5  -6  203.70   16.78
  -3   5  -6  208.60   14.96
   3  -5   5  124.70   12.16
   3  -5   5  113.90   10.95
  -3   5  -5  115.00   12.58
  -3   5  -5  111.40    9.75
   3  -5   4  108.50   11.37
   3  -5   4   98.83    9.60
  -3   5  -4   98.65   11.48
  -3   5  -4   86.78    8.69
   3  -5   3    6.62    7.18
   3  -5   3    0.31    7.89
  -3   5  -3   -5.05    9.27
   3  -5   2  366.10   24.16
   3  -5   2  329.30   21.75
  -3   5  -2  388.70   26.19
  -3   5  -2  383.20   24.94
   3  -5   1    9.40    7.49
   3  -5   1   -0.24    6.56
  -3   5  -1    9.45    9.19
  -3   5  -1   11.24    7.40
   3  -5   0  384.30   24.96
   3  -5   0  395.10   25.82
  -3   5   0  395.60   26.43
  -3   5   0  408.20   26.55
   3  -5  -1   17.19    7.65
   3  -5  -1   18.40    7.63
  -3   5   1   12.06    6.61
  -3   5   1   19.49    8.12
   3  -5  -2    8.68    7.25
   3  -5  -2    7.32    7.35
  -3   5   2   -0.95    6.90
  -3   5   2   13.72    6.66
   3  -5  -3  154.30   12.62
   3  -5  -3  148.20   12.06
  -3   5   3  173.40   13.23
   3  -5  -4  189.00   14.65
   3  -5  -4  181.40   13.67
  -3   5   4  175.90   13.18
  -3   5   4  136.90   11.52
   3  -5  -5   14.25    7.57
   3  -5  -5   15.56    8.22
  -3   5   5   11.28    6.87
  -3   5   5   16.84    7.32
   3  -5  -6  541.70   34.60
   3  -5  -6  541.00   34.48
  -3   5   6  486.70   31.01
  -3   5   6  489.40   31.18
   3  -5  -7    0.32    8.24
   3  -5  -7    1.18    8.01
  -3   5   7    5.60    7.61
  -3   5   7   -2.14    6.74
   3  -5  -8   47.28    8.72
   3  -5  -8   47.86    9.57
  -3   5   8   43.07    8.79
  -3   5   8   44.65    7.88
   4  -5   7   84.25   10.39
  -4   5  -7   55.89   12.99
   4  -5   6   -0.62    7.79
   4  -5   6    5.81   10.37
  -4   5  -6   -1.87    7.13
  -4   5  -6   -8.06   11.67
   4  -5   5  179.40   13.69
   4  -5   5  199.50   15.54
  -4   5  -5  202.60   17.02
  -4   5  -5  187.50   13.68
   4  -5   4    7.02    8.91
   4  -5   4   -2.80    7.41
  -4   5  -4    5.93    6.77
  -4   5  -4    7.20   10.20
   4  -5   3  213.40   16.12
   4  -5   3  212.70   15.26
  -4   5  -3  236.20   17.94
  -4   5  -3  229.70   16.50
   4  -5   2   19.83    7.36
   4  -5   2   23.71    7.63
  -4   5  -2   15.70    7.95
  -4   5  -2   12.49    9.92
   4  -5   1  666.30   41.97
   4  -5   1  626.20   39.29
  -4   5  -1  714.50   45.26
  -4   5  -1  691.80   43.39
   4  -5   0   38.68    8.51
   4  -5   0   42.21    8.45
  -4   5   0   52.49    8.09
  -4   5   0   53.08    9.77
   4  -5  -1  132.30   11.08
   4  -5  -1  131.20   11.60
  -4   5   1   92.54    9.67
  -4   5   1  123.50   10.56
   4  -5  -2  126.40   11.21
   4  -5  -2  129.40   11.47
  -4   5   2  123.60   10.67
  -4   5   2  100.60    9.93
   4  -5  -3   14.21    8.16
   4  -5  -3   23.51    7.80
  -4   5   3   -0.52    7.96
  -4   5   3   23.49    7.29
   4  -5  -4   20.30    8.24
   4  -5  -4   16.46    7.63
  -4   5   4   12.63    7.50
  -4   5   4   14.83    7.22
   4  -5  -5  503.90   32.35
   4  -5  -5  498.00   31.99
  -4   5   5  504.90   32.11
  -4   5   5  445.40   28.81
   4  -5  -6   11.31    8.81
   4  -5  -6    5.08    8.28
  -4   5   6    9.23    7.54
  -4   5   6    6.09    7.55
   4  -5  -7  157.80   12.80
   4  -5  -7  192.10   14.92
  -4   5   7  173.30   13.95
  -4   5   7  164.30   12.86
   5  -5   6  205.10   16.99
   5  -5   6  206.60   15.93
  -5   5  -6  216.40   18.64
  -5   5  -6  187.40   14.71
   5  -5   5    5.64    8.18
   5  -5   5    3.05   10.11
  -5   5  -5   -0.29   11.04
  -5   5  -5  -17.74    8.40
   5  -5   4  316.30   21.28
   5  -5   4  311.90   21.13
  -5   5  -4  313.30   21.07
  -5   5  -4  330.90   23.33
   5  -5   3   12.01    7.91
   5  -5   3   -1.76    8.85
  -5   5  -3   -4.49    8.26
  -5   5  -3  -12.26   11.08
   5  -5   2  543.50   34.87
   5  -5   2  551.40   34.91
  -5   5  -2  596.50   38.69
  -5   5  -2  570.30   36.29
   5  -5   1   88.30   10.38
   5  -5   1   84.37    9.20
  -5   5  -1   82.10    9.82
  -5   5  -1   70.19   11.83
   5  -5   0  584.40   37.06
   5  -5   0  637.20   40.34
  -5   5   0  646.10   40.87
  -5   5   0  642.90   40.97
   5  -5  -1   97.83    9.72
   5  -5  -1  110.50   11.41
  -5   5   1  107.80   10.77
  -5   5   1   74.03   10.01
   5  -5  -2  114.70   10.00
   5  -5  -2  120.40   10.96
  -5   5   2  132.30   11.22
  -5   5   2   89.00    9.22
   5  -5  -3    4.15    7.82
   5  -5  -3    6.54    8.31
  -5   5   3    1.28    7.65
  -5   5   3   -1.56    8.46
   5  -5  -4  334.70   22.56
   5  -5  -4  289.40   19.75
  -5   5   4  318.30   21.40
   5  -5  -5   27.65    9.39
   5  -5  -5   29.01    9.11
  -5   5   5   24.01    7.76
  -5   5   5    7.94    7.07
   5  -5  -6  384.80   25.42
   5  -5  -6  426.80   28.35
  -5   5   6  401.00   26.18
  -5   5   6  368.60   24.50
   6  -5   4   16.93    9.68
   6  -5   4   19.39   10.42
  -6   5  -4   27.94   10.45
  -6   5  -4   14.19    9.46
  -6   5  -3  406.30   28.09
  -6   5  -3  436.20   30.21
   6  -5   2  -18.92   10.51
   6  -5   2    5.15    9.86
  -6   5  -2   -7.26   10.68
  -6   5  -2   15.26   12.28
   6  -5   1  550.70   35.35
   6  -5   1  553.40   35.48
  -6   5  -1  578.80   37.53
  -6   5  -1  603.30   38.60
   6  -5   0   -3.36    8.78
   6  -5   0   24.72    8.81
  -6   5   0   20.30   10.42
  -6   5   0   16.55    8.75
   6  -5  -1  502.70   32.15
   6  -5  -1  497.30   32.19
  -6   5   1  498.80   32.04
   6  -5  -2    3.14    7.21
   6  -5  -2    1.55    8.46
  -6   5   2    4.31    8.14
  -6   5   2    6.26    7.95
   6  -5  -3  439.20   28.65
   6  -5  -3  496.70   32.18
  -6   5   3  495.30   31.85
   6  -5  -4    5.62    8.52
   6  -5  -4    8.45    8.88
  -6   5   4   -6.19    8.51
  -6   5   4    5.32    8.66
   6  -5  -5  577.00   36.81
   6  -5  -5  632.80   40.32
  -6   5   5  567.70   36.55
  -6   5   5  637.00   40.47
   7  -5   3   65.38    9.71
   7  -5   3   64.14   11.29
  -7   5  -3   70.34   10.52
  -7   5  -3   52.61   10.08
   7  -5   2  148.70   14.51
   7  -5   2  150.90   13.54
  -7   5  -2  167.00   14.44
  -7   5  -2  174.50   14.70
   7  -5   1   -3.03   10.27
   7  -5   1   -3.55    9.45
  -7   5  -1    3.55    9.63
  -7   5  -1    3.44    8.81
   7  -5   0  193.10   16.16
   7  -5   0  221.60   16.76
  -7   5   0  227.00   17.66
  -7   5   0  221.80   16.26
   7  -5  -1    9.16    9.30
   7  -5  -1   15.34   10.41
  -7   5   1   10.78    9.10
  -7   5   1   -2.77    7.22
   7  -5  -2  339.60   23.26
   7  -5  -2  307.30   22.19
  -7   5   2  341.50   23.45
   7  -5  -3   11.63    9.73
   7  -5  -3   -5.60   11.49
  -7   5   3  -13.38    9.10
  -7   5   3   -4.11    8.22
  -3  -6   3  194.20   19.47
  -3  -6   3  169.00   16.23
   3   6  -3  158.50   14.41
   3   6  -3  186.10   20.78
  -3  -6   2    6.10   10.86
  -3  -6   2    1.51   13.72
   3   6  -2  -27.15   14.08
   3   6  -2   -3.57    8.58
  -3  -6   1  218.60   18.71
  -3  -6   1  221.00   18.72
   3   6  -1  177.70   13.52
  -3  -6   0   11.23   11.23
  -3  -6   0   16.44   13.67
   3   6   0   10.83    8.03
   3   6   0   14.84   12.27
  -3  -6  -1   75.21   13.21
  -3  -6  -1   92.13   13.46
  -3  -6  -2   21.15   11.35
  -3  -6  -2   23.37   11.98
   3   6   2    8.06   11.95
   3   6   2   19.85   10.11
  -2  -6   3   11.49   13.03
  -2  -6   3    1.91   11.78
   2   6  -3   14.27   15.17
   2   6  -3    1.50    7.80
  -2  -6   2  297.80   21.27
  -2  -6   2  294.60   22.30
   2   6  -2  299.20   20.33
   2   6  -2  273.40   22.15
  -2  -6   1  -10.59   11.48
  -2  -6   1    4.11   10.89
   2   6  -1    1.83    6.90
   2   6  -1   13.87   12.25
  -2  -6   0  199.30   16.81
  -2  -6   0  194.70   16.51
   2   6   0  194.10   14.36
  -2  -6  -1   25.53   10.18
  -2  -6  -1   33.34   12.14
   2   6   1    3.40   10.98
   2   6   1   39.05    9.60
  -2  -6  -2  379.20   26.28
   2   6   2  429.50   28.81
  -2  -6  -3    1.38   11.14
  -2  -6  -3   -1.74   11.90
   2   6   3    6.00   10.21
   2   6   3   -8.39   10.87
  -1  -6   4   26.54   11.44
  -1  -6   4   38.37   12.36
   1   6  -4   16.50    8.33
   1   6  -4   11.26   14.46
  -1  -6   3   81.25   11.25
  -1  -6   3   72.04   12.85
   1   6  -3  109.20   15.70
   1   6  -3   80.98    9.81
  -1  -6   2    2.20   10.95
  -1  -6   2   19.94   11.13
   1   6  -2   14.74   11.39
   1   6  -2    0.40    8.04
  -1  -6   1  158.30   15.36
  -1  -6   1  155.60   14.92
   1   6  -1  166.10   13.21
   1   6  -1  136.60   15.34
  -1  -6   0   15.12   11.48
  -1  -6   0   26.21   10.78
   1   6   0    4.03    9.42
   1   6   0   27.32    9.61
  -1  -6  -1  181.40   15.80
  -1  -6  -1  243.40   18.72
   1   6   1  206.80   15.88
  -1  -6  -2   57.87   10.58
  -1  -6  -2   82.85   12.64
   1   6   2   98.16   11.85
  -1  -6  -3  423.50   28.57
  -1  -6  -3  367.80   25.39
   1   6   3  336.10   24.00
  -1  -6  -4   -6.33   12.68
  -1  -6  -4   13.52   12.55
   1   6   4    5.64    9.50
   1   6   4  -12.22   11.75
   0  -6   4  113.30   13.93
   0  -6   4  103.80   12.30
   0   6  -4  123.10   14.58
   0   6  -4  124.70   11.16
   0  -6   3   19.45   11.19
   0  -6   3   -1.31   10.05
   0   6  -3    2.84    7.18
   0   6  -3   -6.59   12.24
   0  -6   2  138.90   13.52
   0  -6   2  172.90   15.53
   0   6  -2  172.90   16.54
   0   6  -2  139.00   11.86
   0  -6   1   74.92   11.78
   0  -6   1   60.89   12.10
   0   6  -1   77.99   12.91
   0   6  -1   71.38   10.03
   0  -6   0   40.16   11.15
   0  -6   0   41.53   10.11
   0   6   0   21.55    9.50
   0   6   0   39.98    9.39
   0  -6  -1   77.86   11.33
   0  -6  -1   65.99   12.23
   0   6   1   76.34   10.95
   0  -6  -2  169.60   14.94
   0  -6  -2  168.00   14.82
   0   6   2  188.90   15.40
   0  -6  -3   -0.86   10.56
   0  -6  -3    9.84   10.69
   0   6   3   -3.67    8.99
   0   6   3   -2.03   10.95
   0  -6  -4  125.70   13.15
   0  -6  -4  114.60   14.24
   0   6   4   96.98   11.81
   0   6   4  122.80   11.77
   1  -6   4    5.75   11.38
   1  -6   4   -3.15    9.83
  -1   6  -4   -2.76   12.38
  -1   6  -4   -5.11    8.05
   1  -6   3  389.40   26.16
   1  -6   3  415.50   28.02
  -1   6  -3  408.90   28.76
  -1   6  -3  360.30   23.47
   1  -6   2   77.21   11.36
   1  -6   2   86.53   12.04
  -1   6  -2  103.70   14.05
  -1   6  -2   82.12    9.49
   1  -6   1  194.80   15.60
   1  -6   1  224.60   17.14
  -1   6  -1  231.60   17.37
  -1   6  -1  197.80   17.82
   1  -6   0   -6.52    9.93
   1  -6   0    3.03    9.22
  -1   6   0    1.14   11.04
  -1   6   0   18.49    9.55
   1  -6  -1  154.20   14.26
   1  -6  -1  136.60   13.41
  -1   6   1  189.40   15.09
   1  -6  -2    7.93    9.28
   1  -6  -2   14.87   10.11
  -1   6   2    0.60   10.22
  -1   6   2  -10.02    9.75
   1  -6  -3   96.01   12.35
  -1   6   3   96.44   10.87
   1  -6  -4   26.40   10.97
   1  -6  -4   35.29   10.54
  -1   6   4   22.77    8.81
  -1   6   4   12.64   10.46
   2  -6   3    2.37    9.19
   2  -6   3   11.90   10.55
  -2   6  -3   -1.12   12.45
  -2   6  -3   -8.06    8.29
   2  -6   2  348.00   24.09
   2  -6   2  347.60   23.59
  -2   6  -2  360.00   23.39
  -2   6  -2  398.70   28.02
   2  -6   1   21.12   10.76
   2  -6   1   32.17   10.40
  -2   6  -1   35.00   13.05
  -2   6  -1   23.37    8.95
   2  -6   0  211.40   16.86
   2  -6   0  222.90   16.79
  -2   6   0  243.80   18.36
   2  -6  -1    8.10    9.08
   2  -6  -1    6.58   10.05
  -2   6   1   -9.24    9.82
  -2   6   1    5.60    8.92
   2  -6  -2  289.10   20.61
   2  -6  -2  315.30   21.93
  -2   6   2  347.60   23.56
   2  -6  -3    7.05   11.03
   2  -6  -3    6.35   10.04
  -2   6   3    2.56    8.28
  -2   6   3   -2.61   10.07
   3  -6   1   68.16   10.90
   3  -6   1   76.17   11.08
  -3   6  -1   92.96   12.56
  -3   6  -1   83.27   10.49
   3  -6   0   18.16    9.64
   3  -6   0   16.02    9.45
  -3   6   0   22.61   11.16
  -3   6   0   12.91    9.37
   3  -6  -1  199.90   15.58
   3  -6  -1  191.00   15.42
  -3   6   1  211.20   16.23
   3  -6  -2    3.79   10.52
   3  -6  -2    5.52    9.77
  -3   6   2   -6.87    8.78
  -3   6   2   15.48   10.33
  -3   6   3   19.47   10.74
   0   0   0    0.00    0.00
;
_shelx_hkl_checksum              21198
_olex2_submission_special_instructions 'No special instructions were received'
loop_
_space_group_symop_operation_xyz
'x, y, z'
'-x+1/2, y+1/2, -z+1/2'
'-x, -y, -z'
'x-1/2, -y-1/2, z-1/2'
loop_
_atom_site_label
_atom_site_type_symbol
_atom_site_fract_x
_atom_site_fract_y
_atom_site_fract_z
_atom_site_U_iso_or_equiv
_atom_site_adp_type
_atom_site_occupancy
_atom_site_site_symmetry_order
_atom_site_calc_flag
_atom_site_refinement_flags_posn
_atom_site_refinement_flags_adp
_atom_site_refinement_flags_occupancy
_atom_site_disorder_assembly
_atom_site_disorder_group
C1 C 0.1809(2) -0.0648(6) 0.4470(2) 0.0207(5) Uani 1 1 d . . . . .
H1A H 0.1198 0.0763 0.4776 0.031 Uiso 1 1 calc GR . . . .
H1B H 0.1939 -0.2212 0.5046 0.031 Uiso 1 1 calc GR . . . .
H1C H 0.1453 -0.1434 0.3718 0.031 Uiso 1 1 calc GR . . . .
C2 C 0.3098(2) 0.0802(5) 0.4271(2) 0.0161(4) Uani 1 1 d . . . . .
C3 C 0.3893(3) -0.0307(5) 0.3402(2) 0.0189(5) Uani 1 1 d . . . . .
H3 H 0.3590 -0.1943 0.2966 0.023 Uiso 1 1 calc R . . . .
C4 C 0.5109(2) 0.0840(5) 0.31341(19) 0.0164(4) Uani 1 1 d . . . . .
C5 C 0.5860(3) -0.0527(6) 0.2161(2) 0.0217(5) Uani 1 1 d . . . . .
H5A H 0.6455 0.0895 0.1839 0.033 Uiso 1 1 calc GR . . . .
H5B H 0.5250 -0.1198 0.1528 0.033 Uiso 1 1 calc GR . . . .
H5C H 0.6362 -0.2164 0.2483 0.033 Uiso 1 1 calc GR . . . .
O1 O 0.33755(15) 0.2940(4) 0.49442(14) 0.0183(4) Uani 1 1 d . . . . .
O2 O 0.56550(15) 0.2988(4) 0.36566(14) 0.0178(4) Uani 1 1 d . . . . .
Cu1 Cu 0.5000 0.5000 0.5000 0.0156(2) Uani 1 2 d S T P . .
loop_
_atom_site_aniso_label
_atom_site_aniso_U_11
_atom_site_aniso_U_22
_atom_site_aniso_U_33
_atom_site_aniso_U_23
_atom_site_aniso_U_13
_atom_site_aniso_U_12
C1 0.0166(10) 0.0236(11) 0.0223(11) -0.0029(9) 0.0046(8) -0.0031(9)
C2 0.0140(10) 0.0180(10) 0.0162(10) 0.0025(8) -0.0001(7) -0.0004(8)
C3 0.0181(11) 0.0225(12) 0.0161(11) -0.0027(8) 0.0021(8) -0.0016(9)
C4 0.0193(10) 0.0175(10) 0.0126(9) 0.0013(8) 0.0029(8) 0.0014(9)
C5 0.0229(12) 0.0240(11) 0.0188(11) -0.0045(9) 0.0075(9) -0.0003(10)
O1 0.0175(8) 0.0193(8) 0.0186(7) -0.0024(6) 0.0054(6) -0.0014(6)
O2 0.0174(7) 0.0184(8) 0.0181(8) -0.0025(6) 0.0052(6) -0.0011(6)
Cu1 0.0149(3) 0.0171(3) 0.0154(3) -0.00231(13) 0.00525(14) -0.00158(13)
loop_
_atom_type_symbol
_atom_type_description
_atom_type_scat_dispersion_real
_atom_type_scat_dispersion_imag
_atom_type_scat_source
C C 0.0033 0.0016 'International Tables Vol C Tables 4.2.6.8 and 6.1.1.4'
H H 0.0000 0.0000 'International Tables Vol C Tables 4.2.6.8 and 6.1.1.4'
Cu Cu 0.3201 1.2651 'International Tables Vol C Tables 4.2.6.8 and 6.1.1.4'
O O 0.0106 0.0060 'International Tables Vol C Tables 4.2.6.8 and 6.1.1.4'
loop_
_geom_angle_atom_site_label_1
_geom_angle_atom_site_label_2
_geom_angle_atom_site_label_3
_geom_angle
_geom_angle_site_symmetry_1
_geom_angle_site_symmetry_3
H1A C1 H1B 109.5 . .
H1A C1 H1C 109.5 . .
H1B C1 H1C 109.5 . .
C2 C1 H1A 109.5 . .
C2 C1 H1B 109.5 . .
C2 C1 H1C 109.5 . .
C3 C2 C1 118.8(2) . .
O1 C2 C1 115.7(2) . .
O1 C2 C3 125.5(2) . .
C2 C3 H3 117.9 . .
C2 C3 C4 124.3(2) . .
C4 C3 H3 117.9 . .
C3 C4 C5 119.0(2) . .
O2 C4 C3 125.1(2) . .
O2 C4 C5 115.9(2) . .
C4 C5 H5A 109.5 . .
C4 C5 H5B 109.5 . .
C4 C5 H5C 109.5 . .
H5A C5 H5B 109.5 . .
H5A C5 H5C 109.5 . .
H5B C5 H5C 109.5 . .
C2 O1 Cu1 125.35(15) . .
C4 O2 Cu1 125.51(14) . .
O1 Cu1 O1 180.0 . 3_666
O1 Cu1 O2 93.75(7) . .
O1 Cu1 O2 86.25(7) . 3_666
O1 Cu1 O2 86.25(7) 3_666 .
O1 Cu1 O2 93.75(7) 3_666 3_666
O2 Cu1 O2 180.0 3_666 .
loop_
_geom_bond_atom_site_label_1
_geom_bond_atom_site_label_2
_geom_bond_distance
_geom_bond_site_symmetry_2
C1 H1A 0.9800 .
C1 H1B 0.9800 .
C1 H1C 0.9800 .
C1 C2 1.512(3) .
C2 C3 1.402(3) .
C2 O1 1.275(3) .
C3 H3 0.9500 .
C3 C4 1.403(3) .
C4 C5 1.509(3) .
C4 O2 1.276(3) .
C5 H5A 0.9800 .
C5 H5B 0.9800 .
C5 H5C 0.9800 .
O1 Cu1 1.9227(16) .
O2 Cu1 1.9268(16) .
Cu1 O1 1.9228(16) 3_666
Cu1 O2 1.9268(16) 3_666
loop_
_geom_torsion_atom_site_label_1
_geom_torsion_atom_site_label_2
_geom_torsion_atom_site_label_3
_geom_torsion_atom_site_label_4
_geom_torsion
_geom_torsion_site_symmetry_1
_geom_torsion_site_symmetry_2
_geom_torsion_site_symmetry_3
_geom_torsion_site_symmetry_4
C1 C2 C3 C4 -179.9(2) . . . .
C1 C2 O1 Cu1 174.24(16) . . . .
C2 C3 C4 C5 -178.9(2) . . . .
C2 C3 C4 O2 1.4(4) . . . .
C3 C2 O1 Cu1 -4.2(3) . . . .
C3 C4 O2 Cu1 4.4(3) . . . .
C5 C4 O2 Cu1 -175.36(16) . . . .
O1 C2 C3 C4 -1.5(4) . . . .
