#------------------------------------------------------------------------------
#$Date: 2019-07-04 11:31:46 +0300 (Thu, 04 Jul 2019) $
#$Revision: 216735 $
#$URL: file:///home/coder/svn-repositories/cod/cif/1/55/19/1551971.cif $
#------------------------------------------------------------------------------
#
# This file is available in the Crystallography Open Database (COD),
# http://www.crystallography.net/
#
# All data on this site have been placed in the public domain by the
# contributors.
#
data_1551971
loop_
_publ_author_name
'Neil S. Keddie'
'Alexandra M. Z. Slawin'
'Tomas Lebl'
'Douglas Philp'
'David O Hagan'
_publ_section_title
;
 All-cis 1,2,3,4,5,6-hexafluorocyclohexane is a facially polarized
 cyclohexane
;
_journal_name_full               'Nature Chemistry'
_journal_page_first              483
_journal_page_last               488
_journal_paper_doi               10.1038/nchem.2232
_journal_volume                  7
_journal_year                    2015
_chemical_absolute_configuration syn
_chemical_formula_moiety         'C6 H7 F5 O'
_chemical_formula_sum            'C6 H7 F5 O'
_chemical_formula_weight         190.11
_space_group_crystal_system      monoclinic
_space_group_IT_number           4
_space_group_name_Hall           'P 2yb'
_space_group_name_H-M_alt        'P 1 21 1'
_atom_sites_solution_hydrogens   geom
_atom_sites_solution_primary     direct
_atom_sites_solution_secondary   difmap
_cell_angle_alpha                90.0000
_cell_angle_beta                 93.724(8)
_cell_angle_gamma                90.0000
_cell_formula_units_Z            2
_cell_length_a                   5.7119(15)
_cell_length_b                   5.5655(15)
_cell_length_c                   11.244(3)
_cell_measurement_reflns_used    2946
_cell_measurement_temperature    173
_cell_measurement_theta_max      27.50
_cell_measurement_theta_min      3.60
_cell_volume                     356.69(16)
_computing_cell_refinement       'CrystalClear-SM Auto 2.0 r15'
_computing_data_collection       'CrystalClear-SM Auto 2.0 r15 (Rigaku, 2011)'
_computing_data_reduction        'CrystalClear-SM Auto 2.0 r15'
_computing_molecular_graphics    'CrystalStructure 4.1'
_computing_publication_material  'CrystalStructure 4.1 (Rigaku, 2014)'
_computing_structure_refinement  'SHELXL2013 (Sheldrick, 2008)'
_computing_structure_solution    'SIR2004 (Burla, et al., 2005)'
_diffrn_ambient_temperature      173
_diffrn_detector_area_resol_mean 7.314
_diffrn_measured_fraction_theta_full 0.997
_diffrn_measured_fraction_theta_max 0.998
_diffrn_measurement_device_type  'Rigaku Mercury70'
_diffrn_measurement_method       \w
_diffrn_radiation_type           'Mo K\a'
_diffrn_radiation_wavelength     0.71075
_diffrn_reflns_av_R_equivalents  0.0551
_diffrn_reflns_Laue_measured_fraction_full 0.997
_diffrn_reflns_Laue_measured_fraction_max 0.998
_diffrn_reflns_limit_h_max       7
_diffrn_reflns_limit_h_min       -7
_diffrn_reflns_limit_k_max       7
_diffrn_reflns_limit_k_min       -7
_diffrn_reflns_limit_l_max       14
_diffrn_reflns_limit_l_min       -14
_diffrn_reflns_number            3616
_diffrn_reflns_point_group_measured_fraction_full 0.998
_diffrn_reflns_point_group_measured_fraction_max 0.992
_diffrn_reflns_theta_full        25.000
_diffrn_reflns_theta_max         27.480
_diffrn_reflns_theta_min         3.575
_diffrn_standards_interval_count .
_diffrn_standards_number         0
_exptl_absorpt_coefficient_mu    0.203
_exptl_absorpt_correction_T_max  0.960
_exptl_absorpt_correction_T_min  0.673
_exptl_absorpt_correction_type   multi-scan
_exptl_absorpt_process_details   'REQAB (Rigaku, 1998)'
_exptl_crystal_colour            colorless
_exptl_crystal_density_diffrn    1.770
_exptl_crystal_density_method    'not measured'
_exptl_crystal_description       prism
_exptl_crystal_F_000             192.00
_exptl_crystal_size_max          0.200
_exptl_crystal_size_mid          0.200
_exptl_crystal_size_min          0.200
_refine_diff_density_max         0.30
_refine_diff_density_min         -0.31
_refine_ls_abs_structure_details
;
 Flack x determined using 327 quotients [(I+)-(I-)]/[(I+)+(I-)]
 (Parsons, Flack and Wagner, Acta Cryst. B69 (2013) 249-259).
;
_refine_ls_abs_structure_Flack   -0.5(10)
_refine_ls_extinction_method     none
_refine_ls_goodness_of_fit_ref   1.063
_refine_ls_hydrogen_treatment    constr
_refine_ls_number_parameters     111
_refine_ls_number_reflns         1635
_refine_ls_number_restraints     2
_refine_ls_R_factor_all          0.1095
_refine_ls_R_factor_gt           0.0659
_refine_ls_shift/su_max          0.000
_refine_ls_structure_factor_coef Fsqd
_refine_ls_weighting_details
'w = 1/[\s^2^(Fo^2^)+(0.0606P)^2^+0.0000P] where P=(Fo^2^+2Fc^2^)/3'
_refine_ls_weighting_scheme      calc
_refine_ls_wR_factor_gt          0.1286
_refine_ls_wR_factor_ref         0.1451
_reflns_number_gt                1029
_reflns_number_total             1635
_reflns_threshold_expression     F^2^>2.0\s(F^2^)
_cod_data_source_file            nchem.2232-s5.cif
_cod_data_source_block           10
_cod_database_code               1551971
_shelx_res_file
;

    shelxl.res created by SHELXL-2014/7

TITL NKDH26
CELL  0.71075 5.71190 5.56550 11.24400 90.000 93.724 90.000
ZERR  2 0.00150 0.00150 0.00300 0.000 0.008 0.000
LATT -1
SYMM    -X, .50+Y,    -Z
SFAC C H F O
UNIT 12 14 10 2
SHEL 99999.000000 0.000000
L.S. 20
FMAP 2
PLAN -5
SPEC 0.30
WPDB -2
HTAB
LIST 4
TEMP -100.0
ACTA 50
SIZE 0.200 0.200 0.200
DFIX 0.9800 0.0050 O6 H6O
EQIV $1 -x+1, y+1/2, -z+1
HTAB O6 F1_$1
WGHT    0.060600
FVAR       3.30735
F1    3    0.677727    0.028452    0.713629    11.00000    0.05799    0.06212 =
         0.06161    0.00161    0.02063    0.01856
F2    3    0.582236    0.322013    0.896882    11.00000    0.04531    0.06364 =
         0.04604   -0.01124    0.00155   -0.01395
F3    3    0.158019    0.292132    0.996155    11.00000    0.06838    0.05469 =
         0.03963   -0.00302    0.02114   -0.00423
F4    3    0.238134    0.645039    0.837675    11.00000    0.07638    0.02641 =
         0.06884   -0.00794    0.02501   -0.01177
F5    3    0.095342    0.606588    0.607155    11.00000    0.08053    0.07361 =
         0.06960    0.03753    0.01145    0.02530
O6    4    0.424298    0.262246    0.534120    11.00000    0.09494    0.06441 =
         0.03288    0.00790    0.02364    0.00807
AFIX 147
H6O   2    0.455294    0.386324    0.495617    11.00000    0.11543
AFIX   0
C1    1    0.447777    0.102019    0.729468    11.00000    0.03881    0.02731 =
         0.03865    0.00074    0.00895   -0.00260
AFIX  13
H1    2    0.337868   -0.029268    0.701706    11.00000   -1.20000
AFIX   0
C2    1    0.420271    0.146775    0.858757    11.00000    0.04385    0.02773 =
         0.03845   -0.00014    0.00176   -0.00646
AFIX  13
H2    2    0.452606   -0.004755    0.904717    11.00000   -1.20000
AFIX   0
C3    1    0.175315    0.231740    0.877508    11.00000    0.04535    0.03290 =
         0.03080   -0.00309    0.01379   -0.01196
AFIX  13
H3    2    0.064020    0.096867    0.857407    11.00000   -1.20000
AFIX   0
C4    1    0.101342    0.447393    0.801101    11.00000    0.03326    0.03727 =
         0.04997    0.00190    0.01316    0.00332
AFIX  13
H4    2   -0.068259    0.483554    0.809567    11.00000   -1.20000
AFIX   0
C5    1    0.142351    0.397016    0.672267    11.00000    0.04854    0.04509 =
         0.04022    0.01060    0.00339    0.00124
AFIX  13
H5    2    0.033786    0.266763    0.641771    11.00000   -1.20000
AFIX   0
C6    1    0.394524    0.324352    0.654120    11.00000    0.04592    0.03589 =
         0.02991    0.00337    0.01107   -0.00398
AFIX  13
H6    2    0.504047    0.457502    0.679726    11.00000   -1.20000
AFIX   0
HKLF 4
 
REM  NKDH26
REM R1 =  0.0659 for    1029 Fo > 4sig(Fo)  and  0.1095 for all    1635 data
REM    111 parameters refined using      2 restraints
 
END  
     
WGHT      0.0604      0.0000 

REM Instructions for potential hydrogen bonds
HTAB O6 F1_$1
HTAB O6 O6_$1
EQIV $2 x, y-1, z
HTAB C1 F4_$2
HTAB C1 F5_$2
EQIV $3 -x+1, y-1/2, -z+2
HTAB C2 F2_$3
HTAB C2 F4_$2
EQIV $4 x-1, y, z
HTAB C4 F2_$4
HTAB C5 F1_$4

REM Highest difference peak  0.301,  deepest hole -0.307,  1-sigma level  0.082
Q1    1   0.5937 -0.3275  0.8244  11.00000  0.05    0.30
Q2    1   0.7529  0.4139  0.6574  11.00000  0.05    0.28
Q3    1   0.9643 -0.1030  0.6873  11.00000  0.05    0.25
Q4    1   0.7220  0.3265  0.8271  11.00000  0.05    0.25
Q5    1   0.5003 -0.1582  0.8169  11.00000  0.05    0.22
;
_shelx_res_checksum              6758
_shelx_hkl_file
;
  -1   0   0 3721.78   81.94
  -1   0   0 3990.68   86.11
  -1   0   0 3803.60   54.01
   0   0   2 2462.16   57.95
   0   0  -2 2497.80   63.08
   0   1   0    4.00    3.03
   0  -1   0    3.01    5.16
   0   1   0    4.37    7.31
   1   0  -1 7295.62  165.30
   1   0  -1 7287.41  118.66
  -1   0   1 7224.69  115.36
  -1   0   1 7200.47  164.83
   0   1   110882.92  248.09
   0  -1   110617.80  211.40
   0   1   110525.13  161.27
   0   1  -110682.58  205.70
   0  -1  -110469.69  240.01
   0  -1   110704.49  235.20
  -1   0  -111801.98  261.01
  -1   0  -111726.88  239.73
  -1   0   2   21.06    6.81
   1   0  -2   32.98    7.11
  -1   0   2   27.21   10.67
  -1  -1   011868.76  305.90
   1   1   011707.39  295.43
   1  -1   011397.95  303.43
   1   1   011570.66  228.93
  -1   1   011807.68  276.54
   0  -1  -2  827.68   33.55
   0  -1   2  829.43   31.51
   0  -1   2  929.62   24.66
   0   1   2  853.80   35.93
   0   1  -2  873.96   31.89
  -1   0  -2  808.35   34.94
   1   0   2  829.79   29.34
  -1   0  -2  901.11   24.77
  -1   1   1 7219.54  181.22
  -1   1   1 6961.10  143.63
  -1  -1   1 6627.94  174.82
  -1  -1   1 7185.76  170.30
   1  -1  -1 7210.06  198.04
   0   0   3   -4.85    8.32
   0   0   3    3.47    2.44
   0   0  -3   14.66    8.97
  -1  -1  -114764.16  381.54
  -1  -1  -114136.44  259.63
   1  -1   114399.31  362.55
  -1   1  -113889.66  383.54
   1   1   114023.93  368.74
  -1  -1   2 8828.11  233.06
  -1   1   2 8820.68  216.36
   1  -1  -2 8829.89  231.48
  -1  -1   2 8794.73  220.73
  -1   1   2 8277.80  207.61
  -1  -1   2 8515.53  211.56
   1   0  -3  218.91   12.71
  -1   0   3  220.94   17.65
  -1   0   3  243.07   18.92
  -1  -1  -2 1495.99   50.96
   1  -1   2 1459.16   47.53
  -1  -1  -2 1309.19   38.51
   1  -1   2 1442.66   45.03
   1   1   2 1428.51   58.42
  -1   1  -2 1493.23   59.50
   0  -1   3 8271.11  244.26
   0  -1   3 7819.22  140.78
   0   1   3 8426.83  238.92
   0  -1  -3 9170.57  227.62
   0   1  -3 8512.15  245.31
   0  -1  -3 8189.05  222.76
  -1   0  -3 8150.38  184.06
  -1   0  -3 8979.82  255.74
   1   0   3 8576.63  229.73
   2   0   0  298.10   29.36
  -2   0   0  348.35   30.05
   2   0  -114787.97  487.19
  -2   0   115607.64  448.25
   0   0  -4 2888.75  107.57
   0   0   4 2954.01  103.75
   1   1  -3   47.96    9.80
   1  -1  -3   69.39   12.99
  -1  -1   3   86.31   14.29
  -1  -1   3   77.85    7.83
  -1   1   3   53.15   12.15
  -1   1   3   75.61   11.90
   0   2   0 4765.83  179.85
   0  -2   0 4563.05  156.65
  -2   0  -1 1144.18   41.32
   2   0   1 1127.72   29.79
  -2   0  -1 1037.26   43.89
   0  -2   1 2773.85  100.06
   0  -2   1 2877.03  104.94
   0  -2  -1 2940.61  112.53
   0   2   1 2843.32  112.55
   0   2  -1 2958.37   78.92
  -1   1  -311991.12  357.27
  -1  -1  -311011.83  322.79
   1  -1   310949.97  347.36
   1   1   312376.09  384.54
  -1  -1  -312109.33  310.95
   2   0  -2   -4.71   11.45
  -2   0   2   -1.16    9.53
  -2   0   2    6.92    5.37
  -1   0   4 3262.98  107.33
   1   0  -4 2924.07   71.71
  -1   0   4 3108.34  109.05
  -2   1   0 4502.93  160.78
  -2  -1   0 4611.68  131.00
   2  -1   0 4887.92  172.74
   2   1   0 4696.41  151.22
  -2  -1   0 4894.90  157.34
   2   1  -119958.88  616.40
   2  -1  -120213.44  631.91
  -2  -1   120014.20  579.41
  -2   1   120385.75  631.51
  -2  -1   119937.68  612.54
   0  -1  -4 5950.73  170.71
   0  -1   4 6099.51  196.87
   0  -1  -4 6064.03  186.56
   0   1   4 6191.86  202.45
   0   1  -4 5907.60  200.95
   1   2   0  844.46   50.75
  -1  -2   0  850.38   43.72
  -1   2   0  840.76   35.33
   1  -2   0  901.86   47.51
   0  -2  -212816.73  434.19
   0   2   213555.89  447.59
   0  -2   213051.68  444.72
   0  -2   213288.08  402.31
   0   2  -212873.98  361.54
  -2   0  -2 1811.78   63.74
  -2   0  -2 1638.38   72.82
  -1   2   1 3208.72  111.20
   1  -2  -1 3208.16  124.22
  -1  -2   1 3028.78  117.07
   1   2  -1 3257.00   76.10
  -1   2   1 3019.48   94.67
  -1  -2   1 3106.97  105.19
   1   0   4 5147.92  175.33
  -1   0  -4 4491.26  163.78
  -1   0  -4 5280.40  118.33
   2  -1   1 3488.88  129.70
  -2  -1  -1 3176.09   99.93
  -2  -1  -1 3497.07  120.67
  -2   1  -1 3466.78  128.09
  -1  -2  -1 5317.85  188.15
   1  -2   1 5530.35  190.96
   1  -2   1 5740.03  173.77
  -1   2  -1 5532.02  176.73
   1   2   1 5693.23  216.94
  -2  -1   2 3304.22  110.16
  -2   1   2 3221.14   73.26
  -2  -1   2 3570.32  126.19
   2  -1  -2 3305.19  126.42
  -2   1   2 3281.22  132.13
  -1   1   4 2595.23   94.21
  -1   1   4 2475.70   95.57
  -1  -1   4 2488.75   60.13
   1   1  -4 2596.27  104.78
   1  -1  -4 2558.07   92.78
  -1  -1   4 2534.90   99.99
  -2   0   3 1354.39   65.69
  -2   0   3 1088.98   40.36
  -1  -2   2  688.29   42.39
   1  -2  -2  771.23   48.30
  -1  -2   2  701.05   32.20
  -1   2   2  787.76   40.00
  -1   2   2  749.39   34.58
   2  -1   2 1797.01   57.98
  -2  -1  -2 1654.33   63.57
  -2  -1  -2 1652.12   66.82
  -2   1  -2 1707.77   77.46
   2   1   2 1562.36   68.00
   2  -1   2 1530.55   69.56
  -1   2  -210744.15  357.20
  -1  -2  -211142.88  368.94
   1  -2   210586.71  335.12
   1   2   210503.76  386.99
   1  -2   210663.69  346.01
   1  -1   4 1536.64   48.48
   1  -1   4 1660.91   71.90
  -1   1  -4 1484.76   76.03
  -1  -1  -4 1521.55   68.88
  -1  -1  -4 1543.80   56.58
   1   1   4 1397.74   71.58
   0   0   5 1359.57   68.05
   0   0  -5 1201.81   59.73
   0  -2  -3 4064.78  159.89
   0   2   3 4091.25  163.55
   0  -2   3 3755.11  147.04
   0  -2   3 4277.94  135.35
  -2   0  -3  192.67   27.15
  -2   0  -3  230.76   19.30
   2   0   3  187.16   18.58
  -2  -1   3 1496.13   65.34
   2  -1  -3 1519.75   71.18
  -2   1   3 1526.28   48.79
  -2   1   3 1382.41   65.16
  -2  -1   3 1437.88   61.03
  -2  -1   3 1599.56   58.03
   1   0  -527431.92  625.52
  -1   0   527307.43  928.96
   1   0  -527620.18  935.10
  -1   2   3 4834.37  182.60
  -1  -2   3 4764.45  148.72
  -1  -2   3 4847.61  191.92
   1  -2  -3 4757.05  185.00
   0  -1   5 3032.08  133.46
   0   1   5 2687.61  117.06
   0   1  -5 2542.98  116.98
   0  -1  -5 2714.04  114.00
   2   0  -4 1503.77   66.00
  -2   0   4 1318.51   69.90
  -2   0   4 1528.78   66.18
   1   2   3 3482.28  159.05
  -1  -2  -3 3413.21  132.00
  -1  -2  -3 3182.86   83.70
  -1   2  -3 3496.37  141.39
   1  -2   3 3477.93  130.63
   1  -2   3 3414.31  124.38
   2   1   3  273.44   28.01
   2  -1   3  299.50   25.28
  -2  -1  -3  303.75   25.58
  -2   1  -3  324.48   35.85
  -2  -1  -3  232.55   20.98
   1   0   5 3156.89  129.29
  -1   0  -5 3122.53  141.74
  -1   0  -5 3388.62   81.85
  -1  -1   5  609.64   41.39
  -1   1   5  615.90   45.51
   1  -1  -5  630.25   34.71
   1   1  -5  581.55   20.16
   1   1  -5  569.52   39.11
  -1   1   5  555.22   40.47
  -2   2   0  618.12   41.78
  -2  -2   0  568.39   24.92
   2  -2   0  624.42   47.06
   2   2   0  678.36   48.39
  -2  -2   0  570.25   37.84
   2   2  -1   52.56   21.75
  -2  -2   1   45.78   14.67
  -2  -2   1   32.33   10.37
   2  -2  -1   61.74   21.27
  -2   2   1   63.78   11.26
  -2   2   1   55.58   16.88
   0  -2  -4 1243.95   55.60
   0   2  -4 1429.46   70.42
   0  -2  -4 1313.86   71.03
   0   2   4 1263.32   74.19
   0  -2   4 1354.84   74.93
   0  -2   4 1348.02   49.99
   2  -2   1 4173.49  173.06
   2  -2   1 3939.75  126.65
   2   2   1 4074.73  178.18
  -2  -2  -1 4455.72  179.33
  -2   2  -1 4343.23  179.42
  -2   1   4  260.89   22.05
  -2   1   4  287.30   37.05
  -2  -1   4  266.63   17.81
  -2  -1   4  286.56   28.58
   2  -1  -4  289.71   28.64
  -2  -1   4  257.61   26.87
  -2   0  -4   84.41   11.55
   2   0   4   73.16   16.95
  -2   0  -4   61.00   20.29
  -1   1  -5   98.23   21.77
   1   1   5   93.74   22.74
  -1  -1  -5  130.91   14.23
   1  -1   5  191.14   24.81
   1  -1   5  134.07   12.68
  -1  -1  -5  141.63   22.59
  -2  -2   2 7665.43  283.41
   2  -2  -2 7504.86  298.48
  -2  -2   2 7576.76  240.24
  -2  -2   2 7742.37  314.74
  -2   2   2 6994.83  262.44
   3   0   0 2488.70  117.84
  -3   0   0 2143.92  107.08
   3   0  -1 7979.36  339.74
  -3   0   1 7443.89  302.03
  -1   2   4  326.30   32.84
   1   2  -4  297.47   31.66
  -1  -2   4  341.07   34.55
   1  -2  -4  314.04   33.36
  -1  -2   4  325.74   18.46
  -1   2   4  334.45   26.33
   0   0   6 3352.34  158.54
   0   0  -6 3643.07  168.91
   0   3   0    3.03   16.19
   0   3   0   12.42    6.23
   0  -3   0   -7.16   16.78
   3   0   1  -10.97   20.23
   3   0   1   32.43    7.42
  -3   0  -1   11.75   17.65
   2  -2   2 4062.40  139.96
  -2   2  -2 4438.15  191.10
   2   2   2 3988.28  181.56
   2  -2   2 4222.33  183.58
  -2  -2  -2 4264.60  174.50
   1  -2   4 8875.66  332.24
   1  -2   4 8713.14  280.01
  -1  -2  -4 8765.54  315.53
  -1   2  -4 8482.83  321.45
   1   2   4 8836.25  359.78
   3   0  -2 2314.60  121.70
  -3   0   2 1963.87   56.06
  -3   0   2 2145.59  109.00
   0  -3   1 3889.86  176.99
   0   3  -1 4168.01  207.71
   0   3  -1 4269.83  134.49
   0   3   1 3888.61  189.36
   0  -3  -1 3862.26  174.99
   2  -1   4 2096.16   91.53
   2  -1   4 2195.57   90.53
   2   1   4 2004.23   94.10
  -2  -1  -4 2094.55   80.02
  -2  -1  -4 1878.46   85.98
  -2   1  -4 2199.66  111.75
  -2   0   5   16.93   13.43
  -2   0   5  -12.21   14.23
   2   0  -5   18.60   10.12
   1   0  -6   53.01   27.70
  -1   0   6  105.06   21.40
  -3  -1   0 1856.75   90.88
  -3   1   0 2214.67  117.17
  -3  -1   0 1822.63   86.58
   3  -1   0 1921.06  101.36
  -3  -1   1 6163.25  234.01
   3  -1  -1 6106.06  271.48
  -3   1   1 6286.91  262.75
  -3  -1   1 6275.39  244.98
   2  -2  -3 1050.75   68.53
  -2  -2   3  912.46   46.53
  -2   2   3 1107.39   65.25
  -2  -2   3 1012.63   51.78
  -2  -2   3  983.89   59.95
  -2   2   3  954.70   47.76
   0  -1   6 9516.79  399.04
   0   1  -6 8591.79  364.00
   0  -1  -6 8581.28  348.63
   0   1   6 8606.38  365.31
   3   0   210591.78  430.98
  -3   0  -210435.61  411.36
   3   0   210545.07  304.65
   1  -3   0 2367.95  118.62
  -1  -3   0 2198.15  112.76
  -1   3   0 2186.33  104.63
  -1   3   0 2218.63   85.46
   1   3   0 2185.34  111.87
   0  -3   2  213.17   32.02
   0  -3  -2  207.12   27.97
   0   3   2  207.30   27.89
   0   3   2  182.20   11.46
   0  -3   2  207.59   29.46
   0   3  -2  225.13   23.77
   3   1   1   77.15   15.50
  -3  -1  -1   67.11   25.68
   3  -1   1   84.33   24.43
  -3  -1  -1   58.60   17.06
  -3   1  -1   67.41   23.47
   1  -3  -1  591.26   55.39
   1   3  -1  670.16   66.01
  -1   3   1  660.35   48.15
  -1  -3   1  556.69   47.69
  -1   3   1  549.56   33.56
   1   3  -1  596.24   24.27
   0   2   5  367.85   38.78
   0   2  -5  402.31   40.24
   0  -2  -5  343.83   35.63
   0  -2  -5  355.69   30.65
   0  -2   5  330.52   39.02
  -3  -1   2 2003.24   89.58
  -3   1   2 2031.62  103.73
  -3  -1   2 1713.08   79.97
   3  -1  -2 1877.54  101.03
   1   0   6 1279.54   80.35
  -1   0  -6 1281.63   37.45
  -1   0  -6 1241.95   81.66
  -3   0   3  126.93   22.56
   3   0  -3  103.32   24.29
  -3   0   3  109.69   14.95
  -1   3  -1  336.34   32.12
  -1  -3  -1  296.04   37.46
  -1   3  -1  305.78   37.90
   1  -3   1  283.00   36.53
   1   3   1  243.05   45.18
  -2   1   5 2275.57  111.29
   2  -1  -5 2118.44   98.41
  -2  -1   5 2404.50  112.33
  -2   1   5 2443.41  104.74
   2   1  -5 2392.90   94.45
  -2  -1   5 2617.35  119.71
   2   2   3 2666.00  138.57
   2  -2   3 2588.31  102.75
  -2  -2  -3 2827.88  129.57
   2  -2   3 2795.22  136.90
  -2  -2  -3 2438.57   85.34
  -2   2  -3 2972.36  150.45
  -1  -1   6 5711.13  241.72
   1   1  -6 5774.23  253.25
   1  -1  -6 5702.14  197.43
  -1   1   6 5841.66  243.09
   2   0   5  778.25   52.48
  -2   0  -5  792.56   56.52
  -2   0  -5  745.21   36.83
  -1   2   5  616.96   41.90
   1   2  -5  542.15   49.76
   1  -2  -5  600.95   47.31
  -1  -2   5  618.20   52.24
  -1  -2   5  566.99   25.02
  -1   2   5  556.81   43.67
   1  -3  -2  333.43   45.06
  -1   3   2  342.14   28.13
  -1  -3   2  313.10   32.59
  -1   3   2  320.91   37.39
  -1  -3   2  394.41   43.07
   3   1   2   42.93   14.24
  -3   1  -2   28.06   24.54
  -3  -1  -2   63.97   14.95
   3  -1   2   34.15   20.77
   3  -1   2   28.12    9.89
  -3  -1  -2   59.38   16.34
   1   3   2 1312.79   86.53
   1  -3   2 1323.24   79.44
   1  -3   2 1540.61   90.68
  -1   3  -2 1595.67   80.95
  -1  -3  -2 1306.32   84.29
   1  -1   6  412.81   42.74
  -1  -1  -6  528.34   44.26
  -1   1  -6  345.06   40.94
  -1  -1  -6  368.27   21.95
   1   1   6  449.00   46.12
   0  -3   3 6144.84  240.62
   0   3  -3 5258.85  192.87
   0  -3   3 5421.28  223.72
   0  -3  -3 5984.95  266.22
   0   3   3 5729.20  261.40
   0   3   3 5124.69  143.27
  -3  -1   3 2547.44  112.20
   3  -1  -3 2284.67  121.86
  -3  -1   3 2277.29  101.26
  -3  -1   3 2798.65  138.49
  -3   1   3 2731.44  141.73
  -2  -2   4 1115.61   69.02
  -2   2   4  959.52   50.15
   2   2  -4  871.96   48.30
   2  -2  -4  991.14   68.68
  -2  -2   4 1027.81   46.68
  -2   2   4 1008.54   67.51
   3   0   3   66.44   14.17
   3   0   3   87.17   24.35
  -3   0  -3   90.48   25.92
  -1  -2  -5  393.30   31.35
   1   2   5  484.92   49.45
   1  -2   5  503.52   46.92
  -1   2  -5  363.40   34.52
  -2  -1  -5  177.27   24.88
   2  -1   5   81.00   20.56
   2  -1   5  132.75   23.84
   2   1   5  162.93   24.96
  -2   1  -5  135.28   30.30
  -2  -1  -5  105.47   16.04
  -3   0   4  136.02   27.17
  -3   0   4  101.08   16.83
   3   0  -4  101.37   25.34
  -2   0   6 2260.40  130.34
  -2   0   6 2341.59  118.50
   1   3  -3   -5.76   14.27
  -1  -3   3   51.52   12.05
  -1  -3   3   15.74   18.19
   1  -3  -3    5.61   17.48
  -1   3   3   -4.85   12.41
   0   0  -7 3815.78  194.31
   0   0   7 3424.40  168.42
  -2  -2  -4  360.07   30.11
  -2   2  -4  337.26   37.92
   2   2   4  296.49   44.64
  -2  -2  -4  369.49   33.92
   2  -2   4  388.87   36.22
  -1   3  -3  337.82   36.72
   1  -3   3  317.31   42.67
   1   3   3  375.54   47.79
   1  -3   3  320.72   35.35
  -1  -3  -3  345.41   40.24
  -3  -1  -3  200.98   24.67
   3  -1   3  199.22   19.14
  -3   1  -3  190.78   37.66
  -3  -1  -3  260.72   31.61
   3   1   3  181.18   27.43
   3  -1   3  158.10   32.77
  -1   0   7 1659.99  103.57
   1   0  -7 1566.95  104.36
   3   2   0 1651.44   96.95
  -3  -2   0 1643.93   76.09
  -3  -2   0 1600.00   88.60
   3  -2   0 1636.51   97.58
  -3   2   0 1754.26  104.67
   3   2  -1   -2.76   14.16
   3  -2  -1    9.88   17.37
  -3   2   1   -4.68   15.62
  -3  -2   1    9.97   11.56
  -3  -2   1   -1.90   10.06
   3   1  -4  550.48   50.77
  -3  -1   4  505.83   38.84
   3  -1  -4  545.09   47.23
  -3  -1   4  488.76   43.45
  -3   1   4  379.71   26.82
  -3   1   4  497.08   50.56
   2  -3   0 2507.22  148.64
  -2   3   0 2663.63  125.00
   2   3   0 2695.84  158.36
  -2   3   0 2398.24  111.96
  -2  -3   0 2661.54  136.24
   0  -2  -6 1384.52   78.89
   0  -2  -6 1337.41   77.85
   0   2  -6 1350.43   94.17
   0   2   6 1256.72   84.75
   0  -2   6 1431.11   90.42
  -2   1   6  225.14   30.74
  -2  -1   6  246.09   36.42
   2   1  -6  196.14   26.65
   2   1  -6  223.95   23.64
   2  -1  -6  234.79   28.60
  -2   1   6  219.78   35.08
  -2   3   1  195.93   28.34
  -2  -3   1  254.76   28.23
   2   3  -1  256.42   46.41
   2  -3  -1  214.03   34.56
   2   3  -1  222.98   16.18
   0  -3  -4 2011.09  119.59
   0   3  -4 1805.12   99.43
   0  -3   4 1999.96   96.41
   0  -3   4 1878.27  111.72
   0   3   4 1789.90  118.94
   3   2   1 1569.81   90.97
  -3  -2  -1 1529.04   86.34
  -3   2  -1 1442.21   96.08
   3  -2   1 1515.98  101.07
   0   1   7  270.86   37.86
   0  -1   7  267.87   34.85
   0  -1  -7  195.23   16.67
   0   1  -7  256.94   38.60
   0  -1  -7  193.83   35.91
  -2   3  -1 4106.61  185.86
   2  -3   1 4385.75  223.86
   2   3   1 4277.94  230.83
  -2  -3  -1 4439.03  211.38
   3   2  -2  577.94   62.11
  -3   2   2  406.61   18.79
   3  -2  -2  432.94   46.21
  -3  -2   2  412.41   36.55
  -3  -2   2  393.51   35.43
  -3   2   2  507.37   44.46
   3   0   4   45.59   15.78
  -3   0  -4   40.23   21.84
   3   0   4   46.65   21.64
  -2  -2   5  334.98   23.92
   2   2  -5  399.72   42.33
  -2   2   5  362.83   37.95
   2  -2  -5  360.54   42.05
  -2  -2   5  346.06   42.77
  -2   2   5  392.26   35.94
   2   0   6  410.49   47.07
  -2   0  -6  443.81   44.77
   1  -2  -6 1175.16   72.61
   1   2  -6 1372.93   85.26
  -1  -2   6 1196.59   86.49
  -1   2   6 1275.11   74.80
  -1   2   6 1297.20   90.01
  -1  -2   6 1198.11   39.69
   1   0   7  418.72   49.40
  -1   0  -7  422.65   52.24
  -2   3   2  164.97   27.52
  -2   3   2  218.74   26.22
   2   3  -2  156.45   18.97
   2  -3  -2  172.95   37.79
  -2  -3   2  225.13   27.48
   2   3  -2  220.79   33.98
  -1   1   7  616.81   56.91
   1  -1  -7  530.53   34.57
  -1  -1   7  672.52   56.67
   1  -1  -7  763.21   64.99
   1   1  -7  708.75   62.28
   1  -3  -4  388.03   48.39
  -1  -3   4  411.68   55.93
  -1   3   4  424.29   31.84
   1   3  -4  350.86   33.12
  -1   3   4  412.18   44.34
  -1  -3   4  374.04   26.77
  -3   0   5 1664.24   81.61
  -3   0   5 1730.29  105.66
   3   0  -5 1785.54   97.08
  -3  -2  -2  929.87   53.76
  -3   2  -2  818.24   69.48
   3   2   2  882.43   64.05
   3  -2   2  768.49   71.31
  -3  -2  -2  834.65   51.98
   2  -3   2 3086.00  141.30
   2  -3   2 2854.94  162.40
  -2  -3  -2 2782.16  152.05
   2   3   2 2671.25  153.68
  -2   3  -2 2993.18  156.02
  -1   3  -4  126.42   28.20
   1   3   4   78.00   28.49
   1  -3   4  107.50   25.18
   1  -3   4  146.80   29.46
  -1  -3  -4  100.64   28.41
   1  -2   6 1014.21   80.52
   1   2   6  974.03   81.33
  -1  -2  -6 1095.56   67.26
  -1   2  -6 1161.13   89.32
  -1  -2  -6 1199.77   66.25
   3  -2  -3  265.50   43.41
  -3  -2   3  283.51   40.87
  -3  -2   3  237.81   29.19
  -3  -2   3  271.76   29.50
  -3   2   3  282.45   19.27
  -3   2   3  250.62   42.88
  -3  -1  -4  917.35   60.63
  -3   1  -4  813.43   66.38
   3  -1   4  766.38   48.34
  -3  -1  -4  799.38   49.12
   3   1   4  751.11   53.38
   3  -1   4  777.10   62.17
   2  -1   6  213.05   33.29
  -2  -1  -6  256.44   23.12
  -2  -1  -6  141.44   30.87
  -2   1  -6  161.89   33.72
   2   1   6  197.37   37.55
   2  -1   6  159.70   22.45
  -1   1  -7   92.85   27.67
   1   1   7   92.95   31.26
  -1  -1  -7  146.52   14.24
  -1  -1  -7  109.03   29.63
   1  -1   7   78.19   29.57
   2  -2   5 1173.61   73.72
   2  -2   5 1130.84   77.17
   2   2   5 1175.57   89.51
  -2   2  -5 1204.90   91.19
  -2  -2  -5 1137.04   66.50
  -2  -3   3 1452.17  101.23
  -2  -3   3 1224.03   72.66
  -2   3   3 1269.07   79.99
   2   3  -3 1071.76   60.05
   2  -3  -3 1254.36   95.28
  -2   3   3 1323.81   79.39
  -3  -1   5  929.68   60.28
   3  -1  -5  953.17   72.15
  -3   1   5  883.95   53.21
   3   1  -5 1111.76   72.48
  -3   1   5 1332.20   96.83
  -3  -1   5 1030.33   73.82
  -2   0   7   -6.02   17.95
  -2   0   7   -9.48   18.91
   0   3   5  289.37   47.33
   0  -3  -5  264.29   27.71
   0  -3  -5  316.44   45.81
   0  -3   5  298.65   42.17
   0   3  -5  344.68   38.91
   0  -3   5  325.02   30.87
  -4   0   1 1153.23   85.12
   4   0  -1 1314.20  110.78
  -4   0   0 2420.93  131.51
   4   0   0 2958.41  179.90
   3  -2   3  950.73   76.52
   3  -2   3 1009.26   54.83
   3   2   3 1005.84   73.58
  -3   2  -3 1094.22   90.91
  -3  -2  -3 1078.31   66.63
   2  -3   3  108.16   32.04
   2  -3   3  137.43   32.80
  -2   3  -3  144.68   30.08
  -2  -3  -3  130.37   23.40
   2   3   3  125.54   38.77
  -3   0  -5  179.31   32.88
   3   0   5  127.58   33.74
   3   0   5  102.33   30.48
  -4   0   2  218.86   38.86
   4   0  -2  155.68   14.84
   4   0  -2  266.00   37.43
   0   0  -8 1303.44   99.52
   0   0   8 1073.35   77.53
   4   0   1  589.59   28.76
  -4   0  -1  798.75   71.06
   4   0   1  755.78   75.12
  -3  -2   4  148.77   22.81
  -3   2   4  208.72   31.77
  -3  -2   4  123.18   30.73
   3  -2  -4  197.99   37.13
  -3  -2   4  149.23   32.60
  -1  -3   5  893.45   46.94
   1  -3  -5  935.64   78.35
  -1   3   5  911.08   79.98
   1   3  -5  961.52   66.03
  -1  -3   5  994.44   85.20
  -1   3   5  998.88   61.46
  -2  -2   6 1253.20   53.65
   2  -2  -6 1255.58   91.89
  -2   2   6 1152.47   76.39
   2   2  -6 1102.56   81.27
  -2  -2   6 1237.94   89.35
   2   1  -7 1153.58   51.14
  -2  -1   7 1367.63   91.23
   2   1  -7 1535.13  107.98
   2  -1  -7 1210.28   71.08
  -2   1   7 1386.99   89.65
  -2   1   7 1646.73  110.47
   0  -4   0 1114.82   91.48
   0   4   0 1068.90   93.45
   0   2  -7 1668.64  122.81
   0   2   7 1662.76  121.72
   0  -2  -7 1500.89   96.05
   0  -2   7 1695.58  118.65
   1   0  -8  -12.17   23.33
  -1   0   8  -15.83   22.02
   0  -4  -1   12.96   23.59
   0   4  -1  -13.73   25.86
   0  -4   1    2.83   20.33
   0   4   1   76.50   22.90
   0   4  -1    0.26   11.36
   0   4   1    6.39    7.72
   2   3  -4  281.16   35.36
   2  -3  -4  318.13   44.93
  -2  -3   4  268.41   40.76
  -2   3   4  347.92   38.78
  -2   3   4  248.64   35.74
  -2  -3   4  239.59   29.96
   4   1  -1  310.71   29.91
   4  -1  -1  292.29   48.42
  -4  -1   1  282.92   42.90
  -4  -1   1  339.18   38.76
  -4   1   1  352.83   52.11
   4   1   0 2258.67  102.82
  -4  -1   0 2242.25  124.76
  -4   1   0 2465.92  151.92
   4  -1   0 2480.09  157.61
  -4  -1   0 2699.87  137.78
  -3   0   6 1109.55   81.73
   3   0  -6  956.52   60.02
  -3   0   6 1002.63   61.09
  -1  -3  -5 1871.84  108.73
  -1   3  -5 1933.32  122.79
   1  -3   5 1946.16  114.24
  -1  -3  -5 1627.88   68.46
   1  -3   5 1814.94   89.97
   1   3   5 1803.03  111.71
   1  -2  -7  257.03   37.17
  -1   2   7  207.18   43.29
  -1  -2   7  283.50   52.46
   1  -2  -7  374.01   37.51
   1   2  -7  283.95   44.77
  -3  -1  -5  553.35   50.66
   3  -1   5  596.15   49.58
   3  -1   5  597.70   53.32
  -3   1  -5  673.49   59.09
   3   1   5  673.33   59.63
  -3  -1  -5  707.65   47.22
   4   0  -3 2332.31  148.66
  -4   0   3 2239.49  126.25
  -4  -1   2  716.10   45.13
  -4   1   2  833.89   73.41
  -4  -1   2  734.70   55.67
   4  -1  -2  737.31   66.73
   4   1  -2  675.67   44.81
   4   0   2   56.52   25.73
   4   0   2   13.93   10.05
  -4   0  -2  -12.59   23.93
   0  -1   8 2742.03  162.87
   0  -1  -8 2620.62  165.29
   0   1  -8 2676.26  169.77
   0   1   8 2874.34  164.43
  -2   0  -7 2021.50  126.67
   2   0   7 1945.24   97.67
   2   0   7 2049.99  128.55
  -4  -1  -1 1152.37   78.20
  -4   1  -1 1115.96   85.79
   4  -1   1 1158.46   97.44
  -4  -1  -1 1107.99   77.87
  -1   4   0  664.14   69.62
   1  -4   0  709.30   67.54
   1   4   0  613.49   76.73
  -1   4   0  651.44   45.10
  -1  -4   0  618.78   58.60
   0   4  -2 1363.89   76.71
   0   4  -2 1411.03  108.45
   0  -4   2 1319.84  102.47
   0   4   2 1263.19  104.38
   0  -4  -2 1315.22  110.45
   1  -4  -1 4447.07  255.07
  -1   4   1 4326.73  169.35
  -1  -4   1 4301.23  236.66
   1   4  -1 4250.71  248.70
  -1  -1   8 1473.76   98.53
   1   1  -8 1681.94  125.69
  -1   1   8 1602.42  114.51
   1  -1  -8 1664.32  114.05
  -1   0  -8   -0.83   20.38
   1   0   8   -6.13   20.76
  -2   3  -4  750.88   68.09
  -2  -3  -4  597.34   54.46
   2  -3   4  613.49   65.35
   2   3   4  620.25   74.14
   2  -3   4  618.97   55.34
  -1   4  -1  728.05   76.13
  -1   4  -1  631.44   42.98
   1  -4   1  639.57   64.02
   1   4   1  619.67   77.42
  -1  -4  -1  649.13   72.70
  -3   2  -4  678.40   58.36
   3  -2   4  641.12   65.46
   3   2   4  603.44   61.30
   3  -2   4  580.84   43.43
  -3  -2  -4  722.35   51.35
   3  -1  -6 3589.34  183.02
  -3   1   6 3351.66  157.54
  -3  -1   6 3757.31  212.21
  -3   1   6 3571.21  200.02
  -3  -1   6 3371.43  168.76
   3   1  -6 3224.70  178.66
   2  -2   6  197.54   32.19
   2   2   6  149.78   36.63
  -2   2  -6  175.24   40.84
  -2  -2  -6  124.11   30.55
   2  -2   6  152.85   23.47
  -2  -2  -6  147.30   24.66
   1  -2   7 2656.44  158.12
   1   2   7 2328.14  152.20
  -1  -2  -7 2282.87  123.90
  -1  -2  -7 2363.97  116.61
  -1   2  -7 2668.73  166.67
  -3  -3   0  645.68   55.18
   3  -3   0  741.11   83.04
   3   3   0  780.67   78.95
  -3   3   0  912.25   87.93
  -3   3   1  922.82   73.70
  -3  -3   1  763.15   46.50
   3  -3  -1  903.76   80.54
  -3  -3   1  996.59   73.69
   3   3  -1 1078.72   86.68
  -4   1   3  570.05   62.18
   4  -1  -3  521.73   65.16
   4   1  -3  471.40   68.84
   4   1  -3  599.04   52.63
  -4  -1   3  578.02   56.89
   4  -1   2 1121.10   85.49
   4   1   2  957.25   68.28
  -4  -1  -2 1019.29   72.93
  -4  -1  -2 1267.06  100.99
  -4   1  -2 1067.55   87.91
  -2   1  -7   61.41   28.32
   2  -1   7   59.05   25.95
   2   1   7   45.65   28.44
  -2  -1  -7   39.60   24.18
  -2  -1  -7   41.79   13.33
   3  -2  -5  257.51   45.97
  -3  -2   5  233.13   26.58
  -3  -2   5  249.31   38.49
  -3  -2   5  400.26   45.79
  -3   2   5  249.49   31.95
  -3   2   5  288.87   47.68
  -1   4   2 1937.36  132.50
  -1   4   2 2097.40   95.24
   1  -4  -2 2185.10  144.60
  -1  -4   2 1993.36  132.67
   1   4  -2 2146.58  154.10
   1   4  -2 2094.74   84.70
   0   3   6   10.61   28.77
   0  -3   6   15.93   24.06
   0   3  -6   37.29   23.89
   0  -3  -6   40.08   16.84
   0  -3  -6   18.08   24.25
   3   3   1 2441.45  163.43
   3  -3   1 2330.49  154.12
  -3   3  -1 2477.08  149.93
  -3  -3  -1 2752.46  162.25
   1   4   2   41.45   33.51
   1  -4   2   41.47   26.68
  -1  -4  -2   84.28   27.39
  -1   4  -2   69.00   21.05
  -1   4  -2   -0.72   33.91
  -4   0   4  217.94   22.15
  -4   0   4  298.53   43.53
   4   0  -4  267.94   46.66
   3   3  -2  730.51   81.35
   3  -3  -2  515.30   70.20
  -3  -3   2  574.11   52.84
  -3  -3   2  503.68   35.45
  -3   3   2  539.87   40.79
  -1  -1  -8 1085.65   90.77
   1   1   8 1227.80  107.67
  -1   1  -8 1261.07  107.82
   1  -1   8 1203.29  102.71
   0  -4   3 1634.93  125.09
   0   4   3 1439.57  116.28
   0   4  -3 1611.11   95.88
   0  -4  -3 1662.93  124.76
   0  -4   3 1597.00  116.64
  -4   0  -3   -2.67   20.00
   4   0   3  -15.27   22.05
   2   3  -5  642.89   56.80
   2  -3  -5  608.17   69.10
  -2  -3   5  780.31   68.02
  -2   3   5  552.82   64.85
  -2  -3   5  696.71   46.51
   1  -3  -6 2147.24  141.89
  -1   3   6 1822.88  127.84
  -1   3   6 1966.12  108.01
  -1  -3   6 1883.26  135.81
   1   3  -6 1878.92  119.15
   2   0  -8  106.54   32.56
   2   0  -8   85.55   19.22
  -2   0   8  182.62   34.04
   3   0   6   32.00   20.52
  -3   0  -6   40.92   20.44
   3   0   6   -0.02   23.69
   3   3   2 1252.31  109.86
   3  -3   2 1221.79   74.79
  -3   3  -2 1212.72  100.27
  -3  -3  -2 1386.28   92.99
   3  -3   2 1233.72  105.47
  -1   4   3  274.68   32.41
  -1   4   3  263.49   47.77
  -1  -4   3  261.49   40.65
   1   4  -3  262.25   31.76
   1  -4  -3  276.64   51.46
  -1  -4   3  245.98   53.68
  -2  -2   7  430.71   58.64
  -2   2   7  465.06   54.08
   2   2  -7  487.17   58.12
   2  -2  -7  473.51   51.76
  -2   2   7  604.14   67.87
  -4   1   4  188.73   38.73
  -4  -1   4  208.68   48.44
  -4  -1   4  272.29   35.67
   4   1  -4  175.74   47.20
   4  -1  -4  208.59   42.66
  -1   3  -6  501.87   54.87
   1   3   6  580.88   69.29
   1  -3   6  537.60   61.68
  -1  -3  -6  511.54   45.71
  -1  -3  -6  425.91   35.23
   4   1   3    5.25   13.10
  -4  -1  -3   15.11   15.75
  -4   1  -3    6.21   20.64
   4  -1   3  -30.57   22.02
  -4  -1  -3   23.30   18.31
  -3   3   3  614.63   51.52
  -3  -3   3  538.36   48.62
   3   3  -3  661.34   88.64
  -3   3   3  633.51   63.81
   3  -3  -3  587.77   76.11
  -4  -2   1 1292.67   92.14
   4   2  -1 1309.69   90.39
  -4  -2   1 1176.75   68.94
  -4   2   1 1578.73  113.64
   4  -2  -1 1320.63  119.24
   4   2   0  781.06   68.31
  -4   2   0 1107.30  106.52
  -4  -2   0  860.64   69.72
  -4  -2   0  863.11   59.67
   4  -2   0  812.27   81.15
  -3   0   7  572.87   51.48
  -3   0   7  781.23   68.66
   3   0  -7  628.85   56.88
   1  -4   3   74.01   32.35
   1   4   3   95.28   39.07
  -1   4  -3   84.24   31.80
  -1  -4  -3   67.49   34.03
   1  -4   3   78.25   28.95
   2  -1  -8   56.96   20.91
  -2  -1   8  115.21   32.11
   2   1  -8  120.38   39.15
  -2   1   8   95.98   29.72
  -2   1   8  116.37   35.86
   3  -1   6  412.66   46.28
   3  -1   6  461.18   48.85
   3   1   6  517.27   55.71
  -3  -1  -6  462.85   39.24
  -3  -1  -6  471.87   56.86
  -3   1  -6  504.14   58.39
   2   3   5  205.93   53.07
   2  -3   5  294.37   39.64
   2  -3   5  316.28   44.49
  -2   3  -5  272.27   47.85
  -2  -3  -5  283.30   39.29
   3   2   5   76.13   28.75
  -3  -2  -5   76.96   20.60
   3  -2   5   16.75   24.06
   3  -2   5   69.92   22.55
  -3   2  -5   72.62   26.75
  -3  -2  -5   63.14   25.02
   4   2  -2  426.96   45.99
   4  -2  -2  409.02   69.57
  -4   2   2  434.46   60.05
  -4  -2   2  459.66   46.84
  -4  -2   2  463.74   58.36
   0  -2  -8 1357.92   97.33
   0   2   8 1334.03  116.45
   0  -2  -8 1137.43   77.46
   0  -2   8 1331.57  115.75
   0   2  -8 1410.76  119.07
   4   2   1  107.30   33.96
  -4  -2  -1  114.37   23.82
   4  -2   1   93.64   31.74
  -4  -2  -1  116.84   26.55
  -4   2  -1  129.79   38.38
  -2   4   0  143.37   37.06
  -2  -4   0  216.28   35.48
  -2   4   0  162.20   40.73
   2  -4   0  145.85   49.94
   2   4   0  293.21   53.55
   0   0  -9  252.61   52.45
   0   0   9  204.72   45.10
  -2   4   1  254.96   35.41
   2   4  -1  278.15   50.41
  -2  -4   1  185.72   37.26
  -2   4   1  170.53   38.23
   2  -4  -1  283.84   50.43
   0  -4  -4 1441.51  124.10
   0   4  -4 1367.13  100.49
   0  -4   4 1556.46  112.60
   0  -4   4 1466.16  121.21
   0   4   4 1353.28  119.07
   4   0  -5  -26.85   21.50
  -4   0   5  -25.87   27.10
  -4   0   5    4.51   12.44
  -2   4  -1   80.72   24.62
   2  -4   1   80.08   35.68
  -2   4  -1   62.47   25.66
   2   4   1   47.29   41.24
  -2  -4  -1   75.86   27.27
  -1  -2   8  331.40   61.93
   1   2  -8  297.12   47.58
   1  -2  -8  440.97   55.86
  -1   2   8  248.97   54.24
   1  -2  -8  302.81   42.07
   4   0   4   -8.01   15.76
   4   0   4   41.47   22.39
  -4   0  -4    7.25   23.87
  -3   2   6  754.57   64.26
  -3  -2   6  923.81   78.58
  -3  -2   6  869.14   53.76
  -3   2   6  832.72   79.60
   3  -2  -6  871.02   83.71
   3   1  -7 1220.03   87.95
  -3   1   7 1412.66   94.63
  -3  -1   7 1310.43   91.67
  -3   1   7 1535.66  113.94
  -3  -1   7 1348.51  106.93
   1   0  -9  663.95   82.92
  -1   0   9  640.78   76.62
   3  -3   3 2085.51  112.78
   3  -3   3 2220.29  159.70
  -3   3  -3 2588.10  170.59
   3   3   3 2396.10  171.37
  -3  -3  -3 2373.74  141.93
  -2  -4   2  389.99   45.64
   2  -4  -2  337.90   62.97
  -2   4   2  473.18   52.69
  -2   4   2  325.96   40.14
   2   4  -2  398.65   72.75
  -2   0  -8  103.77   31.92
   2   0   8   59.69   18.37
   2   0   8   90.43   26.80
  -1   4   4   18.26   18.13
   1   4  -4   20.65   18.30
   1  -4  -4   30.77   33.36
  -1  -4   4   67.38   17.18
  -1   4   4   45.37   27.77
  -1  -4   4   14.52   26.90
  -4  -2   3  118.14   26.84
   4   2  -3   91.83   41.55
   4  -2  -3  105.09   41.90
  -4   2   3  170.87   40.81
  -4  -2   3  163.17   28.54
  -4  -2  -2 1881.56  116.08
  -4  -2  -2 1638.45   99.61
   4   2   2 1754.89  113.83
   4  -2   2 1744.83  140.07
  -4   2  -2 1806.93  133.07
  -2  -2  -7  724.93   61.01
   2   2   7  641.34   66.01
  -2  -2  -7  859.90   57.68
  -2   2  -7  850.12   86.70
   2  -2   7  718.72   57.81
   2  -2   7  785.13   74.41
  -3  -3   4  831.82   81.54
   3  -3  -4  617.09   65.82
  -3  -3   4  606.49   53.23
  -3   3   4  593.81   58.40
   3   3  -4  597.17   48.68
  -2  -3   6  102.16   17.82
  -2  -3   6  101.79   38.62
  -2   3   6  132.63   31.26
   2  -3  -6  108.06   35.81
   2   3  -6  113.37   31.32
   0  -1  -9  625.72   76.04
   0  -1   9  581.26   83.36
   0   1   9  588.90   74.53
   0   1  -9  538.82   66.71
  -2  -4  -2  670.71   68.74
   2  -4   2  602.96   82.87
   2   4   2  699.68   85.81
  -2   4  -2  748.26   78.50
  -2   4  -2  662.88   77.39
   0  -3   7  137.89   39.85
   0  -3  -7   92.52   36.30
   0   3  -7  165.90   37.76
   0  -3  -7  119.71   29.38
   0   3   7  106.30   32.61
   1   4   4   37.86   33.27
  -1   4  -4   30.06   23.95
   1  -4   4   43.18   23.24
   1  -4   4    4.81   23.29
  -1  -4  -4   45.31   28.47
  -4  -1   5  459.62   53.20
  -4  -1   5  542.27   59.64
   4  -1  -5  471.91   63.79
  -4   1   5  518.32   55.97
   4   1  -5  413.91   66.39
   4   1   4   43.44   19.59
  -4  -1  -4   39.67   25.68
   4  -1   4   50.24   17.40
  -4   1  -4   30.50   30.40
   4  -1   4    5.33   26.41
  -1   2  -8 1134.31  105.23
  -1  -2  -8  927.97   58.93
   1   2   8  984.10  101.92
   1  -2   8  867.84   93.94
  -1  -2  -8  936.12   83.64
  -1  -1   9  811.32   90.52
  -1   1   9  806.65   80.31
   1  -1  -9  609.45   42.19
   1  -1  -9  703.57   79.71
   1   1  -9  621.14   92.02
  -1   0  -9  509.69   68.67
   1   0   9  444.76   69.57
   2   1   8  171.64   46.84
  -2   1  -8  232.87   45.22
  -2  -1  -8  206.27   22.48
   2  -1   8  204.63   42.64
  -2  -1  -8  189.57   40.77
   1  -3  -7  127.76   28.01
  -1  -3   7   37.08   34.57
   1  -3  -7   48.78   32.23
  -1   3   7   20.68   30.10
   1   3  -7  102.55   32.10
   2   4  -3  491.50   43.38
  -2  -4   3  497.34   52.51
  -2   4   3  629.09   60.51
  -2   4   3  605.93   62.51
   2   4  -3  625.17   82.16
   2  -4  -3  568.23   77.56
   3   0   7   44.16   25.96
   3   0   7   19.26   26.43
  -3   0  -7   45.48   28.64
   0   4   5   84.71   36.36
   0   4  -5   99.12   34.82
   0  -4   5  181.00   42.04
   0  -4  -5  178.16   44.73
  -4  -2   4  408.66   42.85
   4  -2  -4  352.61   67.10
  -4  -2   4  372.74   45.42
  -4   2   4  365.91   55.53
   4   2   3  352.80   46.03
  -4  -2  -3  315.19   43.73
  -4   2  -3  224.28   56.78
  -4  -2  -3  325.84   52.47
   4  -2   3  346.88   53.73
   3   3   4   36.27   35.99
   3  -3   4  125.24   27.32
  -3  -3  -4   94.55   28.73
  -3   3  -4   52.42   28.78
   3  -3   4   14.86   35.05
   2   4   3  633.97   90.57
  -2   4  -3  686.06   77.12
   2  -4   3  716.25   76.20
  -2  -4  -3  840.33   72.59
   2  -4   3  719.34   85.57
   2  -3   6  333.97   47.31
   2   3   6  369.31   65.62
  -2   3  -6  244.35   55.30
  -2  -3  -6  263.12   32.38
   2  -3   6  390.67   51.93
  -2  -3  -6  417.15   44.34
  -1  -1  -9 1612.98  117.00
   1  -1   9 1396.71  131.91
  -1   1  -9 1628.14  135.95
   1   1   9 1633.71  141.85
  -1  -1  -9 1328.90   62.44
  -1  -3  -7 1718.15   98.51
  -1  -3  -7 2064.94  117.78
   1  -3   7 2040.91  147.83
  -1   3  -7 1967.86  141.92
   1  -3   7 1944.51  102.34
   1   3   7 1917.52  130.84
  -2  -2   8  134.00   36.91
   2  -2  -8   99.30   37.24
   2   2  -8  174.99   41.46
  -2   2   8   97.64   37.25
  -2   2   8   89.30   36.32
   3  -2   6   42.59   21.67
  -3  -2  -6  -21.72   17.14
  -3  -2  -6   64.69   17.36
   3   2   6    3.17   26.46
   3  -2   6   44.28   20.23
  -3   2  -6   22.11   32.33
  -4   0   6 1998.66  141.80
  -4   0   6 1725.71  102.26
   4   0  -6 1913.08  130.17
   2   0  -9 1729.43  155.32
  -2   0   9 1571.83  134.05
   4   0   5   19.88   22.77
   4   0   5  -22.07   18.43
  -3   3   5  158.46   39.93
   3   3  -5  154.42   43.15
  -3  -3   5  141.47   46.05
  -3   3   5  102.51   30.32
  -3  -3   5  139.83   29.06
   3  -3  -5  157.39   44.51
   1   4  -5  350.98   45.63
  -1   4   5  363.76   60.64
  -1   4   5  367.06   40.48
  -1  -4   5  359.91   37.66
   1  -4  -5  431.14   68.43
  -1  -4   5  414.48   61.87
   3   0  -8  334.01   35.81
  -3   0   8  291.83   44.67
  -3   0   8  351.79   58.99
   3  -1   7   64.05   28.23
   3   1   7  124.00   39.01
  -3  -1  -7  159.59   24.20
   3  -1   7  140.65   35.47
  -3  -1  -7  203.94   37.30
  -3   1  -7  121.68   43.52
   2  -4  -4  652.66   80.96
  -2  -4   4  526.75   50.76
  -2   4   4  473.92   62.01
   2   4  -4  457.01   49.61
  -2   4   4  603.96   57.74
  -2  -4   4  597.82   67.89
   3  -2  -7 3753.31  223.66
  -3   2   7 3983.71  224.80
   3   2  -7 3635.64  199.42
   3   2  -7 3480.69  221.80
  -3   2   7 3862.31  223.96
  -3  -2   7 3732.20  216.44
  -1  -4  -5  663.16   83.05
   1  -4   5  843.10   91.06
   1   4   5  803.12   98.19
  -1   4  -5  787.20   77.36
   1  -4   5  784.72   76.89
  -4  -1   6 1072.09   89.25
  -4   1   6  885.52   82.62
   4   1  -6  934.07   85.62
   4  -1  -6  921.27   93.78
  -4  -1   6  932.41   74.48
   2   1  -9 1290.82  112.39
   2  -1  -9 1307.93   85.95
  -2   1   9 1288.47  108.72
   2  -1  -9 1376.48  124.30
  -2  -1   9 1359.44  118.30
  -4   1  -5  219.55   55.67
  -4  -1  -5  333.04   52.51
   4  -1   5  349.34   50.61
  -4  -1  -5  354.63   39.45
   4   1   5  247.46   50.44
   4  -1   5  260.58   36.59
   5   0  -1   41.08   39.51
  -5   0   1   47.16   33.09
  -3   1   8  232.33   47.00
  -3   1   8  330.21   50.88
   3   1  -8  267.05   45.79
   5   0   0  147.57   50.03
  -5   0   0  101.85   35.92
   0   2  -9 3935.32  271.64
   0  -2   9 3860.39  266.15
   0   2   9 3778.86  269.14
   0  -2  -9 3757.16  175.25
   0  -2  -9 3835.73  240.59
  -2   3   7  840.51   79.68
  -2  -3   7  828.38   91.06
   2  -3  -7  896.75   93.49
  -2   3   7  697.74   85.73
   2   3  -7  624.46   80.06
  -4  -2   5  -19.06   18.30
   4  -2  -5   -7.86   23.14
  -4  -2   5   15.45   13.90
  -4   2   5  -11.56   22.53
  -4  -2   5    1.65   22.68
  -5   0   2  425.63   67.27
   5   0  -2  362.53   65.41
   4  -2   4  367.18   59.99
   4  -2   4  344.84   38.03
  -4   2  -4  522.74   59.99
   4   2   4  493.53   58.31
  -4  -2  -4  470.39   53.55
  -4  -2  -4  447.06   49.71
   4  -3  -1  103.62   42.21
   4   3  -1  103.41   37.59
  -4   3   1   80.26   40.74
  -4  -3   1   74.92   23.36
  -4  -3   1   90.67   29.73
  -2   4  -4   85.18   36.14
   2   4   4  161.69   45.65
   2  -4   4   93.49   33.70
   2  -4   4  131.15   39.58
  -2  -4  -4  131.44   34.58
   4  -3   0  -18.46   28.24
  -4  -3   0  -10.51   15.88
  -4  -3   0   27.80   18.24
  -4   3   0   44.27   32.54
   4   3   0   27.88   25.52
   1  -2  -9  672.30   78.07
  -1   2   9  643.98   84.50
   1   2  -9  606.02   86.83
  -1  -2   9  700.68   96.99
   5   0   1  521.79   86.41
  -5   0  -1  542.85   75.62
   2  -2   8  160.70   40.52
   2   2   8  182.40   49.74
  -2  -2  -8  149.54   33.12
  -2   2  -8  269.18   52.42
  -2  -2  -8  148.87   27.32
   3  -4   0  147.90   48.02
   3   4   0  227.26   55.35
  -3   4   0  146.41   34.72
  -3   4   0  222.07   51.51
  -3  -4   0  179.73   32.83
   0   0 -10  153.35   47.79
   0   0  10  155.33   43.87
  -3   4   1  121.93   41.01
   3  -4  -1  202.32   55.94
   3   4  -1  182.15   55.69
  -3  -4   1  211.26   36.00
   3   3   5  153.12   38.05
   3  -3   5  100.50   41.16
  -3   3  -5  190.71   43.14
   3  -3   5   88.20   33.98
  -3  -3  -5  215.62   36.99
  -4  -3   2  605.59   52.71
  -4   3   2  711.85   82.63
   4  -3  -2  566.69   79.61
   4   3  -2  801.81   92.20
  -4  -3   2  676.14   64.26
   0  -3  -8   91.37   30.39
   0  -3  -8  118.71   37.02
   0   3   8   81.60   40.10
   0   3  -8   83.37   39.68
   0  -3   8   75.67   43.18
  -4  -3  -1  284.17   30.61
   4   3   1  348.40   55.21
  -4  -3  -1  327.72   37.73
   4  -3   1  343.14   67.89
  -4   3  -1  377.82   63.91
   5   1  -1   45.55   19.21
  -5   1   1   24.98   33.65
  -5  -1   1  100.39   29.79
   5   1  -1    5.27   38.48
   5  -1  -1   42.44   37.70
  -5  -1   0  517.74   63.59
  -5   1   0  578.35   74.59
   5  -1   0  534.19   67.67
   5   1   0  655.11   81.96
   5   1   0  439.27   42.53
   0  -4   6  179.89   35.75
   0   4   6  213.37   45.77
   0   4  -6  246.41   41.83
   0  -4  -6  247.59   57.39
   0  -4   6  297.61   63.29
  -2   0  -9  476.29   67.28
   2   0   9  566.16   72.80
  -1   0  10  112.34   48.87
   1   0 -10  219.45   54.29
   0  -5   0  -16.76   30.97
   0   5   0   -7.66   32.34
   3  -4   1  261.23   62.09
  -3   4  -1  282.48   54.26
   3   4   1  289.64   67.73
  -3  -4  -1  250.46   47.77
  -3   4  -1  300.73   45.09
   5   0  -3   16.69   28.60
  -5   0   3   16.74   25.51
  -3  -4   2  768.29   76.07
  -3   4   2  909.59   73.48
  -3   4   2  834.89   77.50
   3   4  -2  922.98  109.32
   3  -4  -2  834.80   88.02
  -5   1   2   92.72   34.22
  -5  -1   2   81.12   28.87
   5  -1  -2  103.00   41.94
   5   1  -2   53.76   34.27
   5   1  -2   30.69   21.38
   1   3  -8 2660.36  185.60
   1  -3  -8 2624.46  196.02
   1  -3  -8 2613.60  184.17
  -1   3   8 2552.35  186.33
  -1  -3   8 2583.17  183.68
   0  -5  -1  292.36   69.58
   0  -5   1  369.99   65.05
   0   5   1  380.20   71.01
   0   5  -1  299.94   64.59
  -3   3   6   72.10   28.78
  -3  -3   6  116.17   22.47
   3  -3  -6  152.24   40.47
  -3   3   6  105.38   36.44
   3   3  -6  110.58   35.64
  -3  -3   6  119.50   37.92
  -2   4   5  293.29   54.64
   2  -4  -5  275.40   65.49
  -2  -4   5  237.04   35.56
  -2  -4   5  360.00   62.00
  -2   4   5  333.11   47.68
   2   4  -5  203.90   41.17
  -5   1  -1  943.68  118.36
   5   1   1  735.73   92.98
  -5  -1  -1  728.30   80.83
   5   1   1  635.11   53.58
   5  -1   1  577.83   85.11
  -1  -4   6  138.91   43.94
  -1   4   6   38.63   24.67
   1   4  -6   84.88   35.39
  -1   4   6    4.04   37.93
   1  -4  -6   90.87   38.39
   5   0   2   82.25   52.85
  -5   0  -2  220.57   60.43
   1  -2   9  150.63   37.51
  -1   2  -9  141.71   42.39
  -1  -2  -9  150.25   26.53
   1   2   9  133.21   40.95
  -1  -2  -9  167.17   37.63
  -4   0   7  361.84   43.55
   4   0  -7  356.11   49.32
  -4   0   7  474.93   63.74
   0   1  10  269.21   67.01
   0  -1  10  314.92   54.91
   0  -1 -10  312.56   64.70
   0   1 -10  333.46   66.95
  -4   0  -6  226.95   47.37
   4   0   6  197.09   37.97
   4   0   6  205.23   48.46
  -4   3   3  534.79   62.04
  -4  -3   3  311.02   45.45
   4  -3  -3  437.77   69.46
  -4  -3   3  200.85   46.14
   4   3  -3  270.27   74.45
   4  -3   2  543.18   80.20
  -4  -3  -2  562.85   62.86
  -4   3  -2  612.59   74.65
   4   3   2  566.05   75.32
   2  -3   7  937.60   89.52
  -2  -3  -7  982.31   80.62
   2   3   7  835.34   93.68
  -2   3  -7  933.67  104.09
  -2  -3  -7  869.11   71.07
   3   0   8   39.77   23.39
  -3   0  -8   60.43   35.02
   3   0   8   33.12   29.92
  -2  -1  -9  556.94   70.75
   2  -1   9  479.73   70.16
   2   1   9  575.69   81.64
  -2  -1  -9  414.30   33.94
  -2   1  -9  516.73   69.49
   1   1 -10  234.18   60.50
   1  -1 -10  240.66   60.23
  -1   1  10  183.33   55.34
  -1  -1  10  166.34   52.84
   3   4   2 1081.45  128.03
  -3  -4  -2 1116.31  102.19
  -3   4  -2 1064.79  102.68
   3  -4   2 1127.08  120.79
  -3   4  -2 1120.16  108.82
  -1   5   0  365.48   63.90
  -1  -5   0  205.98   60.98
   1  -5   0  344.74   63.68
   1   5   0  258.93   71.52
  -1   5   0  259.11   32.66
  -3   2  -7  617.73   76.42
   3  -2   7  504.61   57.36
   3  -2   7  628.65   68.31
  -3  -2  -7  923.52   84.23
   3   2   7  605.12   75.53
   0   5  -2   62.96   54.65
   0   5   2  142.50   47.57
   0   5  -2   96.87   22.01
   0  -5   2  116.30   43.94
   0  -5  -2  116.03   40.06
  -5   1   3  680.26   85.43
  -5  -1   3  450.22   66.63
   5  -1  -3  459.88   76.87
   5   1  -3  435.91   42.49
   5   1  -3  519.20   82.92
  -1  -5   1 1028.29  106.89
  -1   5   1 1009.01  110.80
   1  -5  -1 1197.15  119.41
  -1   5   1  858.44   56.44
   1   5  -1 1060.78  124.95
  -1   0 -10  536.93   80.84
   1   0  10  506.61   62.45
   1   4   6  204.92   59.33
  -1   4  -6  223.43   49.92
  -1  -4  -6  223.45   38.20
   1  -4   6  253.95   59.68
  -1  -3  -8  329.92   42.60
   1  -3   8  317.84   63.54
   1   3   8  281.32   66.20
  -1   3  -8  326.68   50.45
  -1  -3  -8  364.12   42.27
   3  -4  -3   16.76   39.50
   3   4  -3    7.34   50.20
   3   4  -3   33.04   17.87
  -3   4   3   89.45   24.34
  -3   4   3   32.63   31.31
  -3  -4   3  101.60   25.32
  -1  -5  -1  307.38   54.39
   1  -5   1  397.56   66.57
  -1   5  -1  350.36   60.99
   1   5   1  345.18   72.25
  -1   5  -1  284.00   43.58
  -5   1  -2  278.76   59.82
  -5  -1  -2  232.87   47.12
   5   1   2  173.32   32.19
   5   1   2  240.07   49.34
   5  -1   2  182.97   55.46
   5   0  -4   94.36   41.96
  -5   0   4   65.71   32.87
   4   1  -7  966.50   89.16
   4  -1  -7 1082.96  102.48
  -4   1   7  857.09   67.32
  -4   1   7 1273.01  104.68
  -4  -1   7 1329.08  119.63
  -4  -1   7 1060.67   78.75
   2   4   5   69.69   44.56
  -2  -4  -5   57.56   30.22
  -2   4  -5  101.51   39.46
   2  -4   5  107.87   37.30
   2  -4   5   54.04   36.21
   4   2  -6   -2.09   29.08
  -4  -2   6   11.07   22.31
  -4   2   6   -0.32   32.96
   4  -2  -6   16.79   28.41
  -4  -2   6   29.04   27.55
  -2  -2   9   30.34   34.30
   2  -2  -9   87.38   33.88
   2  -2  -9    6.97   26.34
   2   2  -9   37.81   37.48
  -2   2   9   56.05   32.04
  -4  -1  -6  379.48   53.41
  -4  -1  -6  386.92   44.92
   4  -1   6  345.20   54.89
  -4   1  -6  329.75   61.09
   4  -1   6  206.02   49.20
   4   1   6  410.59   54.19
  -4  -2  -5  125.33   31.57
  -4   2  -5  147.64   50.64
  -4  -2  -5  147.22   35.15
   4  -2   5  147.56   39.46
   4  -2   5  194.17   35.41
   4   2   5  120.61   37.17
  -3   0   9 1272.41  107.07
   3   0  -9 1182.53   84.35
  -3   0   9 1361.81  108.68
  -1  -5   2  336.76   61.31
   1  -5  -2  352.58   72.23
   1   5  -2  280.52   56.94
  -1   5   2  330.76   65.16
   3   2  -8  377.77   63.45
   3  -2  -8  188.79   55.60
   3   2  -8  226.35   41.14
  -3  -2   8  213.83   48.95
  -3   2   8  307.30   54.88
  -3   1  -8   92.95   42.48
   3  -1   8   90.96   23.32
   3   1   8   78.71   38.36
   3  -1   8   49.54   34.57
  -3  -1  -8  100.14   36.86
  -3  -1  -8   64.76   22.92
  -5   0  -3  422.81   72.44
   5   0   3  396.07   78.75
  -1   5  -2  199.07   61.90
   1   5   2  188.09   61.46
  -1   5  -2  172.55   31.82
  -1  -5  -2  170.45   52.78
   1  -5   2  261.88   53.37
  -2   0  10  188.83   57.90
   2   0 -10  203.90   60.49
   4   3  -4 1709.69  156.29
  -4   3   4 1544.75  138.11
  -4  -3   4 1245.56   98.37
   4  -3  -4 1437.74  133.47
  -4  -3   4 1354.30   96.84
   1   1  10  346.13   67.34
   1  -1  10  291.69   66.12
  -1   1 -10  268.73   71.37
  -1  -1 -10  427.73   61.32
   0  -5   3   68.94   42.94
   0  -5  -3   50.12   51.49
   0   5  -3   93.69   27.45
   0   5  -3  124.38   50.20
   0   5   3   86.17   45.59
   4  -3   3  480.34   74.17
  -4  -3  -3  363.84   53.65
  -4   3  -3  356.92   67.53
   4   3   3  434.80   69.37
  -3   4  -3  102.38   41.07
  -3  -4  -3  172.92   35.97
   3  -4   3  172.67   49.39
   3  -4   3   82.90   28.81
   3   4   3   80.73   52.73
   5   1  -4  234.03   48.01
  -5   1   4  232.35   52.95
  -5  -1   4  291.88   58.79
   5  -1  -4  242.61   57.45
   5   1  -4  253.64   66.08
  -2   3   8  327.11   60.45
   2  -3  -8  390.62   58.23
  -2   3   8  327.88   61.74
   2   3  -8  372.91   60.73
  -2  -3   8  311.72   62.55
  -3   3  -6  215.45   53.19
  -3  -3  -6  193.87   37.67
   3   3   6  137.60   52.82
   3  -3   6  122.34   37.07
   3  -3   6  142.10   42.87
  -3  -4   4  382.96   49.00
  -3   4   4  321.86   60.82
  -3   4   4  382.74   48.68
   3   4  -4  317.51   49.21
   3   4  -4  661.29   94.03
   3  -4  -4  410.45   76.65
  -5  -2   1  349.94   51.10
  -5  -2   1  312.75   49.89
  -5   2   1  352.67   71.52
   5  -2  -1  337.35   74.37
   3   1  -9  571.59   90.28
  -3   1   9  432.55   67.95
  -3   1   9  351.23   61.82
   3  -1  -9  381.81   56.46
  -3  -1   9  442.36   70.62
  -5   2   0 1096.68  117.86
  -5  -2   0  952.97   89.58
   5  -2   0  935.55  122.99
   5   2   0  894.46   77.80
  -5  -2   0 1088.35   97.84
  -2  -4   6  569.72   53.69
  -2  -4   6  628.07   78.49
   2   4  -6  564.63   63.49
  -2   4   6  583.91   73.35
   2  -4  -6  688.07   89.84
  -2   4   6  611.32   60.79
  -1  -5   3  323.38   54.49
  -1   5   3  203.97   62.39
   1  -5  -3  303.06   72.85
   1   5  -3  490.73   82.84
   5   1   3  356.96   42.97
  -5  -1  -3  735.34   88.15
  -5   1  -3  552.37   71.31
   5  -1   3  430.29   79.15
   0  -4  -7   59.79   40.70
   0  -4   7   66.14   43.23
   0   4  -7   65.06   39.35
   0   4   7  120.09   44.85
  -2   1  10  360.91   66.09
  -2  -1  10  442.41   74.40
   2   1 -10  438.95   83.89
   2  -1 -10  617.45   92.23
  -5  -2   2  134.33   36.44
  -5  -2   2  115.65   38.80
   5  -2  -2  104.46   55.06
   5   2  -2  154.03   35.70
  -5   2   2  151.62   48.76
   3  -3  -7  217.07   54.86
  -3  -3   7  252.70   64.84
  -3   3   7  237.53   50.66
   3   3  -7  289.38   57.91
  -3   3   7  199.09   48.00
  -1   5  -3  758.99  109.61
   1   5   3  706.27   92.78
  -1   5  -3  758.50   80.77
  -1  -5  -3  739.81   96.23
  -5   2  -1 1041.08  138.33
  -5  -2  -1  729.04   75.23
  -5  -2  -1  741.80   78.99
   5   2   1  776.82   81.82
   5  -2   1  712.54  101.31
  -5   0   5  623.36   92.82
   5   0  -5  452.11   82.57
   1   4  -7  421.01   75.04
  -1   4   7  439.97   72.80
   1  -4  -7  511.18   82.40
  -1  -4   7  671.05   88.04
   1  -4  -7  382.12   49.05
   0  -2  10  198.76   51.49
   0   2  10  173.03   56.46
   0  -2 -10  133.45   49.81
   0   2 -10  179.11   56.69
   0  -2 -10  156.26   23.26
  -2   5   0  552.68   58.47
   2  -5   0  677.37   98.79
  -2  -5   0  654.08   79.05
   2   5   0  623.98  106.66
  -2   5   0  685.78   95.40
  -2  -2  -9  -24.92   21.06
  -2  -2  -9    4.89   12.62
   2   2   9   45.18   31.32
   2  -2   9    5.18   23.63
  -2   2  -9   55.76   32.64
   1  -2 -10  201.80   39.50
   1   2 -10  243.67   65.17
  -1  -2  10  355.38   69.08
   1  -2 -10  251.64   59.70
  -1   2  10  149.59   62.03
   0  -3  -9  116.48   36.18
   0   3  -9  155.78   49.13
   0  -3   9  110.49   39.87
   0   3   9  173.52   52.29
   0  -3  -9  160.06   39.46
  -2  -5   1 1244.07  114.99
   2   5  -1 1336.63  145.95
   2  -5  -1 1237.92  144.55
  -2   5   1 1206.73   99.74
  -2   5   1 1260.93  124.76
   0  -5  -4  282.60   66.98
   0  -5   4  219.83   60.65
   0   5  -4  164.24   42.13
   0  -5   4  228.38   63.64
   0   5   4  235.56   60.33
  -4   0   8    2.99   24.23
  -4   0   8   22.00   29.68
   4   0  -8    8.12   21.83
  -5   0  -4  538.44   76.50
   5   0   4  408.63   90.36
  -4   0  -7   19.21   29.14
   4   0   7   63.50   28.91
   4   0   7  -11.12   29.64
  -5  -2   3  247.96   54.99
   5   2  -3  288.96   51.78
  -5   2   3  280.03   68.68
  -5  -2   3  183.70   41.47
   5  -2  -3  204.66   66.82
  -4  -3   5  539.86   73.19
  -4  -3   5  409.31   48.11
   4  -3  -5  319.44   76.08
  -4   3   5  338.60   70.79
  -4  -3   5  404.63   47.21
  -2  -5  -1  491.38   74.96
  -2   5  -1  608.46   84.06
   2  -5   1  655.72   97.70
   2   5   1  490.42  103.66
   4   3   4    4.62   35.62
   4  -3   4   21.76   35.49
  -4   3  -4   12.60   31.39
  -4  -3  -4  105.04   27.58
  -3  -4  -4  201.52   44.65
   3  -4   4  191.94   55.71
  -3   4  -4  250.04   53.29
   3   4   4  180.48   63.44
  -1   3   9  152.62   52.61
   1   3  -9  202.29   52.85
   1  -3  -9  164.58   46.51
  -1  -3   9  138.56   52.80
   1  -3  -9  120.08   44.20
   5   1  -5  397.11   82.58
  -5   1   5  466.27   82.36
   5  -1  -5  361.54   78.30
  -5  -1   5  456.18   64.95
  -2   4  -6  200.23   59.50
   2  -4   6  345.56   59.11
   2   4   6  171.06   65.41
   2  -4   6  234.46   61.74
  -2  -4  -6  184.38   45.11
   5   2   2   35.32   32.16
  -5   2  -2  206.82   43.57
  -5  -2  -2   51.72   28.34
   5  -2   2   36.25   41.15
  -5  -2  -2   17.12   28.79
   1  -4   7  157.56   52.45
   1   4   7  248.85   51.38
  -1  -4  -7  196.28   38.83
   1  -4   7  149.36   35.13
  -1   4  -7  121.23   53.34
  -2   5   2 1126.24  118.35
  -2   5   2 1074.42   94.18
   2  -5  -2 1205.06  130.35
   2   5  -2 1168.51  126.03
  -2  -5   2 1216.24  106.71
  -4  -2   7  133.57   44.84
  -4  -2   7  155.17   43.03
   4  -2  -7  100.64   45.89
  -4   2   7  113.82   47.36
   2   3   8 1437.69  151.50
  -2  -3  -8 1791.69  135.76
   2  -3   8 1557.95  142.40
  -2  -3  -8 1575.02  112.77
  -2   3  -8 1613.58  139.78
   4  -2   6  630.94   74.63
  -4  -2  -6  708.48   64.16
  -4   2  -6  684.44   81.23
  -4  -2  -6  795.40   81.63
   4   2   6  639.88   78.76
   4  -2   6  586.26   69.93
   1   5  -4  204.77   44.80
  -1  -5   4  244.10   43.05
  -1   5   4  323.59   60.09
   1  -5  -4  318.33   68.83
  -2   0 -10   89.96   40.66
   2   0  10   56.62   39.43
   0   0 -11  471.53   75.74
   0   0  11  338.51   76.99
  -3  -4   5  157.49   32.21
  -3  -4   5  237.28   60.57
   3   4  -5  165.04   39.11
   3  -4  -5  214.96   55.48
  -3   4   5  206.11   44.30
  -3   4   5  187.21   38.93
  -3   2  -8  172.65   47.26
  -3  -2  -8  176.89   29.47
   3  -2   8  213.58   39.08
   3  -2   8  126.03   42.69
  -3  -2  -8  181.32   50.93
   3   2   8  146.97   56.32
  -4   1   8  321.59   61.32
   4  -1  -8  262.23   48.29
  -4  -1   8  265.84   46.25
  -4   1   8  192.35   36.42
   4   1  -8  294.12   43.22
  -4  -1   8  438.95   70.36
   5   1   4  143.73   36.08
   5  -1   4  123.78   55.34
  -5   1  -4  266.93   51.13
  -5  -1  -4  190.08   54.42
  -1   0  11  164.73   49.59
   1   0 -11  135.20   57.30
  -2  -5  -2  140.02   42.26
   2   5   2  154.12   56.15
  -2   5  -2  125.44   43.26
  -2   5  -2   81.79   35.39
   2  -5   2  173.20   53.13
   4  -1   7  187.00   41.64
   4   1   7  173.27   40.98
  -4   1  -7  127.52   46.82
   4  -1   7   78.44   45.52
  -4  -1  -7  133.00   39.70
  -4  -1  -7  112.89   29.78
  -1  -5  -4  581.73   81.75
  -1   5  -4  488.44   68.48
   1  -5   4  518.63   90.38
   1   5   4  527.30   96.24
   1  -5   4  561.41   74.81
  -1  -2 -10    4.32   12.34
   1   2  10   -4.27   24.54
  -1   2 -10   26.56   32.81
  -1  -2 -10   25.92   25.76
   1  -2  10    7.44   27.90
   3   0   9  121.57   40.15
  -3   0  -9   20.96   46.84
   3   0   9   97.52   34.23
  -1   3  -9  105.38   47.37
   1  -3   9   46.04   48.16
  -1  -3  -9  127.54   39.31
  -1  -3  -9  177.55   29.58
   1   3   9   93.09   55.28
   5   2  -4   96.81   31.92
  -5  -2   4    5.87   26.65
   5  -2  -4   18.25   37.76
  -5   2   4    2.29   25.11
   5   2  -4   15.80   35.33
   2   5  -3  110.73   48.49
   2  -5  -3  127.17   49.21
  -2   5   3  122.29   40.58
  -2  -5   3   73.41   33.10
  -2   5   3   80.37   28.89
   2   1  10  828.62  109.07
  -2  -1 -10  845.63  100.06
  -2   1 -10  753.53  109.93
   2  -1  10  911.94  109.27
   0  -1  11  112.23   48.84
   0   1  11  192.52   57.61
   0  -1 -11  146.25   51.17
   0   1 -11  123.84   47.74
   5   0  -6  292.31   60.43
  -5   0   6  301.51   64.07
   3   2  -9  647.88   93.60
  -3   2   9  450.68   77.06
  -3  -2   9  638.67   85.31
   3  -2  -9  573.40   71.99
  -3   2   9  747.49   98.33
   3  -3   7  101.70   38.69
  -3   3  -7  193.61   62.41
  -3  -3  -7  223.78   39.37
   3   3   7  183.35   51.61
   3  -3   7  160.56   44.68
   2   4  -7  166.38   43.99
  -2   4   7   95.11   41.92
   2  -4  -7  146.16   49.26
  -2   4   7  107.93   42.59
  -2  -4   7   95.78   24.95
  -2  -4   7  171.86   48.93
   5   2   3  170.97   38.50
   5  -2   3  182.03   52.26
  -5  -2  -3   84.43   36.92
  -5   2  -3  181.76   53.17
  -5  -2  -3  159.28   36.65
  -1  -1  11  101.84   44.59
   1   1 -11   77.03   52.72
   1  -1 -11  149.74   43.04
  -1   1  11   45.82   46.00
   0  -5  -5   97.08   52.35
   0  -5   5  104.73   42.66
   0  -5   5  178.47   50.73
   0   5   5   74.82   41.30
   0   5  -5   96.70   35.94
   2  -2 -10  345.46   52.16
   2   2 -10  330.27   64.46
   2  -2 -10  326.08   88.68
  -2   2  10  267.59   66.66
  -2  -2  10  345.43   69.20
   3  -1   9  118.74   31.99
  -3  -1  -9    2.41   18.70
  -3  -1  -9   12.93   33.24
  -3   1  -9    9.59   36.75
   3   1   9    4.49   32.96
  -4   4   1  124.81   51.12
   4   4  -1  188.72   55.85
  -4  -4   1  109.89   35.07
   4  -4  -1  141.38   60.32
  -4  -4   0   72.34   31.85
  -4   4   0  113.91   41.13
   4  -4   0   55.18   49.39
   4   4   0  116.11   49.07
   3   0 -10   35.73   28.93
  -3   0  10  -32.58   24.33
  -2   5  -3   17.06   48.62
  -2  -5  -3   25.43   32.33
   2  -5   3    1.97   42.92
  -2   5  -3   50.69   30.53
   2   5   3  121.27   37.59
   1   0  11  167.43   66.84
  -1   0 -11  400.29   69.33
   5   0   5   24.50   27.34
   5   0   5  123.34   46.14
  -5   0  -5   82.21   34.81
   4   3  -6  170.83   44.60
  -4  -3   6  238.74   56.17
   4  -3  -6  163.01   58.15
  -4  -3   6  184.48   34.19
  -4   3   6  210.92   63.03
  -2   3   9  169.14   46.11
   2   3  -9  133.41   47.24
  -2  -3   9   60.88   47.25
  -4   3  -5  129.12   49.90
   4  -3   5  130.61   40.21
   4   3   5  101.17   45.07
  -4  -3  -5   51.71   33.67
  -3  -4  -5   29.76   28.93
  -3   4  -5   37.47   36.65
   3  -4   5   20.58   27.67
   3  -4   5   99.21   35.85
   3   4   5   30.21   35.34
   4   4  -2  609.76   97.12
  -4  -4   2  375.09   56.40
   4  -4  -2  459.66   87.55
  -4   4   2  449.18   68.90
   0   4   8  115.11   57.92
   0  -4  -8  313.60   56.01
   0  -4   8  135.04   58.86
   0   4  -8  172.82   53.98
   4  -4   1  137.02   58.27
   4   4   1  188.06   54.44
  -4   4  -1  150.07   62.64
  -4  -4  -1  102.70   35.94
   1   5  -5  100.79   34.51
   1  -5  -5   91.43   51.42
  -1  -5   5  135.63   52.08
  -1   5   5   61.36   45.52
  -5  -1   6  519.13   72.18
   5  -1  -6  436.15   85.78
   5   1  -6  410.77   77.54
  -5   1   6  741.09  103.01
  -3   3   8    9.15   31.95
  -3  -3   8   51.41   37.14
   3  -3  -8   38.24   35.05
   3   3  -8   35.03   37.37
  -3   3   8   43.05   33.12
   1   4  -8  592.29   88.80
   1  -4  -8  741.75   99.13
   1  -4  -8  767.02   92.87
  -1   4   8  598.78   95.88
  -1  -4   8  697.86  105.16
  -2   0  11  269.04   84.44
   2   0 -11  511.37   86.90
  -2  -5   4  209.56   40.42
   2   5  -4  240.97   74.74
  -2   5   4  112.95   49.01
  -2   5   4  255.44   45.82
   2  -5  -4  144.50   65.16
  -3   1  10 1214.11  134.91
   3   1 -10 1372.44  159.76
  -3  -1  10 1250.05  140.00
  -3  -4   6   -5.77   18.31
  -3  -4   6    4.70   37.38
  -3   4   6   27.05   29.63
   3  -4  -6   28.59   34.74
   3   4  -6   -1.13   25.96
  -3   4   6   93.62   26.30
  -5   2   5  274.01   66.33
   5   2  -5  190.47   64.03
   5  -2  -5  218.24   68.37
  -5  -2   5  202.48   49.03
   5   2  -5  264.10   59.98
   1   1  11   15.71   29.15
  -1   1 -11  -20.13   23.69
  -1  -1 -11    3.40   28.45
   1  -1  11    7.30   27.43
   1   5   5  525.00  104.89
  -1   5  -5  568.04   81.15
  -1  -5  -5  499.17   86.95
   1  -5   5  711.95   92.64
   1  -5   5  552.22   73.90
   5   1   5   40.00   36.39
  -5   1  -5   61.75   41.05
  -5  -1  -5  127.26   41.55
   5  -1   5  162.79   43.66
   5   1   5   14.14   46.60
  -4  -4   3  765.08   75.85
   4  -4  -3  778.98  118.73
  -4   4   3  808.54  103.58
   4   4  -3  907.22  116.08
   4  -4   2   15.88   28.83
  -4   4  -2   16.90   28.44
  -4  -4  -2  -15.34   19.89
   4   4   2    3.71   28.36
   2   4   7  279.02   66.02
   2  -4   7  316.95   60.37
   2  -4   7  402.21   63.90
  -2   4  -7  237.82   66.58
  -2  -4  -7  326.95   53.83
  -5  -3   1  -13.13   17.96
  -5   3   1    8.13   31.10
  -5  -3   1   -2.38   20.97
   5   3  -1   51.87   25.59
   5  -3  -1    7.02   32.82
  -5  -3   0  -21.20   29.82
  -5   3   0  102.88   40.01
   5  -3   0   62.69   45.05
   5   3   0   92.79   34.30
   4   0  -9   -4.80   21.54
  -4   0   9   -3.63   33.08
   4   2  -8  563.03   72.09
   4   2  -8  531.49   83.25
  -4  -2   8  494.99   76.50
   4  -2  -8  529.94   81.76
  -4   2   8  499.63   84.32
  -4   0  -8  174.69   53.05
   4   0   8  216.39   46.72
   4   0   8  113.43   49.44
  -5  -2  -4   77.58   35.11
   5  -2   4  119.18   50.96
  -5   2  -4  106.69   52.60
  -5  -2  -4  136.04   51.45
   5   2   4  171.21   42.13
  -4  -2  -7   89.55   28.77
  -4  -2  -7  151.22   34.30
   4   2   7  110.01   46.97
   4  -2   7   95.00   33.89
   4  -2   7   67.62   36.07
  -4   2  -7   27.28   47.38
  -5  -3   2   37.15   24.81
  -5  -3   2  101.15   32.10
   5  -3  -2   46.74   42.23
  -5   3   2   45.74   43.55
   5   3  -2  114.70   44.75
  -2  -1  11  162.19   51.14
   2  -1 -11   99.62   58.93
   2   1 -11  123.52   54.45
  -2   1  11   62.68   49.98
  -1  -4  -8   21.72   24.63
   1   4   8   21.96   35.83
   1  -4   8    4.24   32.98
  -1   4  -8   46.05   36.57
  -2   5  -4   79.10   45.61
  -2  -5  -4  103.73   40.93
   2   5   4   56.17   55.23
   2  -5   4   98.13   55.19
   2  -5   4   79.44   38.28
   5   3   1  356.73   62.30
   5  -3   1  232.40   65.43
  -5   3  -1  360.58   79.02
  -5  -3  -1  325.72   53.80
   3   5   0    8.69   40.91
  -3   5   0   -3.70   27.58
  -3   5   0   53.34   27.43
  -3  -5   0    8.17   30.57
   3  -5   0   59.92   38.63
   0  -3 -10   58.93   31.90
   0  -3  10   58.28   50.05
   0   3 -10  149.58   47.97
   0  -3 -10  126.66   46.30
   0   3  10   48.75   48.70
  -3   5   1   88.77   39.85
  -3   5   1  140.37   43.71
  -3  -5   1  217.95   47.23
   3  -5  -1  143.18   58.37
   3   5  -1  146.17   61.48
   2   2  10   52.13   46.00
  -2   2 -10  126.63   43.25
  -2  -2 -10   33.99   38.19
   2  -2  10  109.93   34.63
   5   0  -7  -28.05   25.65
  -5   0   7   13.33   28.26
   0  -2 -11  232.40   53.79
   0   2 -11  201.97   65.90
   0   2  11  130.68   63.42
   0  -2  11  146.37   61.51
   0  -5  -6   37.69   35.33
   0  -5   6  -34.17   23.66
   0   5   6   21.78   33.27
   0  -5   6   -6.17   35.46
   0   5  -6  -16.53   29.48
   2  -3   9  -34.71   30.00
   2   3   9   24.10   35.39
  -2   3  -9  -10.12   36.76
  -2  -3  -9  -17.41   19.62
  -4   1   9  102.26   44.07
   4  -1  -9  201.94   54.86
  -4  -1   9  249.66   47.42
  -4  -1   9  177.74   45.65
  -4   1   9  276.90   67.10
   1  -3 -10  109.12   45.97
   1  -3 -10  123.27   55.80
   1   3 -10  144.37   51.96
  -1   3  10   92.29   52.28
  -1  -3  10  102.26   43.85
  -4   1  -8  148.57   67.63
  -4  -1  -8  312.20   60.35
  -4  -1  -8  285.49   34.42
   4  -1   8  305.39   52.75
   4   1   8  249.09   62.72
   4  -1   8  210.80   50.45
  -3   5  -1  -38.04   26.64
  -3  -5  -1    8.11   23.75
  -3   5  -1  -27.87   34.19
   3   5   1  -11.87   30.78
   3  -5   1    9.34   36.83
  -1  -2  11  -53.97   37.75
  -1   2  11   61.34   35.88
   1   2 -11   -7.45   34.63
   1  -2 -11   50.86   37.08
   5  -3  -3   48.15   56.22
  -5  -3   3   82.38   34.16
  -5   3   3  164.77   55.56
  -5  -3   3  103.65   34.79
   5   3  -3  156.77   49.60
   4  -4  -4   40.11   50.66
   4   4  -4  196.72   57.50
  -4   4   4   82.47   35.09
  -4  -4   4   35.15   27.55
  -3   5   2   52.50   31.67
  -3   5   2   22.90   26.05
  -3  -5   2   23.16   29.77
   3   5  -2   75.51   50.30
   3  -5  -2   38.78   45.60
   6   0  -1   41.25   41.70
  -6   0   1   73.81   46.43
  -3  -2  -9  171.25   48.24
  -3   2  -9  269.45   63.43
   3   2   9  217.70   58.38
  -3  -2  -9  159.99   36.99
   3  -2   9  136.84   46.96
  -4   4  -3  117.53   44.50
   4   4   3  154.68   50.54
   4  -4   3   29.42   48.08
  -4  -4  -3   72.65   36.78
   6   0   0  124.77   55.66
  -6   0   0  132.18   53.95
  -2  -5   5   72.77   62.42
  -2  -5   5  278.35   43.72
  -2   5   5  287.08   46.64
   2  -5  -5  406.09   73.09
  -1  -5   6  213.10   68.17
  -1  -5   6  185.40   32.46
   1   5  -6  127.82   39.18
   1  -5  -6  182.10   65.25
  -1   5   6  145.91   58.50
   5  -3   2  147.29   54.81
  -5   3  -2  232.91   58.07
  -5  -3  -2   93.45   40.58
   5   3   2   61.94   47.04
   4  -3  -7  184.11   66.87
  -4  -3   7  306.74   38.61
  -4  -3   7  210.62   57.17
   4   3  -7  300.72   69.55
  -4   3   7  204.74   60.31
   6   0  -2   46.68   34.02
  -6   0   2   -2.37   42.17
   2  -4  -8  750.24   99.64
  -2   4   8  550.71   78.31
  -2   4   8  616.89   97.86
  -2  -4   8  617.33  114.07
   2   4  -8  559.51   79.81
   3  -4   6   73.51   35.04
   3  -4   6  -11.20   31.69
   3   4   6   54.09   38.76
  -3   4  -6   23.20   35.24
  -3  -4  -6   20.80   27.60
  -5   0  -6    4.36   25.04
   5   0   6   -9.21   31.03
   5   0   6   -8.32   22.42
  -4  -3  -6  102.20   36.13
   4   3   6   90.79   45.31
   4  -3   6  113.42   45.89
  -4   3  -6  192.08   53.89
  -5  -1   7  291.57   58.20
   5  -1  -7  107.89   59.99
   5   1  -7  138.97   64.21
  -5   1   7  247.01   51.08
   5  -2  -6  233.27   68.59
  -5  -2   6  161.92   57.13
  -5  -2   6  245.68   56.36
  -5   2   6  396.58   81.47
   5   2  -6  154.47   67.32
  -3  -3  -8   -1.37   22.47
   3   3   8   -1.39   35.58
   3  -3   8   41.25   29.89
  -3   3  -8  131.74   42.21
  -3  -5  -2  132.35   38.34
  -3   5  -2  -14.34   37.99
   3   5   2  190.29   49.82
  -3   5  -2   18.48   38.65
   3  -5   2   -2.38   48.44
  -6   0  -1   35.45   40.94
   6   0   1   11.90   38.39
  -2   0 -11  426.03   70.68
   2   0  11  210.93   71.86
   3   0  10  101.26   45.76
  -3   0 -10   83.29   52.31
  -1   3 -10   37.10   35.34
  -1  -3 -10   54.37   25.14
  -1  -3 -10   26.67   37.42
   1   3  10  150.63   46.48
   1  -3  10   -8.81   39.95
   1  -5   6   11.46   35.25
  -1  -5  -6   13.86   30.98
  -1   5  -6   14.10   29.20
   1   5   6   29.28   35.17
   1  -5   6   -4.84   33.41
   6  -1  -1  143.04   63.14
  -6   1   1  130.67   55.42
   6   1  -1  174.73   62.65
  -6  -1   1  115.92   52.77
  -3  -5   3  113.31   37.29
  -3   5   3   57.85   41.64
   3  -5  -3  129.10   57.72
   3   5  -3  233.91   62.41
   3  -2 -10  172.43   45.83
  -3  -2  10  186.12   55.34
  -3   2  10  109.77   50.25
  -3   2  10  183.51   58.40
   3   2 -10  256.00   63.91
   3  -4  -7  150.70   63.58
  -3  -4   7  322.10   71.27
  -3   4   7  265.31   55.28
  -3   4   7  212.95   46.23
   3   4  -7  124.41   63.99
  -6   1   0   12.71   33.07
   6  -1   0  -16.31   28.45
   6   1   0    9.68   37.15
  -6  -1   0   15.47   28.60
   6   0  -3  139.57   65.31
  -6   0   3  168.40   53.33
   1  -2  11   -4.18   35.51
   1   2  11   34.59   42.17
  -1  -2 -11    1.17   31.61
  -1   2 -11   59.06   41.50
   0   0  12  -17.58   39.22
   0   0 -12   58.05   40.43
  -5   3   4  133.81   45.32
   5   3  -4  -20.07   38.26
   5  -3  -4  148.37   47.22
  -5  -3   4   -2.81   34.54
  -5  -3   4   55.17   28.89
  -6  -1   2  -17.47   28.75
   6   1  -2   41.76   36.18
   6  -1  -2  113.64   38.35
  -6   1   2  -20.54   41.16
  -5   2  -5   17.40   40.41
  -5  -2  -5   87.49   29.26
  -5  -2  -5   41.34   36.40
   5  -2   5   41.14   42.22
  -5  -1  -6   23.97   32.25
   5  -1   6  113.35   39.67
   5   1   6   30.58   35.08
   5   1   6   14.41   40.78
  -5   1  -6   56.24   39.80
  -2   5  -5   59.55   42.90
  -2  -5  -5   49.12   40.25
   2  -5   5  127.31   47.90
   2  -5   5  120.77   50.51
   2   5   5   94.40   57.90
   1   0 -12  286.26   77.60
  -1   0  12  144.58   66.55
  -3   3   9  -16.92   24.36
   3  -3  -9  -27.68   28.88
   3   3  -9   15.10   29.59
  -3   3   9   52.51   27.91
  -3  -3   9  -25.72   28.76
   0  -4  -9  136.23   58.38
   0   4  -9  132.92   59.93
   0   4   9  140.24   56.69
   0  -4   9  163.39   55.78
   6   1   1   79.47   62.67
   6  -1   1   59.71   59.94
  -6   1  -1  105.69   59.16
  -6  -1  -1  202.41   49.91
  -2   1 -11  126.07   52.86
   2  -1  11   84.38   58.29
  -2  -1 -11  236.73   53.45
   2   1  11  119.02   57.84
   5  -3   3   26.01   47.56
  -5  -3  -3   47.82   33.86
   5   3   3  135.08   46.48
  -5   3  -3   79.52   50.13
   0   6   0  579.42  108.92
   0  -6   0  585.94  106.76
   6   0   2   17.08   42.57
  -6   0  -2   61.63   41.86
  -3  -1 -10  231.19   59.83
  -3   1 -10  182.91   67.97
   3  -1  10  166.62   55.52
   3   1  10  118.51   60.36
   4  -4  -5   47.67   57.60
  -4   4   5  137.64   48.42
   4   4  -5  227.79   65.62
   4   4  -5  148.89   42.58
  -4  -4   5   91.19   32.09
   2  -3 -10  353.62   64.60
   2  -3 -10  383.29   84.30
  -2  -3  10  269.00   70.79
   2   3 -10  155.90   71.45
  -2   3  10  228.05   80.68
   4  -4   4   63.70   46.77
  -4   4  -4   23.36   35.65
  -4  -4  -4  122.60   34.64
   4   4   4   51.88   48.41
  -2  -2  11   11.31   35.25
   2  -2 -11   35.14   37.99
   2   2 -11   30.61   35.49
  -2   2  11  -27.69   33.46
   0  -6  -1  184.14   69.36
   0  -6   1  110.15   63.66
   0   6   1  206.43   69.21
   0   6  -1  231.08   72.44
   3   0 -11  153.64   70.02
  -3   0  11  112.88   50.13
  -1  -4   9   92.63   58.56
   1  -4  -9  119.23   41.67
  -1   4   9  137.00   58.91
   1   4  -9   98.29   50.32
   1  -4  -9  144.17   56.99
   3   5   3  202.00   59.63
   3  -5   3  165.26   54.48
  -3   5  -3  126.16   51.10
  -3  -5  -3   14.69   38.61
  -3   5  -3  101.58   45.26
  -6   1   3  -38.99   32.65
   6   1  -3   11.98   35.42
   6  -1  -3   13.76   31.54
  -6  -1   3   13.92   26.76
   0  -1 -12  117.92   61.74
   0   1 -12  172.36   69.66
   0   1  12  289.25   66.03
   0  -1  12  122.01   74.40
  -2  -4  -8  104.63   37.68
  -2   4  -8   55.34   48.27
   2   4   8   42.68   48.98
   2  -4   8  115.31   44.45
   1   1 -12   -1.82   33.94
  -1  -1  12   15.66   38.06
   1  -1 -12   18.43   42.94
  -1   1  12   65.93   37.10
  -6   0   4  227.55   64.27
   6   0  -4  144.87   70.33
  -3  -5   4  405.78   51.23
   3   5  -4  443.46  104.39
  -3   5   4  218.50   58.52
   3  -5  -4  289.63   84.51
  -2   5   6  468.94   79.43
   2  -5  -6  421.31   93.27
  -2  -5   6  357.79   57.06
  -2  -5   6  486.37   97.52
   4  -2  -9   50.59   41.41
  -4  -2   9   60.55   41.10
  -4   2   9  201.84   51.11
   4   2  -9   46.66   58.92
  -1   6   0  122.94   61.00
  -1  -6   0  185.35   55.68
   1  -6   0  117.08   66.16
   1   6   0  189.66   77.42
   0  -6  -2  -28.31   35.28
   0   6   2  -15.64   33.14
   0  -6   2   23.70   32.04
   0   6  -2    6.81   32.70
  -4   2  -8   99.26   48.70
  -4  -2  -8   84.70   26.71
   4  -2   8  130.80   35.57
   4   2   8   52.04   46.88
   4  -2   8   13.95   36.05
  -4  -2  -8  120.20   50.98
   0  -5  -7   44.13   48.13
   0   5  -7   41.48   37.97
   0   5   7   52.54   50.14
   0  -5   7   72.33   43.20
   6   1   2    0.52   40.78
   6  -1   2   35.07   39.43
  -6   1  -2   -4.70   37.21
  -6  -1  -2   27.15   35.89
  -5   0   8   33.32   40.39
   5   0  -8   36.69   38.63
  -1  -6   1  133.93   55.88
   1   6  -1  124.64   57.07
  -1   6   1  122.69   58.64
   1  -6  -1  175.00   63.65
  -1   0 -12   85.76   43.05
   1   0  12   -7.20   45.27
  -1  -6  -1  228.22   70.78
  -1   6  -1  303.19   78.41
   1  -6   1  237.25   76.78
   1   6   1  251.47   85.66
   3  -1 -11  172.39   68.34
  -3  -1  11  173.98   57.83
   3   1 -11   50.01   60.33
  -3   1  11   62.94   52.76
  -4   0  10  257.37   70.40
  -4   0  10  175.76   66.12
  -5   3   5   10.91   35.39
  -5  -3   5   48.44   33.78
   5   3  -5   83.02   42.48
   5  -3  -5  -31.65   45.53
  -5  -3   5    9.25   25.18
   4   0   9  448.76   78.87
   4   0   9  488.76   80.36
  -4   0  -9  692.82  101.99
  -1  -4  -9  113.05   32.96
   1  -4   9   27.16   43.19
   1   4   9    3.17   46.02
  -1   4  -9   15.61   45.53
   1   5  -7  100.14   47.48
  -1  -5   7  128.85   66.36
  -1   5   7  148.10   61.03
   1  -5  -7  174.40   64.50
   6   0   3  190.81   63.39
   5   2  -7   32.37   42.70
  -5  -2   7   38.06   37.92
  -5  -2   7   13.99   43.14
   5  -2  -7   36.05   41.36
  -5   2   7  102.64   43.39
   2   0 -12  275.90   88.51
  -2   0  12  244.48   78.71
  -6   1   4   87.38   34.53
   6  -1  -4   19.85   47.81
  -6  -1   4   82.77   49.50
   6   1  -4   35.33   48.05
  -1  -6   2   34.37   31.83
  -1   6   2    1.51   35.69
   1  -6  -2  -16.91   37.82
   3  -4   7   50.81   37.76
  -3  -4  -7   95.83   34.49
   3   4   7   50.11   53.14
  -3   4  -7   41.91   44.15
   4  -3  -8  171.45   70.02
  -4   3   8  332.91   68.12
  -4  -3   8  257.48   63.73
   4   3  -8  392.66   70.83
  -5   3  -4   87.75   33.38
   5   3   4   40.98   37.86
   5  -3   4   10.22   43.45
  -5  -3  -4   22.04   31.13
   1   6   2   61.50   45.66
   1  -6   2   31.49   42.42
  -1  -6  -2  -28.61   38.61
  -1   6  -2   29.49   43.19
   5   1  -8  257.12   61.16
  -5   1   8  299.47   70.36
  -5  -1   8  308.52   79.18
   5  -1  -8  223.73   64.77
   4   3   7   53.19   45.45
   4  -3   7  148.58   41.16
  -4   3  -7  116.72   49.11
  -4  -3  -7   50.63   32.94
   4  -3   7   70.98   45.27
   5   0   7   -1.87   34.04
  -5   0  -7  -33.98   31.46
   5   0   7   42.07   27.20
   1   1  12    5.42   42.24
  -1  -1 -12   34.61   39.44
  -1   1 -12   17.19   42.02
   1  -1  12   26.26   36.52
  -6   2   1  -39.27   32.01
   6  -2  -1  -14.80   28.37
   6   2  -1   20.58   34.46
  -6  -2   1   15.16   20.70
   0  -6  -3   43.14   51.11
   0   6  -3  119.80   48.06
   0   6   3    0.35   48.46
   0  -6   3   20.25   44.80
  -3   5  -4  104.79   38.15
  -3  -5  -4   19.93   37.36
  -3   5  -4    9.46   49.35
   3  -5   4   37.32   43.53
   3   5   4   15.24   51.16
  -6   2   0   76.56   46.37
  -6  -2   0   34.05   34.13
   6  -2   0  -33.10   45.67
  -4   1  10    5.00   26.09
  -4  -1  10   49.86   34.91
  -4   1  10   17.92   39.28
   4   1 -10    9.53   38.92
   2   5   6  172.58   64.74
   2  -5   6  181.96   61.87
  -2  -5  -6   38.70   47.07
   2  -5   6  143.06   59.19
  -2   5  -6  109.04   47.71
  -4  -1  -9  170.87   66.75
   4  -1   9  142.31   54.64
  -4   1  -9  300.73   69.85
   4   1   9  174.80   57.42
  -1   5  -7   25.06   36.86
  -1  -5  -7   27.39   32.55
   1   5   7   86.55   47.97
   1  -5   7    8.00   38.76
   6   2  -2   -9.90   27.10
   6  -2  -2   -8.87   36.93
  -6  -2   2   51.74   30.22
  -6   2   2  -34.14   36.94
   5   2   6   33.07   27.46
   5  -2   6    9.70   29.18
  -5  -2  -6  -14.24   20.38
  -5  -2  -6   -5.75   31.30
  -5   2  -6   14.14   32.34
  -6   0   5    9.67   36.04
   6   0  -5  -11.20   33.49
  -4  -4   6   26.92   42.55
   4  -4  -6   77.05   53.76
  -4   4   6  182.01   52.69
   4   4  -6  115.89   40.38
  -4  -4   6   52.23   28.47
  -2  -4   9    5.73   51.84
   2  -4  -9   74.65   44.12
  -2   4   9   60.99   44.01
   2  -4  -9   68.21   42.04
   2   4  -9   -7.92   40.35
  -4   4  -5   57.05   46.81
   4   4   5   27.44   44.14
   4  -4   5  -12.61   39.76
  -4  -4  -5   90.90   33.43
   6  -1   3    1.84   51.43
   6   1   3   35.81   56.82
  -6  -1  -3   87.92   48.75
  -6   1  -3  239.88   64.28
   2  -3  10   54.29   51.29
   2   3  10   85.67   59.73
  -2  -3 -10  174.15   40.18
  -2   3 -10  118.30   52.09
  -2   1  12   31.15   54.11
   2   1 -12  141.28   63.78
  -2  -1  12  123.65   54.03
   2  -1 -12   84.19   63.91
   0  -3 -11  117.72   46.41
   0   3 -11  180.79   57.16
   0   3  11  113.62   56.95
   0  -3  11   78.05   55.59
   3   5  -5  236.45   84.77
  -3  -5   5  140.27   41.19
   3  -5  -5  150.34   57.42
  -3   5   5  230.53   54.87
   3  -4  -8  305.26   72.20
  -3  -4   8  250.70   62.17
  -3   4   8  208.77   53.68
  -3   4   8   95.25   71.76
   3   4  -8  231.20   63.52
  -6  -2  -1   97.91   35.72
   6  -2   1  160.37   61.88
  -6   2  -1  114.17   59.96
  -2   2 -11  -35.87   47.93
   2   2  11   26.17   46.95
  -2  -2 -11  158.21   40.16
   2  -2  11   44.75   43.29
  -1   6   3   58.94   39.45
   1  -6  -3   36.92   45.47
  -1  -6   3  -10.11   31.34
   1   6  -3   16.36   43.81
   1   3 -11  114.59   43.82
   1  -3 -11   -6.26   40.78
  -1   3  11  -17.30   42.52
  -1  -3  11   32.61   44.12
  -3   2 -10   96.57   55.98
  -3  -2 -10   53.23   25.07
   3  -2  10   29.02   40.10
   3   2  10   66.96   46.38
  -3  -2 -10  158.27   42.45
  -5   1  -7   41.63   45.66
   5   1   7   11.20   45.21
   5  -1   7   56.41   40.79
   5   1   7   83.16   38.06
  -5  -1  -7   93.59   37.89
  -3   3  -9  129.65   40.17
   3   3   9   23.49   32.50
  -3  -3  -9   -1.31   22.18
   3  -3   9  -16.58   32.89
   1   6   3   22.00   40.39
  -1  -6  -3  -17.67   37.76
   1  -6   3  -35.95   38.63
  -1   6  -3   -9.42   38.73
  -6  -2   3  -11.30   30.82
   6  -2  -3  141.37   36.80
   6   2  -3  -63.35   34.95
  -6   2   3  -46.47   37.78
   0   2 -12  107.37   59.96
   0  -2 -12   46.43   50.76
   0  -2  12   47.66   51.48
   0   2  12  135.76   56.39
   6  -1  -5    0.08   48.65
   6   1  -5  148.14   42.59
  -6  -1   5   16.48   37.83
  -6   1   5   -1.54   46.25
  -1   2  12  -33.15   41.96
  -1  -2  12   42.33   47.96
   1   2 -12   80.61   43.53
   1  -2 -12    3.07   44.49
  -5  -4   1   32.10   21.39
   5   4  -1  -55.68   33.68
  -5   4   1  -35.71   29.34
   5  -4  -1   22.03   35.56
  -6   0  -4  144.70   82.80
   6   0   4  195.88   64.18
   5  -3  -6   72.66   52.02
  -5  -3   6   81.73   37.30
  -5   3   6    2.19   48.07
   5   3  -6   34.42   50.44
   2  -6   0   79.02   58.12
  -2  -6   0  123.72   41.96
  -2   6   0   -6.75   49.90
   2   6   0   54.90   60.39
  -5  -4   0   73.99   36.24
   5  -4   0   55.88   61.74
  -5   4   0  159.04   54.99
   5   4   0   58.48   49.79
  -2  -6   1   -6.36   37.39
  -2   6   1   44.99   39.75
   2   6  -1   77.89   52.44
   2  -6  -1   61.53   52.90
   0  -6  -4   84.42   67.83
   0   6  -4  125.49   77.41
   0   6   4  203.60   66.66
   0  -6   4  204.91   66.05
  -2   5   7   16.28   39.47
  -2  -5   7   13.37   50.19
   2   5  -7   44.61   37.57
   2  -5  -7   93.33   50.22
  -6   2  -2   14.41   57.40
  -6  -2  -2   30.05   31.22
   6  -2   2   19.75   43.20
  -6  -2  -2   36.39   30.77
   2   6   1   -0.38   52.73
  -2   6  -1   16.53   44.09
   2  -6   1  102.99   52.33
  -2  -6  -1   36.71   36.42
   5   4  -2  258.00   96.47
  -5  -4   2  375.85   61.99
  -5   4   2  421.81   79.63
   5  -4  -2  274.92  100.34
  -4   5   1   34.33   39.11
  -4  -5   1   63.90   36.17
   4  -5  -1   -0.48   52.52
   4   5  -1   82.77   56.48
  -4   5   0   24.03   45.43
   4  -5   0   62.29   54.47
  -4  -5   0  106.16   40.52
   4   5   0   -2.22   54.20
  -3   2  11  153.37   53.47
  -3  -2  11  122.73   60.52
   3  -2 -11  156.68   57.96
   3   2 -11  154.48   70.89
  -3   3  10  135.23   47.86
  -3  -3  10    4.83   45.05
  -3   3  10   19.93   40.24
   3   3 -10   53.52   49.96
   3  -3 -10   50.40   42.42
  -5  -4  -1   26.84   27.88
  -5   4  -1   61.78   49.78
   5  -4   1   17.49   55.94
   5   4   1  225.54   48.04
   1  -3  11   57.41   47.96
   1   3  11   68.46   49.72
  -1   3 -11   15.44   47.81
   2  -6  -2   35.88   56.28
  -2  -6   2   73.66   40.61
  -2   6   2   49.50   43.36
   2   6  -2   23.41   60.92
  -5   3  -5   21.08   46.31
   5   3   5  -40.03   45.88
   5  -3   5  168.13   46.08
  -5  -3  -5   97.63   35.44
   0  -4  10  103.61   60.85
   0   4 -10  126.56   62.43
   0  -4 -10  183.81   46.73
   0   4  10  115.69   53.44
  -1   6   4  455.85   97.98
   1   6  -4  360.40  131.05
   1  -6  -4  493.06  109.20
   3   5   5   64.00   61.52
  -3   5  -5   88.65   53.23
  -3  -5  -5  129.37   44.76
   3  -5   5   57.80   50.76
   3  -5   5  105.19   46.57
   4   5  -2   84.68   61.72
   4  -5  -2  167.86   58.14
  -4  -5   2   47.36   34.54
  -4   5   2   16.36   45.54
   0  -5  -8   97.13   52.98
   0   5   8   30.09   48.96
   0  -5   8   22.63   47.02
   0   5  -8   78.19   43.67
  -6   2   4   -8.27   38.10
   6  -2  -4   40.29   43.71
   6   2  -4   42.55   42.01
  -6  -2   4    7.89   31.68
  -4  -5  -1    4.60   27.96
  -4   5  -1   64.94   39.47
   4   5   1  -50.67   36.63
   4  -5   1   -1.06   36.76
   2   0  12   20.88   37.39
  -2   0 -12  -18.55   30.66
   6   1   4   15.70   43.08
  -6  -1  -4  -24.12   51.14
  -6   1  -4   37.25   40.67
   6  -1   4   36.61   39.20
  -2   4  -9  -49.79   42.55
   2  -4   9  -40.09   37.11
   2   4   9   23.76   41.05
  -2  -4  -9   95.87   29.21
  -6   0   6   29.30   44.32
   6   0  -6   77.45   48.56
   1  -4 -10  122.06   53.49
  -1  -4  10   91.54   59.02
  -1   4  10   56.53   55.94
   1   4 -10   55.93   53.06
   5   0  -9  161.29   53.84
  -5   0   9  142.69   73.69
   2   6   2  -35.14   56.92
   2  -6   2   91.67   54.37
  -2  -6  -2   53.64   40.92
  -2   6  -2   65.24   47.01
  -5   2   8  150.42   61.22
  -5  -2   8  153.24   48.53
   5   2  -8  174.70   57.72
  -5  -2   8  174.58   58.33
   5  -2  -8  197.47   65.32
  -5  -4   3   11.94   26.87
   5  -4  -3  -32.94   45.15
  -5   4   3   52.57   43.80
   5   4  -3   70.03   46.60
  -1   2 -12   62.98   60.42
  -1  -2 -12   53.20   47.59
   1  -2  12   36.69   50.70
   1   2  12  171.32   58.20
  -1   6  -4  198.12   76.63
  -1  -6  -4  143.88   59.26
   1   6   4   69.17   64.01
   1  -6   4  121.03   56.56
   1   5  -8   37.67   37.29
   1  -5  -8  119.15   50.61
  -1  -5   8    0.02   45.72
  -1   5   8   25.89   43.82
  -2   3  11   90.85   54.67
   2   3 -11   82.71   51.94
   2  -3 -11   79.64   59.97
  -2  -3  11  109.06   59.54
  -3   5   6  129.68   44.92
   3  -5  -6  253.97   59.25
  -3  -5   6  150.34   35.57
   4  -2 -10   55.13   46.50
  -4   2  10  238.12   64.87
   4   2 -10  116.15   71.05
  -4  -2  10  115.86   45.14
   3  -1  11   88.09   50.56
  -3  -1 -11   32.18   44.38
  -3   1 -11   48.21   48.04
   3   1  11  -12.21   45.85
  -4  -2  -9  119.22   37.38
  -4  -2  -9  106.54   49.91
  -4   2  -9  205.82   72.75
   4  -2   9  164.16   50.00
   4   2   9  299.36   59.49
   5  -4   2   61.45   60.96
   5   4   2   18.25   54.94
  -5  -4  -2  136.81   38.24
  -5   4  -2   83.07   71.50
   4  -4  -7  124.68   58.20
   4   4  -7  143.10   51.74
  -4  -4   7  187.71   60.50
  -4   4   7   37.44   49.58
   0   0  13   59.89   49.66
   0   0 -13   -5.97   45.48
   4  -4   6   34.58   35.99
   4   4   6   11.68   39.78
  -4   4  -6   60.09   39.90
  -4  -4  -6  -24.43   25.06
  -2  -6   3  119.94   40.28
  -2   6   3   29.38   48.91
   2  -6  -3   31.64   59.15
   2   6  -3   25.83   58.98
  -6  -2  -3   -3.98   23.53
  -6   2  -3   -5.76   35.11
   6  -2   3    0.83   34.59
  -6  -2  -3    1.03   27.20
   4  -5  -3   44.22   60.31
   4   5  -3  112.12   64.55
  -4  -5   3   28.66   34.81
  -4   5   3  190.97   55.41
  -1   0  13   -7.87   28.11
   1   0 -13   13.64   37.38
   2   2 -12  131.82   69.16
   2  -2 -12  169.22   68.84
  -2  -2  12  228.94   72.68
  -2   2  12   50.93   60.52
  -4   5  -2  311.20   70.92
  -4  -5  -2  117.02   54.47
   4   5   2   57.44   69.77
   4  -5   2   98.97   65.62
   3   0 -12   24.73   41.05
  -3   0  12   31.92   39.72
  -2  -5  -7  -11.30   30.75
   2   5   7   48.91   41.03
  -2   5  -7  -30.24   37.01
   2  -5   7  -37.72   31.88
  -2   1 -12   32.62   33.77
  -2  -1 -12  -18.07   29.68
   2  -1  12   -5.84   37.87
   2   1  12  -20.89   35.82
   3  -4   8   63.96   50.49
   3   4   8  178.20   59.28
  -3   4  -8  160.38   65.38
  -6  -1   6  118.31   41.39
   6  -1  -6   -2.53   50.11
   6   1  -6   25.65   49.97
  -6   1   6   49.45   60.74
  -4   3   9  472.11   81.26
  -4  -3   9  346.10   89.86
   4  -3  -9  376.12   78.11
   4   3  -9  153.51   85.65
  -5  -1   9   12.71   28.61
   5  -1  -9  -41.49   25.70
  -5   1   9   49.47   32.80
  -4  -3  -8   94.66   29.45
   4   3   8  -28.97   44.30
  -4   3  -8   77.37   49.18
  -5  -2  -7   20.64   27.72
   5  -2   7   98.22   42.66
  -5   2  -7   65.89   49.47
   5   0   8  270.88   68.43
   5   0   8  208.31   71.78
  -5   0  -8  520.53   84.48
   0  -6   5  135.59   64.60
   0  -6  -5  169.35   74.50
   0   6   5  146.20   70.55
   0   6  -5  151.33   86.51
   1  -4  10   15.29   37.39
  -1   4 -10  -18.31   42.85
   1   4  10  -53.79   43.23
  -1   5  -8   18.47   31.64
  -1  -5  -8  -10.29   25.38
   1  -5   8  -33.10   37.15
   1   5   8   19.68   40.02
   4   0 -11  -14.18   32.68
  -4   0  11   35.22   33.55
  -6   0  -5   15.08   42.23
   6   0   5   36.88   40.43
   4   0  10    0.90   40.29
  -4   0 -10  116.73   51.83
   2   6   3   54.98   54.21
  -2  -6  -3   13.21   42.28
  -2   6  -3   45.56   46.68
   2  -6   3   76.85   54.31
  -5   4   4   66.24   51.59
   5   4  -4  177.91   62.65
  -5  -4   4  129.71   39.27
   5  -4  -4   71.54   68.63
   0  -1 -13  266.86   76.40
   0   1 -13  170.76   76.11
   0  -1  13  211.61   84.63
   0   1  13  190.96   76.73
   6   2  -5  228.08   79.52
   6  -2  -5  314.44   68.53
  -6   2   5  226.54   81.40
  -6  -2   5  133.15   59.36
   5   3  -7   42.23   41.93
  -5  -3   7   57.77   46.76
   5   3  -7   13.03   46.26
  -5   3   7  152.23   59.68
   5  -3  -7   52.92   52.63
   1  -1 -13    5.60   52.04
  -1   1  13   60.56   46.46
   1   1 -13   25.08   51.98
  -1  -1  13   22.63   43.40
   3   1 -12   43.11   55.75
   3  -1 -12   61.70   59.21
  -3  -1  12   39.97   53.40
  -1   6   5  350.70   76.67
   1  -6  -5  168.09   90.30
  -1  -6   5  220.04   53.90
   1   6  -5  243.68   90.11
   3   4  -9  141.65   68.06
  -3  -4   9  132.58   64.03
   3  -4  -9  135.44   65.92
  -3   4   9  327.48   69.77
  -5   4  -3   -7.10   42.86
   5  -4   3  -24.03   44.29
  -5  -4  -3    1.75   31.22
   5   4   3  104.76   39.10
   5   1   8   10.92   27.95
   5  -1   8   -5.78   28.11
  -5  -1  -8    3.26   32.54
  -5   1  -8  -36.69   33.43
   5   1   8   21.18   35.23
   2   4 -10  126.62   58.10
  -2   4  10   53.99   72.55
  -2  -4  10  111.80   64.36
   2  -4 -10  165.58   61.13
   2  -4 -10  189.39   63.92
   4  -5  -4   37.05   47.66
   4   5  -4   19.26   47.41
  -4   5   4   13.20   31.86
  -4  -5   4   24.30   25.70
   6  -3  -1  -35.66   43.49
  -6   3   1  -27.73   30.62
  -6  -3   1   53.90   27.92
   4  -5   3    5.27   53.90
  -4  -5  -3   37.85   44.06
   4   5   3  201.88   55.85
  -2   6   4   87.91   57.48
   2   6  -4  215.91   91.91
  -2  -6   4  166.38   47.06
   2  -6  -4   79.75   69.75
   4   1 -11  -29.51   49.44
  -4  -1  11   -3.76   31.69
  -4   1  11   -3.69   31.47
  -6   3   0   51.26   51.06
  -6  -3   0   23.52   33.73
   6  -3   0   48.57   56.86
  -1   0 -13  186.25   64.38
   1   0  13   33.77   68.98
  -6  -1  -5   19.02   38.18
   6  -1   5    0.26   29.92
   6   1   5   -7.48   33.40
  -6   1  -5   -5.38   28.69
  -4  -1 -10   66.53   62.51
  -4   1 -10  162.85   67.46
   4  -1  10   89.14   53.59
   4   1  10  128.21   57.42
  -1   6  -5  233.03   74.11
  -1  -6  -5   63.47   53.74
   1  -6   5  111.90   49.86
   1   6   5   52.03   59.05
   6  -3  -2   60.05   67.57
  -6   3   2  116.71   64.73
  -6  -3   2   85.55   41.85
   2   5  -8  107.54   46.63
   2  -5  -8  175.57   63.22
  -2  -5   8   58.53   69.87
  -2   5   8   66.82   59.25
   3  -5   6   20.80   38.65
  -3  -5  -6  -27.94   34.59
  -3   5  -6   33.66   41.75
   3  -5   6   53.98   42.74
   3   5   6   46.34   38.61
   5   3   6   12.57   47.98
  -5  -3  -6  109.97   38.40
   5  -3   6  126.21   51.35
  -5   3  -6   86.00   54.73
  -6   0   7  208.17   58.75
   6   0  -7   54.24   58.24
   2   0 -13  221.14   81.54
  -2   0  13   99.84   74.77
  -6   2  -4   40.26   59.73
  -6  -2  -4  122.93   36.96
   6  -2   4   12.61   56.44
  -6   3  -1   27.38   33.98
  -6  -3  -1  -10.58   19.43
   6  -3   1    6.33   36.26
   2  -3  11   89.17   45.20
   2   3  11  -10.30   49.36
  -2   3 -11   30.73   50.08
  -3   3 -10   35.36   50.09
   3  -3  10   22.95   38.95
   3   3  10   38.58   47.24
  -2   6  -4   56.88   32.59
   2  -6   4  -27.97   49.22
   2   6   4  -30.05   51.88
  -2   6  -4   68.96   50.57
  -2  -6  -4   -3.75   37.28
   3  -5  -7   94.60   54.08
  -3  -5   7   41.04   63.17
  -3   5   7  101.30   43.94
   1   1  13   43.92   41.60
   1  -1  13   24.87   46.51
  -1   1 -13  -34.71   40.93
  -1  -1 -13    8.11   38.24
  -6   3   3  111.47   53.00
  -6  -3   3   73.10   40.01
   6  -3  -3   53.58   64.65
   5   4  -5  -44.35   37.06
   5  -4  -5   23.11   39.77
  -5  -4   5   29.01   23.22
  -5   4   5  -21.09   35.84
   3  -2  11   81.18   46.98
  -3  -2 -11   62.00   43.87
  -3   2 -11  100.57   61.04
   3   2  11   44.85   54.65
   0  -3 -12  130.62   54.11
   0   3 -12  144.54   65.79
   0   3  12  171.00   68.38
   0  -3  12   54.50   62.91
   3   6   0  114.24   81.29
  -3  -6   0  154.46   59.41
   3  -6   0  221.00   82.56
  -1  -3  12   28.72   55.00
   1   3 -12   -1.31   57.70
  -1   3  12  204.03   55.25
   1  -3 -12    4.23   53.17
  -3  -6   1   13.25   39.45
   3  -6  -1   34.50   53.67
   3   6  -1   57.21   57.85
  -6  -1   7   11.69   35.83
   6  -1  -7   -6.06   40.26
   6   1  -7  -17.58   41.57
  -6   1   7   48.83   34.01
   2   2  12   32.17   43.37
  -2   2 -12  -13.09   39.56
   2  -2  12   26.05   40.31
  -2  -2 -12   16.08   31.79
  -2  -1  13   41.72   54.93
  -2   1  13  142.71   57.45
   2   1 -13   46.25   68.61
   2  -1 -13   70.52   67.37
   0  -6   6  134.91   54.30
   0  -6  -6  -27.91   67.77
   0   6   6  127.85   61.21
   6  -2  -6  -34.20   52.97
   6   2  -6    9.69   51.24
  -6  -2   6   17.68   40.17
  -6   2   6  228.24   62.70
   0   5   9   47.88   40.88
   0  -5  -9   -8.45   40.62
   0   5  -9  -10.12   39.82
   0  -5   9   48.98   49.97
  -5   2   9  111.17   52.99
   5   2  -9   60.71   49.37
   5  -2  -9   28.64   50.62
   4   4  -8  149.93   71.31
   4  -4  -8  169.73   65.24
  -4  -4   8  164.18   69.64
  -4   4   8  120.16   55.76
  -3  -6  -1  144.97   51.42
   3  -6   1  107.22   68.55
   3   6   1   46.98   59.33
  -5   4  -4  -25.40   47.50
  -5  -4  -4   -7.36   36.84
   5  -4   4   32.36   49.30
   5   4   4  206.85   47.90
  -6   3  -2  156.04   63.37
   6  -3   2  164.47   77.15
  -6  -3  -2  198.84   51.14
   4   4   7  140.17   54.33
  -4   4  -7   -3.32   58.23
  -4  -4  -7   94.34   38.57
   4   5  -5  130.91   63.57
   4  -5  -5  -20.06   53.20
  -4   5   5   35.30   40.69
  -3  -6   2   22.01   27.59
   3  -6  -2    2.96   35.05
   3   6  -2  -59.45   42.93
  -4   5  -4   65.59   44.08
  -4  -5  -4   -6.13   42.15
   4   5   4   89.81   54.61
   4  -5   4   18.54   46.99
   3  -3 -11   78.38   63.51
   3   3 -11  192.77   69.35
  -3   3  11   20.35   58.59
  -3  -3  11  184.57   57.92
  -5   0  10   50.75   46.83
   1   5  -9   77.48   39.39
   1  -5  -9  -35.60   50.34
  -1  -5   9   -2.52   46.40
   2  -6  -5  348.15  104.19
   2   6  -5  435.02  120.54
  -2   6   5  302.54   93.90
  -2  -6   5  306.55   69.31
  -1   6   6   45.38   54.77
   1  -6  -6   97.73   64.91
   6   0   6  -37.19   45.35
  -6   0  -6  -56.41   44.42
   2  -5   8   68.30   65.31
  -2   5  -8   81.18   54.73
  -2  -5  -8   13.87   42.74
   2   5   8   92.59   52.37
   0   2 -13  138.51   71.86
   0   2  13  165.76   67.66
   0  -2  13   88.93   64.47
   0  -2 -13   15.60   61.89
   2   4  10  -40.29   55.16
  -2   4 -10  107.30   51.84
   2  -4  10   70.39   42.99
  -2  -4 -10   10.27   36.03
  -1  -2  13   79.04   39.59
   1  -2 -13  -17.48   35.97
   1   2 -13   -0.55   38.81
  -1   2  13  -49.88   36.75
   3  -2 -12  237.66   82.84
   3   2 -12  231.24   72.60
  -3   2  12  -55.69   57.27
  -3  -2  12  124.01   63.69
   6  -3  -4  -16.00   55.33
  -6  -3   4   26.92   28.30
  -6   3   4  167.60   46.15
   0  -4  11  324.68   79.06
   0   4  11  229.50   87.78
   0   4 -11  269.72   80.54
   0  -4 -11  197.28   53.80
  -3   6  -2   44.91   53.95
   3  -6   2   24.20   60.64
  -3  -6  -2   76.77   44.06
   3   6   2   76.24   59.31
  -1  -4  11   35.36   51.37
   1  -4 -11  -22.66   45.36
   1   4 -11   67.85   46.29
  -1   4  11   68.92   52.00
  -5   3   8  558.79  107.55
  -5  -3   8  578.34  104.16
   5   3  -8  586.40  118.73
   5  -3  -8  379.38  109.95
  -5   2  -8   55.72   37.37
  -5  -2  -8   -0.66   23.25
   5   2   8  -21.47   32.64
   1   3  12  252.33   95.98
   1  -3  12  391.09   90.63
  -1   3 -12  427.12   90.35
  -1  -6  -6  -21.03   38.05
   1   6   6   87.02   49.83
   1  -6   6   35.90   40.67
  -3  -4  -9   -7.16   36.28
  -3   4  -9  216.69   57.24
   3   4   9   43.56   48.76
   3  -4   9   42.60   42.20
   3   6  -3   69.59   50.63
   3  -6  -3    5.66   46.47
  -3  -6   3   -8.17   28.89
   4   2 -11   59.17   69.08
  -4   2  11  178.64   60.63
  -4  -2  11   66.20   52.18
   3   0  12  154.98   60.96
  -3   0 -12   12.02   62.90
  -5  -1  10   74.12   43.95
  -5   1  10   65.83   60.31
  -4  -3  10   38.55   49.20
   4   3 -10    5.65   52.09
   4  -3 -10   12.87   41.72
  -4   3  10   73.87   52.20
  -6   2  -5   84.18   48.60
   6  -2   5  150.31   52.51
  -6  -2  -5   18.31   29.10
  -4   2 -10  154.04   65.57
   4  -2  10   39.38   43.11
   4   2  10   90.63   54.46
   6   1   6    5.28   48.00
  -6   1  -6   54.26   39.35
   6  -1   6   16.05   41.67
  -6  -1  -6   -1.88   48.94
  -4  -3  -9   49.79   32.40
  -4   3  -9   43.40   45.67
   4   3   9  181.20   56.11
   1   5   9  -42.91   43.53
   1  -5   9  112.18   45.54
  -1  -5  -9   11.88   32.40
  -1   5  -9  -15.93   39.62
   7   0  -1   57.69   69.05
  -7   0   1  154.51   70.08
  -2   6  -5  141.46   54.41
   2   6   5   32.86   74.19
  -2  -6  -5  128.81   51.37
  -2   6  -5   78.53   72.66
   2  -6   5   90.92   70.43
  -5   0  -9   77.73   65.46
  -6   3  -3  -17.96   81.54
  -6  -3  -3  131.56   42.88
   6  -3   3   46.96   60.12
   7   0   0   98.25   73.77
  -7   0   0  129.15   75.49
   2  -3 -12    0.82   48.95
   2   3 -12   63.35   42.37
  -2  -3  12   36.28   49.22
  -2   3  12   -7.71   43.84
   5   4  -6   24.94   63.97
  -5  -4   6   39.71   31.38
   5  -4  -6   65.08   54.85
  -5   4   6   55.52   55.49
  -7   0   2   75.19   62.37
   7   0  -2   42.23   62.31
  -3   5  -7   77.53   53.14
   3   5   7   59.25   62.64
   3  -5   7  169.81   43.83
  -3  -5  -7  -39.02   41.35
  -2   0 -13   63.81   50.24
   2   0  13   64.44   60.00
   6   0  -8   14.88   45.39
  -6   0   8   56.41   45.17
  -5  -3  -7   64.54   37.64
  -5   3  -7   68.43   60.34
   5   3   7   85.73   48.87
   3   1  12   -0.17   40.85
   3  -1  12   -3.50   42.13
  -3  -1 -12  -18.15   36.31
  -3   1 -12   63.85   43.80
   3   4 -10   42.64   36.80
  -3  -4  10   23.19   44.85
   3  -4 -10   24.12   37.28
  -3   4  10  -53.93   36.88
   1  -2  13   13.98   60.87
   1   2  13  224.17   60.41
  -1   2 -13   53.49   65.46
  -1  -2 -13   20.52   52.53
  -3  -6  -3   17.16   50.19
   3   6   3   53.41   53.17
  -3   6  -3  162.90   47.66
   3  -6   3  -16.65   62.51
  -7   0  -1  -24.87   39.07
   7   0   1   22.00   42.38
   1  -4  11  156.94   74.03
  -1   4 -11  218.81   83.92
   1   4  11  199.78   79.89
   7   1  -1  142.21   90.44
  -7   1   1  251.15   84.64
  -7  -1   1  179.60   75.61
   7  -1  -1  177.07   80.87
   5   4   5   71.34   38.85
  -5   4  -5  -21.40   35.98
  -5  -4  -5  -40.38   28.23
   5  -4   5   -4.39   36.75
   6   3  -5   61.50   40.45
   6  -3  -5  -52.84   42.76
  -6   3   5  -40.37   41.85
  -5   1  -9  203.13   70.66
  -5  -1  -9  100.10   66.45
   5   1   9   81.96   56.22
   4   5  -6   66.71   75.10
  -2   5   9   35.29   53.54
   2  -5  -9   45.28   55.90
  -2  -5   9   70.86   54.67
   7   0  -3   74.09   60.04
  -7   0   3   50.65   51.74
   4   5   5  164.34   74.54
   4  -5   5  214.77   64.60
  -4   5  -5  128.46   65.85
  -4  -5  -5  109.25   57.76
  -4   0  12  -29.08   34.18
   4   0 -12   60.64   47.27
  -3   0  13   60.95   45.30
   3   0 -13  -13.32   61.18
  -7   1   0  113.07   58.73
   7   1   0  103.54   66.84
   7  -1   0   24.71   63.10
  -7  -1   0  -11.21   57.00
  -6   2   7  276.00   65.29
   6   2  -7  148.17   72.30
  -6  -2   7  319.10   79.25
   6  -2  -7  181.29   80.07
   2  -2 -13   13.62   52.01
  -2  -2  13   66.41   44.91
   2   2 -13  -73.45   45.93
  -2   2  13  -42.50   40.04
   3  -6  -4   50.80   58.11
   3   6  -4  106.23   58.18
  -3  -6   4   16.67   32.52
  -4   0 -11   40.77   54.77
   3  -5  -8   -4.84   48.59
  -3  -5   8   52.13   50.51
   7   1  -2   38.17   43.12
  -7   1   2   23.80   50.53
   7  -1  -2  -63.38   47.14
  -7  -1   2   26.67   34.06
   2   6  -6  262.92  128.48
  -2   6   6  199.68   85.25
   2  -6  -6  440.35   95.66
  -2  -1 -13   10.68   31.81
  -2   1 -13   -6.17   28.50
   2  -1  13   48.00   39.99
   2   1  13  -55.68   39.65
  -6   1   8  155.37   59.68
  -6  -1   8   90.82   50.41
   6  -1  -8   68.43   60.59
   6   1  -8   49.42   55.90
   0   6   7   -4.12   59.38
   0  -6  -7  112.05   59.08
  -2  -4  11  -14.49   39.64
   2   4 -11   13.98   34.74
  -2   4  11    3.51   38.78
   0   0  14   -0.04   45.67
   0   0 -14  -19.81   46.93
   1   0 -14   55.44   56.25
  -1   0  14   -5.31   53.99
   7   1   1   61.11   50.90
   7  -1   1  -27.56   47.63
  -7  -1  -1   25.01   43.76
  -7   1  -1  -11.48   48.21
  -1  -6   7  127.17   62.72
  -1   6   7   13.10   66.74
   1  -6  -7  177.80   78.30
  -7   0  -2    2.17   48.69
   7   0   2  -37.14   49.77
  -7  -1   3   -7.39   51.81
  -7   1   3   83.74   51.94
   7   1  -3   57.80   58.63
   7  -1  -3  101.04   58.56
   4  -1 -12  204.06   77.23
  -4  -1  12  184.26   67.98
   4   1 -12  212.22   90.03
   3  -1 -13    7.34   47.79
  -3   1  13  170.05   58.50
   3   1 -13  -26.97   69.72
  -5  -5   1   21.15   45.26
   5  -5  -1  241.28   70.76
   5   5  -1  191.74   72.17
  -5   5   1   67.86   57.80
  -6   3  -4   95.52   49.56
  -6  -3  -4   12.11   32.25
   6  -3   4  -29.62   48.50
  -4  -1 -11    7.86   60.31
  -4   1 -11   70.73   65.39
   4  -1  11  208.77   56.99
   4   1  11  -19.37   55.41
  -5  -5   0   41.14   31.72
  -5   5   0  -61.88   44.19
   5   5   0  -81.13   57.23
   5  -5   0  -34.08   49.99
   7   0  -4   -2.74   42.54
  -7   0   4  -32.78   46.20
  -4   4   9   68.69   47.89
   4   4  -9   54.24   55.15
   4  -4  -9   32.30   54.69
   0   7   0  175.37   70.10
   0  -7   0    5.00   67.52
  -4   4  -8   89.53   45.43
  -4  -4  -8  -18.16   30.47
   4   4   8   43.73   45.39
  -6   0  -7  144.01   55.18
   6   0   7   50.17   55.49
  -5   5   2   76.29   57.19
  -5  -5   2   59.65   39.19
   5   5  -2   60.47   69.47
   5  -5  -2   80.38   70.71
   0  -1 -14  175.49   83.47
   0   1  14  219.39   70.89
   0  -1  14  165.36   74.71
   0   1 -14   60.97   86.59
   0   7   1   78.35   56.54
   0   7  -1  -11.88   62.16
   0  -7   1   28.06   54.07
   3  -6   4   95.50   55.34
   3   6   4  -22.85   65.21
  -3  -6  -4   36.69   47.98
  -3   6  -4   38.55   44.58
   5   2 -10   -6.13   71.45
  -5   2  10   96.36   52.27
  -1  -1  14   35.78   46.98
  -1   1  14   27.38   59.32
   1   1 -14   21.29   57.26
   1  -1 -14   37.94   46.33
  -5   5  -1  171.56   64.96
   5  -5   1  254.75   77.75
   5   5   1   94.61   75.76
  -5  -5  -1  111.56   52.04
  -2  -6  -6   16.97   36.73
   2   6   6    6.70   43.00
   3  -3  11   45.15   41.51
  -3   3 -11   44.17   50.35
   3   3  11   -7.77   47.47
   6  -2   6   -0.54   35.63
  -6   2  -6    3.07   33.59
  -1  -6  -7   41.35   50.52
   1   6   7   80.97   67.16
   1  -6   7  123.90   65.33
   7  -1   2   23.17   63.08
  -7  -1  -2   -4.08   57.83
   7   1   2  256.39   66.41
  -7   1  -2   57.35   67.84
   0   5 -10  240.06   62.31
   0  -5  10  101.68   84.11
   0   5  10   95.97   70.09
   0  -5 -10  117.44   64.00
   5   4  -7  250.85   92.37
  -5   4   7  156.91   68.67
   5  -4  -7  162.59   86.22
   2  -3  12  -62.10   46.79
   2   3  12    5.67   50.27
  -2   3 -12  -21.06   57.49
  -3  -6   5    4.21   24.57
   3   6  -5    0.02   52.45
   3  -6  -5  -13.32   39.85
  -2   5  -9  -21.85   44.27
  -2  -5  -9  -24.55   32.20
   2  -5   9   -6.76   44.39
   2   5   9   20.80   45.20
  -7  -1   4    6.81   61.76
   7  -1  -4   66.19   61.45
  -7   1   4   60.69   52.81
   7   1  -4   74.41   57.27
  -6   3   6    2.29   50.53
   6  -3  -6   89.21   46.62
   6   3  -6   15.06   54.56
   1   5 -10  173.10   65.62
  -1  -5  10   82.20   82.47
  -1   5  10  265.21   77.10
   1  -5 -10   58.80   72.11
  -5   3   9  123.74   62.81
   5  -3  -9   84.48   62.69
   5   3  -9  106.92   74.51
  -1   7   0   26.96   58.91
   1  -7   0   41.65   61.11
   1   7   0   35.21   65.68
  -1  -7   0   59.85   42.53
   0  -7   2  173.37   59.34
   0   7   2   64.45   67.40
   0   7  -2  -26.51   72.71
   0  -7  -2   38.08   69.33
   6  -1   7    1.96   37.21
   6   1   7   22.77   42.84
  -6   1  -7  -34.86   36.53
  -6  -1  -7   -7.87   33.22
  -1   0 -14  -53.59   61.83
   1   0  14  189.63   63.46
   5  -5  -3   32.35   60.55
  -5  -5   3   35.01   34.74
  -5   5   3   41.48   52.03
   5   5  -3   89.10   68.12
  -1   7   1   40.63   48.28
   1  -7  -1  -26.71   51.61
   1   7  -1    0.56   54.24
  -1  -7   1   21.46   34.40
  -5   0  11  -10.32   35.37
  -6   4   1  -50.73   44.95
  -6  -4   1  -19.86   34.46
   6  -4  -1   38.85   50.03
   7   0   3  -21.20   65.77
  -7   0  -3  208.16   69.37
  -1   7  -1   99.03   51.66
   1   7   1   63.04   53.68
   1  -7   1  -29.13   53.38
  -1  -7  -1  -12.09   28.99
   3   2  12  -64.48   43.29
  -3   2 -12   54.88   43.71
   2   0 -14   47.56   68.91
  -2   0  14   62.26   61.33
  -6   4   0   78.57   63.99
   6  -4   0  199.77   83.64
  -6  -4   0  161.85   53.62
   5   5   2   29.52   39.83
   5  -5   2   -7.77   40.63
  -5  -5  -2    0.72   28.21
  -5   5  -2  -22.07   48.05
   7  -2  -1  -18.85   60.02
   7   2  -1   35.26   61.72
  -7   2   1   60.84   47.90
  -4   5   7    3.86   33.71
   4   5  -7  -33.55   53.30
   6  -4  -2  -50.92   56.49
  -6  -4   2   -0.83   26.02
  -6   4   2  -49.61   53.01
  -5   4  -6  -26.28   38.42
  -5  -4  -6   15.94   28.99
   5   4   6   31.80   42.20
   0   3 -13   77.26   77.06
   0  -3  13  125.84   71.86
   0   3  13  227.48   78.75
  -5   2  -9    5.50   64.57
   5   2   9   58.79   54.69
  -5  -2  -9  128.76   37.64
  -4  -5  -6   -7.67   39.29
   4   5   6  114.19   53.51
  -4   5  -6    5.29   45.76
   7   0  -5   79.60   72.93
  -7   0   5   96.90   62.80
   1   3 -13  -35.15   40.87
  -1  -3  13   36.79   39.28
  -1   3  13   -8.87   39.84
  -7   2   0  -65.65   51.83
   7   2   0   -7.02   55.51
   7  -2   0   21.42   53.11
   3   3 -12   16.27   52.46
   3  -3 -12   20.78   60.73
   1  -7  -2  -30.40   47.18
  -1  -7   2   -5.42   39.72
   1   7  -2  155.90   57.82
  -1   7   2   33.39   50.93
   7   2  -2   40.19   63.31
   7  -2  -2   44.48   64.22
  -7   2   2   40.43   65.86
  -3   5  -8   48.91   56.75
  -3  -5  -8   -1.62   43.40
   3   5   8  243.50   63.40
  -6   0   9   53.53   55.56
  -6   4  -1  251.45   75.16
  -6  -4  -1   96.96   53.82
   6  -4   1   49.92   80.11
  -2   4 -11  174.46   73.63
   2   4  11   29.39   58.43
   2  -4  11  176.82   61.13
   2  -6  -7   30.28   57.46
  -2   2 -13    9.24   52.48
   2   2  13    7.08   47.23
   2  -2  13  -56.17   46.42
   6  -2  -8   90.75   52.95
  -6  -2   8   63.56   56.94
  -6   2   8  -35.93   55.27
  -1   1 -14  186.16   69.44
  -1  -1 -14   28.20   60.14
   1  -1  14   63.37   55.90
   1   1  14   32.25   64.41
   1  -7   2   75.23   72.58
  -1  -7  -2  149.70   42.95
  -1   7  -2   47.53   75.87
   1   7   2    6.33   62.43
  -3  -4 -10   92.97   36.57
  -3   4 -10  206.99   65.02
   3   4  10   32.68   63.75
   3  -4  10  -37.11   50.81
  -5   3  -8   84.86   65.97
  -5  -3  -8   85.29   37.49
  -5   1  11    6.77   70.57
   5   1 -11  200.93   66.42
   1   5  10  -27.35   54.04
  -1  -5 -10   95.03   41.23
  -1   5 -10   23.99   55.28
   0  -7  -3  -52.26   64.53
   0  -7   3  132.71   46.90
   0   7  -3  -46.71   65.11
  -4  -6   1   18.22   40.88
   4   6  -1   -5.52   64.63
   4  -6  -1   78.59   56.22
  -7   1  -3  -17.67   57.81
  -7  -1  -3    3.07   61.83
   7   1   3  253.32   66.54
   7  -1   3   53.84   60.53
   4   6   0   46.07   62.47
  -4  -6   0   42.01   43.32
   4  -6   0   -6.17   59.66
   4   3 -11   83.64   65.74
  -4  -3  11  101.11   63.14
  -4   3  11   37.52   55.60
  -2  -1  14  -48.34   50.79
   2  -1 -14    2.74   59.82
   2   1 -14   36.40   60.90
  -2   1  14   98.69   49.99
  -6   3  -5   20.21   48.95
   6  -3   5   13.29   48.79
  -6  -3  -5   30.05   33.96
   4   3  10   43.51   55.38
  -4   3 -10   54.69   55.10
   7   2   1   53.23   64.60
  -7   2  -1    3.57   62.84
   7  -2   1   72.59   61.63
  -6  -4   3  -15.22   35.13
  -6   4   3  253.81   58.59
   6  -4  -3  -38.37   63.93
   0  -4  12   97.11   71.12
   0   4  12  120.18   76.57
   0   4 -12  150.72   72.46
  -5   5   4  -36.27   31.24
   5  -5  -4  -16.43   46.30
   5   5  -4  113.29   47.45
  -5   0 -10  214.98   87.66
   7  -2  -3   37.68   55.12
  -7   2   3   -7.03   61.12
   7   2  -3   40.75   60.78
  -1  -4  12  139.02   52.84
   1   4 -12   39.35   53.38
  -1   4  12  -48.49   59.14
   4  -2 -12  170.21   75.97
   4   2 -12  148.68   91.13
  -4  -2  12  137.86   64.62
  -7   1   5    0.41   66.35
   7   1  -5  117.95   62.37
   7  -1  -5   43.58   64.72
  -7  -1   5   42.84   51.29
   3   6   5   92.04   77.87
  -3   6  -5  166.24   62.74
  -3  -2  13   16.60   59.91
   3  -2 -13   58.25   69.56
   3   2 -13   96.32   68.10
  -3   2  13   44.88   56.19
   4   6  -2   10.93   56.04
   4  -6  -2    6.70   50.91
   0   6   8   66.32   49.44
   0  -6   8    7.20   60.87
   4  -6   1  -10.51   43.98
   4   6   1    4.36   44.56
   4   2  11   47.05   54.48
  -4   2 -11   31.58   58.85
  -3  -5   9   28.87   57.31
   3  -5  -9   33.52   55.98
  -6  -1   9  -19.53   33.61
  -6   1   9   20.72   40.02
   1   7  -3  117.28   72.96
  -1   7   3   64.30   66.37
   1  -7  -3   16.88   74.56
   5  -5   3    1.42   55.86
   5   5   3   89.49   57.62
  -5   5  -3   18.31   63.16
   6  -4   2   19.54   54.90
  -6   4  -2   27.14   51.13
  -2  -5  10   61.71   68.94
  -2   5  10  216.96   71.60
   1  -6  -8   53.20   77.71
  -1   6   8   28.89   62.61
  -1  -6   8  263.39   81.11
   0   2  14  -21.52   48.17
   0  -2  14   -0.47   43.99
;
_shelx_hkl_checksum              88031
loop_
_symmetry_equiv_pos_site_id
_space_group_symop_operation_xyz
1 +X,+Y,+Z
2 -X,1/2+Y,-Z
loop_
_atom_site_label
_atom_site_type_symbol
_atom_site_fract_x
_atom_site_fract_y
_atom_site_fract_z
_atom_site_U_iso_or_equiv
_atom_site_adp_type
_atom_site_occupancy
_atom_site_site_symmetry_multiplicity
_atom_site_calc_flag
_atom_site_refinement_flags
_atom_site_disorder_assembly
_atom_site_disorder_group
F1 F 0.6777(6) 0.0285(7) 0.7136(3) 0.0598(11) Uani 1 2 d . . .
F2 F 0.5822(5) 0.3220(7) 0.8969(3) 0.0517(10) Uani 1 2 d . . .
F3 F 0.1580(6) 0.2921(6) 0.9961(3) 0.0535(10) Uani 1 2 d . . .
F4 F 0.2381(7) 0.6450(6) 0.8377(3) 0.0563(10) Uani 1 2 d . . .
F5 F 0.0953(7) 0.6066(7) 0.6072(3) 0.0743(14) Uani 1 2 d . . .
O6 O 0.4243(9) 0.2622(9) 0.5341(4) 0.0632(13) Uani 1 2 d . . .
C1 C 0.4478(10) 0.1020(9) 0.7295(5) 0.0346(13) Uani 1 2 d . . .
C2 C 0.4203(9) 0.1468(10) 0.8588(5) 0.0367(13) Uani 1 2 d . . .
C3 C 0.1753(9) 0.2317(10) 0.8775(5) 0.0359(13) Uani 1 2 d . . .
C4 C 0.1013(10) 0.4474(10) 0.8011(5) 0.0397(14) Uani 1 2 d . . .
C5 C 0.1424(10) 0.3970(10) 0.6723(5) 0.0446(16) Uani 1 2 d . . .
C6 C 0.3945(10) 0.3244(11) 0.6541(5) 0.0369(12) Uani 1 2 d . . .
H1 H 0.33787 -0.02927 0.70171 0.0416 Uiso 1 2 calc R . .
H2 H 0.45261 -0.00476 0.90472 0.0441 Uiso 1 2 calc R . .
H3 H 0.06402 0.09687 0.85741 0.0430 Uiso 1 2 calc R . .
H4 H -0.06826 0.48355 0.80957 0.0477 Uiso 1 2 calc R . .
H5 H 0.03379 0.26676 0.64177 0.0535 Uiso 1 2 calc R . .
H6 H 0.50405 0.4575 0.67973 0.0442 Uiso 1 2 calc R . .
H6O H 0.45529 0.38632 0.49562 0.1154 Uiso 1 2 calc R . .
loop_
_atom_site_aniso_label
_atom_site_aniso_U_11
_atom_site_aniso_U_22
_atom_site_aniso_U_33
_atom_site_aniso_U_12
_atom_site_aniso_U_13
_atom_site_aniso_U_23
F1 0.058(2) 0.062(2) 0.062(3) 0.019(2) 0.0206(17) 0.002(2)
F2 0.045(2) 0.064(2) 0.046(2) -0.0140(17) 0.0015(14) -0.0112(19)
F3 0.068(2) 0.055(2) 0.040(2) -0.004(2) 0.0211(15) -0.0030(17)
F4 0.076(3) 0.0264(18) 0.069(2) -0.0118(17) 0.0250(18) -0.0079(16)
F5 0.081(3) 0.074(3) 0.070(3) 0.025(2) 0.011(2) 0.038(2)
O6 0.095(3) 0.064(4) 0.033(2) 0.008(3) 0.024(2) 0.008(2)
C1 0.039(3) 0.027(3) 0.039(3) -0.003(2) 0.009(2) 0.001(2)
C2 0.044(3) 0.028(3) 0.038(3) -0.006(2) 0.002(2) -0.000(3)
C3 0.045(3) 0.033(3) 0.031(3) -0.012(2) 0.014(2) -0.003(2)
C4 0.033(3) 0.037(3) 0.050(4) 0.003(3) 0.013(2) 0.002(3)
C5 0.049(4) 0.045(4) 0.040(4) 0.001(3) 0.003(3) 0.011(3)
C6 0.046(3) 0.036(3) 0.030(3) -0.004(3) 0.011(2) 0.003(2)
loop_
_atom_type_symbol
_atom_type_description
_atom_type_scat_dispersion_real
_atom_type_scat_dispersion_imag
_atom_type_scat_source
C C 0.0033 0.0016
;
International Tables for Crystallography
(Vol. C, Tables 4.2.6.8 and 6.1.1.4)
;
H H 0.0000 0.0000
;
International Tables for Crystallography
(Vol. C, Table 6.1.1.4)
;
F F 0.0171 0.0103
;
International Tables for Crystallography
(Vol. C, Tables 4.2.6.8 and 6.1.1.4)
;
O O 0.0106 0.0060
;
International Tables for Crystallography
(Vol. C, Tables 4.2.6.8 and 6.1.1.4)
;
loop_
_geom_angle_atom_site_label_1
_geom_angle_atom_site_label_2
_geom_angle_atom_site_label_3
_geom_angle
_geom_angle_publ_flag
_geom_angle_site_symmetry_1
_geom_angle_site_symmetry_2
_geom_angle_site_symmetry_3
F1 C1 C2 109.4(4) yes . . .
F1 C1 C6 108.9(4) yes . . .
C2 C1 C6 112.2(4) yes . . .
F2 C2 C1 107.9(4) yes . . .
F2 C2 C3 110.0(4) yes . . .
C1 C2 C3 110.3(4) yes . . .
F3 C3 C2 109.7(4) yes . . .
F3 C3 C4 108.5(4) yes . . .
C2 C3 C4 113.3(5) yes . . .
F4 C4 C3 109.0(4) yes . . .
F4 C4 C5 108.1(5) yes . . .
C3 C4 C5 110.0(5) yes . . .
F5 C5 C4 108.2(5) yes . . .
F5 C5 C6 107.7(5) yes . . .
C4 C5 C6 112.7(4) yes . . .
O6 C6 C1 107.5(5) yes . . .
O6 C6 C5 111.5(4) yes . . .
C1 C6 C5 107.4(5) yes . . .
C6 O6 H6O 109.472 no . . .
F1 C1 H1 108.793 no . . .
C2 C1 H1 108.793 no . . .
C6 C1 H1 108.793 no . . .
F2 C2 H2 109.563 no . . .
C1 C2 H2 109.560 no . . .
C3 C2 H2 109.564 no . . .
F3 C3 H3 108.401 no . . .
C2 C3 H3 108.405 no . . .
C4 C3 H3 108.400 no . . .
F4 C4 H4 109.912 no . . .
C3 C4 H4 109.912 no . . .
C5 C4 H4 109.916 no . . .
F5 C5 H5 109.420 no . . .
C4 C5 H5 109.421 no . . .
C6 C5 H5 109.414 no . . .
O6 C6 H6 110.131 no . . .
C1 C6 H6 110.127 no . . .
C5 C6 H6 110.130 no . . .
loop_
_geom_bond_atom_site_label_1
_geom_bond_atom_site_label_2
_geom_bond_distance
_geom_bond_publ_flag
_geom_bond_site_symmetry_1
_geom_bond_site_symmetry_2
F1 C1 1.398(7) yes . .
F2 C2 1.393(6) yes . .
F3 C3 1.385(6) yes . .
F4 C4 1.396(7) yes . .
F5 C5 1.394(7) yes . .
O6 C6 1.414(7) yes . .
C1 C2 1.493(7) yes . .
C1 C6 1.519(8) yes . .
C2 C3 1.505(8) yes . .
C3 C4 1.520(8) yes . .
C4 C5 1.509(8) yes . .
C5 C6 1.523(8) yes . .
O6 H6O 0.840 no . .
C1 H1 1.000 no . .
C2 H2 1.000 no . .
C3 H3 1.000 no . .
C4 H4 1.000 no . .
C5 H5 1.000 no . .
C6 H6 1.000 no . .
loop_
_geom_contact_atom_site_label_1
_geom_contact_atom_site_label_2
_geom_contact_distance
_geom_contact_publ_flag
_geom_contact_site_symmetry_1
_geom_contact_site_symmetry_2
F1 F2 2.713(5) no . .
F1 O6 2.736(6) no . .
F2 F3 2.738(4) no . .
F2 F4 2.715(5) no . .
F2 C4 2.968(6) no . .
F2 C5 3.470(6) no . .
F2 C6 2.867(6) no . .
F3 F4 2.711(5) no . .
F4 F5 2.675(5) no . .
F4 C1 3.498(6) no . .
F4 C2 2.966(7) no . .
F4 C6 2.912(7) no . .
F5 O6 2.842(6) no . .
C1 C4 2.910(8) no . .
C2 C5 2.902(8) no . .
C3 C6 2.924(8) no . .
F1 F3 3.586(5) no . 2_647
F1 O6 3.176(6) no . 2_646
F1 C3 3.475(6) no . 1_655
F1 C4 3.457(7) no . 1_655
F1 C5 3.410(7) no . 1_655
F2 F3 3.408(4) no . 1_655
F2 F3 3.480(5) no . 2_647
F2 F3 3.203(5) no . 2_657
F2 F4 3.246(5) no . 2_647
F2 C2 3.290(6) no . 2_657
F2 C3 3.446(6) no . 1_655
F2 C4 3.294(7) no . 1_655
F3 F1 3.586(5) no . 2_657
F3 F2 3.408(4) no . 1_455
F3 F2 3.203(5) no . 2_647
F3 F2 3.480(5) no . 2_657
F3 F3 3.321(5) no . 2_547
F3 F3 3.321(5) no . 2_557
F3 F4 3.135(5) no . 2_547
F3 C2 3.442(6) no . 2_657
F3 C3 3.461(6) no . 2_557
F3 C4 3.393(7) no . 2_547
F4 F2 3.246(5) no . 2_657
F4 F3 3.135(5) no . 2_557
F4 C1 3.094(6) no . 1_565
F4 C2 2.984(7) no . 1_565
F4 C3 3.318(6) no . 1_565
F5 O6 3.387(6) no . 2_556
F5 O6 3.372(7) no . 2_656
O6 F1 3.176(6) no . 2_656
O6 F5 3.387(6) no . 2_546
O6 F5 3.372(7) no . 2_646
O6 O6 3.028(7) no . 2_646
O6 O6 3.028(7) no . 2_656
O6 C6 3.431(8) no . 2_646
C1 F4 3.094(6) no . 1_545
C2 F2 3.290(6) no . 2_647
C2 F3 3.442(6) no . 2_647
C2 F4 2.984(7) no . 1_545
C3 F1 3.475(6) no . 1_455
C3 F2 3.446(6) no . 1_455
C3 F3 3.461(6) no . 2_547
C3 F4 3.318(6) no . 1_545
C4 F1 3.457(7) no . 1_455
C4 F2 3.294(7) no . 1_455
C4 F3 3.393(7) no . 2_557
C5 F1 3.410(7) no . 1_455
C6 O6 3.431(8) no . 2_656
F1 H2 2.5813 no . .
F1 H6 2.6043 no . .
F1 H6O 3.3445 no . .
F2 H1 3.1919 no . .
F2 H3 3.2184 no . .
F2 H6 2.5667 no . .
F3 H2 2.6159 no . .
F3 H4 2.6181 no . .
F4 H3 3.2210 no . .
F4 H5 3.2113 no . .
F4 H6 2.6269 no . .
F5 H4 2.6073 no . .
F5 H6 2.5606 no . .
F5 H6O 2.7637 no . .
O6 H1 2.5589 no . .
O6 H5 2.6061 no . .
C1 H3 2.6990 no . .
C1 H5 2.6649 no . .
C1 H6O 3.0715 no . .
C2 H4 3.3771 no . .
C2 H5 3.2515 no . .
C2 H6 2.7197 no . .
C3 H1 2.6680 no . .
C3 H5 2.7275 no . .
C3 H6 3.2546 no . .
C4 H1 3.2106 no . .
C4 H2 3.3782 no . .
C4 H6 2.7503 no . .
C5 H1 2.6339 no . .
C5 H3 2.7286 no . .
C5 H6O 2.7577 no . .
C6 H2 3.3591 no . .
C6 H3 3.3094 no . .
C6 H4 3.3805 no . .
H1 H2 2.3376 no . .
H1 H3 2.5219 no . .
H1 H5 2.4563 no . .
H1 H6 2.8865 no . .
H1 H6O 3.3721 no . .
H2 H3 2.3186 no . .
H3 H4 2.3321 no . .
H3 H5 2.5978 no . .
H4 H5 2.3448 no . .
H5 H6 2.8940 no . .
H5 H6O 3.0747 no . .
H6 H6O 2.1083 no . .
F1 H3 2.6765 no . 1_655
F1 H4 3.5018 no . 1_645
F1 H4 3.0791 no . 1_655
F1 H5 2.6003 no . 1_655
F1 H6 3.3433 no . 1_545
F1 H6O 2.5508 no . 2_646
F2 H2 2.4502 no . 2_657
F2 H3 3.0820 no . 1_655
F2 H4 2.4519 no . 1_655
F3 H2 2.6729 no . 2_657
F3 H3 2.7327 no . 2_557
F3 H4 2.8513 no . 2_547
F4 H1 2.4618 no . 1_565
F4 H2 2.3975 no . 1_565
F4 H2 3.3972 no . 2_657
F4 H3 2.7185 no . 1_565
F5 H1 2.6392 no . 1_565
F5 H5 2.9841 no . 2_556
F5 H6O 3.2761 no . 2_656
O6 H1 3.2697 no . 2_656
O6 H6 2.9923 no . 2_646
O6 H6O 2.2343 no . 2_646
O6 H6O 3.5607 no . 2_656
C1 H4 3.5550 no . 1_655
C1 H6O 2.8871 no . 2_646
C2 H2 3.3332 no . 2_657
C2 H4 3.5445 no . 1_655
C3 H2 3.4622 no . 2_657
C4 H1 3.4284 no . 1_565
C4 H6 3.5917 no . 1_455
C5 H1 3.3917 no . 1_565
C6 H4 3.5439 no . 1_655
C6 H6O 3.1147 no . 2_646
H1 F4 2.4618 no . 1_545
H1 F5 2.6392 no . 1_545
H1 O6 3.2697 no . 2_646
H1 C4 3.4284 no . 1_545
H1 C5 3.3917 no . 1_545
H1 H6 3.0251 no . 1_545
H1 H6O 2.6230 no . 2_646
H2 F2 2.4502 no . 2_647
H2 F3 2.6729 no . 2_647
H2 F4 2.3975 no . 1_545
H2 F4 3.3972 no . 2_647
H2 C2 3.3332 no . 2_647
H2 C3 3.4622 no . 2_647
H2 H2 3.5323 no . 2_647
H2 H2 3.5323 no . 2_657
H3 F1 2.6765 no . 1_455
H3 F2 3.0820 no . 1_455
H3 F3 2.7327 no . 2_547
H3 F4 2.7185 no . 1_545
H3 H4 3.5297 no . 1_545
H4 F1 3.0791 no . 1_455
H4 F1 3.5018 no . 1_465
H4 F2 2.4519 no . 1_455
H4 F3 2.8513 no . 2_557
H4 C1 3.5550 no . 1_455
H4 C2 3.5445 no . 1_455
H4 C6 3.5439 no . 1_455
H4 H3 3.5297 no . 1_565
H4 H6 2.7671 no . 1_455
H5 F1 2.6003 no . 1_455
H5 F5 2.9841 no . 2_546
H5 H6 3.2607 no . 1_455
H6 F1 3.3433 no . 1_565
H6 O6 2.9923 no . 2_656
H6 C4 3.5917 no . 1_655
H6 H1 3.0251 no . 1_565
H6 H4 2.7671 no . 1_655
H6 H5 3.2607 no . 1_655
H6 H6O 3.1139 no . 2_656
H6O F1 2.5508 no . 2_656
H6O F5 3.2761 no . 2_646
H6O O6 3.5607 no . 2_646
H6O O6 2.2343 no . 2_656
H6O C1 2.8871 no . 2_656
H6O C6 3.1147 no . 2_656
H6O H1 2.6230 no . 2_656
H6O H6 3.1139 no . 2_646
H6O H6O 2.8298 no . 2_646
H6O H6O 2.8298 no . 2_656
loop_
_geom_hbond_atom_site_label_D
_geom_hbond_atom_site_label_H
_geom_hbond_atom_site_label_A
_geom_hbond_site_symmetry_D
_geom_hbond_site_symmetry_H
_geom_hbond_site_symmetry_A
_geom_hbond_distance_DA
_geom_hbond_distance_DH
_geom_hbond_distance_HA
_geom_hbond_angle_DHA
_geom_hbond_publ_flag
O6 H6O O6 . . 2_656 3.028(7) 0.840 2.234 157.5 no
loop_
_geom_torsion_atom_site_label_1
_geom_torsion_atom_site_label_2
_geom_torsion_atom_site_label_3
_geom_torsion_atom_site_label_4
_geom_torsion
_geom_torsion_publ_flag
_geom_torsion_site_symmetry_1
_geom_torsion_site_symmetry_2
_geom_torsion_site_symmetry_3
_geom_torsion_site_symmetry_4
F1 C1 C2 F2 58.6(5) no . . . .
F1 C1 C2 C3 178.7(4) no . . . .
F1 C1 C6 O6 59.2(5) no . . . .
F1 C1 C6 C5 179.2(3) no . . . .
C2 C1 C6 O6 -179.7(4) no . . . .
C2 C1 C6 C5 -59.6(5) no . . . .
C6 C1 C2 F2 -62.3(5) no . . . .
C6 C1 C2 C3 57.8(6) no . . . .
F2 C2 C3 F3 -56.1(5) no . . . .
F2 C2 C3 C4 65.4(5) no . . . .
C1 C2 C3 F3 -174.9(4) no . . . .
C1 C2 C3 C4 -53.5(6) no . . . .
F3 C3 C4 F4 55.7(5) no . . . .
F3 C3 C4 C5 174.0(4) no . . . .
C2 C3 C4 F4 -66.4(6) no . . . .
C2 C3 C4 C5 52.0(6) no . . . .
F4 C4 C5 F5 -55.1(5) no . . . .
F4 C4 C5 C6 63.8(5) no . . . .
C3 C4 C5 F5 -174.0(4) no . . . .
C3 C4 C5 C6 -55.1(6) no . . . .
F5 C5 C6 O6 -64.8(5) no . . . .
F5 C5 C6 C1 177.6(4) no . . . .
C4 C5 C6 O6 175.9(4) no . . . .
C4 C5 C6 C1 58.4(6) no . . . .
