#------------------------------------------------------------------------------
#$Date: 2019-07-01 12:23:26 +0300 (Mon, 01 Jul 2019) $
#$Revision: 216655 $
#$URL: file:///home/coder/svn-repositories/cod/cif/1/55/19/1551926.cif $
#------------------------------------------------------------------------------
#
# This file is available in the Crystallography Open Database (COD),
# http://www.crystallography.net/
#
# All data on this site have been placed in the public domain by the
# contributors.
#
data_1551926
loop_
_publ_author_name
'Tianfei Liu'
'Meiyuan Guo'
'Andreas Orthaber'
'Reiner Lomoth'
'Marcus Lundberg'
'Sascha Ott'
'Leif Hammarstrom'
_publ_section_title
;
 Accelerating proton-coupled electron transfer of metal hydrides in
 catalyst model reactions
;
_journal_name_full               'Nature Chemistry'
_journal_page_first              881
_journal_page_last               887
_journal_paper_doi               10.1038/s41557-018-0076-x
_journal_volume                  10
_journal_year                    2018
_chemical_formula_moiety         'C15 H13 N O4 W'
_chemical_formula_sum            'C15 H13 N O4 W'
_chemical_formula_weight         455.11
_chemical_properties_physical    ', Air-sensitive,Moisture-sensitive'
_space_group_crystal_system      triclinic
_space_group_IT_number           2
_space_group_name_Hall           '-P 1'
_space_group_name_H-M_alt        'P -1'
_atom_sites_solution_hydrogens   mixed
_cell_angle_alpha                103.6060(10)
_cell_angle_beta                 98.720(2)
_cell_angle_gamma                108.7760(10)
_cell_formula_units_Z            2
_cell_length_a                   8.2435(3)
_cell_length_b                   8.3778(2)
_cell_length_c                   11.8392(4)
_cell_measurement_reflns_used    3616
_cell_measurement_temperature    150(2)
_cell_measurement_theta_max      25.2
_cell_measurement_theta_min      1.8
_cell_volume                     729.09(4)
_computing_cell_refinement       'SAINT V7.68A(Bruker AXS, 2012)'
_computing_data_collection       'APEX2  (Bruker AXS, 2012)'
_computing_data_reduction        'SAINT V7.68A(Bruker AXS, 2012)'
_computing_molecular_graphics    ' ORTEP for Windows (Farugia, 1997)'
_computing_structure_refinement  'SHELXL-2014/7 (Sheldrick, 2014)'
_diffrn_ambient_temperature      150(2)
_diffrn_measured_fraction_theta_full 0.998
_diffrn_measured_fraction_theta_max 0.998
_diffrn_measurement_device_type  ' Bruker D8 with APEX-II CCD'
_diffrn_radiation_monochromator  graphite'
_diffrn_radiation_source         'fine-focus sealed tube'
_diffrn_radiation_type           MoK\a
_diffrn_radiation_wavelength     0.71073
_diffrn_reflns_av_R_equivalents  0.0301
_diffrn_reflns_av_unetI/netI     0.0272
_diffrn_reflns_Laue_measured_fraction_full 0.998
_diffrn_reflns_Laue_measured_fraction_max 0.998
_diffrn_reflns_limit_h_max       11
_diffrn_reflns_limit_h_min       -11
_diffrn_reflns_limit_k_max       11
_diffrn_reflns_limit_k_min       -11
_diffrn_reflns_limit_l_max       16
_diffrn_reflns_limit_l_min       -16
_diffrn_reflns_number            15149
_diffrn_reflns_point_group_measured_fraction_full 0.998
_diffrn_reflns_point_group_measured_fraction_max 0.998
_diffrn_reflns_theta_full        25.242
_diffrn_reflns_theta_max         28.999
_diffrn_reflns_theta_min         1.826
_exptl_absorpt_coefficient_mu    7.936
_exptl_absorpt_correction_T_max  0.7473
_exptl_absorpt_correction_T_min  0.3767
_exptl_absorpt_correction_type   multi-scan
_exptl_absorpt_process_details   'SADABS Sheldrick, 1996)'
_exptl_crystal_colour            colorless
_exptl_crystal_density_diffrn    2.073
_exptl_crystal_description       block
_exptl_crystal_F_000             432
_exptl_crystal_size_max          0.25
_exptl_crystal_size_mid          0.24
_exptl_crystal_size_min          0.17
_refine_diff_density_max         2.608
_refine_diff_density_min         -0.937
_refine_diff_density_rms         0.123
_refine_ls_extinction_coef       .
_refine_ls_extinction_method     none
_refine_ls_goodness_of_fit_ref   1.121
_refine_ls_hydrogen_treatment    mixed
_refine_ls_matrix_type           full
_refine_ls_number_parameters     195
_refine_ls_number_reflns         3867
_refine_ls_number_restraints     0
_refine_ls_restrained_S_all      1.121
_refine_ls_R_factor_all          0.0249
_refine_ls_R_factor_gt           0.0220
_refine_ls_shift/su_max          0.003
_refine_ls_shift/su_mean         0.000
_refine_ls_structure_factor_coef Fsqd
_refine_ls_weighting_details
'w=1/[\s^2^(Fo^2^)+(0.0218P)^2^+0.8013P] where P=(Fo^2^+2Fc^2^)/3'
_refine_ls_weighting_scheme      calc
_refine_ls_wR_factor_gt          0.0507
_refine_ls_wR_factor_ref         0.0520
_reflns_Friedel_coverage         0.000
_reflns_Friedel_fraction_full    .
_reflns_Friedel_fraction_max     .
_reflns_number_gt                3616
_reflns_number_total             3867
_reflns_threshold_expression     'I > 2\s(I)'
_cod_data_source_file            41557_2018_76_MOESM48_ESM.cif
_cod_data_source_block           shelx-3
_cod_database_code               1551926
_shelx_space_group_comment
;
The symmetry employed for this shelxl refinement is uniquely defined
by the following loop, which should always be used as a source of
symmetry information in preference to the above space-group names.
They are only intended as comments.
;
_exptl_absorpt_special_details
;
X-ray crystallographic data for I were collected from a single crystal
sample, which was mounted on a loop fiber. Data were collected using
a Bruker smart diffractometer equiped with an APEX II CCD Detector,
a graphite monochromator. The crystal-to-detector distance was 
5.0 cm, and the data collection was carried out in 512 x 512 pixel mode.
;
_shelx_res_file
;

    shelx.res created by SHELXL-2014/7

TITL AO_LTF_105_1_0m_a.res in P-1
CELL  0.71073   8.2435   8.3778  11.8392  103.606   98.720  108.776
ZERR     2.00   0.0003   0.0002   0.0004    0.001    0.002    0.001
LATT   1
SFAC  C    H    N    O    W
UNIT  30 26 2 8 2
MERG   2
OMIT     1   0   0
FMAP   2
OMIT -4 58
PLAN    5
ACTA
BOND   $H
L.S.  20
TEMP  -123.15
WGHT    0.021800    0.801300
FVAR       0.49866
W001  5    0.218700    0.385561    0.639332    11.00000    0.02237    0.01825 =
         0.01818    0.00163   -0.00561    0.00260
O4    4    1.228815    0.782408    1.041196    11.00000    0.01335    0.02141 =
         0.03515   -0.00679   -0.00116    0.00529
N003  3    0.716855    0.765066    1.017342    11.00000    0.01785    0.02234 =
         0.02120    0.00386    0.00218    0.00788
O2    4    0.070416    0.228872    0.361557    11.00000    0.03111    0.06193 =
         0.02134   -0.00706   -0.00230    0.01531
C1    1    0.487155    0.559925    0.779191    11.00000    0.01586    0.01757 =
         0.01608   -0.00039   -0.00236    0.00163
O1    4    0.296741    0.041010    0.607944    11.00000    0.06367    0.02945 =
         0.09146    0.00389   -0.01603    0.02156
C14   1    0.125377    0.287879    0.463529    11.00000    0.01801    0.03170 =
         0.02451   -0.00008    0.00049    0.00741
C6    1    0.602144    0.493588    0.850505    11.00000    0.01822    0.01883 =
         0.02584    0.00145   -0.00154    0.00572
AFIX  23
H6A   2    0.647378    0.419601    0.795481    11.00000   -1.20000
H6B   2    0.530648    0.418299    0.891957    11.00000   -1.20000
AFIX   0
C10   1    1.027646    0.911718    1.116993    11.00000    0.02173    0.01937 =
         0.01558    0.00253    0.00281    0.00641
AFIX  43
H10   2    1.118039    1.006443    1.178920    11.00000   -1.20000
AFIX   0
C7    1    0.756858    0.643675    0.942503    11.00000    0.01792    0.01780 =
         0.01950    0.00473    0.00004    0.00603
C11   1    0.852256    0.894341    1.101097    11.00000    0.02312    0.02369 =
         0.01672    0.00268    0.00384    0.01061
AFIX  43
H11   2    0.826053    0.981602    1.154161    11.00000   -1.20000
AFIX   0
C9    1    1.065906    0.785496    1.039011    11.00000    0.01634    0.01941 =
         0.02004    0.00642    0.00221    0.00500
C8    1    0.927770    0.649472    0.949864    11.00000    0.02002    0.01756 =
         0.02131    0.00129    0.00233    0.00876
AFIX  43
H8    2    0.950804    0.561787    0.894816    11.00000   -1.20000
AFIX   0
C5    1    0.356317    0.619105    0.816676    11.00000    0.02343    0.03085 =
         0.02881   -0.01034   -0.00656    0.01167
AFIX  43
H5    2    0.318285    0.613240    0.887948    11.00000   -1.20000
AFIX   0
C12   1    1.376526    0.926130    1.126598    11.00000    0.01546    0.02298 =
         0.03862    0.00099   -0.00562    0.00084
AFIX 137
H12A  2    1.378412    1.038207    1.114104    11.00000   -1.50000
H12C  2    1.486575    0.910416    1.115873    11.00000   -1.50000
H12B  2    1.365329    0.927786    1.208060    11.00000   -1.50000
AFIX   0
C13   1    0.264254    0.164843    0.616474    11.00000    0.03446    0.02441 =
         0.04400    0.00029   -0.01465    0.00243
C2    1    0.501441    0.593376    0.667775    11.00000    0.04001    0.02783 =
         0.02037    0.00531    0.00083   -0.00676
AFIX  43
H2    2    0.579210    0.567269    0.621278    11.00000   -1.20000
AFIX   0
C3    1    0.379857    0.671962    0.638874    11.00000    0.07009    0.01965 =
         0.04470    0.01390   -0.03124   -0.00771
AFIX  43
H3    2    0.360981    0.707692    0.569151    11.00000   -1.20000
AFIX   0
O3    4   -0.180849    0.290571    0.634768    11.00000    0.03471    0.07697 =
         0.04216    0.00465    0.01093    0.00939
C4    1    0.291971    0.688342    0.730070    11.00000    0.04940    0.02153 =
         0.07598   -0.01243   -0.03812    0.01692
AFIX  43
H4    2    0.203455    0.737921    0.733279    11.00000   -1.20000
AFIX   0
C15   1   -0.035547    0.321003    0.632558    11.00000    0.03254    0.04089 =
         0.01987    0.00030    0.00292    0.00557
H     2    0.132738    0.274435    0.719834    11.00000    0.05755
HKLF    4

REM  AO_LTF_105_1_0m_a.res in P-1
REM R1 =  0.0220 for    3616 Fo > 4sig(Fo)  and  0.0249 for all    3867 data
REM    195 parameters refined using      0 restraints

END

WGHT      0.0165      1.0744

REM Highest difference peak  2.608,  deepest hole -0.937,  1-sigma level  0.123
Q1    1   0.2850  0.3738  0.6002  11.00000  0.05    2.61
Q2    1   0.1395  0.3142  0.6210  11.00000  0.05    0.89
Q3    1   0.2465  0.4712  0.6290  11.00000  0.05    0.72
Q4    1   0.2203  0.2785  0.6408  11.00000  0.05    0.67
Q5    1   0.3239  0.4820  0.6712  11.00000  0.05    0.63
;
_shelx_res_checksum              83631
_shelx_hkl_file
;
  -1   0   0   -6.30    0.50
  -2   0   0 4703.93  141.09
  -2   0   0 4228.28  141.99
  -2   0   0 4778.12  140.59
  -3   0   0  608.74   23.80
  -3   0   0  647.54   21.80
  -3   0   0  624.04   22.60
   3   0   0  557.74   24.40
  -4   0   0 1653.63   53.39
  -4   0   0 1612.44   51.99
  -4   0   0 1637.54   54.49
   4   0   0 1367.96   55.49
  -5   0   0 1034.00   36.20
  -5   0   0 1023.90   37.70
  -5   0   0 1034.50   38.30
   5   0   0  930.21   40.40
  -6   0   0  289.57   17.00
  -6   0   0  292.77   15.20
  -6   0   0  310.87   17.40
   6   0   0  256.77   19.10
  -7   0   0 1133.09   46.20
  -7   0   0 1226.88   44.00
  -7   0   0 1198.58   45.30
   7   0   0 1069.79   48.30
  -8   0   0   17.80    6.30
  -8   0   0    6.80    6.00
  -8   0   0    8.00    7.00
  -9   0   0  252.57   25.40
  -9   0   0  238.38   23.50
  -9   0   0  215.98   17.10
 -10   0   0   36.80    9.70
 -10   0   0   25.30   11.10
 -11   0   0  160.78   18.50
 -12   1   0    9.70    9.80
 -12   1   0    1.30   12.00
 -11   1   0  168.88   17.90
 -11   1   0  159.38   22.70
 -10   1   0   16.20    8.40
 -10   1   0    6.30    8.80
  -9   1   0  348.37   24.20
  -9   1   0  364.46   21.40
  -9   1   0  393.66   26.10
  -8   1   0  257.27   18.30
  -8   1   0  282.47   16.40
  -8   1   0  255.67   18.30
   7  -1   0  364.76   20.00
  -7   1   0  350.26   18.10
  -7   1   0  343.17   20.50
  -7   1   0  343.77   20.40
   6  -1   0  563.04   25.20
  -6   1   0  594.94   23.50
  -6   1   0  519.75   25.00
  -6   1   0  560.14   26.60
   5  -1   0   70.39    8.40
  -5   1   0   65.59    6.50
  -5   1   0   68.99    8.00
  -5   1   0   78.49   10.00
   4  -1   0 1991.10   65.89
  -4   1   0 2007.60   66.09
  -4   1   0 2007.00   64.59
   3  -1   0    6.90    2.20
  -3   1   0    7.80    2.40
  -3   1   0    1.60    2.30
  -2   1   0 4078.79  128.59
  -2   1   0 4248.98  127.79
   1  -1   0 2478.85   70.29
  -1   1   0 2011.50   69.99
   0  -1   0 3849.61  120.79
   0  -1   0 4034.90  120.39
   0   1   0 3954.40  120.79
  -1  -1   0 1396.96   43.00
  -1  -1   0 1346.77   43.30
  -2  -1   0   48.50    4.10
  -2  -1   0   50.39    4.10
  -2  -1   0   53.49    4.00
   2   1   0   47.50    4.00
  -3  -1   0 3479.65  110.69
  -3  -1   0 3614.04  109.99
  -3  -1   0 3419.46  110.59
   3   1   0 3529.05  111.19
  -4  -1   0  116.69    7.70
  -4  -1   0  116.09    8.70
  -4  -1   0  107.59    8.30
   4   1   0  126.69    9.80
  -5  -1   0 1727.93   60.79
  -5  -1   0 1762.92   58.99
  -5  -1   0 1704.93   59.69
   5   1   0 1781.62   63.29
  -6  -1   0   -1.60    4.00
  -6  -1   0    2.30    4.30
  -6  -1   0   11.00    5.90
   6   1   0    8.00    6.80
  -7  -1   0 1054.09   44.60
  -7  -1   0 1042.10   41.20
  -7  -1   0  979.90   40.20
   7   1   0 1141.39   48.40
  -8  -1   0  200.88   14.90
  -8  -1   0  178.98   19.10
  -8  -1   0  184.88   14.90
   8   1   0  229.18   24.20
  -9  -1   0  112.29   17.80
  -9  -1   0  118.99   13.60
 -10  -1   0  242.78   21.40
 -11  -1   0   36.90   11.20
 -12   2   0   75.59   18.00
 -12   2   0   58.59   12.80
 -11   2   0   95.79   13.40
 -11   2   0   73.39   15.60
 -10   2   0  229.88   23.00
 -10   2   0  229.78   19.20
  -9   2   0   33.10   10.10
  -9   2   0   40.60   11.10
  -9   2   0   58.59    9.80
  -8   2   0  990.60   42.50
  -8   2   0  967.90   42.30
  -8   2   0 1034.50   39.20
   7  -2   0   56.59    7.20
  -7   2   0   40.40    9.40
  -7   2   0   51.99    9.60
  -7   2   0   50.99    6.90
   6  -2   0 1190.08   38.40
   6  -2   0 1146.79   40.50
  -6   2   0 1164.48   40.90
  -6   2   0 1130.79   41.30
  -6   2   0 1143.89   43.40
   5  -2   0  590.44   20.40
   5  -2   0  602.74   22.00
  -5   2   0  592.04   22.40
  -5   2   0  611.94   24.70
  -5   2   0  531.85   23.90
   4  -2   0 1301.67   43.20
   4  -2   0 1381.06   43.30
  -4   2   0 1332.47   44.40
  -4   2   0 1317.27   43.50
  -4   2   0 1272.87   45.20
   3  -2   0 1846.72   58.39
  -3   2   0 1897.11   59.79
  -3   2   0 1869.11   58.29
  -3   2   0 1774.62   59.79
  -2   2   0  823.82   26.40
  -2   2   0  830.22   27.90
   1  -2   0 6284.97  192.68
   1  -2   0 6390.36  193.28
  -1   2   0 6382.06  192.28
  -1   2   0 6182.48  192.98
   0  -2   0  162.78    7.60
   0  -2   0  160.08    6.90
   0   2   0  175.38    7.70
   0   2   0  151.68    6.10
  -1  -2   0  898.01   28.50
  -1  -2   0  868.61   29.20
  -1  -2   0  850.01   30.10
   1   2   0  895.11   30.60
  -2  -2   0 1165.58   37.90
  -2  -2   0 1154.58   39.20
  -2  -2   0 1142.49   37.30
  -2  -2   0 1102.39   38.30
   2   2   0 1157.68   36.90
   2   2   0 1161.58   41.40
   2   2   0 1177.08   38.60
  -3  -2   0 1741.43   58.29
  -3  -2   0 1793.52   57.89
  -3  -2   0 1751.02   59.29
  -3  -2   0 1798.72   56.39
   3   2   0 1796.02   58.69
   3   2   0 1769.92   55.89
  -4  -2   0  879.71   29.20
  -4  -2   0  873.91   33.60
  -4  -2   0  888.11   31.70
  -4  -2   0  839.22   32.00
   4   2   0  887.21   33.10
   4   2   0  860.01   28.60
  -5  -2   0  960.30   39.80
  -5  -2   0 1053.79   37.80
  -5  -2   0  997.30   37.90
   5   2   0 1059.79   40.50
  -6  -2   0 1264.77   47.10
  -6  -2   0 1288.27   46.90
  -6  -2   0 1222.08   50.09
   6   2   0 1326.57   51.59
  -7  -2   0  105.69   11.50
  -7  -2   0  123.69   12.60
  -7  -2   0  139.29   16.40
   7   2   0   86.99   13.90
  -8  -2   0  463.55   24.30
  -8  -2   0  446.26   24.30
   8   2   0  458.15   30.60
  -9  -2   0    5.60    7.70
 -10  -2   0  283.27   22.60
  11   2   0   12.80    5.50
 -12   3   0  161.78   22.70
 -12   3   0  182.28   19.10
 -11   3   0   -4.10    8.20
 -11   3   0    3.70    7.20
 -10   3   0  317.57   20.10
 -10   3   0  287.07   23.20
  -9   3   0   39.20    9.80
  -9   3   0   43.50    8.20
   8  -3   0  512.65   20.80
  -8   3   0  521.25   23.50
  -8   3   0  522.05   27.40
   7  -3   0  461.55   19.20
   7  -3   0  447.36   17.70
  -7   3   0  435.46   20.00
  -7   3   0  447.36   23.00
   6  -3   0  630.04   23.50
   6  -3   0  630.44   22.20
  -6   3   0  614.64   26.30
  -6   3   0  583.44   23.70
  -6   3   0  630.34   27.20
   5  -3   0 1656.03   51.59
   5  -3   0 1596.44   52.69
  -5   3   0 1641.04   55.89
  -5   3   0 1607.54   54.29
  -5   3   0 1549.74   52.79
   4  -3   0  438.86   14.90
  -4   3   0  392.56   15.20
  -4   3   0  419.06   16.60
  -4   3   0  392.66   17.80
  -4   3   0  402.16   15.50
  -3   3   0 3761.92  116.19
  -3   3   0 3692.83  115.59
  -3   3   0 3775.32  118.09
  -3   3   0 3786.72  117.09
  -2   3   0   43.10    4.20
  -2   3   0   46.00    3.60
  -2   3   0   51.59    4.60
   1  -3   0 3927.31  121.89
   1  -3   0 3806.62  120.89
   1  -3   0 3917.21  121.49
  -1   3   0 3909.21  120.89
  -1   3   0 3918.31  120.99
  -1   3   0 3907.71  121.79
  -1   3   0 3982.00  120.09
   0  -3   0 1941.71   64.89
   0  -3   0 1994.30   63.79
   0  -3   0 2064.19   62.09
   0  -3   0 2053.89   63.79
   0   3   0 1993.90   63.39
   0   3   0 2072.39   64.89
   0   3   0 1946.51   62.29
   0   3   0 1997.30   63.49
  -1  -3   0 1770.52   58.09
  -1  -3   0 1846.12   56.89
  -1  -3   0 1790.52   57.69
  -1  -3   0 1840.42   59.89
   1   3   0 1808.32   55.59
   1   3   0 1827.72   57.19
   1   3   0 1725.13   58.79
   1   3   0 1798.22   59.79
  -2  -3   0 2728.23   84.49
  -2  -3   0 2637.44   85.49
  -2  -3   0 2857.71   84.79
  -2  -3   0 2435.26   87.19
   2   3   0 2700.33   83.89
   2   3   0 2707.13   88.29
  -3  -3   0  813.22   28.10
  -3  -3   0  835.02   30.10
  -3  -3   0  787.82   32.10
  -3  -3   0  782.82   29.10
   3   3   0  825.42   27.70
   3   3   0  821.52   30.40
   3   3   0  855.11   34.00
  -4  -3   0 1571.04   55.09
  -4  -3   0 1682.73   54.89
  -4  -3   0 1640.74   52.29
  -4  -3   0 1513.95   57.79
   4   3   0 1599.34   60.39
   4   3   0 1632.44   56.19
   4   3   0 1595.44   51.69
  -5  -3   0    9.30    4.70
  -5  -3   0    1.80    4.20
  -5  -3   0   -0.40    5.00
   5   3   0    8.70    6.70
   5   3   0    7.10    5.00
  -6  -3   0  782.02   40.80
  -6  -3   0  698.43   30.90
  -6  -3   0  808.12   32.30
   6   3   0  679.93   36.60
   6   3   0  768.12   34.80
  -7  -3   0  106.19   11.90
  -7  -3   0   86.79   11.30
   7   3   0  112.69   15.60
  -8  -3   0  302.27   20.20
  -8  -3   0  306.27   20.50
   8   3   0  315.37   25.80
  -9  -3   0  212.18   19.90
 -10  -3   0   97.99   14.90
  10   3   0  103.09    9.90
 -12   4   0   38.00   14.40
 -12   4   0   43.30   10.50
 -11   4   0   44.70   10.20
 -11   4   0   45.20   11.80
  10  -4   0   44.80    6.60
 -10   4   0   40.40    8.50
 -10   4   0   27.20   10.40
   9  -4   0  394.66   17.80
  -9   4   0  397.86   20.60
  -9   4   0  398.46   24.90
   8  -4   0    1.60    2.80
  -8   4   0    2.60    4.30
  -8   4   0    3.30    5.60
   7  -4   0  860.81   30.20
  -7   4   0  845.32   36.10
  -7   4   0  861.61   32.10
  -7   4   0  840.52   35.40
   6  -4   0   14.70    3.00
  -6   4   0   21.00    6.10
  -6   4   0   13.20    3.70
  -6   4   0   18.90    5.40
   5  -4   0 1573.74   49.70
  -5   4   0 1551.64   53.99
  -5   4   0 1518.35   50.29
  -5   4   0 1540.85   52.19
  -5   4   0 1513.95   50.29
  -4   4   0  635.94   23.80
  -4   4   0  627.94   21.80
  -4   4   0  631.54   22.60
  -4   4   0  641.04   25.00
   3  -4   0 1205.78   38.20
  -3   4   0 1234.48   40.00
  -3   4   0 1216.78   41.80
  -3   4   0 1190.48   41.20
  -3   4   0 1264.77   38.70
  -2   4   0 1787.72   56.79
  -2   4   0 1763.32   57.89
  -2   4   0 1817.02   58.09
   1  -4   0  435.26   17.00
  -1   4   0  460.25   15.80
  -1   4   0  433.36   17.00
  -1   4   0  439.26   17.90
  -1   4   0  433.16   16.60
   0  -4   0 2217.98   71.19
   0  -4   0 2278.97   68.69
   0  -4   0 2221.98   71.19
   0   4   0 2241.48   72.49
   0   4   0 2120.59   70.49
   0   4   0 2225.78   69.29
   0   4   0 2192.78   70.29
  -1  -4   0   55.69    4.50
  -1  -4   0   45.10    5.30
  -1  -4   0   52.69    6.30
  -1  -4   0   51.39    5.30
   1   4   0   59.99    5.20
   1   4   0   52.29    5.10
   1   4   0   51.19    6.70
   1   4   0   44.60    5.40
  -2  -4   0 1378.56   48.50
  -2  -4   0 1296.57   45.70
  -2  -4   0 1322.57   44.60
  -2  -4   0 1361.06   44.40
   2   4   0 1399.06   48.70
   2   4   0 1297.97   41.80
   2   4   0 1365.36   44.20
   2   4   0 1259.07   46.60
  -3  -4   0  206.58   11.00
  -3  -4   0  191.38    9.70
  -3  -4   0  176.68   13.90
  -3  -4   0  178.28   11.30
   3   4   0  183.38   12.60
   3   4   0  169.78   11.30
   3   4   0  193.18   13.90
   3   4   0  174.78    9.10
  -4  -4   0  918.71   34.20
  -4  -4   0  905.51   32.00
  -4  -4   0  871.11   34.90
  -4  -4   0  863.81   41.40
   4   4   0  955.60   31.70
   4   4   0  934.71   36.00
   4   4   0  889.41   39.20
  -5  -4   0  475.15   22.50
  -5  -4   0  465.65   21.70
   5   4   0  424.86   26.40
   5   4   0  424.16   22.80
  -6  -4   0  256.97   17.20
  -6  -4   0  256.37   16.40
   6   4   0  282.47   19.80
  -7  -4   0  493.15   26.10
  -7  -4   0  477.45   25.40
   7   4   0  457.55   29.30
   7   4   0  505.85   18.80
  -8  -4   0   16.10    8.20
  -8  -4   0    9.90    7.60
   8   4   0    7.10    3.90
   8   4   0   27.40   10.60
  -9  -4   0  237.88   21.60
   9   4   0  209.38   13.00
  10   4   0   -1.10    4.70
  13  -5   0   42.00    9.30
 -13   5   0   30.90   11.30
  12  -5   0    5.00    5.20
 -12   5   0    0.60    9.80
 -12   5   0   -0.30    7.80
  11  -5   0  118.99   10.60
 -11   5   0  116.29   13.30
 -11   5   0  101.69   17.10
  10  -5   0   -5.60    2.90
 -10   5   0    2.30    5.60
 -10   5   0    6.10    7.50
   9  -5   0  351.16   16.70
  -9   5   0  376.36   19.30
  -9   5   0  382.56   24.40
   8  -5   0  134.59    9.20
  -8   5   0  163.88   16.50
  -8   5   0  137.39   10.70
   7  -5   0  679.83   25.20
  -7   5   0  693.83   26.50
  -7   5   0  690.53   30.90
  -7   5   0  692.13   30.00
  -6   5   0 1095.69   40.60
  -6   5   0 1131.89   42.30
  -6   5   0 1057.19   37.40
  -5   5   0   77.69    8.00
  -5   5   0   66.09    8.30
  -5   5   0   85.89    5.70
  -5   5   0   85.09    6.40
   4  -5   0 2833.42   87.99
  -4   5   0 2758.22   91.89
  -4   5   0 2957.10   88.69
  -4   5   0 2874.71   92.89
  -4   5   0 2836.22   90.29
   2  -5   0 2756.72   87.49
  -2   5   0 2784.62   86.09
  -2   5   0 2705.03   87.29
  -2   5   0 2706.43   87.69
   1  -5   0  199.68   10.70
  -1   5   0  210.68    9.80
  -1   5   0  192.68   11.20
  -1   5   0  192.68    8.90
  -1   5   0  217.98   10.60
   0  -5   0 1521.65   50.99
   0  -5   0 1539.15   51.09
   0  -5   0 1549.54   47.90
   0   5   0 1522.15   52.49
   0   5   0 1466.15   48.60
   0   5   0 1474.25   50.29
   0   5   0 1526.65   49.60
  -1  -5   0  563.64   19.90
  -1  -5   0  561.94   22.20
  -1  -5   0  560.64   21.70
   1   5   0  542.35   23.90
   1   5   0  545.85   20.20
   1   5   0  525.75   20.70
   1   5   0  555.74   21.20
  -2  -5   0  601.14   23.90
  -2  -5   0  617.74   25.30
  -2  -5   0  659.83   28.20
  -2  -5   0  659.93   23.60
   2   5   0  636.94   27.80
   2   5   0  610.34   23.40
   2   5   0  593.04   22.90
  -3  -5   0 1077.09   38.70
  -3  -5   0 1059.09   38.20
  -3  -5   0 1069.69   40.40
   3   5   0 1073.59   35.80
   3   5   0 1134.89   41.30
   3   5   0 1102.89   37.80
   3   5   0 1098.19   44.10
  -4  -5   0  182.68   12.30
  -4  -5   0  194.68   13.50
   4   5   0  205.88   16.90
   4   5   0  173.18    8.30
   4   5   0  193.38   14.20
  -5  -5   0  675.73   30.00
  -5  -5   0  639.24   28.20
   5   5   0  682.03   31.60
   5   5   0  670.93   23.30
  -6  -5   0   -3.70    5.10
  -6  -5   0    1.20    5.70
   6   5   0    2.80    6.30
   6   5   0    2.90    2.90
  -7  -5   0  554.24   29.20
  -7  -5   0  558.24   28.30
   7   5   0  555.14   21.70
   7   5   0  559.74   32.80
  -8  -5   0   99.29   14.30
  -8  -5   0   94.59   14.10
   8   5   0   85.19   16.80
   8   5   0  110.49    9.40
  -9  -5   0  125.69   16.20
   9   5   0  174.48   12.60
  12  -6   0    3.20    5.20
 -12   6   0    3.80   11.40
  11  -6   0  138.59   12.10
 -11   6   0  152.78   20.30
  10  -6   0   67.19    7.90
 -10   6   0   63.19   13.50
  -9   6   0  201.88   19.90
  -8   6   0  407.16   23.10
  -8   6   0  366.36   23.00
  -7   6   0   80.99   11.10
  -7   6   0   99.29   11.60
  -6   6   0  515.55   23.60
  -6   6   0  531.65   25.00
  -5   6   0  161.18   11.70
  -5   6   0  140.89   10.70
  -4   6   0  959.40   36.40
  -4   6   0  990.40   34.20
  -4   6   0  991.10   36.40
  -3   6   0  469.35   18.60
  -3   6   0  474.45   20.00
  -3   6   0  497.75   20.70
   2  -6   0  473.95   19.80
  -2   6   0  508.15   20.40
  -2   6   0  460.05   19.20
  -2   6   0  466.85   18.10
   1  -6   0 1249.07   43.60
  -1   6   0 1237.18   42.00
  -1   6   0 1268.47   44.90
  -1   6   0 1234.38   43.30
  -1   6   0 1231.28   41.20
   0  -6   0  317.57   15.40
   0   6   0  311.37   12.60
   0   6   0  292.17   16.00
   0   6   0  280.87   13.00
   0   6   0  292.87   14.20
  -1  -6   0 1377.26   49.60
  -1  -6   0 1432.96   49.10
   1   6   0 1394.96   48.40
   1   6   0 1446.46   46.80
   1   6   0 1389.86   51.79
  -2  -6   0    1.70    3.40
  -2  -6   0   -0.60    3.70
   2   6   0    2.10    4.80
   2   6   0    6.50    3.60
   2   6   0    0.70    3.30
  -3  -6   0 1177.28   45.50
   3   6   0 1186.38   49.10
   3   6   0 1265.67   46.80
   3   6   0 1235.78   42.70
   3   6   0 1221.58   43.00
  -4  -6   0   62.49    9.60
   4   6   0   57.89    6.80
   4   6   0   60.89    9.80
  -5  -6   0  420.26   23.50
   5   6   0  429.76   18.20
   5   6   0  447.06   25.40
  -6  -6   0  248.38   19.10
   6   6   0  272.57   13.80
   6   6   0  294.67   22.30
  -7  -6   0   98.09   14.30
   7   6   0   87.39   16.60
   7   6   0   78.49    8.40
  -8  -6   0  124.29   19.80
   8   6   0  140.99   12.00
 -12   7   0   91.19   17.60
 -11   7   0   25.80   11.80
 -10   7   0  126.89   17.20
  -9   7   0    5.90    7.60
  -8   7   0  296.97   19.70
  -8   7   0  286.17   20.50
  -7   7   0  232.68   16.10
  -7   7   0  216.28   16.70
  -6   7   0  164.68   13.60
  -6   7   0  160.68   14.20
  -5   7   0  712.03   27.20
  -5   7   0  717.83   30.10
  -5   7   0  716.23   29.90
  -4   7   0  208.88   13.50
  -4   7   0  251.77   12.20
  -4   7   0  237.28   13.90
  -3   7   0  617.34   25.30
  -3   7   0  590.44   24.10
  -3   7   0  568.14   22.50
   2  -7   0    4.30    4.00
  -2   7   0    9.30    3.20
  -2   7   0    4.60    3.60
  -2   7   0   18.10    5.40
   1  -7   0 1374.96   48.60
  -1   7   0 1366.36   45.70
  -1   7   0 1360.36   48.30
   0  -7   0  313.37   16.40
   0   7   0  303.27   15.30
   0   7   0  267.97   12.70
   0   7   0  282.87   16.90
  -1  -7   0  657.93   28.30
   1   7   0  706.83   27.30
   1   7   0  657.43   30.30
   1   7   0  649.54   24.70
  -2  -7   0  434.26   21.60
   2   7   0  421.46   18.10
   2   7   0  416.16   19.50
   2   7   0  400.56   23.30
  -3  -7   0  375.06   21.30
   3   7   0  361.26   17.80
   3   7   0  374.86   18.00
   3   7   0  391.56   21.90
  -4  -7   0  427.36   23.70
   4   7   0  451.35   25.10
   4   7   0  434.56   20.50
  -5  -7   0   12.50    7.10
   5   7   0   21.10    8.20
   5   7   0    4.30    4.90
  -6  -7   0  413.96   25.80
   6   7   0  439.16   21.20
   6   7   0  416.86   28.50
   7   7   0    5.90   10.50
   7   7   0    6.00    5.60
 -12   8   0   71.89   16.00
 -11   8   0    4.20   10.70
 -10   8   0  121.69   17.80
  -9   8   0  147.39   17.80
  -8   8   0   85.09   13.10
  -8   8   0   94.69   13.30
  -7   8   0  399.66   23.00
  -7   8   0  379.86   22.20
  -6   8   0    7.40    5.60
  -6   8   0   20.20    6.50
  -5   8   0  804.32   33.80
  -5   8   0  787.62   30.40
  -5   8   0  812.22   33.30
  -4   8   0   26.10    5.30
  -4   8   0   33.20    6.80
  -4   8   0   25.90    6.90
  -3   8   0  668.53   25.40
  -3   8   0  643.14   26.60
  -3   8   0  643.04   27.90
   2  -8   0  420.46   20.50
  -2   8   0  450.65   21.10
  -2   8   0  395.96   17.70
   1  -8   0  439.96   21.90
  -1   8   0  474.95   21.90
  -1   8   0  456.95   18.90
   0  -8   0  484.25   23.50
   0   8   0  491.05   32.60
   0   8   0  510.15   20.10
   0   8   0  474.25   22.50
  -1  -8   0  102.19   11.50
   1   8   0   96.89    8.30
   1   8   0   98.09   10.40
  -2  -8   0  615.14   29.30
   2   8   0  623.64   29.80
   2   8   0  617.04   26.90
   2   8   0  629.24   24.70
  -3  -8   0    3.20    6.00
   3   8   0    2.60    3.70
   3   8   0    2.10    6.30
  -4  -8   0  309.17   21.40
   4   8   0  298.87   22.20
   4   8   0  334.27   17.30
  -5  -8   0   63.39   11.90
   5   8   0   60.69    8.90
   5   8   0   77.09   14.10
   6   8   0  238.28   16.30
   6   8   0  258.77   26.50
 -11   9   0   40.40   13.30
 -10   9   0   20.00   10.30
  -9   9   0  207.88   21.80
  -9   9   0  256.17   20.90
  -8   9   0    8.20    7.20
  -8   9   0   -0.80    6.90
  -7   9   0  225.58   17.90
  -7   9   0  218.38   17.50
  -6   9   0  112.89   12.90
  -6   9   0  127.79   14.10
  -5   9   0  164.18   13.60
  -5   9   0  182.58   11.90
  -5   9   0  139.49   14.30
  -4   9   0  172.48   13.70
  -4   9   0  160.68   11.10
  -3   9   0   38.40    8.30
  -3   9   0   49.30    6.60
   2  -9   0  634.44   27.90
  -2   9   0  586.24   24.20
  -2   9   0  590.14   27.40
   1  -9   0   52.99    8.80
  -1   9   0   45.80    6.30
  -1   9   0   48.40    8.20
   0  -9   0  418.06   22.50
   0   9   0  412.76   21.50
   0   9   0  399.16   18.20
  -1  -9   0   92.09   12.00
   1   9   0   93.29    8.70
   1   9   0  108.49   11.70
  -2  -9   0  326.57   22.10
   2   9   0  349.96   19.70
   2   9   0  341.17   16.70
   2   9   0  361.86   22.50
  -3  -9   0  157.48   17.00
   3   9   0  154.68   17.70
   3   9   0  171.68   12.20
  -4  -9   0  107.89   15.30
   4   9   0   77.99   14.30
   4   9   0  112.99   10.70
   5   9   0  251.67   16.10
   5   9   0  284.17   27.30
 -11  10   0   60.99   15.20
 -10  10   0   37.00   11.60
  -9  10   0  100.59   16.90
  -9  10   0  116.39   16.00
  -8  10   0  148.99   18.50
  -8  10   0  153.08   17.20
  -7  10   0   27.90    8.90
  -7  10   0   45.20   10.70
  -6  10   0  209.68   16.90
  -5  10   0   -1.10    5.10
  -5  10   0    3.50    4.10
  -4  10   0  294.57   16.20
  -4  10   0  293.77   19.50
  -3  10   0   51.49    7.30
  -3  10   0   44.10    9.50
  -2  10   0  304.27   19.50
  -2  10   0  302.27   15.90
   1 -10   0  180.38   15.50
  -1  10   0  184.98   16.80
  -1  10   0  173.78   11.70
   0 -10   0  165.28   16.50
   0  10   0  169.78   16.20
   0  10   0  176.08   11.80
  -1 -10   0  284.47   20.80
   1  10   0  320.37   20.20
   1  10   0  298.87   15.90
  -2 -10   0    6.20    7.60
   2  10   0   10.70    7.30
   2  10   0   -0.30    4.20
   2  10   0   -1.60    7.60
   3  10   0  253.67   15.30
   3  10   0  297.17   23.80
   4  10   0   11.20   10.20
   4  10   0   15.50    6.10
 -10  11   0   75.39   15.20
  -9  11   0   -1.60    8.40
  -9  11   0   11.70   10.50
  -8  11   0   70.69   14.20
  -7  11   0   16.60    9.20
  -6  11   0  159.68   18.00
  -5  11   0   47.10   11.30
  -5  11   0   58.29    9.10
  -4  11   0  142.89   16.30
  -4  11   0  179.48   14.50
  -3  11   0  212.48   14.10
  -3  11   0  193.38   18.30
  -2  11   0   42.40    7.50
  -2  11   0   43.30    9.90
  -1  11   0  268.67   15.70
  -1  11   0  247.28   19.30
   0 -11   0   -8.30    6.50
   0  11   0    4.70    4.70
   0  11   0    7.50    7.60
   1  11   0  143.89   12.70
   1  11   0  145.49   16.20
   1  11   0  162.08   18.30
   2  11   0   24.90   11.10
   2  11   0   27.90    6.70
  -9  12   0   19.40   12.30
  -8  12   0   68.69   15.40
  -7  12   0   99.69   15.90
  -6  12   0    9.80    9.10
  -5  12   0  108.79   11.70
  -5  12   0  101.69   14.90
  -4  12   0    2.10    8.00
  -4  12   0   -1.00    4.90
  -3  12   0  216.08   20.70
  -3  12   0  213.08   15.10
  -2  12   0   48.80   11.30
  -2  12   0   48.80    8.60
  -1  12   0  101.79   14.50
  -1  12   0   97.79   10.90
   0  12   0   70.89   13.40
   0  12   0   74.29   12.80
   0  12   0   78.69   10.60
   1  12   0   20.70   10.10
  -8  13   0    9.90   11.50
  -7  13   0   70.09   15.90
  -6  13   0   19.20   10.20
  -5  13   0   99.49   16.00
  -5  13   0   62.79   10.40
  -4  13   0   60.69    9.90
  -4  13   0   47.80   11.90
  -3  13   0   29.80   11.30
  -3  13   0   38.80   10.70
  -2  13   0   69.19   13.50
  -1  13   0   17.50   16.50
  -1  13  -1   43.80   11.40
  -2  13  -1   91.29   15.20
  -3  13  -1   -4.70    5.40
  -3  13  -1    2.40    8.40
  -4  13  -1  122.99   13.50
  -4  13  -1  128.39   17.20
  -5  13  -1   15.70    6.90
  -5  13  -1    8.50    8.70
  -6  13  -1   83.49   15.50
  -7  13  -1   32.30   12.30
  -8  13  -1   31.90   13.50
  -9  13  -1   37.20   14.20
   1  12  -1    0.90    7.80
   0  12  -1  174.08   19.10
   0  12  -1  219.48   14.60
  -1  12  -1    5.50    8.00
  -1  12  -1    4.20    5.30
  -2  12  -1  108.49   11.40
  -2  12  -1  108.09   15.00
  -3  12  -1   61.89   12.40
  -3  12  -1   42.70    8.10
  -4  12  -1   87.29   13.70
  -4  12  -1   89.69   11.00
  -5  12  -1  132.19   13.50
  -5  12  -1  133.09   17.10
  -6  12  -1   24.90   10.00
  -7  12  -1  147.59   19.50
  -8  12  -1    6.80   10.20
  -9  12  -1   63.99   16.00
   2  11  -1  223.88   21.10
   2  11  -1  198.98   13.30
   2  11  -1  193.38   21.10
   1  11  -1   69.09    8.30
   1  11  -1   65.59   11.70
  -1 -11   1   63.49   12.70
   0  11  -1  171.68   17.00
   0  11  -1  157.98   11.90
   0 -11   1  148.59   16.40
  -1  11  -1  157.68   16.50
  -1  11  -1  194.58   12.90
  -2  11  -1   82.69    9.30
  -2  11  -1   71.09   11.40
  -3  11  -1  345.17   22.10
  -3  11  -1  355.46   18.30
  -4  11  -1   19.50    8.30
  -4  11  -1   26.70    6.40
  -5  11  -1  308.97   21.70
  -5  11  -1  333.87   18.40
  -6  11  -1    4.00    8.10
  -7  11  -1  150.28   18.40
  -8  11  -1   92.59   15.90
  -8  11  -1   64.39   12.50
  -9  11  -1   37.60   12.00
  -9  11  -1   31.20   12.20
 -10  11  -1   96.69   16.80
   4  10  -1   97.29   16.20
   4  10  -1   90.79    8.80
   3  10  -1  139.19   10.60
   3  10  -1  124.69   17.10
  -3 -10   1  112.59   15.20
   2  10  -1  106.59   12.70
   2  10  -1   87.49   13.60
   2  10  -1   76.49    8.30
  -2 -10   1   84.99   13.10
   1  10  -1  362.36   17.60
   1  10  -1  371.96   21.70
  -1 -10   1  413.76   23.80
   0  10  -1   34.00    5.70
   0  10  -1   38.80    8.50
   0 -10   1   36.20    8.70
  -1  10  -1  393.66   21.90
  -1  10  -1  364.56   17.60
  -2  10  -1   16.10    6.60
  -2  10  -1   15.80    4.90
  -3  10  -1  334.77   16.80
  -3  10  -1  314.17   20.00
  -4  10  -1  101.89    9.80
  -4  10  -1   98.39   12.40
  -5  10  -1  134.29   14.80
  -5  10  -1  132.79   11.70
  -6  10  -1  191.78   18.00
  -6  10  -1  209.38   18.90
  -7  10  -1   23.40    9.00
  -7  10  -1   35.70   10.00
  -8  10  -1  136.79   16.50
  -8  10  -1  143.49   17.50
  -9  10  -1   15.80    9.50
  -9  10  -1   23.00   12.60
 -10  10  -1  129.99   19.20
 -11  10  -1   19.40   12.60
   6   9  -1   49.20   14.10
   5   9  -1  181.28   11.90
   5   9  -1  131.49   18.40
   4   9  -1    9.30    4.50
   4   9  -1   12.30    7.80
  -4  -9   1   17.40    8.70
   3   9  -1  421.56   25.60
   3   9  -1  401.76   18.10
   3   9  -1  380.86   27.30
  -3  -9   1  418.36   25.00
   2   9  -1   11.30    5.90
   2   9  -1   17.20    4.30
  -2  -9   1    9.80    6.70
   1   9  -1  570.14   23.00
   1   9  -1  583.74   26.80
  -1  -9   1  605.04   28.40
   0   9  -1  247.88   12.80
   0   9  -1  244.68   15.90
   0  -9   1  234.28   16.80
  -1   9  -1  161.68   10.20
  -1   9  -1  160.08   13.10
   1  -9   1  170.08   13.90
  -2   9  -1  425.46   18.80
  -2   9  -1  448.46   22.40
  -3   9  -1  159.58   13.30
  -3   9  -1  159.48   10.60
  -4   9  -1  571.34   23.30
  -4   9  -1  549.35   25.90
  -4   9  -1  549.65   26.60
  -5   9  -1    4.10    5.60
  -5   9  -1   -4.00    3.20
  -5   9  -1    8.00    5.80
  -6   9  -1  473.15   22.70
  -6   9  -1  429.86   24.10
  -6   9  -1  463.45   24.70
  -7   9  -1   74.39   12.00
  -7   9  -1   67.79   11.60
  -8   9  -1  225.08   21.10
  -8   9  -1  224.78   21.10
  -9   9  -1  124.49   17.50
 -10   9  -1   94.69   16.60
 -11   9  -1   49.99   14.20
   7   8  -1   92.59   17.90
   7   8  -1  125.89   11.50
   6   8  -1   -1.20    4.70
   6   8  -1    4.20    8.90
  -6  -8   1    3.90    7.30
   5   8  -1  254.07   15.00
   5   8  -1  328.27   23.50
  -5  -8   1  271.77   20.00
   4   8  -1   91.29   13.10
   4   8  -1   80.89    8.20
  -4  -8   1   68.49   11.40
   3   8  -1  300.67   14.20
   3   8  -1  278.17   16.30
   3   8  -1  319.07   20.20
  -3  -8   1  293.67   19.20
   2   8  -1  298.67   13.80
   2   8  -1  307.47   16.70
  -2  -8   1  318.17   18.90
   1   8  -1  133.19   10.80
   1   8  -1  125.49    8.00
  -1  -8   1  119.99   12.20
   0   8  -1  460.05   18.60
   0   8  -1  470.05   23.70
   0   8  -1  490.75   22.10
   0  -8   1  469.65   22.90
  -1   8  -1   -5.50    3.80
  -1   8  -1   -3.10    2.30
   1  -8   1    0.20    4.00
  -2   8  -1  937.51   33.80
  -2   8  -1  998.40   37.30
  -2   8  -1  937.11   35.70
  -3   8  -1   88.69    9.90
  -3   8  -1   96.99    8.30
  -3   8  -1  112.89   10.70
  -4   8  -1  779.82   32.10
  -4   8  -1  754.62   31.70
  -4   8  -1  773.52   29.00
  -5   8  -1  258.17   13.60
  -5   8  -1  264.27   16.90
  -5   8  -1  266.27   16.60
  -6   8  -1  583.84   25.40
  -6   8  -1  570.74   28.00
  -6   8  -1  579.14   27.10
  -7   8  -1  517.15   27.20
  -7   8  -1  493.85   25.70
  -8   8  -1   35.90    9.30
  -8   8  -1   46.50   10.60
  -9   8  -1  232.68   22.50
 -10   8  -1    6.60    9.50
 -11   8  -1  100.19   17.80
 -12   8  -1   11.40   17.90
   8   7  -1   17.60    6.40
   7   7  -1  103.79   10.30
   7   7  -1  112.19   17.80
  -7  -7   1   95.89   14.10
   6   7  -1  164.68   19.00
   6   7  -1  151.68   11.80
  -6  -7   1  164.58   16.60
   5   7  -1  106.39    9.80
   5   7  -1   89.79   13.40
  -5  -7   1  122.29   14.00
   4   7  -1  384.36   22.60
   4   7  -1  397.06   17.80
  -4  -7   1  376.76   21.30
   3   7  -1   87.99    9.20
   3   7  -1  111.59   12.10
   3   7  -1  100.89    8.40
  -3  -7   1  107.89   11.80
  -3  -7   1   93.59    9.70
   2   7  -1  727.83   26.50
   2   7  -1  770.52   29.60
   2   7  -1  751.42   33.10
  -2  -7   1  732.93   30.90
  -2  -7   1  730.03   30.00
   1   7  -1   73.49    8.30
   1   7  -1   74.89    9.60
   1   7  -1   62.29    5.70
  -1  -7   1   68.39    8.20
  -1  -7   1   63.39    8.30
   0   7  -1  460.55   17.60
   0   7  -1  426.86   21.70
   0   7  -1  445.46   20.30
   0  -7   1  493.25   21.40
   0  -7   1  471.85   21.30
  -1   7  -1  266.07   13.80
  -1   7  -1  275.07   12.20
  -1   7  -1  280.97   14.80
   1  -7   1  287.37   15.00
  -2   7  -1  548.75   22.40
  -2   7  -1  508.65   22.40
  -2   7  -1  514.55   19.90
  -3   7  -1  572.64   24.10
  -3   7  -1  561.94   21.80
  -3   7  -1  571.84   24.20
  -4   7  -1  157.78   12.00
  -4   7  -1  134.59   10.70
  -4   7  -1  143.09    9.10
  -5   7  -1 1053.89   37.50
  -5   7  -1 1064.29   40.10
  -5   7  -1 1047.70   41.10
  -6   7  -1  102.89   11.90
  -6   7  -1  119.39   11.70
  -7   7  -1  431.36   22.20
  -7   7  -1  437.46   24.40
  -8   7  -1  107.79   16.10
  -8   7  -1  104.29   14.10
  -9   7  -1  257.77   21.50
 -10   7  -1  151.88   18.80
 -11   7  -1   34.10   12.90
 -12   7  -1   79.19   18.00
   8   6  -1  199.88   12.20
   7   6  -1   15.20    4.40
   7   6  -1   17.60    9.50
  -7  -6   1   10.20    7.20
   6   6  -1  430.86   17.10
   6   6  -1  402.86   26.20
  -6  -6   1  471.45   24.40
   5   6  -1   11.90    3.10
   5   6  -1   17.70    7.40
  -5  -6   1   19.10    6.30
   4   6  -1  861.71   29.70
   4   6  -1  893.01   36.80
   4   6  -1  895.91   39.10
   4   6  -1  881.31   32.70
  -4  -6   1  843.52   35.30
  -4  -6   1  891.01   33.60
   3   6  -1  285.07   18.60
   3   6  -1  301.37   13.50
   3   6  -1  299.47   14.70
  -3  -6   1  305.47   16.80
  -3  -6   1  296.77   15.40
   2   6  -1  894.71   31.70
   2   6  -1  916.81   33.70
   2   6  -1  901.91   37.10
  -2  -6   1  962.40   34.80
  -2  -6   1  958.10   35.50
   1   6  -1 1027.90   39.30
   1   6  -1 1028.60   37.20
   1   6  -1 1011.90   34.10
   1   6  -1 1054.59   37.00
  -1  -6   1  999.90   37.50
  -1  -6   1 1060.09   37.90
   0   6  -1  470.95   21.70
   0   6  -1  494.65   20.30
   0   6  -1  491.65   17.80
   0   6  -1  526.25   20.50
   0  -6   1  496.55   20.90
   0  -6   1  489.45   21.00
  -1   6  -1 1439.16   48.80
  -1   6  -1 1402.56   48.40
  -1   6  -1 1369.96   46.20
   1  -6   1 1471.65   49.00
   1  -6   1 1440.76   49.50
  -2   6  -1   38.30    4.40
  -2   6  -1   34.60    5.20
  -2   6  -1   35.50    5.40
  -3   6  -1 1112.99   39.00
  -3   6  -1 1192.28   41.20
  -3   6  -1 1184.78   41.60
  -4   6  -1   55.69    6.00
  -4   6  -1   70.49    7.80
  -4   6  -1   61.99    8.00
  -5   6  -1  726.13   30.90
  -5   6  -1  766.42   29.60
  -6   6  -1  567.54   26.80
  -6   6  -1  566.44   24.60
  -7   6  -1  122.59   13.80
  -7   6  -1  114.29   12.00
  -8   6  -1  416.36   24.60
  -9   6  -1   -0.10    6.40
   9  -6   1   10.00    4.10
 -10   6  -1  332.07   25.10
  10  -6   1  288.37   15.90
 -11   6  -1    5.10   10.50
  11  -6   1    0.50    4.40
 -12   6  -1  207.28   25.00
  12  -6   1  203.58   15.70
  13  -6   1   17.30    7.20
   9   5  -1    3.60    3.90
  -9  -5   1    0.30    7.10
   8   5  -1  168.58   10.20
  -8  -5   1  158.88   16.60
  -8  -5   1  173.78   22.60
   7   5  -1   38.90   11.00
   7   5  -1   45.40    4.90
  -7  -5   1   27.90    8.00
  -7  -5   1   47.00    9.40
   6   5  -1  348.07   22.30
  -6  -5   1  342.67   19.70
  -6  -5   1  332.97   19.40
   5   5  -1  414.16   24.90
   5   5  -1  425.46   23.10
  -5  -5   1  455.55   21.90
  -5  -5   1  419.06   20.70
   4   5  -1  449.95   23.90
   4   5  -1  445.36   21.70
   4   5  -1  439.76   18.40
  -4  -5   1  434.56   19.00
  -4  -5   1  437.36   20.80
  -4  -5   1  440.06   20.00
   3   5  -1 1009.30   35.30
   3   5  -1  975.40   39.80
   3   5  -1  969.30   40.00
  -3  -5   1 1006.90   36.00
  -3  -5   1 1002.30   35.70
  -3  -5   1 1013.00   37.30
  -3  -5   1 1042.30   42.80
   2   5  -1   13.90    5.50
   2   5  -1    2.90    3.70
   2   5  -1    9.10    2.60
   2   5  -1    0.60    2.60
  -2  -5   1    4.70    2.90
  -2  -5   1    4.40    3.20
  -2  -5   1   15.20    6.00
  -2  -5   1    3.70    2.90
   1   5  -1 1261.87   42.50
   1   5  -1 1271.87   44.70
   1   5  -1 1215.98   40.00
   1   5  -1 1218.38   43.70
  -1  -5   1 1275.57   43.30
  -1  -5   1 1214.28   43.00
  -1  -5   1 1276.77   40.60
   0   5  -1  106.99    5.50
   0   5  -1  104.19    8.00
   0   5  -1  110.09    7.10
   0   5  -1  108.49    7.70
   0  -5   1  103.39    7.60
   0  -5   1  111.59    4.90
   0  -5   1  114.09    7.80
  -1   5  -1 1736.43   56.09
  -1   5  -1 1812.02   58.09
  -1   5  -1 1747.23   58.19
   1  -5   1 1764.72   58.69
   1  -5   1 1778.12   58.09
  -2   5  -1  513.55   18.40
  -2   5  -1  510.05   20.30
  -2   5  -1  499.25   19.70
   2  -5   1  507.05   20.30
  -3   5  -1 1580.44   52.69
  -3   5  -1 1595.44   51.29
  -3   5  -1 1572.34   53.59
  -4   5  -1 1222.68   44.40
  -4   5  -1 1242.38   40.00
  -4   5  -1 1237.08   43.00
  -4   5  -1 1281.57   41.70
  -5   5  -1   31.50    6.60
  -5   5  -1   30.20    4.40
  -5   5  -1   35.60    5.60
  -5   5  -1   32.50    4.00
  -6   5  -1  892.71   32.90
  -6   5  -1  958.40   35.30
  -6   5  -1  977.10   38.20
   6  -5   1  944.51   32.40
  -7   5  -1   -9.00    4.10
  -7   5  -1   -1.20    4.60
  -7   5  -1    2.30    3.60
   7  -5   1   -0.30    2.50
  -8   5  -1  447.66   20.80
  -8   5  -1  471.65   26.10
   8  -5   1  455.35   19.10
  -9   5  -1   39.50    7.50
  -9   5  -1   39.40   10.70
   9  -5   1   45.80    6.40
 -10   5  -1  150.38   14.50
 -10   5  -1  140.29   18.80
  10  -5   1  146.89   11.30
 -11   5  -1  129.99   15.00
 -11   5  -1  203.98   23.00
  11  -5   1  166.78   13.60
 -12   5  -1  -14.10   10.00
 -12   5  -1    6.20    8.40
  12  -5   1   -1.10    5.10
  13  -5   1   69.39   10.50
  10   4  -1  143.09   11.60
 -10  -4   1  109.19   16.30
  -9  -4   1  132.49   16.20
  -8  -4   1  104.49   13.20
  -8  -4   1   95.89   12.10
   7   4  -1  420.36   25.60
  -7  -4   1  371.56   21.00
  -7  -4   1  378.26   21.50
   6   4  -1    3.60    5.00
   6   4  -1    3.60    6.60
  -6  -4   1    0.70    4.10
  -6  -4   1    8.10    5.40
   5   4  -1  687.43   33.00
   5   4  -1  738.63   30.60
  -5  -4   1  710.13   29.00
  -5  -4   1  641.04   34.50
  -5  -4   1  703.13   28.60
   4   4  -1   65.59    6.10
   4   4  -1   69.19   10.10
   4   4  -1   51.49    7.40
  -4  -4   1   39.00    9.60
  -4  -4   1   80.89    8.40
  -4  -4   1   48.30    6.70
  -4  -4   1   59.39    6.30
   3   4  -1 1032.20   39.20
   3   4  -1 1014.20   34.40
  -3  -4   1  993.90   36.10
  -3  -4   1 1012.00   35.20
  -3  -4   1 1014.80   35.30
  -3  -4   1  974.20   41.10
   2   4  -1 1399.06   49.10
   2   4  -1 1325.37   49.99
   2   4  -1 1421.76   46.10
  -2  -4   1 1396.46   51.99
  -2  -4   1 1411.46   47.20
  -2  -4   1 1418.26   45.80
  -2  -4   1 1381.46   46.80
   1   4  -1  829.22   30.70
   1   4  -1  857.51   29.00
   1   4  -1  835.32   31.40
   1   4  -1  763.72   26.90
  -1  -4   1  898.81   32.90
  -1  -4   1  839.92   29.70
  -1  -4   1  834.52   29.50
  -1  -4   1  849.52   27.80
   0   4  -1 1093.79   37.60
   0   4  -1 1074.69   34.60
   0   4  -1 1072.79   37.60
   0   4  -1 1107.29   36.60
   0  -4   1 1056.29   36.70
   0  -4   1 1168.78   37.40
   0  -4   1 1056.79   34.20
  -1   4  -1 1065.09   38.40
  -1   4  -1 1193.18   36.50
  -1   4  -1 1066.09   37.70
   1  -4   1 1198.98   38.10
   1  -4   1 1158.28   38.60
  -2   4  -1 3395.36  105.89
  -2   4  -1 3402.56  104.79
  -2   4  -1 3334.87  106.59
   2  -4   1 3373.86  106.39
  -3   4  -1    3.20    2.60
  -3   4  -1    0.70    1.50
  -3   4  -1    1.50    2.00
  -3   4  -1   -2.90    3.00
  -4   4  -1 2274.87   71.39
  -4   4  -1 2255.07   75.09
  -4   4  -1 2274.47   72.89
  -4   4  -1 2253.97   71.89
   4  -4   1 2265.27   71.19
  -5   4  -1  580.94   21.60
  -5   4  -1  617.54   25.40
  -5   4  -1  607.14   22.90
  -5   4  -1  586.74   21.80
   5  -4   1  569.44   20.90
  -6   4  -1 1209.28   41.80
  -6   4  -1 1262.97   43.20
  -6   4  -1 1214.18   45.80
   6  -4   1 1187.98   40.40
   6  -4   1 1168.68   42.10
  -7   4  -1  304.07   18.60
  -7   4  -1  275.47   14.50
   7  -4   1  279.57   14.50
   7  -4   1  276.47   12.90
  -8   4  -1  166.58   16.80
  -8   4  -1  144.39   11.50
   8  -4   1  149.69   11.10
   8  -4   1  149.88    9.70
  -9   4  -1  395.96   20.60
  -9   4  -1  342.07   23.60
   9  -4   1  388.86   17.90
 -10   4  -1   -1.80    5.70
 -10   4  -1   -4.70    8.50
  10  -4   1    3.30    4.10
 -11   4  -1  255.67   19.80
 -11   4  -1  293.47   28.10
 -12   4  -1   40.80   11.00
 -12   4  -1   23.90   12.90
 -10  -3   1   26.60   10.40
  -9  -3   1  250.77   19.40
  -8  -3   1    7.80    6.70
  -8  -3   1    0.60    5.10
   7   3  -1  458.25   29.10
   7   3  -1  525.45   29.10
  -7  -3   1  486.15   30.10
  -7  -3   1  524.95   24.30
  -7  -3   1  525.95   25.00
   6   3  -1  181.78   15.20
   6   3  -1  165.28   17.50
  -6  -3   1  171.38   18.30
  -6  -3   1  190.78   12.90
  -6  -3   1  203.08   13.50
   5   3  -1  824.42   38.00
   5   3  -1  880.81   34.90
  -5  -3   1  925.61   38.80
  -5  -3   1  922.21   33.60
  -5  -3   1  836.42   33.00
   4   3  -1  736.23   31.60
   4   3  -1  735.13   28.30
   4   3  -1  708.33   25.20
  -4  -3   1  699.13   27.30
  -4  -3   1  718.13   26.00
  -4  -3   1  735.03   27.60
  -4  -3   1  771.92   31.90
   3   3  -1   98.49    9.60
  -3  -3   1  116.49   11.30
  -3  -3   1  126.59    7.70
  -3  -3   1  119.79    6.90
  -3  -3   1  113.89    7.80
   2   3  -1 2259.17   73.69
   2   3  -1 2240.48   70.79
  -2  -3   1 2098.09   74.99
  -2  -3   1 2275.07   71.79
  -2  -3   1 2273.47   71.69
  -2  -3   1 2293.17   71.19
   1   3  -1  197.18   10.30
   1   3  -1  197.98   12.30
   1   3  -1  205.78    9.10
  -1  -3   1  204.18    9.50
  -1  -3   1  208.08    9.60
  -1  -3   1  213.08   12.30
  -1  -3   1  200.08   13.10
  -1  -3   1  212.98    8.60
   0   3  -1 4919.71  154.78
   0   3  -1 4987.50  154.18
   0   3  -1 5051.99  153.48
   0   3  -1 4961.10  151.78
   0  -3   1 4906.01  154.48
   0  -3   1 4943.71  153.48
   0  -3   1 5094.29  154.08
  -1   3  -1  499.15   16.50
  -1   3  -1  492.25   18.20
  -1   3  -1  487.05   17.50
   1  -3   1  483.15   18.10
   1  -3   1  499.75   18.00
  -2   3  -1 3539.05  112.29
  -2   3  -1 3633.14  113.59
  -2   3  -1 3596.14  111.79
   2  -3   1 3737.93  112.89
  -3   3  -1 1033.40   37.60
  -3   3  -1 1111.89   35.40
  -3   3  -1 1093.29   36.10
  -3   3  -1 1109.19   35.70
   3  -3   1 1126.89   35.20
  -4   3  -1  491.95   18.40
  -4   3  -1  522.75   18.80
  -4   3  -1  497.55   21.20
  -4   3  -1  509.45   19.00
   4  -3   1  535.65   19.70
   4  -3   1  516.45   18.00
  -5   3  -1 1579.14   51.99
  -5   3  -1 1547.35   51.69
  -5   3  -1 1594.64   54.79
   5  -3   1 1533.15   52.09
   5  -3   1 1561.64   50.39
  -6   3  -1  161.58   11.10
  -6   3  -1  157.08   10.20
  -6   3  -1  163.48   12.50
   6  -3   1  153.18    8.40
   6  -3   1  167.08   10.00
  -7   3  -1  475.65   24.80
  -7   3  -1  491.35   21.80
   7  -3   1  503.15   21.90
   7  -3   1  490.75   19.50
  -8   3  -1    3.40    4.80
  -8   3  -1   12.00    7.10
   8  -3   1   -4.60    2.60
   8  -3   1   -1.70    3.90
  -9   3  -1  476.15   23.60
  -9   3  -1  455.85   27.80
  -9   3  -1  417.86   26.90
 -10   3  -1   57.39   13.20
 -10   3  -1   57.39   10.30
 -11   3  -1   94.39   13.90
 -11   3  -1  100.39   17.50
 -12   3  -1   84.19   17.70
 -12   3  -1   67.19   12.70
 -11  -2   1  123.29   17.50
 -10  -2   1   27.90    9.50
  -9  -2   1  264.97   19.50
  -8  -2   1  265.27   17.90
  -8  -2   1  257.87   16.40
  -8  -2   1  239.88   23.90
   7   2  -1  221.48   20.90
  -7  -2   1  205.48   13.90
  -7  -2   1  220.58   15.00
  -7  -2   1  195.28   19.50
   6   2  -1  632.54   29.20
  -6  -2   1  560.64   24.60
  -6  -2   1  593.24   28.80
  -6  -2   1  596.54   25.30
   5   2  -1  300.47   16.00
  -5  -2   1  300.67   12.20
  -5  -2   1  246.38   13.60
  -5  -2   1  280.97   16.90
  -5  -2   1  258.07   13.70
   4   2  -1 1385.86   49.10
  -4  -2   1 1454.75   48.40
  -4  -2   1 1437.36   48.60
  -4  -2   1 1507.25   47.30
  -4  -2   1 1405.56   50.89
   3   2  -1   60.69    5.80
  -3  -2   1   53.99    6.80
  -3  -2   1   63.39    5.60
  -3  -2   1   66.79    4.90
  -3  -2   1   56.29    5.80
   2   2  -1 2862.61   91.49
  -2  -2   1 2847.02   89.29
  -2  -2   1 2899.11   89.29
  -2  -2   1 2814.22   89.29
  -2  -2   1 2856.21   91.49
   1   2  -1  142.29    7.10
  -1  -2   1  138.89    6.60
  -1  -2   1  136.99    5.90
  -1  -2   1  155.68    7.70
  -1  -2   1  138.39    8.20
  -1  -2   1  137.89    6.30
   0   2  -1  416.86   14.70
   0   2  -1  408.26   15.70
   0   2  -1  419.56   13.20
   0  -2   1  416.56   16.20
   0  -2   1  407.16   14.30
   0  -2   1  424.46   14.90
  -1   2  -1 3812.82  117.59
  -1   2  -1 3782.32  116.19
  -2   2  -1   85.79    5.40
  -2   2  -1   77.09    4.60
  -2   2  -1   75.09    3.90
   2  -2   1   80.19    4.60
  -3   2  -1 4058.69  127.29
  -3   2  -1 4180.88  125.59
   3  -2   1 3935.51  125.99
  -4   2  -1  419.96   18.50
  -4   2  -1  446.56   17.00
   4  -2   1  417.16   17.40
   4  -2   1  448.46   15.70
  -5   2  -1 1939.11   66.09
  -5   2  -1 1932.11   63.99
   5  -2   1 1991.90   62.39
   5  -2   1 1950.30   65.09
  -6   2  -1  139.59    9.90
  -6   2  -1  132.39   10.90
   6  -2   1  130.59    7.70
   6  -2   1  131.59   10.30
  -7   2  -1  393.66   19.30
  -7   2  -1  386.06   23.50
  -7   2  -1  387.16   21.80
   7  -2   1  391.96   20.30
  -8   2  -1  520.95   24.80
  -8   2  -1  516.55   28.90
  -8   2  -1  545.35   28.80
   8  -2   1  579.94   27.10
  -9   2  -1  119.29   16.10
  -9   2  -1  140.69   14.30
  -9   2  -1  182.38   18.40
 -10   2  -1  321.17   21.60
 -10   2  -1  344.07   25.80
 -11   2  -1    3.70    9.70
 -11   2  -1   10.80    8.40
 -12   2  -1  148.19   17.80
 -12   2  -1  138.19   21.90
 -11  -1   1   74.69   13.70
 -10  -1   1  255.17   27.10
 -10  -1   1  227.58   20.20
  -9  -1   1    4.90    8.40
  -9  -1   1   -0.50    6.10
  -8  -1   1  733.93   30.90
  -8  -1   1  730.93   36.10
  -8  -1   1  707.03   31.40
   7   1  -1   39.90   10.50
  -7  -1   1   62.89    9.20
  -7  -1   1   80.19    9.10
  -7  -1   1   70.19   11.20
   6   1  -1 1425.26   54.69
  -6  -1   1 1370.16   49.00
  -6  -1   1 1414.56   49.50
  -6  -1   1 1397.76   52.59
   5   1  -1  456.75   22.10
   5   1  -1  443.26   16.20
  -5  -1   1  460.75   19.40
  -5  -1   1  465.25   17.10
  -5  -1   1  435.76   21.10
  -5  -1   1  452.65   18.90
   4   1  -1 1237.58   42.70
  -4  -1   1 1213.68   41.30
  -4  -1   1 1184.18   43.00
  -4  -1   1 1266.67   39.90
  -4  -1   1 1161.08   40.80
   3   1  -1 1524.25   49.99
  -3  -1   1 1519.25   51.19
  -3  -1   1 1510.55   49.50
  -3  -1   1 1569.94   50.19
  -3  -1   1 1553.24   49.99
  -2  -1   1 1378.96   43.20
  -2  -1   1 1311.27   44.00
   1   1  -1 3596.54  112.99
  -1  -1   1 3616.84  113.59
  -1  -1   1 3782.02  112.49
   0  -1   1   55.39    3.10
  -1   1  -1 5462.05  167.18
  -2   1  -1   81.29    5.10
   2  -1   1   73.09    5.00
  -3   1  -1 1521.15   51.19
  -3   1  -1 1587.34   50.39
   3  -1   1 1577.74   52.69
  -4   1  -1  680.73   26.00
  -4   1  -1  685.13   24.80
   4  -1   1  653.93   27.60
  -5   1  -1  877.31   31.80
  -5   1  -1  839.82   36.00
  -5   1  -1  894.31   33.50
   5  -1   1  884.81   35.80
  -6   1  -1 1298.77   49.00
  -6   1  -1 1289.77   51.29
  -6   1  -1 1384.36   47.20
   6  -1   1 1318.27   51.29
  -7   1  -1   45.10    7.80
  -7   1  -1   42.10    8.90
  -7   1  -1   38.70    9.40
   7  -1   1   26.00    8.10
  -8   1  -1 1059.89   42.40
  -8   1  -1 1109.49   46.00
  -8   1  -1 1040.00   45.30
   8  -1   1 1084.19   46.40
  -9   1  -1   -2.10    5.00
  -9   1  -1    4.30    7.20
  -9   1  -1   -5.30    6.00
 -10   1  -1  322.07   25.00
 -10   1  -1  270.77   22.60
 -11   1  -1   79.29   17.30
 -11   1  -1   78.49   14.00
 -11   0   1    5.10    8.40
 -11   0   1    7.40   10.50
 -10   0   1  279.67   26.60
 -10   0   1  281.27   19.40
  -9   0   1  151.28   14.60
  -9   0   1  126.79   17.30
  -8   0   1  430.76   21.50
  -8   0   1  410.16   21.00
  -8   0   1  437.56   25.40
   7   0  -1  380.26   22.70
  -7   0   1  394.26   19.20
  -7   0   1  400.26   22.10
  -7   0   1  404.16   19.70
   6   0  -1  175.78   14.30
  -6   0   1  170.48   10.80
  -6   0   1  170.08   12.80
  -6   0   1  180.98   11.60
   5   0  -1  883.71   38.40
  -5   0   1  868.71   35.30
  -5   0   1 1055.69   35.50
  -5   0   1 1113.69   34.00
  -5   0   1 1037.40   37.60
   4   0  -1   47.30    7.60
  -4   0   1   58.49    5.90
  -4   0   1   41.60    6.10
  -4   0   1   44.40    4.60
   3   0  -1 5063.99  172.78
  -3   0   1 5952.00  171.58
  -3   0   1 5660.83  172.58
  -3   0   1 5564.94  171.78
  -2   0   1 1084.89   33.80
  -2   0   1  986.30   33.50
  -2   0   1 1067.79   34.50
   0   0  -1  924.31   29.90
   0   0   1  874.11   30.90
  -1   0  -1 2587.34   79.79
  -2   0  -1 1666.83   49.99
  -2   0  -1 1440.16   52.49
  -2   0  -1 1643.24   50.09
   2   0   1 1505.75   52.99
  -3   0  -1  632.74   26.80
  -3   0  -1  681.63   23.90
   3   0   1  624.54   27.40
  -4   0  -1 1913.31   63.39
  -4   0  -1 1969.50   67.49
  -4   0  -1 2013.70   64.59
   4   0   1 1851.51   68.49
  -5   0  -1   16.60    4.30
  -5   0  -1   26.20    5.70
  -5   0  -1   23.00    6.30
   5   0   1   20.30    7.10
  -6   0  -1  519.45   26.20
  -6   0  -1  521.15   22.90
  -6   0  -1  533.95   25.10
   6   0   1  521.15   28.40
  -7   0  -1  123.39   14.20
  -7   0  -1  136.59   12.90
  -7   0  -1  177.58   16.60
   7   0   1  138.09   17.00
  -8   0  -1  411.46   24.50
  -8   0  -1  381.56   23.00
  -8   0  -1  346.47   21.10
   8   0   1  382.46   26.40
  -9   0  -1  254.27   19.80
  -9   0  -1  253.07   18.60
  -9   0  -1  275.77   22.10
 -10   0  -1   38.60   10.10
 -11   0  -1  135.49   17.80
 -12   1   1   63.99   12.90
 -12   1   1   93.79   18.30
 -11   1   1   68.69   15.20
 -11   1   1  111.19   15.00
 -10   1   1   56.99   12.80
 -10   1   1   34.50    9.10
  -9   1   1  379.76   21.60
  -9   1   1  396.66   25.20
  -8   1   1   17.10    6.30
  -8   1   1    3.80    4.70
  -8   1   1   16.50    7.10
   7  -1  -1  615.44   26.10
  -7   1   1  599.04   28.30
  -7   1   1  612.54   25.70
   6  -1  -1   17.80    4.30
  -6   1   1   11.70    3.90
  -6   1   1   21.60    4.10
  -6   1   1   21.10    5.80
   5  -1  -1 2044.40   66.59
  -5   1   1 2081.79   68.99
  -5   1   1 2108.69   66.89
  -5   1   1 2014.30   67.29
  -5   1   1 1957.40   69.19
   4  -1  -1  879.81   29.50
  -4   1   1  878.01   30.00
  -4   1   1  799.22   32.70
  -4   1   1  895.81   31.80
  -3   1   1 2507.75   80.49
  -3   1   1 2549.74   79.29
  -2   1   1 4507.35  136.39
  -2   1   1 4333.77  135.49
   1  -1  -1 1399.16   43.30
   1  -1  -1 1404.36   43.70
   0  -1  -1 4797.42  147.79
   0  -1  -1 4833.22  148.39
   0   1   1 4866.11  148.39
  -1  -1  -1  438.56   16.20
  -1  -1  -1  438.06   15.50
   1   1   1  455.15   16.20
   1   1   1  454.75   14.50
  -2  -1  -1 2374.76   76.29
  -2  -1  -1 2401.96   74.79
   2   1   1 2363.16   76.19
  -3  -1  -1  861.81   30.00
  -3  -1  -1  863.81   29.80
  -3  -1  -1  810.72   31.20
   3   1   1  836.52   31.70
  -4  -1  -1 1456.45   52.39
  -4  -1  -1 1516.55   50.49
  -4  -1  -1 1494.05   51.19
   4   1   1 1498.35   53.79
  -5  -1  -1 1584.04   57.79
  -5  -1  -1 1593.54   56.99
  -5  -1  -1 1658.53   55.79
   5   1   1 1656.43   60.89
  -6  -1  -1  221.38   15.90
  -6  -1  -1  241.68   16.00
  -6  -1  -1  203.18   13.50
   6   1   1  239.08   18.70
  -7  -1  -1  793.52   37.00
  -7  -1  -1  784.82   35.40
  -7  -1  -1  797.62   34.10
   7   1   1  862.51   40.80
  -8  -1  -1   22.10    9.10
  -8  -1  -1   18.90    7.50
  -8  -1  -1    6.50    7.20
   8   1   1   11.10    9.30
  -9  -1  -1  345.57   23.30
  -9  -1  -1  389.46   23.80
 -10  -1  -1   17.60    9.70
 -11  -1  -1  186.48   21.20
  11   1   1  200.28   14.10
 -12   2   1   23.20    9.40
 -12   2   1   -8.00   10.60
 -11   2   1  267.07   26.10
 -11   2   1  225.88   19.80
 -10   2   1   12.30    8.90
 -10   2   1   15.30    7.00
  -9   2   1  454.65   27.10
  -9   2   1  474.35   23.70
  -8   2   1   55.49    8.30
  -8   2   1   33.40    8.30
  -7   2   1  394.26   21.20
  -7   2   1  372.86   17.90
   6  -2  -1  858.51   30.60
   6  -2  -1  925.11   29.70
  -6   2   1  812.12   34.80
  -6   2   1  895.31   32.30
  -6   2   1  885.01   34.90
   5  -2  -1  912.81   30.40
   5  -2  -1  899.91   29.60
  -5   2   1  921.61   33.90
  -5   2   1  908.41   31.70
  -5   2   1  831.52   34.90
   4  -2  -1 4835.02  143.49
   4  -2  -1 4836.62  144.19
  -4   2   1 4452.75  146.09
  -4   2   1 4689.03  146.59
  -4   2   1 4454.35  144.19
  -3   2   1    6.60    2.10
  -3   2   1    6.80    2.80
  -3   2   1    5.80    2.70
   2  -2  -1 3203.08   97.29
  -2   2   1 3156.18   97.59
  -2   2   1 3145.39   98.89
  -2   2   1 3204.88   97.99
  -2   2   1 3166.48   98.89
   1  -2  -1    7.80    1.70
   1  -2  -1    3.80    1.50
  -1   2   1   10.10    1.80
  -1   2   1    9.20    1.60
  -1   2   1    7.10    2.00
  -1   2   1   11.20    2.20
   0  -2  -1  617.34   21.20
   0  -2  -1  584.44   19.40
   0  -2  -1  568.44   20.10
   0   2   1  565.24   19.80
   0   2   1  621.54   20.70
   0   2   1  581.24   21.00
  -1  -2  -1 1395.56   45.80
  -1  -2  -1 1306.47   45.60
  -1  -2  -1 1421.66   45.00
   1   2   1 1410.66   47.90
   1   2   1 1475.75   45.40
   1   2   1 1432.96   44.10
  -2  -2  -1 2882.71   87.89
  -2  -2  -1 2744.23   87.89
  -2  -2  -1 2717.83   88.69
  -2  -2  -1 2767.32   86.49
   2   2   1 2781.42   86.19
   2   2   1 2818.02   88.79
  -3  -2  -1 1921.51   63.59
  -3  -2  -1 1997.70   64.39
  -3  -2  -1 1919.71   61.19
  -3  -2  -1 1911.31   64.79
   3   2   1 1956.90   60.99
   3   2   1 1990.50   65.19
  -4  -2  -1  148.79    9.50
  -4  -2  -1  142.49    6.60
  -4  -2  -1  148.69   10.70
  -4  -2  -1  142.49   10.50
   4   2   1  142.89   10.90
   4   2   1  140.79    6.40
  -5  -2  -1  854.61   34.90
  -5  -2  -1  789.12   33.90
  -5  -2  -1  869.41   33.00
   5   2   1  888.01   36.50
  -6  -2  -1   18.00    7.50
  -6  -2  -1    8.50    5.80
  -6  -2  -1   19.90    6.60
   6   2   1   13.00    7.50
  -7  -2  -1  692.73   32.20
  -7  -2  -1  689.23   31.00
   7   2   1  661.33   36.10
  -8  -2  -1  226.78   17.70
  -8  -2  -1  183.08   17.00
   8   2   1  274.67   25.90
  -9  -2  -1  211.38   19.50
  -9  -2  -1  233.28   21.40
 -10  -2  -1  164.08   18.70
  10   2   1  166.58   12.20
  11   2   1   20.80    9.60
 -12   3   1    5.60    8.00
 -12   3   1   -2.30    9.70
 -11   3   1  177.38   21.30
 -11   3   1  150.08   15.80
 -10   3   1  171.08   15.90
 -10   3   1  183.28   19.90
  -9   3   1  129.09   12.40
  -9   3   1  116.29   14.10
   8  -3  -1  438.26   19.40
  -8   3   1  421.66   20.70
  -8   3   1  475.75   25.20
   7  -3  -1   17.00    3.40
  -7   3   1   12.80    6.50
  -7   3   1   23.60    8.10
  -7   3   1   23.80    5.50
   6  -3  -1 1720.83   54.19
   6  -3  -1 1689.73   53.49
  -6   3   1 1636.94   55.39
  -6   3   1 1610.24   59.09
  -6   3   1 1603.84   58.29
   5  -3  -1   81.59    5.30
  -5   3   1   83.09    8.30
  -5   3   1  104.29    9.40
  -5   3   1   86.49    6.30
   4  -3  -1 1186.78   36.80
  -4   3   1 1089.99   39.60
  -4   3   1 1145.59   37.30
  -4   3   1 1114.49   39.20
  -4   3   1 1133.89   37.40
   3  -3  -1 2141.59   65.49
  -3   3   1 2132.89   66.09
  -3   3   1 2106.29   66.59
  -3   3   1 2093.79   67.89
  -3   3   1 2087.89   68.09
   2  -3  -1   95.29    5.40
   2  -3  -1   94.69    4.30
   2  -3  -1   94.59    6.00
  -2   3   1   91.79    5.80
  -2   3   1   97.69    5.20
  -2   3   1   81.69    5.80
   1  -3  -1 2482.55   77.99
   1  -3  -1 2431.36   76.89
  -1   3   1 2533.75   76.19
  -1   3   1 2399.66   77.69
  -1   3   1 2453.75   77.09
  -1   3   1 2381.86   75.99
   0  -3  -1   54.29    5.00
   0  -3  -1   63.89    4.30
   0   3   1   59.39    4.60
   0   3   1   55.09    3.60
   0   3   1   40.70    5.10
   0   3   1   48.70    4.50
  -1  -3  -1 4040.80  131.19
  -1  -3  -1 4252.07  129.89
  -1  -3  -1 4212.78  130.19
  -1  -3  -1 4379.66  130.49
   1   3   1 4212.58  129.79
   1   3   1 4258.47  133.69
   1   3   1 4082.49  129.69
   1   3   1 4126.69  129.99
  -2  -3  -1  252.67   10.60
  -2  -3  -1  248.68   11.40
  -2  -3  -1  257.67   12.90
  -2  -3  -1  260.97   12.50
   2   3   1  240.18    9.40
   2   3   1  246.78   15.30
   2   3   1  256.97   10.40
   2   3   1  258.87   12.40
  -3  -3  -1 1333.37   49.00
  -3  -3  -1 1330.57   48.30
  -3  -3  -1 1412.86   47.30
  -3  -3  -1 1388.66   45.20
   3   3   1 1395.86   44.90
   3   3   1 1404.16   52.99
   3   3   1 1387.46   43.70
   3   3   1 1445.56   48.90
  -4  -3  -1  330.77   16.20
  -4  -3  -1  354.86   17.70
  -4  -3  -1  292.77   17.70
   4   3   1  363.46   18.30
   4   3   1  316.67   21.60
  -5  -3  -1  498.25   23.50
  -5  -3  -1  551.64   25.60
   5   3   1  529.75   30.20
   5   3   1  609.04   27.70
  -6  -3  -1  365.26   20.20
  -6  -3  -1  401.66   22.10
   6   3   1  384.16   23.60
   6   3   1  309.87   24.40
  -7  -3  -1  115.89   14.30
  -7  -3  -1  124.49   13.70
   7   3   1   98.09   15.40
  -8  -3  -1  302.47   21.90
  -8  -3  -1  315.17   21.20
   8   3   1  344.67   26.60
   8   3   1  326.17   15.30
  -9  -3  -1  -12.50    7.10
  -9  -3  -1    3.90    7.50
   9   3   1   -1.70    4.10
 -10  -3  -1   90.79   15.40
  10   3   1  106.49   11.10
  13  -4  -1   16.50   11.40
 -12   4   1  175.08   22.40
 -12   4   1  161.28   17.10
 -11   4   1    5.00    8.40
 -11   4   1    6.30    6.30
  10  -4  -1  333.47   16.70
 -10   4   1  287.97   18.30
 -10   4   1  288.67   22.70
   9  -4  -1    2.40    3.20
  -9   4   1   -0.50    4.60
  -9   4   1    4.10    7.00
   8  -4  -1  582.94   22.40
  -8   4   1  572.44   29.00
  -8   4   1  593.94   24.90
   7  -4  -1  407.16   16.30
  -7   4   1  435.56   22.80
  -7   4   1  386.66   18.00
  -7   4   1  392.46   21.20
   6  -4  -1 1084.89   36.40
  -6   4   1 1077.69   37.60
  -6   4   1 1097.49   41.00
  -6   4   1 1076.59   41.30
  -5   4   1 1464.75   50.39
  -5   4   1 1440.96   47.60
  -5   4   1 1454.45   47.70
  -5   4   1 1441.86   50.79
   4  -4  -1  129.69    6.20
  -4   4   1  138.19    7.00
  -4   4   1  149.59    9.20
  -4   4   1  123.69    7.30
  -4   4   1  167.78    9.80
   3  -4  -1 1978.40   60.79
  -3   4   1 1877.01   63.59
  -3   4   1 1989.10   64.09
  -3   4   1 1987.40   62.49
   2  -4  -1   87.79    6.10
   2  -4  -1   92.49    6.50
  -2   4   1   97.99    6.40
  -2   4   1   97.69    7.00
  -2   4   1   95.49    5.90
   1  -4  -1 2897.81   89.19
   1  -4  -1 2933.21   91.59
  -1   4   1 2867.91   90.29
  -1   4   1 2878.01   90.19
  -1   4   1 2956.00   91.69
  -1   4   1 2837.02   92.69
   0  -4  -1  616.54   20.30
   0  -4  -1  598.44   22.30
   0   4   1  579.24   20.00
   0   4   1  579.74   23.60
   0   4   1  592.54   21.50
   0   4   1  564.14   20.90
  -1  -4  -1 2829.32   86.39
  -1  -4  -1 2757.42   88.29
   1   4   1 2699.23   87.19
   1   4   1 2635.04   85.59
   1   4   1 2751.92   86.79
   1   4   1 2794.12   90.79
  -2  -4  -1 1014.90   35.40
  -2  -4  -1  978.90   36.00
  -2  -4  -1  986.80   34.30
   2   4   1  985.70   39.20
   2   4   1  986.10   34.40
   2   4   1 1000.70   36.10
   2   4   1  969.80   33.10
   2   4   1  956.90   33.40
  -3  -4  -1  282.27   15.30
  -3  -4  -1  297.37   14.30
   3   4   1  274.87   18.10
   3   4   1  257.47   11.90
   3   4   1  279.17   11.30
   3   4   1  289.77   15.60
  -4  -4  -1 1517.55   53.19
  -4  -4  -1 1510.05   54.89
   4   4   1 1515.85   48.80
   4   4   1 1450.25   59.59
   4   4   1 1583.04   55.89
  -5  -4  -1   52.39    8.20
  -5  -4  -1   54.59    9.10
   5   4   1   46.90    8.80
   5   4   1   51.69    5.00
   5   4   1   51.29   12.00
  -6  -4  -1  755.62   34.40
  -6  -4  -1  746.83   32.60
   6   4   1  770.02   26.90
   6   4   1  696.13   35.90
  -7  -4  -1   19.40    8.40
  -7  -4  -1   19.60    7.80
   7   4   1   30.90   11.10
   7   4   1   26.90    4.90
  -8  -4  -1  282.07   21.80
  -8  -4  -1  356.06   24.30
   8   4   1  351.06   16.40
   8   4   1  335.17   27.60
  -9  -4  -1   47.60   12.40
  -9  -4  -1   49.30   12.30
   9   4   1   56.19    8.10
  13  -5  -1   -2.40    6.40
 -13   5   1    1.80    7.60
  12  -5  -1  102.79   10.60
  12  -5  -1  108.39   12.10
 -12   5   1  125.09   19.50
 -12   5   1   89.19   13.20
  11  -5  -1   44.80    7.80
  11  -5  -1   51.79    7.50
 -11   5   1   44.30    9.20
 -11   5   1   52.29   13.00
  10  -5  -1  170.78   11.50
 -10   5   1  192.88   14.80
 -10   5   1  175.38   18.80
   9  -5  -1  221.78   12.10
  -9   5   1  201.68   17.40
  -9   5   1  222.38   14.40
   8  -5  -1  104.49    8.10
  -8   5   1   93.49   12.20
  -8   5   1  128.59   14.90
  -8   5   1  127.39   10.50
   7  -5  -1  619.94   23.20
  -7   5   1  665.23   29.60
  -7   5   1  661.83   29.50
  -7   5   1  623.44   24.80
   6  -5  -1  106.79    6.50
  -6   5   1   99.69   10.40
  -6   5   1  106.89    7.50
  -6   5   1  111.29   10.90
   5  -5  -1 1277.77   41.70
  -5   5   1 1304.87   43.70
  -5   5   1 1295.87   46.60
  -5   5   1 1331.07   42.80
  -5   5   1 1269.57   46.00
   4  -5  -1  286.97   10.80
  -4   5   1  293.57   14.50
  -4   5   1  295.87   12.60
  -4   5   1  279.67   14.20
   3  -5  -1 1038.00   34.40
  -3   5   1 1099.09   37.40
  -3   5   1 1101.19   36.20
  -3   5   1 1053.19   37.90
   2  -5  -1  409.76   16.90
  -2   5   1  395.86   16.00
  -2   5   1  431.76   15.90
  -2   5   1  399.96   17.10
   1  -5  -1  977.30   34.40
   1  -5  -1  975.90   31.00
  -1   5   1  929.11   34.00
  -1   5   1  977.30   32.40
  -1   5   1  967.40   32.70
  -1   5   1  990.60   35.80
   0  -5  -1 1188.88   37.30
   0  -5  -1 1121.29   40.00
   0   5   1 1148.89   42.00
   0   5   1 1124.49   37.20
   0   5   1 1120.99   39.20
   0   5   1 1149.29   38.30
  -1  -5  -1  256.37   11.40
  -1  -5  -1  241.08   13.30
   1   5   1  264.17   15.60
   1   5   1  247.28   12.30
   1   5   1  236.38   11.70
  -2  -5  -1 1066.79   36.00
  -2  -5  -1  999.90   38.00
   2   5   1 1034.00   41.50
   2   5   1 1022.10   38.30
   2   5   1  992.10   35.50
   2   5   1  996.20   36.30
  -3  -5  -1  212.98   14.30
  -3  -5  -1  181.78   11.80
   3   5   1  194.88   18.00
   3   5   1  190.78   13.60
   3   5   1  184.58   10.40
   3   5   1  202.98   10.90
  -4  -5  -1  969.20   39.00
  -4  -5  -1  931.61   36.50
   4   5   1  961.10   43.70
   4   5   1  975.70   39.70
   4   5   1  950.10   33.30
  -5  -5  -1  121.09   12.20
  -5  -5  -1  123.39   13.60
   5   5   1  121.69    8.40
   5   5   1  104.19   13.70
  -6  -5  -1  395.66   24.10
  -6  -5  -1  378.46   21.80
   6   5   1  399.26   25.90
   6   5   1  382.86   17.10
  -7  -5  -1  225.68   21.00
  -7  -5  -1  197.28   18.20
   7   5   1  205.38   22.80
   7   5   1  210.18   12.60
  -8  -5  -1   66.19   12.80
  -8  -5  -1   77.49   13.60
   8   5   1   52.19   14.30
   8   5   1   75.39    9.00
  -9  -5  -1   96.59   15.70
   9   5   1  123.39   12.00
 -12   6   1   53.89   13.90
 -11   6   1  132.59   18.80
 -10   6   1   39.40   10.60
  -9   6   1  382.46   24.50
  -8   6   1   38.40    9.70
  -8   6   1   41.90    9.30
  -7   6   1  664.23   30.20
  -7   6   1  639.54   29.50
  -6   6   1  579.84   25.90
  -6   6   1  552.54   25.50
  -5   6   1  278.77   15.40
  -5   6   1  257.57   14.90
  -4   6   1  885.11   33.20
  -4   6   1  863.71   30.70
  -4   6   1  827.52   32.10
  -3   6   1  143.09    8.40
  -3   6   1  132.09    9.60
  -3   6   1  141.59    9.10
   2  -6  -1 1335.07   45.80
  -2   6   1 1313.17   44.20
  -2   6   1 1275.07   45.80
  -2   6   1 1334.77   44.00
   1  -6  -1  143.39   10.10
  -1   6   1  133.39    7.70
  -1   6   1  124.59    7.70
  -1   6   1  156.28    9.50
  -1   6   1  134.89   10.60
   0  -6  -1 1018.00   37.80
   0   6   1 1021.30   39.90
   0   6   1 1043.50   35.60
   0   6   1 1024.70   37.00
  -1  -6  -1  386.46   18.60
   1   6   1  368.96   20.50
   1   6   1  381.56   16.70
   1   6   1  364.16   16.90
  -2  -6  -1  687.93   29.60
   2   6   1  706.43   27.80
   2   6   1  691.23   27.20
   2   6   1  706.73   33.00
   2   6   1  727.33   29.90
  -3  -6  -1  727.13   31.50
   3   6   1  733.23   31.90
   3   6   1  661.53   34.20
   3   6   1  759.12   28.90
   3   6   1  695.63   27.60
  -4  -6  -1  211.48   16.10
   4   6   1  205.58   16.60
   4   6   1  209.18   13.20
  -5  -6  -1  428.56   24.90
   5   6   1  450.75   20.10
   5   6   1  431.96   26.80
  -6  -6  -1    5.70    6.80
   6   6   1    7.90    9.20
   6   6   1   -2.70    4.00
  -7  -6  -1  308.47   24.10
   7   6   1  297.17   29.10
   7   6   1  302.47   17.00
   8   6   1   34.60   13.60
   8   6   1   16.50    6.80
 -12   7   1   -4.60   10.20
 -11   7   1  162.68   20.40
 -10   7   1  119.29   17.00
  -9   7   1  107.49   14.10
  -8   7   1  441.06   25.00
  -8   7   1  431.56   24.80
  -7   7   1  122.89   13.70
  -7   7   1  117.59   13.20
  -6   7   1  966.50   39.60
  -6   7   1 1050.29   40.50
  -5   7   1   13.10    5.10
  -5   7   1    8.20    3.80
  -5   7   1   10.60    5.10
  -4   7   1 1009.50   37.10
  -4   7   1  969.20   38.00
  -4   7   1 1008.50   35.70
  -3   7   1  106.89    8.60
  -3   7   1  119.29    8.30
  -3   7   1  117.99   10.70
   2  -7  -1  840.42   33.30
  -2   7   1  907.61   33.90
  -2   7   1  870.91   31.40
   1  -7  -1  347.27   17.20
  -1   7   1  307.07   14.40
  -1   7   1  306.37   17.80
  -1   7   1  321.07   16.40
   0  -7  -1  644.64   28.30
   0   7   1  687.53   30.40
   0   7   1  685.73   25.60
   0   7   1  685.23   27.50
  -1  -7  -1  733.83   31.60
   1   7   1  742.13   34.10
   1   7   1  747.43   28.50
   1   7   1  781.92   30.20
  -2  -7  -1   48.00    9.00
   2   7   1   24.60    5.80
   2   7   1   35.60    7.50
   2   7   1   46.20    6.90
  -3  -7  -1  662.73   30.30
   3   7   1  627.14   27.10
   3   7   1  619.04   30.40
  -4  -7  -1   29.00    8.30
   4   7   1   16.20    8.20
   4   7   1   38.20    7.30
  -5  -7  -1  289.07   21.30
   5   7   1  292.87   17.40
   5   7   1  292.07   23.00
  -6  -7  -1   83.49   14.00
   6   7   1   69.69   15.00
   6   7   1   84.19   10.20
   7   7   1   90.39   11.00
   7   7   1  108.49   19.50
 -12   8   1   26.70   12.80
 -11   8   1    2.30   10.60
 -10   8   1  145.89   18.30
  -9   8   1    2.80    7.90
  -9   8   1    0.40    6.90
  -8   8   1  244.88   18.50
  -8   8   1  249.08   19.60
  -7   8   1   76.69   11.90
  -7   8   1   83.19   11.60
  -6   8   1  329.97   19.50
  -6   8   1  358.86   20.60
  -5   8   1  251.57   16.40
  -5   8   1  264.97   15.50
  -5   8   1  232.18   13.40
  -4   8   1  212.78   14.90
  -4   8   1  235.88   13.70
  -4   8   1  205.18   12.30
  -3   8   1  672.73   25.80
  -3   8   1  638.04   28.50
   2  -8  -1  151.98   13.40
  -2   8   1  140.59   11.40
  -2   8   1  131.39    9.40
   1  -8  -1  903.51   36.00
  -1   8   1  886.31   35.30
  -1   8   1  872.11   32.50
   0  -8  -1    2.10    4.80
   0   8   1    3.80    3.20
   0   8   1    6.10    4.70
  -1  -8  -1  629.14   29.40
   1   8   1  614.64   25.50
   1   8   1  645.24   27.50
  -2  -8  -1  105.09   13.10
   2   8   1  104.09   10.00
   2   8   1  121.49   12.00
   2   8   1  109.79   13.10
  -3  -8  -1  241.38   18.70
   3   8   1  247.58   18.90
   3   8   1  234.28   15.10
  -4  -8  -1  189.08   19.50
   4   8   1  210.78   15.20
   4   8   1  241.08   22.40
  -5  -8  -1   28.00   10.50
   5   8   1   23.90   10.80
   5   8   1   28.90    7.40
   6   8   1  130.49   13.30
   6   8   1  120.59   19.60
 -11   9   1    9.30   10.10
 -10   9   1  100.09   16.20
  -9   9   1   77.69   14.30
  -9   9   1   67.69   12.60
  -8   9   1  133.49   15.80
  -8   9   1  191.58   19.90
  -7   9   1  193.98   16.40
  -7   9   1  205.98   19.40
  -6   9   1   50.49   10.10
  -6   9   1   55.29    9.40
  -5   9   1  404.76   22.70
  -5   9   1  403.66   19.30
  -4   9   1   87.19    9.20
  -4   9   1   90.69   11.70
  -3   9   1  608.94   28.30
  -3   9   1  595.74   24.80
   2  -9  -1  163.18   13.50
  -2   9   1  169.88   13.90
  -2   9   1  146.39   10.70
   1  -9  -1  404.26   22.20
  -1   9   1  400.66   18.70
  -1   9   1  409.56   21.80
   0  -9  -1  446.36   24.40
   0   9   1  434.86   20.10
   0   9   1  445.56   22.80
  -1  -9  -1  120.49   14.30
   1   9   1  143.29   15.00
   1   9   1  121.69   10.90
   1   9   1  136.59   13.60
  -2  -9  -1  499.25   29.20
   2   9   1  560.54   24.50
   2   9   1  556.44   29.70
   2   9   1  555.54   26.30
  -3  -9  -1    7.60    8.00
   3   9   1    4.60    5.40
   3   9   1    4.50    7.30
   4   9   1  294.37   23.90
   4   9   1  266.97   17.20
   5   9   1    7.30    9.60
   5   9   1    4.70    6.10
 -11  10   1   81.49   16.50
 -10  10   1   41.20   12.00
  -9  10   1   92.09   16.10
  -9  10   1   76.19   13.50
  -8  10   1    2.70    7.00
  -8  10   1    8.60    8.80
  -7  10   1  221.78   21.30
  -6  10   1   32.10    9.60
  -5  10   1  174.88   17.60
  -5  10   1  190.18   13.30
  -4  10   1  194.18   17.90
  -4  10   1  196.08   13.30
  -3  10   1  155.08   15.40
  -3  10   1  132.89   11.70
   2 -10  -1  228.88   17.80
  -2  10   1  205.08   16.50
  -2  10   1  245.28   14.30
   1 -10  -1    3.00    6.40
  -1  10   1   -2.00    5.70
  -1  10   1    0.80    4.10
   0 -10  -1  385.66   24.10
   0  10   1  449.46   23.90
   0  10   1  388.46   19.60
  -1 -10  -1    4.30    7.60
   1  10   1   17.40    5.80
   1  10   1   22.90    9.10
   1  10   1   17.10    7.70
  -2 -10  -1  299.27   23.90
   2  10   1  331.27   24.20
   2  10   1  286.57   17.10
   3  10   1   57.59   13.40
   3  10   1   62.59    9.40
 -10  11   1    0.10   12.90
 -10  11   1    9.00   12.00
  -9  11   1   65.09   15.90
  -8  11   1   64.59   14.20
  -7  11   1   56.49   13.50
  -6  11   1  161.68   18.30
  -5  11   1   -2.20    4.70
  -5  11   1   -3.00    6.30
  -4  11   1  278.07   20.60
  -4  11   1  264.97   16.50
  -3  11   1    4.00    7.20
  -3  11   1   -1.30    4.70
  -2  11   1  212.48   14.30
  -2  11   1  180.88   18.40
   1 -11  -1   74.49   12.90
  -1  11   1   61.29   11.50
  -1  11   1   81.09    9.80
   0 -11  -1  144.19   18.20
   0  11   1  143.49   17.00
   0  11   1  149.59   13.30
   0  11   1  143.79   16.30
   1  11   1  137.29   17.60
   1  11   1  175.58   17.60
   1  11   1  144.89   13.40
   2  11   1   15.40   13.90
 -10  12   1   45.90   16.20
  -9  12   1   24.00   13.20
  -8  12   1  109.79   18.50
  -7  12   1   11.60   10.60
  -6  12   1  207.28   21.80
  -5  12   1   21.40    7.60
  -5  12   1   13.80    9.70
  -4  12   1  115.49   12.30
  -4  12   1  116.39   16.20
  -3  12   1   44.50    8.10
  -3  12   1   53.69   10.90
  -2  12   1   18.00    6.60
  -2  12   1   34.10   10.50
  -1  12   1  186.68   15.80
  -1  12   1  183.58   20.00
  -1  12   1  196.48   20.20
   0  12   1   10.20    8.40
  -8  13   1   54.19   22.10
  -7  13   1   60.59   14.70
  -6  13   1   30.70   12.70
  -5  13   1  112.59   17.50
  -4  13   1    0.20    9.10
  -4  13   1    8.10    8.30
  -3  13   1  154.88   19.20
  -2  13   1   18.10   11.20
   0  13  -2    2.20   10.20
  -1  13  -2  107.39   16.00
  -2  13  -2   24.10   10.10
  -2  13  -2    7.30    7.70
  -3  13  -2   86.09   14.70
  -3  13  -2   84.89   10.70
  -4  13  -2   63.79   10.20
  -4  13  -2   59.39   12.80
  -5  13  -2   32.40   11.10
  -5  13  -2   32.10    7.80
  -6  13  -2   93.29   15.80
  -7  13  -2    1.20    9.10
  -8  13  -2  114.99   18.50
  -9  13  -2    8.10   12.50
   1  12  -2  156.18   17.60
   1  12  -2  134.89   14.80
   0  12  -2   56.99   11.90
   0  12  -2   60.39    8.80
  -1  12  -2   56.09   11.90
  -1  12  -2   75.89    9.50
  -2  12  -2  224.58   14.80
  -2  12  -2  208.38   20.30
  -3  12  -2    5.70    8.00
  -3  12  -2   22.80    6.50
  -4  12  -2  175.08   14.80
  -4  12  -2  144.59   17.80
  -5  12  -2   12.60    8.70
  -5  12  -2    4.80    5.20
  -6  12  -2  114.49   16.70
  -7  12  -2   30.00   11.00
  -8  12  -2   87.69   16.20
  -9  12  -2   81.69   17.40
  -9  12  -2   73.49   14.90
   3  11  -2   65.49   14.50
   3  11  -2   76.09    8.50
   2  11  -2  110.89   10.00
   2  11  -2  112.29   16.20
   2  11  -2  128.39   14.80
   1  11  -2   37.80    6.40
   1  11  -2   47.50   10.30
  -1 -11   2   28.90    9.40
   0  11  -2  234.58   18.10
   0  11  -2  227.08   13.70
  -1  11  -2   -7.10    3.50
  -1  11  -2   -2.30    5.90
  -2  11  -2  355.76   22.50
  -2  11  -2  371.46   18.40
  -3  11  -2   19.40    5.50
  -3  11  -2    9.20    7.50
  -4  11  -2  101.49   10.70
  -4  11  -2  145.89   16.20
  -5  11  -2   56.29    8.80
  -5  11  -2   58.09   11.60
  -6  11  -2   90.19   17.60
  -6  11  -2  104.99   14.90
  -7  11  -2  139.09   17.30
  -7  11  -2  183.78   19.70
  -8  11  -2    1.70    8.30
  -8  11  -2    9.10    9.00
  -9  11  -2   76.09   15.00
 -10  11  -2   -6.20    9.60
   4  10  -2  195.88   12.00
   4  10  -2  243.38   23.80
   3  10  -2    9.20    8.40
   3  10  -2    3.90    3.80
  -3 -10   2    9.00    7.70
   2  10  -2  414.46   17.90
   2  10  -2  367.46   21.80
  -2 -10   2  391.46   24.10
   1  10  -2   23.90    7.40
   1  10  -2   21.90    4.80
  -1 -10   2   23.80    8.00
   0  10  -2  417.46   18.20
   0  10  -2  400.56   22.20
   0 -10   2  382.76   22.50
  -1  10  -2  132.59   14.10
  -1  10  -2  134.79   10.00
  -2  10  -2  264.97   14.50
  -2  10  -2  294.47   18.60
  -3  10  -2  213.58   12.90
  -3  10  -2  192.48   15.60
  -4  10  -2   24.00    5.60
  -4  10  -2   36.40   12.80
  -4  10  -2   30.60    7.90
  -5  10  -2  347.37   21.50
  -5  10  -2  344.77   21.30
  -5  10  -2  353.86   17.90
  -6  10  -2   14.20    7.40
  -6  10  -2   22.10    8.40
  -6  10  -2    2.40    4.40
  -7  10  -2  283.77   21.20
  -7  10  -2  264.67   20.10
  -8  10  -2   89.19   14.70
  -8  10  -2   89.69   13.90
  -9  10  -2   85.69   15.20
 -10  10  -2   81.79   17.30
   6   9  -2  186.28   11.50
   6   9  -2  208.78   23.40
   5   9  -2   13.90    9.80
   5   9  -2   26.90    5.10
  -5  -9   2   18.80    9.00
   4   9  -2  258.87   21.10
   4   9  -2  244.48   12.70
  -4  -9   2  262.47   19.50
   3   9  -2  162.48    9.70
   3   9  -2  197.58   14.00
   3   9  -2  132.69   15.60
  -3  -9   2  178.78   16.70
   2   9  -2  257.27   12.20
   2   9  -2  242.58   15.90
  -2  -9   2  233.48   17.50
   1   9  -2  391.06   16.70
   1   9  -2  396.76   20.90
  -1  -9   2  405.16   22.20
   0   9  -2  219.48   15.00
   0   9  -2  235.98   11.80
   0  -9   2  216.88   15.80
  -1   9  -2  810.62   33.30
  -1   9  -2  779.02   29.10
  -2   9  -2    6.20    3.60
  -3   9  -2  477.05   22.70
  -3   9  -2  445.86   19.70
  -3   9  -2  455.05   23.00
  -4   9  -2   70.29    7.70
  -4   9  -2   59.49    9.40
  -4   9  -2   64.69    9.20
  -5   9  -2  476.05   24.80
  -5   9  -2  459.85   20.30
  -5   9  -2  415.26   22.60
  -6   9  -2  184.28   17.50
  -6   9  -2  169.78   16.10
  -6   9  -2  152.78   11.60
  -7   9  -2  185.88   16.90
  -7   9  -2  135.09   15.80
  -8   9  -2  163.58   17.00
  -8   9  -2  171.48   19.00
  -9   9  -2   -7.50    7.30
 -10   9  -2   59.19   14.20
 -11   9  -2   22.00   12.70
   7   8  -2   32.20    6.60
   6   8  -2  111.79    9.80
   6   8  -2  114.69   17.00
  -6  -8   2  127.09   15.40
   5   8  -2  226.18   12.60
   5   8  -2  250.67   20.30
  -5  -8   2  271.27   19.40
   4   8  -2   56.89   11.00
   4   8  -2   78.49    6.90
  -4  -8   2   72.89   11.00
   3   8  -2  448.16   17.30
   3   8  -2  424.06   21.10
  -3  -8   2  430.76   21.90
  -3  -8   2  443.36   23.40
   2   8  -2    2.80    4.20
   2   8  -2    1.90    2.30
  -2  -8   2   -4.70    4.00
  -2  -8   2   -4.60    4.60
   1   8  -2  636.24   26.70
   1   8  -2  580.24   28.00
   1   8  -2  624.04   22.60
  -1  -8   2  623.34   27.40
  -1  -8   2  608.74   27.40
   0   8  -2  310.87   16.50
   0   8  -2  283.57   12.70
   0  -8   2  287.37   16.40
   0  -8   2  269.47   16.20
  -1   8  -2  534.15   20.60
  -1   8  -2  558.94   24.30
  -1   8  -2  541.45   23.50
   1  -8   2  545.85   24.90
   1  -8   2  512.65   23.80
  -2   8  -2  594.24   26.00
  -2   8  -2  608.44   25.90
  -2   8  -2  611.44   23.20
  -3   8  -2  406.86   20.20
  -3   8  -2  396.66   17.40
  -3   8  -2  411.96   20.20
  -4   8  -2  917.91   33.00
  -4   8  -2  889.21   36.20
  -4   8  -2  884.81   35.60
  -5   8  -2   74.69    7.70
  -5   8  -2   99.59   10.70
  -5   8  -2   88.19   11.10
  -6   8  -2  539.45   27.40
  -6   8  -2  530.65   23.90
  -6   8  -2  542.85   25.60
  -7   8  -2    7.20    7.10
  -7   8  -2    6.20    6.00
  -8   8  -2  279.37   20.70
  -9   8  -2   51.89   12.50
 -10   8  -2   46.20   13.20
 -11   8  -2   80.39   16.90
   8   7  -2   48.50    7.10
   7   7  -2  281.17   14.50
   7   7  -2  318.97   26.90
  -7  -7   2  314.57   21.50
   6   7  -2    6.50    4.00
   6   7  -2   12.10    8.20
  -6  -7   2   -4.40    5.60
   5   7  -2  470.25   19.30
   5   7  -2  494.95   26.60
  -5  -7   2  472.85   24.70
   4   7  -2   46.60    7.20
   4   7  -2   50.69    5.90
   4   7  -2   45.00    9.50
  -4  -7   2   45.30    7.60
  -4  -7   2   49.10    8.60
   3   7  -2  432.76   17.10
   3   7  -2  448.36   20.40
   3   7  -2  431.76   23.70
  -3  -7   2  472.25   22.40
  -3  -7   2  482.75   21.80
   2   7  -2  376.06   20.70
   2   7  -2  389.16   15.00
   2   7  -2  403.76   18.70
  -2  -7   2  406.26   20.00
  -2  -7   2  430.36   20.00
   1   7  -2  506.75   21.60
   1   7  -2  478.55   22.90
   1   7  -2  477.75   23.70
   1   7  -2  490.15   17.80
  -1  -7   2  527.05   22.50
  -1  -7   2  447.16   21.90
   0   7  -2  872.71   34.10
   0   7  -2  889.51   35.10
   0   7  -2  866.21   30.40
   0   7  -2  940.81   34.20
   0  -7   2  932.91   35.20
   0  -7   2  897.81   34.20
  -1   7  -2  313.57   16.10
  -1   7  -2  296.17   12.80
  -1   7  -2  311.07   15.60
   1  -7   2  297.47   15.90
   1  -7   2  305.17   15.60
  -2   7  -2 1309.67   46.50
  -2   7  -2 1309.57   43.70
  -2   7  -2 1299.17   46.80
   2  -7   2 1316.07   47.20
  -3   7  -2   33.70    4.70
  -3   7  -2   36.00    6.70
  -3   7  -2   27.30    5.70
  -4   7  -2 1110.59   38.90
  -4   7  -2 1110.69   41.00
  -4   7  -2 1140.49   42.60
  -5   7  -2  135.59    9.10
  -5   7  -2  144.39   11.20
  -5   7  -2  139.89   13.40
  -6   7  -2  751.42   33.90
  -6   7  -2  776.42   31.60
  -7   7  -2  506.15   27.50
  -7   7  -2  531.45   24.70
  -8   7  -2   91.69   13.80
  -9   7  -2  266.17   22.30
 -10   7  -2   12.00    9.80
 -11   7  -2  194.38   23.40
 -12   7  -2    3.60   12.20
   9   6  -2  128.09   10.30
   8   6  -2   18.30    4.40
   7   6  -2  312.67   12.90
   7   6  -2  303.67   24.00
  -7  -6   2  333.37   20.40
   6   6  -2  185.08   18.10
   6   6  -2  156.68    7.40
  -6  -6   2  180.58   14.30
   5   6  -2  246.98   17.10
  -5  -6   2  222.58   15.80
  -5  -6   2  244.78   15.80
   4   6  -2  434.36   19.40
   4   6  -2  437.06   22.30
   4   6  -2  459.85   24.20
  -4  -6   2  462.45   21.90
  -4  -6   2  428.36   21.50
  -4  -6   2  457.95   20.70
   3   6  -2  128.89   12.60
   3   6  -2  107.89    9.40
  -3  -6   2  103.89    9.80
  -3  -6   2  100.59   10.00
   2   6  -2  995.00   36.70
   2   6  -2 1005.70   40.00
   2   6  -2  994.30   33.20
   2   6  -2 1034.60   39.40
  -2  -6   2 1026.70   37.80
  -2  -6   2 1047.20   42.40
  -2  -6   2 1053.59   38.00
   1   6  -2    8.20    3.80
   1   6  -2    8.10    4.10
   1   6  -2    5.90    2.00
   1   6  -2   17.80    5.40
  -1  -6   2    6.00    3.60
  -1  -6   2    5.60    3.70
   0   6  -2 1589.14   49.50
   0   6  -2 1509.55   53.49
   0   6  -2 1487.15   53.49
   0   6  -2 1541.15   52.59
   0  -6   2 1577.64   52.89
   0  -6   2 1578.34   53.69
  -1   6  -2   63.39    5.10
  -1   6  -2   68.39    7.60
  -1   6  -2   73.19    7.30
   1  -6   2   56.29    7.10
   1  -6   2   59.29    6.50
  -2   6  -2 1308.67   45.20
  -2   6  -2 1216.58   41.80
  -2   6  -2 1287.57   44.10
   2  -6   2 1270.57   44.80
  -3   6  -2  885.51   30.50
  -3   6  -2  858.31   32.10
  -3   6  -2  883.81   33.70
  -4   6  -2  419.86   19.70
  -4   6  -2  374.16   17.40
  -4   6  -2  383.36   16.10
  -5   6  -2  775.12   33.00
  -5   6  -2  801.22   30.50
  -6   6  -2   -2.00    3.90
  -6   6  -2   11.20    5.80
  -7   6  -2  559.64   25.00
  -7   6  -2  547.65   28.00
  -8   6  -2   11.30    7.60
   8  -6   2   11.20    3.80
  -9   6  -2  372.76   27.60
  -9   6  -2  414.36   26.00
   9  -6   2  383.76   18.40
 -10   6  -2   66.69   13.60
  10  -6   2   83.79    9.40
 -11   6  -2   41.10   14.30
  11  -6   2   74.49    9.40
 -12   6  -2   15.00   12.60
  12  -6   2   17.20    7.30
  13  -6   2   11.90    7.00
   9   5  -2   95.79    8.30
  -9  -5   2   97.59   14.30
  -8  -5   2  302.27   20.30
   7   5  -2   83.49   13.60
  -7  -5   2   84.79   10.90
  -7  -5   2   54.09    9.70
   6   5  -2  492.65   26.10
  -6  -5   2  520.05   24.30
  -6  -5   2  522.05   24.40
   5   5  -2    4.50    5.50
   5   5  -2    7.10    4.90
  -5  -5   2    3.10    4.10
  -5  -5   2    8.30    4.70
   4   5  -2  840.62   39.30
   4   5  -2  931.01   33.50
   4   5  -2  918.01   36.10
   4   5  -2  928.01   38.10
  -4  -5   2  927.91   34.50
  -4  -5   2  887.81   42.80
  -4  -5   2  996.20   35.80
  -4  -5   2  976.20   34.80
   3   5  -2  226.78   11.70
   3   5  -2  225.48   14.20
   3   5  -2  218.38   17.00
  -3  -5   2  252.97   13.00
  -3  -5   2  224.68   12.60
  -3  -5   2  236.08   18.90
  -3  -5   2  238.18   12.00
   2   5  -2 1460.75   51.99
   2   5  -2 1508.65   49.80
   2   5  -2 1380.66   53.79
  -2  -5   2 1543.85   48.80
  -2  -5   2 1458.85   56.69
  -2  -5   2 1511.75   50.49
  -2  -5   2 1474.35   50.79
   1   5  -2  926.31   33.60
   1   5  -2  908.81   35.10
   1   5  -2  864.81   28.80
   1   5  -2  859.81   31.90
  -1  -5   2  936.61   33.20
  -1  -5   2  969.90   37.10
  -1  -5   2  903.51   32.50
  -1  -5   2  899.91   30.00
   0   5  -2  919.61   32.00
   0   5  -2  875.71   28.50
   0   5  -2  912.01   32.90
   0   5  -2  920.51   33.90
   0   5  -2  914.71   29.40
   0  -5   2  902.91   32.00
   0  -5   2  873.21   28.80
   0  -5   2  955.80   33.20
  -1   5  -2 2569.44   79.89
  -1   5  -2 2546.35   83.39
  -1   5  -2 2618.74   82.19
   1  -5   2 2502.65   82.79
  -2   5  -2  107.39    8.50
  -2   5  -2  100.39    7.20
  -2   5  -2  113.89    6.30
   2  -5   2  115.39    7.80
  -3   5  -2 2726.83   87.09
  -3   5  -2 2659.03   83.69
  -3   5  -2 2704.83   85.89
  -3   5  -2 2802.72   89.29
   3  -5   2 2736.73   87.79
  -4   5  -2  118.39    7.90
  -4   5  -2  108.89    9.50
  -4   5  -2  101.29    6.80
  -4   5  -2  116.99    6.10
  -5   5  -2 1568.04   52.19
  -5   5  -2 1540.25   50.39
  -5   5  -2 1525.45   50.99
   5  -5   2 1517.95   49.90
  -6   5  -2  305.67   18.70
  -6   5  -2  314.47   14.50
  -6   5  -2  337.17   15.70
   6  -5   2  295.47   13.40
  -7   5  -2  594.34   28.60
  -7   5  -2  565.84   23.80
   7  -5   2  582.04   22.40
  -8   5  -2  313.47   17.20
  -8   5  -2  341.77   21.60
   8  -5   2  350.96   15.90
   8  -5   2  329.97   17.80
  -9   5  -2   82.69   14.20
  -9   5  -2   77.69   10.20
   9  -5   2   75.19    8.00
 -10   5  -2  263.77   25.40
 -10   5  -2  208.48   16.70
  10  -5   2  222.48   14.40
 -11   5  -2   17.50    8.70
 -11   5  -2   22.10   12.50
  11  -5   2   25.50    7.00
 -12   5  -2  134.99   22.20
 -12   5  -2  159.18   17.50
  12  -5   2  137.39   13.80
  13  -5   2   14.20    7.90
 -10  -4   2  145.49   17.50
  -9  -4   2    6.80    7.70
  -8  -4   2  293.77   19.50
   7   4  -2   32.10    9.60
  -7  -4   2   42.30    7.90
  -7  -4   2   29.90    6.70
   6   4  -2  657.33   29.80
   6   4  -2  684.53   32.00
  -6  -4   2  625.64   27.60
  -6  -4   2  624.34   26.90
  -6  -4   2  587.84   34.50
   5   4  -2  653.13   30.50
   5   4  -2  660.73   28.30
   5   4  -2  669.93   24.90
  -5  -4   2  660.53   34.40
  -5  -4   2  693.33   27.30
  -5  -4   2  669.13   27.40
  -5  -4   2  672.43   26.00
   4   4  -2  579.24   21.70
   4   4  -2  561.44   25.80
   4   4  -2  592.24   24.00
  -4  -4   2  563.64   23.10
  -4  -4   2  553.64   29.20
  -4  -4   2  584.24   23.20
  -4  -4   2  562.24   22.60
   3   4  -2 1250.17   44.70
  -3  -4   2 1228.48   42.00
  -3  -4   2 1118.39   48.40
  -3  -4   2 1278.77   42.80
  -3  -4   2 1264.17   42.60
   2   4  -2  590.44   23.10
   2   4  -2  596.84   21.40
   2   4  -2  531.75   25.60
  -2  -4   2  509.55   27.10
  -2  -4   2  597.44   21.90
  -2  -4   2  580.54   22.30
  -2  -4   2  577.74   20.80
   1   4  -2 3061.79   94.49
   1   4  -2 2829.02   96.79
   1   4  -2 2942.11   93.19
  -1  -4   2 2949.10   94.19
  -1  -4   2 2962.70   91.69
  -1  -4   2 2921.61   98.89
  -1  -4   2 2996.40   93.49
   0   4  -2   10.40    3.10
   0   4  -2    7.80    4.60
   0   4  -2   13.40    3.40
   0   4  -2    7.50    1.70
   0   4  -2   12.20    1.60
   0  -4   2   11.20    3.00
   0  -4   2   11.80    1.90
   0  -4   2   12.50    3.40
  -1   4  -2 3835.22  121.79
  -1   4  -2 3906.81  123.59
  -1   4  -2 4032.80  120.39
   1  -4   2 3851.61  122.59
  -2   4  -2  960.70   31.40
  -2   4  -2  935.61   32.40
  -2   4  -2  960.70   34.20
   2  -4   2  956.50   33.00
  -3   4  -2 1483.95   49.20
  -3   4  -2 1548.65   49.99
  -3   4  -2 1525.75   48.40
  -3   4  -2 1511.85   52.09
   3  -4   2 1575.64   50.49
  -4   4  -2  534.35   19.40
  -4   4  -2  557.24   19.90
  -4   4  -2  527.85   20.00
  -4   4  -2  532.15   22.70
   4  -4   2  529.75   18.90
  -5   4  -2  549.95   20.30
  -5   4  -2  532.75   20.30
  -5   4  -2  499.35   19.60
  -5   4  -2  524.15   23.60
   5  -4   2  509.65   19.10
   5  -4   2  509.85   21.20
  -6   4  -2 1205.58   42.30
  -6   4  -2 1192.78   42.20
  -6   4  -2 1261.67   46.70
   6  -4   2 1178.68   40.70
   6  -4   2 1210.48   43.30
  -7   4  -2   42.60    6.70
  -7   4  -2   59.59    9.90
   7  -4   2   52.69    6.00
   7  -4   2   38.20    6.70
  -8   4  -2  852.01   35.00
  -8   4  -2  849.12   39.30
   8  -4   2  914.61   33.00
   8  -4   2  922.01   36.00
  -9   4  -2   45.20   11.30
  -9   4  -2   42.80    8.20
   9  -4   2   48.70    6.90
 -10   4  -2  231.78   18.40
 -10   4  -2  264.17   22.40
 -10   4  -2  239.48   24.10
  10  -4   2  263.87   15.70
 -11   4  -2   36.90   10.20
 -11   4  -2   53.69   14.50
 -12   4  -2   49.10   16.20
 -12   4  -2   53.89   12.80
 -10  -3   2  179.08   18.90
  -9  -3   2   89.49   13.10
  -8  -3   2  163.88   21.20
  -8  -3   2  136.99   13.70
   7   3  -2  566.84   29.80
   7   3  -2  503.35   28.20
  -7  -3   2  497.65   30.70
  -7  -3   2  490.45   24.40
  -7  -3   2  513.25   23.30
   6   3  -2   15.10    5.60
   6   3  -2   12.10    6.20
  -6  -3   2    8.10    4.90
  -6  -3   2    3.10    7.00
  -6  -3   2   11.00    4.60
   5   3  -2  689.13   31.40
   5   3  -2  715.93   29.10
  -5  -3   2  730.93   28.40
  -5  -3   2  737.73   27.80
  -5  -3   2  725.43   33.40
  -5  -3   2  713.43   26.80
   4   3  -2   15.60    4.00
   4   3  -2   24.80    5.70
  -4  -3   2   15.30    6.00
  -4  -3   2   16.70    4.10
  -4  -3   2   23.60    4.10
  -4  -3   2   14.10    3.70
   3   3  -2 1974.40   66.39
  -3  -3   2 1973.60   68.99
  -3  -3   2 1998.10   64.29
  -3  -3   2 1986.40   64.59
  -3  -3   2 1983.20   64.19
   2   3  -2  665.83   24.60
  -2  -3   2  644.14   23.10
  -2  -3   2  667.33   23.90
  -2  -3   2  654.13   22.90
  -2  -3   2  621.04   27.40
   1   3  -2 2168.18   67.29
   1   3  -2 1887.81   69.69
  -1  -3   2 2113.89   67.99
  -1  -3   2 2123.99   67.49
  -1  -3   2 1866.91   70.99
  -1  -3   2 2174.28   65.59
  -1  -3   2 2292.37   66.59
   0   3  -2 1609.24   55.99
   0   3  -2 1765.62   54.19
   0   3  -2 1699.23   52.19
   0   3  -2 1696.53   51.99
   0  -3   2 1664.73   54.39
   0  -3   2 1672.33   52.29
   0  -3   2 1683.83   53.59
  -1   3  -2  680.03   25.00
  -1   3  -2  690.83   22.30
  -1   3  -2  683.83   23.30
   1  -3   2  679.33   23.80
  -2   3  -2 2684.93   83.19
  -2   3  -2 2677.03   82.29
  -2   3  -2 2676.23   82.79
  -2   3  -2 2618.74   85.09
   2  -3   2 2655.73   83.69
  -3   3  -2  250.57   13.10
  -3   3  -2  264.47   11.00
  -3   3  -2  276.97   11.00
  -3   3  -2  278.47   11.00
   3  -3   2  275.27   12.20
   3  -3   2  278.27   10.50
  -4   3  -2 1894.11   64.29
  -4   3  -2 1893.41   60.99
  -4   3  -2 1944.41   60.89
  -4   3  -2 1935.51   61.59
   4  -3   2 1907.21   60.69
   4  -3   2 1882.71   62.79
  -5   3  -2   29.80    4.20
  -5   3  -2   30.60    6.20
  -5   3  -2   20.50    4.20
   5  -3   2   19.00    4.50
   5  -3   2   17.20    3.20
  -6   3  -2 1072.49   38.80
  -6   3  -2 1072.19   42.00
   6  -3   2 1104.99   40.20
   6  -3   2 1065.49   37.00
  -7   3  -2  435.06   20.30
  -7   3  -2  387.36   22.60
   7  -3   2  417.16   21.00
   7  -3   2  445.06   18.30
  -8   3  -2  231.98   17.70
  -8   3  -2  208.58   15.20
   8  -3   2  214.88   12.90
   8  -3   2  248.78   16.30
  -9   3  -2  453.45   24.00
  -9   3  -2  487.85   28.90
  -9   3  -2  472.65   28.50
 -10   3  -2   39.40   10.90
 -10   3  -2   29.10    9.20
 -10   3  -2   37.10   11.80
 -11   3  -2  270.27   20.80
 -11   3  -2  228.48   25.60
 -12   3  -2   -4.20    8.60
 -12   3  -2   -3.00   11.10
 -11  -2   2  138.89   17.20
 -10  -2   2   30.90    9.80
  -9  -2   2  272.37   27.90
  -9  -2   2  263.77   18.90
  -8  -2   2    6.70    6.00
  -8  -2   2   10.10    7.60
   7   2  -2  951.50   54.19
  -7  -2   2  885.81   40.40
  -7  -2   2  879.61   33.60
  -7  -2   2  846.12   35.00
   6   2  -2  253.87   16.50
  -6  -2   2  251.07   17.40
  -6  -2   2  226.98   13.60
  -6  -2   2  239.78   13.00
   5   2  -2 1059.59   38.20
  -5  -2   2 1016.20   35.90
  -5  -2   2 1049.20   37.30
  -5  -2   2  955.20   40.00
  -5  -2   2 1042.40   35.80
   4   2  -2  716.93   26.20
  -4  -2   2  704.53   25.40
  -4  -2   2  686.23   26.10
  -4  -2   2  730.13   25.80
  -4  -2   2  718.33   29.20
   3   2  -2 1664.93   54.49
  -3  -2   2 1602.04   51.59
  -3  -2   2 1600.14   52.39
  -3  -2   2 1531.95   54.79
  -3  -2   2 1599.44   52.29
   2   2  -2 2702.03   86.79
  -2  -2   2 2701.63   85.49
  -2  -2   2 2791.12   85.89
  -2  -2   2 2770.92   86.69
  -2  -2   2 2766.82   88.99
   1   2  -2  135.09    6.50
   1   2  -2  136.29    8.30
   1   2  -2  139.39    5.60
  -1  -2   2  140.39    6.10
  -1  -2   2  137.89    6.00
  -1  -2   2  135.09    8.80
  -1  -2   2  152.48    7.20
  -1  -2   2  158.68    7.40
   0   2  -2 9714.13  287.27
   0   2  -2 8811.82  289.77
   0  -2   2 9705.33  287.87
   0  -2   2 8936.51  290.67
   0  -2   2 9999.00  289.47
  -1   2  -2 2563.34   80.29
  -1   2  -2 2478.95   78.49
  -1   2  -2 2503.75   78.19
   1  -2   2 2589.94   79.39
  -2   2  -2 2622.14   84.29
  -2   2  -2 2610.74   82.49
  -2   2  -2 2646.44   82.69
   2  -2   2 2571.34   83.69
   2  -2   2 2841.12   82.89
  -3   2  -2  430.76   17.60
  -3   2  -2  415.16   15.80
   3  -2   2  434.26   15.10
   3  -2   2  400.06   16.80
  -4   2  -2 2123.99   70.69
  -4   2  -2 2164.28   68.89
   4  -2   2 2149.08   67.69
   4  -2   2 2100.19   70.69
  -5   2  -2 1650.63   55.39
  -5   2  -2 1669.03   57.49
   5  -2   2 1666.43   57.99
   5  -2   2 1612.34   53.69
  -6   2  -2  210.48   12.70
  -6   2  -2  209.68   14.50
   6  -2   2  190.68   14.00
   6  -2   2  202.38   10.90
  -7   2  -2 1174.38   48.50
  -7   2  -2 1254.37   46.00
  -7   2  -2 1307.47   51.79
   7  -2   2 1256.97   49.50
  -8   2  -2   25.60    8.50
  -8   2  -2   23.70    7.40
  -8   2  -2    8.00    7.40
   8  -2   2   21.10    7.80
  -9   2  -2  381.16   22.60
  -9   2  -2  373.16   25.30
  -9   2  -2  400.96   25.80
 -10   2  -2   14.40    9.90
 -10   2  -2    3.70    7.20
 -10   2  -2    0.80    8.20
 -11   2  -2  135.19   16.80
 -11   2  -2  167.28   22.40
 -12   2  -2   72.49   17.70
 -11  -1   2  138.69   16.50
 -11  -1   2  119.79   21.50
 -10  -1   2   -6.50    8.30
 -10  -1   2   11.60    7.80
  -9  -1   2  296.17   24.20
  -9  -1   2  267.37   18.40
  -8  -1   2  137.59   13.10
  -8  -1   2  159.38   18.00
  -7  -1   2  248.78   15.10
  -7  -1   2  206.38   16.60
   6   1  -2  351.56   20.60
  -6  -1   2  351.66   19.90
  -6  -1   2  358.76   17.20
  -6  -1   2  363.26   15.50
   5   1  -2  233.28    9.20
   5   1  -2  238.68   14.20
  -5  -1   2  263.97   14.90
  -5  -1   2  237.18   12.60
  -5  -1   2  270.47   11.90
   4   1  -2 2811.82   89.89
   4   1  -2 2957.90   93.59
  -4  -1   2 3059.39   93.69
  -4  -1   2 2923.61   95.59
  -4  -1   2 2982.50   92.99
  -4  -1   2 2913.51   92.19
  -3  -1   2   11.60    3.30
  -2  -1   2 4664.53  142.29
  -2  -1   2 4726.93  143.29
  -2  -1   2 4563.84  143.99
   1   1  -2 2387.96   72.59
   1   1  -2 2354.26   72.49
  -1  -1   2 2318.57   72.29
  -1  -1   2 2348.47   72.89
  -1  -1   2 2382.86   72.99
  -1  -1   2 2357.16   74.89
   0   1  -2 3523.85  101.59
   0   1  -2 3291.97  103.09
   0  -1   2 3087.79  103.59
  -1   1  -2 2491.95   77.99
  -1   1  -2 2504.95   78.39
   1  -1   2 2523.15   78.59
  -2   1  -2 1468.15   46.00
  -2   1  -2 1436.66   46.40
   2  -1   2 1381.86   48.10
  -3   1  -2 2937.21   93.09
  -3   1  -2 3022.30   92.49
   3  -1   2 2827.62   96.19
  -4   1  -2  132.29    9.40
  -4   1  -2  147.49    8.90
   4  -1   2  121.49   12.40
  -5   1  -2 1610.24   55.49
  -5   1  -2 1591.84   53.89
  -5   1  -2 1612.04   59.19
   5  -1   2 1505.65   58.89
  -6   1  -2   58.39    7.80
  -6   1  -2   81.09    9.80
  -6   1  -2   91.59   12.60
   6  -1   2   71.19   12.10
  -7   1  -2  949.51   41.90
  -7   1  -2  940.61   37.30
  -7   1  -2  941.31   39.80
   7  -1   2  903.71   42.50
  -8   1  -2  162.28   15.50
  -8   1  -2  174.98   18.10
  -8   1  -2  182.68   18.40
   8  -1   2  234.08   22.20
  -9   1  -2  133.59   14.50
  -9   1  -2  151.18   17.30
  -9   1  -2  164.68   19.10
 -10   1  -2  242.88   20.90
 -10   1  -2  210.98   23.20
 -10   1  -2  198.68   20.30
 -11   1  -2   32.70   11.10
  12  -1   2  109.99   12.70
 -12   0   2   63.69   19.30
 -12   0   2   60.99   17.80
 -11   0   2   92.19   17.80
 -11   0   2  113.09   14.70
 -10   0   2  120.69   14.10
 -10   0   2  158.08   20.00
  -9   0   2   37.50    7.80
  -9   0   2   40.20   11.40
  -8   0   2  537.95   29.50
  -8   0   2  586.34   26.10
  -7   0   2   30.40    5.40
  -7   0   2   35.10    8.30
  -7   0   2   20.00    5.90
   6   0  -2  856.31   35.20
  -6   0   2  900.11   32.00
  -6   0   2  930.51   36.20
  -6   0   2  882.81   32.00
  -6   0   2  901.91   33.50
   5   0  -2  487.55   22.70
  -5   0   2  580.94   21.60
  -5   0   2  529.95   22.90
  -5   0   2  525.25   20.10
  -5   0   2  543.25   20.90
   4   0  -2  821.82   34.30
  -4   0   2 1028.50   33.80
  -4   0   2 1013.30   32.50
  -4   0   2  987.30   34.30
  -4   0   2  985.90   35.10
  -3   0   2 1954.00   64.89
  -3   0   2 1856.61   61.59
  -3   0   2 2098.39   63.09
  -3   0   2 2010.00   64.29
   2   0  -2   28.60    2.20
  -2   0   2   25.60    3.40
  -2   0   2   27.60    1.80
  -2   0   2   24.20    2.60
   1   0  -2 9613.54  293.17
  -1   0   2 9569.54  294.07
  -1   0   2 9753.32  293.57
   1   0   2 3974.50  112.29
   1   0   2 3293.47  115.29
  -2   0  -2   11.50    2.70
  -2   0  -2   10.10    4.00
  -2   0  -2    9.60    2.30
   2   0   2    7.90    4.00
  -3   0  -2 2783.92   99.79
  -3   0  -2 3186.98   96.09
  -3   0  -2 3132.79   95.99
   3   0   2 2998.10  101.09
  -4   0  -2  694.73   30.90
  -4   0  -2  711.63   26.80
  -4   0  -2  722.73   27.20
   4   0   2  723.13   32.20
  -5   0  -2 1308.17   47.20
  -5   0  -2 1230.88   50.09
  -5   0  -2 1350.16   46.40
   5   0   2 1335.97   52.49
  -6   0  -2 1611.64   58.59
  -6   0  -2 1567.64   56.69
  -6   0  -2 1638.84   61.49
   6   0   2 1635.04   63.69
  -7   0  -2  323.17   20.80
  -7   0  -2  319.37   22.10
   7   0   2  336.07   24.70
  -8   0  -2  535.25   29.90
  -8   0  -2  548.25   27.60
  -8   0  -2  566.04   30.40
   8   0   2  593.34   33.70
  -9   0  -2    0.40    7.20
  -9   0  -2    1.40    7.30
  -9   0  -2    6.00    8.90
   9   0   2    5.00   12.20
 -10   0  -2  323.67   24.00
 -10   0  -2  413.06   28.80
 -11   0  -2   65.89   13.80
  11   0   2   73.29    9.80
 -12   1   2  170.88   24.80
 -12   1   2  132.39   16.90
 -11   1   2   -0.40    7.10
 -11   1   2    9.10    9.70
 -10   1   2  286.77   23.80
 -10   1   2  296.47   19.60
  -9   1   2   28.40    9.00
  -9   1   2   30.20    7.70
  -8   1   2  672.33   28.60
  -8   1   2  663.13   32.00
  -7   1   2  413.66   19.50
  -7   1   2  401.66   18.90
  -7   1   2  415.86   21.80
   6  -1  -2  663.83   23.40
  -6   1   2  645.64   25.10
  -6   1   2  619.14   27.20
  -6   1   2  617.34   25.60
  -6   1   2  628.74   25.20
   5  -1  -2 1999.80   64.79
  -5   1   2 1990.40   67.49
  -5   1   2 2002.00   69.89
  -5   1   2 2113.29   67.09
  -5   1   2 2146.59   69.39
  -4   1   2  422.76   16.00
  -4   1   2  400.56   17.40
  -4   1   2  351.06   20.40
  -3   1   2 2593.14   88.79
  -3   1   2 2787.12   86.09
  -3   1   2 2718.23   84.69
   2  -1  -2  136.19    5.80
  -2   1   2  146.69    7.00
  -2   1   2  149.69    6.40
  -2   1   2  143.89    8.60
   1  -1  -2 3061.49   92.39
   1  -1  -2 3057.79   92.39
   1  -1  -2 3004.90   91.89
  -1   1   2 2992.70   92.39
  -1   1   2 2879.61   92.29
   0  -1  -2  257.57   10.10
   0  -1  -2  269.97   10.80
   0   1   2  255.17   11.00
   0   1   2  236.38   10.50
   0   1   2  276.57   10.30
  -1  -1  -2  413.16   14.70
  -1  -1  -2  357.86   15.30
   1   1   2  394.56   14.00
   1   1   2  388.86   15.40
  -2  -1  -2 4443.76  137.29
  -2  -1  -2 4322.37  140.59
  -2  -1  -2 4531.85  138.49
   2   1   2 4550.34  136.59
   2   1   2 4396.56  140.29
  -3  -1  -2  324.77   17.60
  -3  -1  -2  347.07   14.70
   3   1   2  360.56   17.60
  -4  -1  -2 2795.32   96.39
  -4  -1  -2 2997.10   93.39
  -4  -1  -2 2878.11   93.29
   4   1   2 2837.62   97.29
  -5  -1  -2    3.80    4.50
  -5  -1  -2   -1.30    4.80
  -5  -1  -2    5.80    4.60
   5   1   2    5.10    5.50
  -6  -1  -2 1488.35   57.09
  -6  -1  -2 1518.95   55.39
  -6  -1  -2 1555.74   59.19
   6   1   2 1628.04   62.59
  -7  -1  -2   43.80    9.90
  -7  -1  -2   50.89    9.00
  -7  -1  -2   29.50    8.90
   7   1   2   48.90   11.50
  -8  -1  -2  419.56   24.70
  -8  -1  -2  458.55   27.30
   8   1   2  460.55   30.50
  -9  -1  -2  282.17   22.00
  -9  -1  -2  332.27   23.80
   9   1   2  367.76   29.80
 -10  -1  -2  182.08   19.70
  10   1   2  137.99   12.20
  11   1   2   54.79    9.10
 -12   2   2   35.10   14.30
 -12   2   2   58.19   12.20
 -11   2   2   17.40    7.90
 -11   2   2   30.70   11.50
 -10   2   2   74.49   11.10
 -10   2   2   61.59   12.60
  -9   2   2  224.88   18.60
  -9   2   2  254.17   16.30
  -8   2   2   38.50    7.20
  -8   2   2   12.70    6.50
  -7   2   2  784.62   33.70
  -7   2   2  830.42   33.60
  -7   2   2  830.92   31.80
  -7   2   2  850.71   35.00
   6  -2  -2    0.90    1.80
   6  -2  -2    2.30    2.00
  -6   2   2   -3.70    5.60
  -6   2   2   -1.00    2.70
  -6   2   2    2.20    4.30
   5  -2  -2 1972.40   61.09
   5  -2  -2 1964.00   60.89
  -5   2   2 1984.10   63.29
  -5   2   2 1882.81   65.39
  -5   2   2 1860.81   68.39
   4  -2  -2  335.57   12.10
  -4   2   2  344.27   15.50
  -4   2   2  312.27   13.40
   3  -2  -2  896.01   29.40
  -3   2   2  901.61   32.40
  -3   2   2  934.81   31.70
  -3   2   2  910.51   30.20
   2  -2  -2 1716.83   53.79
   2  -2  -2 1776.92   54.69
   2  -2  -2 1690.83   53.69
  -2   2   2 1711.13   55.79
  -2   2   2 1702.13   54.89
  -2   2   2 1741.03   54.19
   1  -2  -2 1916.51   62.19
   1  -2  -2 2002.90   62.49
   1  -2  -2 1958.70   61.59
  -1   2   2 2037.50   61.19
  -1   2   2 1952.10   61.69
  -1   2   2 2024.70   62.59
  -1   2   2 1889.21   62.39
   0  -2  -2 3159.38   98.09
   0  -2  -2 3043.10   98.09
   0  -2  -2 3203.68   99.39
   0   2   2 3065.49   98.39
   0   2   2 3249.48   97.89
   0   2   2 3153.08   99.59
  -1  -2  -2   92.99    6.40
  -1  -2  -2   88.39    6.80
   1   2   2   91.69    5.20
   1   2   2   90.89    9.00
   1   2   2   96.49    6.70
   1   2   2   84.69    6.30
  -2  -2  -2 2328.27   77.79
  -2  -2  -2 2467.65   76.39
  -2  -2  -2 2353.76   75.19
   2   2   2 2396.16   77.69
   2   2   2 2358.26   74.39
   2   2   2 2381.06   74.19
  -3  -2  -2  203.68   12.70
  -3  -2  -2  199.08   10.70
  -3  -2  -2  194.48   11.00
   3   2   2  192.38   12.10
   3   2   2  211.98    8.60
   3   2   2  197.88    8.10
  -4  -2  -2 1137.39   41.90
  -4  -2  -2 1154.78   43.90
  -4  -2  -2 1163.78   41.50
   4   2   2 1159.48   44.40
   4   2   2 1152.88   37.60
  -5  -2  -2  945.51   37.90
  -5  -2  -2  945.81   36.60
  -5  -2  -2  969.80   39.50
   5   2   2  934.51   40.40
  -6  -2  -2  311.17   20.60
  -6  -2  -2  324.27   18.70
   6   2   2  326.17   22.50
  -7  -2  -2  666.83   32.80
  -7  -2  -2  617.54   29.80
   7   2   2  628.94   23.80
   7   2   2  575.54   34.20
  -8  -2  -2    9.00    7.80
  -8  -2  -2    1.40    6.60
   8   2   2   -1.10    3.60
   8   2   2    3.90    8.40
  -9  -2  -2  388.56   25.60
  -9  -2  -2  402.56   27.30
   9   2   2  371.26   18.70
   9   2   2  441.46   34.10
 -10  -2  -2   -7.00    8.60
  10   2   2   -6.00    4.60
  12  -3  -2    6.20    6.00
 -12   3   2   13.10   11.10
 -12   3   2   12.70    8.10
 -11   3   2   85.79   15.40
 -11   3   2   92.39   12.60
 -10   3   2   -4.50    7.10
 -10   3   2    2.90    5.90
  -9   3   2  435.36   25.40
  -9   3   2  415.36   21.20
   8  -3  -2  136.19   10.00
  -8   3   2  142.49   12.00
  -8   3   2  123.89   13.80
   7  -3  -2  702.33   25.00
  -7   3   2  672.33   33.50
  -7   3   2  684.63   30.60
  -7   3   2  722.73   27.60
   6  -3  -2 1109.69   36.60
  -6   3   2 1102.39   38.60
  -6   3   2 1087.59   41.50
  -6   3   2 1095.89   43.60
   5  -3  -2  189.48    8.70
   5  -3  -2  200.98    8.70
  -5   3   2  199.98    9.80
  -5   3   2  187.88   11.80
  -5   3   2  195.28   12.70
   4  -3  -2 1891.01   59.39
  -4   3   2 1890.11   60.29
  -4   3   2 1865.51   60.09
  -4   3   2 1889.71   62.39
  -4   3   2 1884.71   62.99
   3  -3  -2    9.80    2.20
  -3   3   2    8.40    2.70
  -3   3   2    6.30    3.30
  -3   3   2    8.00    2.50
  -3   3   2    9.20    3.80
   2  -3  -2 4287.67  132.79
   2  -3  -2 4320.47  132.29
   2  -3  -2 4217.28  133.79
  -2   3   2 4301.57  134.19
  -2   3   2 4365.46  132.89
  -2   3   2 4301.47  132.99
   1  -3  -2  188.88    9.20
   1  -3  -2  158.18    8.30
  -1   3   2  179.88    7.30
  -1   3   2  181.08    9.00
  -1   3   2  158.48    9.30
  -1   3   2  173.48    8.20
   0  -3  -2 2985.70   90.89
   0  -3  -2 2793.12   91.59
   0   3   2 2827.92   91.59
   0   3   2 2964.50   93.59
   0   3   2 2931.81   91.09
  -1  -3  -2 1104.19   37.10
  -1  -3  -2 1051.29   38.10
   1   3   2 1134.39   36.60
   1   3   2 1085.09   37.90
   1   3   2 1146.69   38.50
   1   3   2 1100.29   40.90
  -2  -3  -2 1937.71   60.49
  -2  -3  -2 1767.22   62.49
  -2  -3  -2 1906.01   60.99
   2   3   2 1902.81   62.69
   2   3   2 1844.52   59.39
   2   3   2 1816.12   59.69
  -3  -3  -2  842.52   32.90
  -3  -3  -2  818.72   31.70
  -3  -3  -2  835.42   30.90
   3   3   2  836.62   32.70
   3   3   2  823.42   28.10
   3   3   2  830.12   28.10
   3   3   2  802.12   36.80
  -4  -3  -2  287.47   15.80
  -4  -3  -2  298.07   17.70
   4   3   2  300.57   21.80
   4   3   2  326.57   18.30
   4   3   2  303.77   12.60
  -5  -3  -2  925.41   39.00
  -5  -3  -2  887.91   36.00
   5   3   2  852.31   43.00
   5   3   2  980.40   31.80
   5   3   2  888.71   39.60
  -6  -3  -2   -5.00    5.70
  -6  -3  -2   15.20    6.00
   6   3   2    0.00    2.80
   6   3   2    6.00    6.60
  -7  -3  -2  653.43   33.80
  -7  -3  -2  624.94   30.90
   7   3   2  630.84   24.80
   7   3   2  640.14   35.70
  -8  -3  -2  197.98   19.30
  -8  -3  -2  210.08   21.00
   8   3   2  215.78   24.20
   8   3   2  187.48   12.20
  -9  -3  -2  235.18   23.10
  -9  -3  -2  218.48   21.20
   9   3   2  185.78   13.30
  10   3   2   70.79    9.60
  13  -4  -2   33.90    9.10
 -13   4   2   40.40   12.00
  12  -4  -2    4.40    6.20
 -12   4   2    0.00    7.20
 -12   4   2   12.40   10.50
  11  -4  -2  120.09   12.00
 -11   4   2  162.88   19.90
 -11   4   2  174.38   16.00
  10  -4  -2   60.09    8.20
  10  -4  -2   80.09    8.90
 -10   4   2   71.49   13.00
 -10   4   2   85.89   10.70
   9  -4  -2  172.88   10.30
  -9   4   2  161.08   12.70
  -9   4   2  191.58   18.70
   8  -4  -2  658.83   25.70
   8  -4  -2  698.23   25.40
  -8   4   2  692.83   32.30
  -8   4   2  685.73   27.80
  -8   4   2  654.83   34.80
   7  -4  -2   57.19    5.70
   7  -4  -2   49.30    5.50
  -7   4   2   49.30    8.90
  -7   4   2   52.19   10.50
  -7   4   2   51.09    6.70
   6  -4  -2 1003.90   33.80
  -6   4   2 1048.50   39.80
  -6   4   2  991.90   38.50
  -6   4   2  965.40   35.10
   5  -4  -2   70.49    4.90
  -5   4   2   81.09    8.20
  -5   4   2   72.49    6.10
  -5   4   2   74.09    8.20
  -5   4   2   78.19    5.90
   4  -4  -2 1435.56   45.40
  -4   4   2 1403.86   46.60
  -4   4   2 1436.56   48.50
  -4   4   2 1463.65   46.40
  -4   4   2 1358.66   48.80
   3  -4  -2  801.72   26.50
  -3   4   2  786.32   28.40
  -3   4   2  825.92   27.70
  -3   4   2  781.12   29.30
   2  -4  -2 1530.45   50.49
   2  -4  -2 1480.35   49.80
  -2   4   2 1589.84   49.90
  -2   4   2 1559.94   50.09
  -2   4   2 1561.34   51.59
   1  -4  -2 1515.15   49.99
   1  -4  -2 1509.55   48.60
  -1   4   2 1528.55   49.20
  -1   4   2 1506.95   47.80
  -1   4   2 1531.95   51.49
  -1   4   2 1477.15   50.09
   0  -4  -2  462.25   19.10
   0  -4  -2  489.95   17.70
   0   4   2  489.95   18.70
   0   4   2  474.15   18.40
   0   4   2  455.45   20.80
  -1  -4  -2 1137.59   37.60
  -1  -4  -2 1123.29   39.50
   1   4   2 1044.70   37.20
   1   4   2 1123.89   39.40
   1   4   2 1091.69   38.90
   1   4   2 1106.09   42.10
  -2  -4  -2   13.40    4.60
  -2  -4  -2   15.80    4.10
   2   4   2   14.00    4.20
   2   4   2   20.20    3.50
   2   4   2    6.10    4.10
   2   4   2   10.40    5.90
  -3  -4  -2 1257.67   44.70
  -3  -4  -2 1264.67   47.00
   3   4   2 1249.88   42.30
   3   4   2 1294.77   47.30
   3   4   2 1311.07   51.89
   3   4   2 1233.38   42.60
  -4  -4  -2  164.68   12.30
  -4  -4  -2  189.58   14.40
   4   4   2  188.08   14.70
   4   4   2  186.18    9.90
   4   4   2  149.09   17.60
  -5  -4  -2  799.32   35.10
  -5  -4  -2  722.43   32.00
   5   4   2  785.92   28.00
   5   4   2  767.52   35.90
   5   4   2  706.33   40.70
  -6  -4  -2  357.96   21.00
  -6  -4  -2  342.77   23.20
   6   4   2  338.37   15.90
   6   4   2  365.56   24.90
  -7  -4  -2  132.19   16.70
  -7  -4  -2  123.79   14.70
   7   4   2  116.59   10.30
   7   4   2  100.69   17.00
  -8  -4  -2  171.78   18.10
  -8  -4  -2  194.88   21.40
   8   4   2  164.98   22.50
   8   4   2  176.58   12.90
  -9  -4  -2    8.10    9.50
  -9  -4  -2    4.50   11.80
   9   4   2   15.30    6.30
  13  -5  -2   24.20    8.00
 -13   5   2   26.30    9.60
  12  -5  -2   53.79    9.40
  12  -5  -2   59.19    8.30
 -12   5   2   68.79   12.10
 -12   5   2   75.79   15.40
  11  -5  -2   26.60    5.90
  11  -5  -2   19.50    6.40
 -11   5   2   40.70   12.60
 -11   5   2   40.40    9.30
  10  -5  -2  209.88   12.90
  10  -5  -2  221.78   12.90
 -10   5   2  199.88   20.70
 -10   5   2  212.28   15.40
   9  -5  -2    3.00    3.70
  -9   5   2   -2.80    6.70
  -9   5   2    2.10    4.50
   8  -5  -2  426.76   18.00
  -8   5   2  437.56   26.30
  -8   5   2  468.95   24.80
  -8   5   2  430.06   19.90
   7  -5  -2  146.39    8.70
  -7   5   2  163.18   15.00
  -7   5   2  161.08   10.10
  -7   5   2  165.88   15.50
   6  -5  -2   66.19    5.80
  -6   5   2   84.19   10.00
  -6   5   2   95.79    7.70
  -6   5   2   62.79    8.20
   5  -5  -2  684.53   24.40
  -5   5   2  726.33   29.20
  -5   5   2  711.33   28.50
  -5   5   2  693.43   26.00
  -5   5   2  752.42   25.70
   4  -5  -2  286.67   11.00
  -4   5   2  227.48   11.80
  -4   5   2  295.07   14.00
  -4   5   2  290.97   14.40
   3  -5  -2 1628.54   53.09
   3  -5  -2 1542.05   51.39
  -3   5   2 1614.64   52.39
  -3   5   2 1580.54   52.79
  -3   5   2 1619.84   54.49
   2  -5  -2   52.19    5.70
   2  -5  -2   52.29    4.80
  -2   5   2   58.89    5.20
  -2   5   2   58.79    5.50
  -2   5   2   50.69    6.00
   1  -5  -2 2198.68   71.79
   1  -5  -2 2215.08   69.19
  -1   5   2 2207.38   73.59
  -1   5   2 2166.48   68.89
  -1   5   2 2170.48   71.69
  -1   5   2 2208.98   70.59
   0  -5  -2  402.46   18.40
   0  -5  -2  430.86   16.40
   0   5   2  444.56   17.90
   0   5   2  410.86   20.40
   0   5   2  427.66   17.80
  -1  -5  -2  983.50   34.30
  -1  -5  -2  984.10   36.90
   1   5   2 1017.20   37.10
   1   5   2 1001.00   40.10
   1   5   2  995.80   36.10
   1   5   2  941.71   34.70
  -2  -5  -2  928.01   37.10
  -2  -5  -2  943.61   34.60
   2   5   2  940.61   34.00
   2   5   2  989.80   41.30
   2   5   2  971.00   35.70
   2   5   2  966.10   37.20
  -3  -5  -2  854.41   33.90
  -3  -5  -2  947.01   37.40
   3   5   2  913.21   41.60
   3   5   2  888.21   33.30
   3   5   2  881.91   36.60
   3   5   2  907.61   33.60
  -4  -5  -2  989.60   37.70
  -4  -5  -2 1006.10   41.10
   4   5   2  970.90   35.20
   4   5   2  996.30   41.20
   4   5   2  777.82   49.99
  -5  -5  -2   38.80    9.70
  -5  -5  -2   47.40    8.70
   5   5   2   46.20    6.50
   5   5   2   46.70   10.60
  -6  -5  -2  503.75   26.80
  -6  -5  -2  517.25   30.00
   6   5   2  563.14   32.30
   6   5   2  532.55   22.90
  -7  -5  -2   35.20   10.70
  -7  -5  -2   24.50    9.10
   7   5   2   21.70   11.50
   7   5   2   36.90    7.00
  -8  -5  -2  250.07   25.10
  -8  -5  -2  217.08   20.90
   8   5   2  253.27   27.80
   8   5   2  219.38   15.50
 -12   6   2  130.59   19.70
 -11   6   2   -3.00    8.20
 -10   6   2  227.48   21.60
  -9   6   2  195.58   18.70
  -9   6   2  179.18   28.80
  -8   6   2  107.59   12.80
  -8   6   2  109.39   14.60
  -7   6   2  154.78   12.90
  -7   6   2  201.18   17.50
  -6   6   2   69.69    9.20
  -6   6   2   66.79    9.40
  -5   6   2  820.32   31.20
  -5   6   2  901.71   34.70
  -5   6   2  891.61   33.70
  -4   6   2   21.30    5.10
  -4   6   2    7.00    3.10
  -4   6   2   20.30    4.70
   3  -6  -2  738.03   27.50
  -3   6   2  692.73   26.40
  -3   6   2  702.23   26.30
  -3   6   2  735.03   28.70
   2  -6  -2  537.25   22.40
  -2   6   2  558.74   22.90
  -2   6   2  524.45   20.80
  -2   6   2  534.95   21.10
   1  -6  -2  478.45   21.20
  -1   6   2  499.05   21.20
  -1   6   2  484.05   19.60
  -1   6   2  517.15   23.40
   0  -6  -2 1091.79   39.70
   0   6   2 1036.00   37.50
   0   6   2 1055.79   38.30
   0   6   2 1063.69   42.20
  -1  -6  -2  109.09   11.00
   1   6   2  133.29    9.70
   1   6   2  137.99   11.10
   1   6   2  139.59   11.30
   1   6   2  140.69   14.40
  -2  -6  -2 1536.45   56.59
   2   6   2 1588.34   53.39
   2   6   2 1509.15   60.69
   2   6   2 1558.34   54.59
   2   6   2 1514.25   56.39
  -3  -6  -2    3.00    5.70
   3   6   2   -0.10    4.60
   3   6   2    7.10    5.90
  -4  -6  -2  547.15   28.80
   4   6   2  546.25   29.10
   4   6   2  571.54   25.00
  -5  -6  -2   60.79   11.60
   5   6   2   65.89   12.60
   5   6   2   65.59    9.00
  -6  -6  -2  353.96   25.80
   6   6   2  341.67   26.90
   6   6   2  353.96   19.20
  -7  -6  -2  135.19   18.80
   7   6   2  126.09   13.00
   7   6   2  112.59   19.60
   8   6   2   75.79   19.00
 -12   7   2   36.80   13.20
 -11   7   2   69.09   14.60
 -10   7   2   35.30   11.20
  -9   7   2  329.07   22.30
  -9   7   2  311.47   24.50
  -8   7   2   11.10    7.70
  -8   7   2    2.50    6.50
  -7   7   2  301.97   18.80
  -7   7   2  332.37   20.70
  -6   7   2  188.38   14.10
  -6   7   2  179.78   14.70
  -5   7   2  593.14   24.00
  -5   7   2  591.54   27.30
  -5   7   2  625.64   25.80
  -4   7   2  280.57   14.60
  -4   7   2  282.27   13.90
  -4   7   2  282.27   16.30
   3  -7  -2  198.78   12.80
  -3   7   2  199.78   11.20
  -3   7   2  200.68   13.00
   2  -7  -2  875.71   33.90
  -2   7   2  850.51   31.90
  -2   7   2  905.41   34.50
   1  -7  -2   24.20    5.90
  -1   7   2   28.30    6.70
  -1   7   2   20.70    5.70
  -1   7   2   21.50    4.60
   0  -7  -2  420.86   21.10
   0   7   2  403.56   23.00
   0   7   2  444.16   19.30
   0   7   2  416.76   19.80
  -1  -7  -2   79.99   10.50
   1   7   2  117.59   11.80
   1   7   2   94.19    9.80
   1   7   2   84.39   13.40
   1   7   2  104.39   10.00
  -2  -7  -2  589.94   28.20
   2   7   2  589.54   28.20
   2   7   2  565.74   25.70
   2   7   2  565.24   24.90
  -3  -7  -2  180.38   17.40
   3   7   2  223.38   15.00
   3   7   2  197.08   18.30
  -4  -7  -2   48.80   10.80
   4   7   2   32.80    9.60
   4   7   2   53.99    8.90
  -5  -7  -2  450.15   28.20
   5   7   2  399.96   21.90
   5   7   2  413.76   28.40
  -6  -7  -2    7.20    9.30
   6   7   2    4.80    6.30
   6   7   2   -5.80    8.90
   7   7   2  197.48   20.50
   7   7   2  205.78   26.80
 -12   8   2   -4.30    9.40
 -11   8   2  110.39   16.60
 -10   8   2   44.20   12.20
  -9   8   2  129.49   15.80
  -9   8   2  160.98   19.20
  -8   8   2  202.78   20.10
  -8   8   2  164.48   16.30
  -7   8   2   90.39   12.60
  -7   8   2   78.59   11.10
  -6   8   2  458.25   24.90
  -6   8   2  471.05   23.00
  -5   8   2   22.60    5.40
  -5   8   2   29.70    7.60
  -5   8   2   31.30    6.60
  -4   8   2  566.44   26.60
  -4   8   2  569.74   23.60
   3  -8  -2   87.19    9.80
  -3   8   2   79.89    8.10
  -3   8   2   71.89    9.80
   2  -8  -2  744.33   31.80
  -2   8   2  747.33   29.20
  -2   8   2  778.82   32.00
   1  -8  -2  190.78   14.90
  -1   8   2  191.88   12.10
  -1   8   2  183.98   13.50
   0  -8  -2  354.46   20.90
   0   8   2  373.76   19.60
   0   8   2  389.36   18.30
  -1  -8  -2  471.55   25.30
   1   8   2  487.75   23.10
   1   8   2  480.55   25.00
   1   8   2  466.55   22.10
  -2  -8  -2   41.60    9.40
   2   8   2   37.30    7.60
   2   8   2   29.10    8.50
   2   8   2   43.40    7.80
  -3  -8  -2  306.97   22.50
   3   8   2  327.27   19.30
   3   8   2  316.57   22.80
  -4  -8  -2   13.80    9.50
   4   8   2   25.30   10.10
   4   8   2   16.10    7.30
   5   8   2  392.36   22.40
   5   8   2  385.46   29.50
   6   8   2   21.40   12.80
 -11   9   2   65.89   13.90
 -10   9   2  109.69   16.20
  -9   9   2   12.40    8.00
  -9   9   2   19.20    9.80
  -8   9   2  116.39   16.00
  -8   9   2   91.59   12.80
  -7   9   2    0.80    7.10
  -7   9   2   -1.00    5.40
  -6   9   2  290.77   20.20
  -5   9   2   51.19    7.60
  -5   9   2   73.79   11.70
  -4   9   2  256.27   17.30
  -4   9   2  229.58   13.90
  -3   9   2  322.27   16.70
  -3   9   2  310.97   19.00
   2  -9  -2   83.99   11.00
  -2   9   2   85.39   11.50
  -2   9   2   76.29    8.90
   1  -9  -2  453.75   24.50
  -1   9   2  461.25   21.20
  -1   9   2  442.76   23.30
   0  -9  -2    3.90    6.40
   0   9   2    9.60    4.70
   0   9   2   10.10    6.30
   0   9   2   13.20    6.30
  -1  -9  -2  459.05   26.40
   1   9   2  437.66   23.20
   1   9   2  456.75   25.80
   1   9   2  429.86   21.60
  -2  -9  -2   25.80   10.40
   2   9   2   35.00    9.60
   2   9   2   29.10    7.60
  -3  -9  -2  248.68   23.10
   3   9   2  231.68   16.60
   3   9   2  195.58   21.20
   4   9   2  149.29   15.00
   4   9   2  152.58   20.30
 -11  10   2   12.10    9.70
 -10  10   2   45.00   15.40
 -10  10   2   30.60   11.10
  -9  10   2   29.70   12.20
  -9  10   2   23.10    9.40
  -8  10   2   42.70   12.10
  -7  10   2  140.39   17.70
  -6  10   2   55.99   12.30
  -5  10   2  293.57   16.80
  -5  10   2  267.07   20.10
  -4  10   2    4.50    4.70
  -4  10   2   11.30    6.90
  -3  10   2  386.16   19.70
  -3  10   2  394.46   22.80
   2 -10  -2   69.49   11.40
  -2  10   2   71.09    9.10
  -2  10   2   53.99   10.40
   1 -10  -2  184.98   18.30
  -1  10   2  185.28   13.90
  -1  10   2  236.58   17.10
   0 -10  -2  128.89   15.60
   0  10   2  152.08   15.80
   0  10   2  122.69   15.00
   0  10   2  146.39   13.10
  -1 -10  -2   76.69   14.10
   1  10   2   78.39   10.20
   1  10   2   76.89   13.00
   1  10   2   77.99   12.10
   2  10   2  174.88   15.40
   2  10   2  189.58   20.80
   3  10   2   14.10   10.10
   3  10   2    7.80    6.10
 -10  11   2   34.10   14.60
  -9  11   2   57.29   15.60
  -8  11   2    6.10    9.70
  -7  11   2  184.38   20.50
  -6  11   2   -3.30    7.70
  -5  11   2  184.08   15.60
  -5  11   2  194.98   19.80
  -4  11   2   68.99   10.00
  -4  11   2   64.39   12.60
  -3  11   2   65.29   12.00
  -3  11   2   69.19    9.70
  -2  11   2  192.58   18.80
  -2  11   2  172.08   14.90
   1 -11  -2   19.00    9.20
  -1  11   2   42.20   11.00
  -1  11   2   23.00    6.70
  -1  11   2   23.30    8.90
   0  11   2  189.68   18.30
   0  11   2  172.58   15.00
   0  11   2  148.39   17.90
   1  11   2   13.40    6.50
   1  11   2    5.70    7.40
 -10  12   2    4.20   12.50
  -9  12   2   95.29   18.70
  -8  12   2   12.30   10.90
  -7  12   2   65.29   15.00
  -6  12   2   15.30   10.40
  -5  12   2   14.50    9.70
  -4  12   2  120.79   17.40
  -4  12   2  125.19   13.50
  -3  12   2    1.50    7.90
  -3  12   2    9.20    6.40
  -2  12   2  135.99   17.20
  -2  12   2  132.39   16.80
  -2  12   2  127.39   13.50
  -1  12   2   15.70    9.00
  -1  12   2    6.80    9.00
   0  12   2   62.29   12.40
  -6  13   2  110.39   20.00
  -5  13   2    8.80   10.70
  -4  13   2   68.89   17.20
   0  13  -3   60.29   13.20
  -1  13  -3   53.89   12.40
  -2  13  -3   37.00   11.80
  -2  13  -3   33.00    7.90
  -3  13  -3  146.59   13.70
  -3  13  -3  112.89   16.20
  -4  13  -3    3.70    5.20
  -4  13  -3   -6.60    7.80
  -5  13  -3  159.78   14.90
  -5  13  -3  148.49   18.80
  -6  13  -3   27.70   11.30
  -7  13  -3  115.89   17.40
  -8  13  -3   32.50   12.80
   2  12  -3   16.70    8.90
   1  12  -3  112.79   14.80
   1  12  -3  113.49   10.90
   0  12  -3    7.00    4.90
   0  12  -3    3.40    7.30
  -1  12  -3  164.78   17.60
  -1  12  -3  179.58   13.20
  -2  12  -3    5.40    5.00
  -2  12  -3   13.20    7.90
  -3  12  -3  179.38   13.70
  -3  12  -3  195.08   19.40
  -4  12  -3   71.49    9.70
  -4  12  -3   52.89   11.60
  -5  12  -3   82.59   10.40
  -5  12  -3   72.49   13.20
  -6  12  -3  120.59   16.40
  -7  12  -3   22.40   10.70
  -7  12  -3   22.90   16.40
  -8  12  -3   72.39   15.20
  -8  12  -3   56.29   13.80
  -9  12  -3    3.60    9.90
   3  11  -3  177.58   21.10
   3  11  -3  150.38   10.90
   2  11  -3    1.10    6.70
   2  11  -3    2.90    4.00
   1  11  -3  228.38   13.30
   1  11  -3  222.48   17.60
   0  11  -3  105.19    9.80
   0  11  -3  126.09   14.50
  -1  11  -3  124.59   14.90
  -1  11  -3  123.29   10.60
  -2  11  -3  164.08   16.20
  -2  11  -3  175.68   12.00
  -3  11  -3   99.19   13.10
  -3  11  -3   66.59    8.40
  -4  11  -3  332.57   17.80
  -4  11  -3  323.57   21.50
  -5  11  -3   -8.90    6.30
  -5  11  -3    6.30    7.20
  -5  11  -3    0.00    4.40
  -6  11  -3  249.18   20.10
  -6  11  -3  256.67   20.10
  -7  11  -3   12.20    8.60
  -7  11  -3   37.60   10.80
  -8  11  -3   85.19   14.70
  -8  11  -3   72.49   14.20
  -9  11  -3   48.50   13.70
 -10  11  -3   47.90   15.90
   5  10  -3  157.28    9.90
   5  10  -3  182.48   21.50
   4  10  -3   25.90   10.80
   4  10  -3   41.50    5.60
   3  10  -3  157.38   10.00
   3  10  -3  171.28   18.30
   3  10  -3  150.38   15.20
  -3 -10   3  145.69   16.10
   2  10  -3  156.58   15.00
   2  10  -3  148.19    9.60
  -2 -10   3  147.49   15.80
   1  10  -3  161.38   15.20
   1  10  -3  121.69    9.00
  -1 -10   3  126.19   13.80
   0  10  -3  250.37   13.10
   0  10  -3  241.68   17.00
  -1  10  -3   49.30    8.90
  -1  10  -3   75.19    7.60
  -2  10  -3  269.47   14.30
  -2  10  -3  264.67   17.70
  -3  10  -3   32.50    6.00
  -3  10  -3   29.90    8.20
  -3  10  -3   27.90    8.00
  -4  10  -3  276.97   15.30
  -4  10  -3  296.87   19.10
  -4  10  -3  285.27   18.90
  -5  10  -3  140.39   15.40
  -5  10  -3  166.88   16.60
  -5  10  -3  142.89   11.10
  -6  10  -3  216.58   20.00
  -6  10  -3  143.19   14.50
  -6  10  -3  155.68   16.10
  -7  10  -3  238.28   22.30
  -7  10  -3  204.48   19.30
  -8  10  -3   25.20   10.80
  -8  10  -3   15.20    8.70
  -9  10  -3  170.08   21.10
 -10  10  -3    2.90   10.70
   6   9  -3   59.89    6.00
   6   9  -3   39.10   12.50
   5   9  -3   28.10   10.00
   5   9  -3   29.70    4.60
  -5  -9   3   22.00    8.60
   4   9  -3  236.88   11.40
   4   9  -3  266.57   20.80
  -4  -9   3  240.18   18.50
   3   9  -3   47.00    5.40
   3   9  -3   44.10    8.00
  -3  -9   3   34.70    8.60
  -3  -9   3   37.80    8.40
   2   9  -3  450.35   23.10
   2   9  -3  464.85   18.30
  -2  -9   3  482.45   24.80
  -2  -9   3  468.85   24.40
   1   9  -3   13.20    6.10
   1   9  -3   13.40    3.60
  -1  -9   3    8.00    5.80
  -1  -9   3    8.90    6.00
   0   9  -3  257.17   16.40
   0   9  -3  277.77   12.70
   0  -9   3  250.57   17.10
  -1   9  -3   79.69   10.20
  -1   9  -3   93.69    8.00
   1  -9   3   76.69   10.30
  -2   9  -3  369.56   19.50
  -2   9  -3  339.47   15.70
  -2   9  -3  327.87   18.70
  -3   9  -3  535.05   26.20
  -3   9  -3  562.54   26.00
  -3   9  -3  562.44   22.60
  -4   9  -3  167.88   14.30
  -4   9  -3  148.99   13.80
  -4   9  -3  161.78   10.70
  -5   9  -3  524.75   26.10
  -5   9  -3  545.55   28.10
  -5   9  -3  557.14   23.10
  -6   9  -3   12.50    8.10
  -6   9  -3   16.90    7.10
  -6   9  -3   12.40    5.20
  -7   9  -3  221.38   21.10
  -7   9  -3  219.58   17.40
  -8   9  -3   46.30   11.60
  -9   9  -3  172.28   21.50
 -10   9  -3   74.79   17.00
 -11   9  -3   24.10   13.10
   6   8  -3  190.78   20.80
   6   8  -3  174.88   10.20
  -6  -8   3  172.58   16.70
   5   8  -3    0.80    6.70
   5   8  -3    3.50    3.10
  -5  -8   3    9.80    6.70
   4   8  -3  388.16   20.40
   4   8  -3  413.16   15.70
   4   8  -3  460.85   24.70
  -4  -8   3  373.86   21.40
  -4  -8   3  415.06   22.80
   3   8  -3   81.39    5.80
   3   8  -3   78.49    9.50
  -3  -8   3  110.99   11.80
  -3  -8   3   71.99   10.10
   2   8  -3  376.46   18.50
   2   8  -3  316.17   13.40
  -2  -8   3  344.47   19.10
  -2  -8   3  352.96   19.20
   1   8  -3  379.06   18.80
   1   8  -3  353.56   14.40
   1   8  -3  316.17   18.80
  -1  -8   3  362.46   19.20
  -1  -8   3  395.56   20.10
   0   8  -3  189.98   12.70
   0   8  -3  188.58   13.80
   0   8  -3  191.58    9.80
   0  -8   3  204.38   14.10
   0  -8   3  220.38   13.70
  -1   8  -3  913.91   32.40
  -1   8  -3  925.01   36.10
  -1   8  -3  937.11   37.00
   1  -8   3  947.21   37.40
  -2   8  -3    5.70    4.80
  -2   8  -3    3.80    3.00
  -2   8  -3    4.10    5.10
   2  -8   3    1.20    4.80
  -3   8  -3 1037.00   40.80
  -3   8  -3 1021.90   36.30
  -3   8  -3 1031.20   39.40
  -4   8  -3   48.80    7.70
  -4   8  -3   52.29    9.20
  -4   8  -3   55.29    6.60
  -5   8  -3  525.55   26.70
  -5   8  -3  535.15   24.70
  -5   8  -3  534.35   22.10
  -6   8  -3  229.88   18.20
  -6   8  -3  238.48   16.00
  -7   8  -3  176.48   15.70
  -7   8  -3  136.19   16.60
  -8   8  -3  205.78   20.40
  -9   8  -3   39.50   11.40
 -10   8  -3  168.78   21.70
 -11   8  -3   22.70   11.60
   7   7  -3   14.40    4.00
   6   7  -3  231.58   19.50
  -6  -7   3  214.58   16.50
   5   7  -3  235.78   17.70
  -5  -7   3  238.28   16.50
   4   7  -3  259.57   14.90
  -4  -7   3  252.97   15.60
  -4  -7   3  244.08   16.20
   3   7  -3  554.94   19.10
   3   7  -3  535.35   26.40
   3   7  -3  567.64   24.20
  -3  -7   3  556.74   25.10
  -3  -7   3  564.14   25.30
   2   7  -3   35.50    8.20
   2   7  -3   30.20    5.80
   2   7  -3   31.70    3.40
   2   7  -3   42.70    7.30
  -2  -7   3   28.40    6.30
  -2  -7   3   34.90    6.50
   1   7  -3  774.12   27.20
   1   7  -3  845.72   34.10
   1   7  -3  827.32   32.80
   1   7  -3  805.82   31.50
  -1  -7   3  827.22   32.80
  -1  -7   3  813.82   31.80
  -1   7  -3 1107.99   37.20
  -1   7  -3 1140.09   42.10
  -1   7  -3 1082.09   40.30
   1  -7   3 1105.79   41.30
  -2   7  -3  199.48   13.40
  -2   7  -3  188.08    9.70
  -2   7  -3  201.38   12.30
   2  -7   3  189.38   12.70
  -3   7  -3  592.14   25.50
  -3   7  -3  549.05   21.10
  -3   7  -3  530.55   23.00
   3  -7   3  533.55   23.80
  -4   7  -3  428.66   20.00
  -4   7  -3  432.66   18.20
  -4   7  -3  465.65   22.80
  -5   7  -3    5.70    5.30
  -5   7  -3    7.50    3.60
  -5   7  -3    7.70    4.40
  -6   7  -3  369.36   22.80
  -6   7  -3  399.36   19.90
  -7   7  -3    4.30    7.20
  -7   7  -3   16.70    6.40
  -8   7  -3  429.76   27.10
  -9   7  -3   45.60   11.80
 -10   7  -3  154.48   20.60
  10  -7   3  161.68   13.20
 -11   7  -3  112.09   19.40
  11  -7   3  109.99   12.00
 -12   7  -3   19.20   15.80
  12  -7   3    1.20    6.30
   9   6  -3   79.69    7.10
   8   6  -3   77.19    6.20
   6   6  -3    7.20    6.70
  -6  -6   3   13.20    6.80
  -6  -6   3   21.50    6.60
   5   6  -3  455.65   22.00
   5   6  -3  454.45   23.70
   5   6  -3  449.56   24.40
  -5  -6   3  480.45   22.60
  -5  -6   3  397.76   20.80
  -5  -6   3  449.36   21.80
   4   6  -3   27.70   10.50
   4   6  -3   13.30    5.70
   4   6  -3   17.70    4.60
  -4  -6   3   22.70    5.40
  -4  -6   3   25.90   10.20
  -4  -6   3   28.20    6.10
  -4  -6   3   23.00    5.80
   3   6  -3  801.02   33.10
   3   6  -3  844.92   31.20
   3   6  -3  794.02   36.90
  -3  -6   3  801.62   32.30
  -3  -6   3  811.12   40.30
  -3  -6   3  810.12   31.90
  -3  -6   3  857.61   34.20
   2   6  -3  444.26   14.90
   2   6  -3  459.45   20.80
   2   6  -3  445.56   19.10
   2   6  -3  449.86   24.20
  -2  -6   3  453.45   20.50
  -2  -6   3  395.66   25.40
  -2  -6   3  419.36   19.40
   1   6  -3  854.91   28.30
   1   6  -3  849.72   33.00
   1   6  -3  896.91   32.40
   1   6  -3  870.31   35.90
  -1  -6   3  872.31   32.30
  -1  -6   3  876.21   33.50
   0   6  -3  827.62   27.40
   0   6  -3  804.82   33.30
   0   6  -3  822.12   30.70
   0  -6   3  820.42   30.50
   0  -6   3  845.52   32.00
  -1   6  -3  611.14   23.80
  -1   6  -3  601.14   21.10
  -1   6  -3  622.84   25.90
   1  -6   3  562.24   24.20
  -2   6  -3 1617.54   57.29
  -2   6  -3 1644.54   52.99
  -2   6  -3 1620.44   55.19
   2  -6   3 1650.23   56.09
  -3   6  -3    1.90    2.60
  -3   6  -3   -1.90    1.90
  -3   6  -3    5.00    4.50
   3  -6   3    4.70    3.30
  -4   6  -3 1170.68   39.50
  -4   6  -3 1152.48   40.90
  -4   6  -3 1145.29   43.70
  -5   6  -3  152.08   14.40
  -5   6  -3  118.09    9.30
  -6   6  -3  827.32   37.00
  -6   6  -3  898.11   33.50
  -7   6  -3  319.37   20.80
  -7   6  -3  275.27   20.10
   7  -6   3  295.27   13.90
  -8   6  -3  135.09   15.90
  -8   6  -3  140.69   10.90
   8  -6   3  146.19   10.20
  -9   6  -3  251.67   17.30
  -9   6  -3  259.67   21.20
   9  -6   3  222.68   13.80
 -10   6  -3  -12.60    8.50
  10  -6   3    2.00    4.10
 -11   6  -3  215.78   26.10
  11  -6   3  205.28   15.60
 -12   6  -3   23.20   14.40
  12  -6   3   38.50    8.70
  13  -6   3   61.09   11.80
  10   5  -3   15.40    5.10
   9   5  -3  154.58   15.30
  -9  -5   3  146.89   16.30
  -8  -5   3    7.60    6.70
  -7  -5   3  290.17   18.20
   6   5  -3   98.69   12.30
   6   5  -3  104.59   13.10
  -6  -5   3  130.29   12.30
  -6  -5   3  126.79   11.40
   5   5  -3  425.16   18.70
   5   5  -3  407.76   22.20
   5   5  -3  466.95   21.70
   5   5  -3  371.26   24.90
  -5  -5   3  412.26   19.40
  -5  -5   3  363.86   28.50
  -5  -5   3  437.96   20.10
  -5  -5   3  462.85   20.30
   4   5  -3  423.86   18.10
   4   5  -3  367.56   24.20
   4   5  -3  405.46   20.60
  -4  -5   3  425.76   18.60
  -4  -5   3  442.26   19.20
  -4  -5   3  414.76   19.00
  -4  -5   3  345.27   25.80
   3   5  -3  302.27   21.70
   3   5  -3  395.66   18.80
   3   5  -3  376.76   16.60
  -3  -5   3  382.66   17.60
  -3  -5   3  377.66   16.20
  -3  -5   3  396.56   17.20
  -3  -5   3  373.36   25.10
   2   5  -3  938.01   31.30
   2   5  -3  939.21   34.90
   2   5  -3  969.10   39.80
   2   5  -3  953.70   33.90
  -2  -5   3  939.81   41.80
  -2  -5   3  970.30   34.10
  -2  -5   3  978.10   35.20
  -2  -5   3  913.11   32.40
   1   5  -3   40.00    2.70
   1   5  -3   38.00    7.50
   1   5  -3   46.20    5.80
   1   5  -3   53.09    6.00
   1   5  -3   44.50    3.50
   1   5  -3   45.50    3.40
  -1  -5   3   31.90    8.20
  -1  -5   3   48.30    4.30
  -1  -5   3   51.09    5.70
  -1  -5   3   57.49    6.70
   0   5  -3 1990.00   62.39
   0   5  -3 2012.70   65.29
   0   5  -3 2038.90   68.69
   0   5  -3 1960.80   61.99
   0  -5   3 2073.69   66.59
   0  -5   3 1930.61   64.89
  -1   5  -3  310.37   16.00
  -1   5  -3  305.77   13.80
  -1   5  -3  313.77   11.90
   1  -5   3  317.77   14.50
  -2   5  -3 2025.20   65.59
  -2   5  -3 2079.69   67.29
  -2   5  -3 2046.20   69.59
   2  -5   3 2128.39   68.19
  -3   5  -3  752.12   24.80
  -3   5  -3  754.12   26.30
  -3   5  -3  747.03   27.20
   3  -5   3  754.22   27.90
  -4   5  -3  951.90   36.60
  -4   5  -3  966.30   31.90
  -4   5  -3  924.81   32.70
  -4   5  -3  947.31   33.50
  -5   5  -3  985.60   34.60
  -5   5  -3  968.60   34.20
  -5   5  -3 1014.30   39.60
  -5   5  -3 1022.80   35.30
   5  -5   3  962.00   33.50
  -6   5  -3  262.77   17.90
  -6   5  -3  297.57   13.80
  -6   5  -3  275.57   14.00
   6  -5   3  241.48   12.20
   6  -5   3  268.77   15.10
  -7   5  -3  555.04   28.80
  -7   5  -3  549.54   23.70
   7  -5   3  541.25   24.80
   7  -5   3  569.04   22.30
  -8   5  -3   43.80   10.80
  -8   5  -3   30.60    7.10
   8  -5   3   21.30    6.30
   8  -5   3   33.10    5.90
  -9   5  -3  347.17   20.10
  -9   5  -3  360.56   25.40
   9  -5   3  345.67   20.30
   9  -5   3  320.47   17.30
 -10   5  -3   34.70    8.90
 -10   5  -3   40.80   12.70
  10  -5   3   54.89    8.40
 -11   5  -3   35.80   10.60
 -11   5  -3   46.50   15.10
  11  -5   3   45.00    8.70
 -12   5  -3   59.39   16.60
 -12   5  -3   52.89   12.60
  12  -5   3   48.50   10.00
  13  -5   3    5.60    8.00
  10   4  -3   11.90    7.60
 -10  -4   3   18.30    8.40
  -9  -4   3  165.58   17.20
  -8  -4   3  136.89   14.20
   7   4  -3  103.19   13.30
  -7  -4   3  123.79   11.80
  -7  -4   3  103.39   11.60
  -7  -4   3  110.29   17.80
   6   4  -3  421.46   21.10
   6   4  -3  383.46   21.30
  -6  -4   3  374.16   18.30
  -6  -4   3  347.87   25.70
  -6  -4   3  353.36   19.00
   5   4  -3  124.89   10.10
   5   4  -3  120.29   11.90
  -5  -4   3  122.49    9.90
  -5  -4   3  131.99    9.60
  -5  -4   3  132.19   16.70
  -5  -4   3  130.09    9.70
   4   4  -3 1377.76   49.00
  -4  -4   3 1355.36   54.99
  -4  -4   3 1328.67   46.60
  -4  -4   3 1375.26   46.40
  -4  -4   3 1325.77   47.10
   3   4  -3   49.90    8.60
   3   4  -3   45.20    6.10
  -3  -4   3   40.20    5.60
  -3  -4   3   46.80    9.90
  -3  -4   3   45.30    5.30
  -3  -4   3   42.50    5.20
   2   4  -3 1710.53   53.79
   2   4  -3 1764.72   56.79
   2   4  -3 1559.74   60.69
  -2  -4   3 1571.44   62.89
  -2  -4   3 1789.42   57.29
  -2  -4   3 1746.93   54.89
  -2  -4   3 1694.03   55.49
   1   4  -3 1003.30   34.20
   1   4  -3 1100.79   33.60
   1   4  -3 1124.69   37.40
   1   4  -3 1102.19   34.90
   1   4  -3 1031.70   41.30
  -1  -4   3 1112.59   36.70
  -1  -4   3 1087.79   43.50
  -1  -4   3 1136.89   38.40
  -1  -4   3 1117.09   35.50
   0   4  -3  961.30   36.60
   0   4  -3  983.60   30.70
   0   4  -3  949.21   30.70
   0  -4   3  962.30   34.00
  -1   4  -3 2068.39   72.49
  -1   4  -3 2307.47   70.29
  -1   4  -3 2248.77   68.49
  -1   4  -3 2126.89   68.49
   1  -4   3 2204.88   70.99
  -2   4  -3  111.79    6.20
  -2   4  -3  130.99    9.50
  -2   4  -3  116.79    7.20
  -2   4  -3  119.79    5.90
   2  -4   3  130.49    7.50
  -3   4  -3 1773.52   55.09
  -3   4  -3 1738.73   55.39
  -3   4  -3 1692.23   54.39
   3  -4   3 1681.33   53.89
   3  -4   3 1655.33   55.09
   3  -4   3 1714.13   55.89
  -4   4  -3   78.69    5.80
  -4   4  -3   69.09    5.50
  -4   4  -3   60.69    7.70
  -4   4  -3   75.29    6.20
   4  -4   3   71.49    7.10
   4  -4   3   71.79    5.10
  -5   4  -3 1472.45   51.79
  -5   4  -3 1375.56   46.80
  -5   4  -3 1406.66   46.60
  -5   4  -3 1372.16   47.20
   5  -4   3 1417.06   49.30
   5  -4   3 1368.06   46.10
  -6   4  -3  175.88   14.50
  -6   4  -3  192.48   11.40
   6  -4   3  166.08    9.80
   6  -4   3  174.08   12.30
  -7   4  -3  378.36   22.80
  -7   4  -3  373.56   18.90
   7  -4   3  413.06   20.90
   7  -4   3  388.16   17.40
  -8   4  -3  267.77   20.50
  -8   4  -3  263.37   16.70
   8  -4   3  294.07   18.40
   8  -4   3  286.87   15.20
  -9   4  -3  129.69   13.40
  -9   4  -3  110.49   15.40
   9  -4   3   99.89   10.50
   9  -4   3  107.39   13.40
 -10   4  -3  299.77   28.40
 -10   4  -3  343.17   25.50
 -10   4  -3  291.67   20.70
  10  -4   3  321.17   18.80
 -11   4  -3   13.00    8.80
 -11   4  -3   19.30   11.20
  11  -4   3   10.10    8.30
 -12   4  -3  166.58   23.70
 -12   4  -3  149.59   18.00
  12  -4   3  131.79   14.20
 -10  -3   3  131.99   16.10
  -9  -3   3   20.50   12.70
  -9  -3   3   16.00    7.60
  -8  -3   3  380.86   21.60
  -8  -3   3  398.46   28.80
   7   3  -3   10.50    6.50
  -7  -3   3   -2.30    4.90
  -7  -3   3   10.10    8.40
  -7  -3   3    3.50    4.20
   6   3  -3 1122.19   43.90
   6   3  -3 1202.08   46.00
  -6  -3   3 1115.99   42.60
  -6  -3   3 1225.08   49.10
  -6  -3   3 1112.29   48.90
  -6  -3   3 1179.68   41.20
   5   3  -3  158.58   12.20
   5   3  -3  162.28   10.60
  -5  -3   3  153.98   10.60
  -5  -3   3  156.18    9.80
  -5  -3   3  167.68    9.90
  -5  -3   3  141.89   15.20
   4   3  -3 1205.98   43.90
  -4  -3   3 1237.38   42.70
  -4  -3   3 1251.37   41.50
  -4  -3   3 1197.48   42.30
  -4  -3   3 1234.98   47.70
   3   3  -3 1052.19   36.90
  -3  -3   3 1061.29   41.00
  -3  -3   3 1016.10   35.70
  -3  -3   3 1059.19   35.20
  -3  -3   3 1039.60   36.70
   2   3  -3  387.66   15.70
   2   3  -3  392.26   14.00
  -2  -3   3  382.56   14.90
  -2  -3   3  394.06   14.90
  -2  -3   3  392.56   16.40
  -2  -3   3  379.16   19.80
   1   3  -3 3259.67   97.89
   1   3  -3 3029.80  101.99
   1   3  -3 3192.78   96.29
  -1  -3   3 3178.08   99.09
  -1  -3   3 3152.98   96.89
  -1  -3   3 3147.29   97.29
  -1  -3   3 3146.89   98.59
  -1  -3   3 2849.51  103.29
   0   3  -3   15.40    1.80
   0   3  -3   12.80    2.10
   0   3  -3   13.20    4.50
   0  -3   3   15.00    3.00
   0  -3   3    9.90    2.40
   0  -3   3   24.90    5.80
  -1   3  -3 3342.37  109.59
  -1   3  -3 3413.56  106.89
  -1   3  -3 3605.84  106.19
   1  -3   3 3400.46  107.79
  -2   3  -3   28.20    3.70
  -2   3  -3   26.10    3.40
  -2   3  -3   21.20    2.90
  -2   3  -3   13.10    4.70
   2  -3   3   16.20    3.60
   2  -3   3   28.70    2.60
   2  -3   3   25.70    3.60
  -3   3  -3 1567.44   49.60
  -3   3  -3 1526.85   49.90
  -3   3  -3 1548.15   52.99
  -3   3  -3 1537.85   50.29
   3  -3   3 1549.34   51.89
   3  -3   3 1561.04   49.40
   3  -3   3 1555.84   49.90
  -4   3  -3  909.01   31.90
  -4   3  -3  939.11   31.00
  -4   3  -3  946.01   35.30
  -4   3  -3  962.30   32.70
   4  -3   3  916.51   34.20
  -5   3  -3  870.91   31.90
  -5   3  -3  924.11   33.80
  -5   3  -3  888.21   34.70
   5  -3   3  878.51   33.90
   5  -3   3  811.02   30.30
  -6   3  -3 1294.67   48.30
  -6   3  -3 1220.58   44.70
   6  -3   3 1256.37   47.50
   6  -3   3 1253.57   43.20
  -7   3  -3   60.59    8.70
  -7   3  -3   53.39    9.70
   7  -3   3   74.49    8.10
   7  -3   3   55.69    9.40
  -8   3  -3 1003.10   44.60
  -8   3  -3 1075.19   41.60
   8  -3   3 1010.80   38.80
   8  -3   3 1056.39   44.20
  -9   3  -3    2.20    6.70
  -9   3  -3   13.40    8.60
  -9   3  -3    0.00    8.10
   9  -3   3    8.00    7.20
 -10   3  -3  370.16   27.40
 -10   3  -3  358.06   26.10
 -10   3  -3  379.06   24.10
 -11   3  -3   55.39   12.60
 -11   3  -3   66.69   16.10
 -12   3  -3   73.59   17.30
 -12   3  -3   42.50   13.20
  12  -3   3   79.09   11.00
  11   2  -3    1.90    6.90
 -11  -2   3   -4.70    7.30
 -10  -2   3  253.37   27.90
 -10  -2   3  216.48   19.90
  -9  -2   3  112.99   13.10
  -9  -2   3  139.89   19.60
  -8  -2   3  347.97   25.50
  -8  -2   3  352.46   20.10
  -7  -2   3  311.57   22.30
  -7  -2   3  362.16   18.40
   6   2  -3  458.65   22.30
  -6  -2   3  440.96   24.30
  -6  -2   3  436.16   20.50
  -6  -2   3  472.55   19.50
   5   2  -3  889.71   31.90
  -5  -2   3  765.72   29.50
  -5  -2   3  922.21   31.60
  -5  -2   3  851.11   35.40
   4   2  -3   97.49    8.20
   4   2  -3   86.89    6.20
  -4  -2   3  105.49    7.10
  -4  -2   3   98.59    6.00
  -4  -2   3   88.39    6.90
  -4  -2   3   90.19    9.80
   3   2  -3 2934.01   94.09
  -3  -2   3 2959.50   94.49
  -3  -2   3 2962.00   93.59
  -3  -2   3 3040.60   92.39
  -3  -2   3 2917.41   96.89
   2   2  -3  322.97   12.50
   2   2  -3  329.57   11.90
  -2  -2   3  325.87   12.70
  -2  -2   3  296.07   11.60
  -2  -2   3  325.07   15.90
  -2  -2   3  339.17   14.10
   1   2  -3  848.32   27.10
   1   2  -3  833.42   26.90
   1   2  -3  799.22   25.90
   1   2  -3  859.61   25.70
  -1  -2   3  819.12   27.60
  -1  -2   3  842.72   31.60
  -1  -2   3  832.42   27.40
   0   2  -3  189.18    7.70
   0   2  -3  197.38    7.10
   0  -2   3  190.18    8.80
  -1   2  -3 1462.85   46.20
  -1   2  -3 1438.56   47.30
  -1   2  -3 1493.45   48.90
   1  -2   3 1475.95   48.10
  -2   2  -3 1000.60   33.70
  -2   2  -3 1070.39   34.50
  -2   2  -3 1058.59   35.90
   2  -2   3 1032.10   34.00
   2  -2   3 1014.00   35.40
   2  -2   3 1032.40   33.40
  -3   2  -3   58.89    6.60
  -3   2  -3   81.39    6.40
   3  -2   3   63.99    7.50
  -4   2  -3 2764.82   90.49
  -4   2  -3 2744.73   88.59
   4  -2   3 2737.83   92.09
   4  -2   3 2821.62   87.79
  -5   2  -3   -2.90    2.90
  -5   2  -3    1.50    4.10
   5  -2   3    1.70    2.80
   5  -2   3    3.20    4.70
  -6   2  -3  885.51   33.10
  -6   2  -3  797.92   34.40
   6  -2   3  815.52   36.80
   6  -2   3  831.62   31.20
  -7   2  -3  109.19   15.00
  -7   2  -3  101.89   10.80
  -7   2  -3  109.39   13.40
   7  -2   3  104.19   14.70
  -8   2  -3  508.65   26.00
  -8   2  -3  482.45   28.40
  -8   2  -3  532.25   30.00
   8  -2   3  590.04   31.60
  -9   2  -3  377.96   25.30
  -9   2  -3  327.37   24.20
  -9   2  -3  323.17   21.90
   9  -2   3  351.66   25.60
 -10   2  -3   40.30   11.60
 -10   2  -3   33.80   11.40
 -10   2  -3   23.80    8.70
 -11   2  -3  136.79   29.70
 -11   2  -3  182.08   20.00
  11  -2   3  151.38   14.00
  12  -2   3    1.70    6.30
 -11  -1   3   50.39   16.10
 -11  -1   3   74.99   13.10
 -10  -1   3   23.10    9.10
 -10  -1   3   31.00   11.70
  -9  -1   3  237.28   16.50
  -9  -1   3  256.07   24.50
  -8  -1   3   13.50    8.20
  -8  -1   3   13.50    5.70
  -7  -1   3  813.42   36.00
  -7  -1   3  765.12   31.40
   6   1  -3   49.60   10.10
  -6  -1   3   57.99    5.80
  -6  -1   3   42.70    8.70
  -6  -1   3   83.59    7.90
  -6  -1   3   69.99    8.10
   5   1  -3 1746.33   56.69
   5   1  -3 1865.71   61.79
  -5  -1   3 1864.81   60.99
  -5  -1   3 1789.92   63.59
  -5  -1   3 1826.02   60.69
  -5  -1   3 1856.91   58.59
   4   1  -3 1689.83   53.69
   4   1  -3 1756.22   56.29
  -4  -1   3 1782.42   57.39
  -4  -1   3 1760.92   57.99
  -4  -1   3 1754.72   55.09
  -4  -1   3 1714.83   59.59
   3   1  -3 1823.12   57.79
   3   1  -3 1745.63   55.79
  -3  -1   3 1843.62   58.89
  -3  -1   3 1864.31   56.99
  -3  -1   3 1864.31   61.19
  -3  -1   3 1840.82   60.39
   2   1  -3 3409.46  103.39
   2   1  -3 3260.97  102.29
   2   1  -3 3436.56  103.29
  -2  -1   3 3304.57  106.19
  -2  -1   3 3341.67  102.49
  -2  -1   3 3339.47  105.99
  -2  -1   3 3380.26  104.09
   1   1  -3 1734.23   53.49
   1   1  -3 1646.04   52.99
  -1  -1   3 1757.92   55.79
  -1  -1   3 1681.13   56.09
  -1  -1   3 1725.93   52.59
   0   1  -3 6829.42  209.98
   0   1  -3 6996.20  208.78
   0   1  -3 6797.52  207.88
   0  -1   3 6996.80  208.38
   0  -1   3 6403.06  210.58
  -1   1  -3   71.89    5.40
  -1   1  -3   71.49    5.30
   1  -1   3   65.09    5.70
  -2   1  -3 3140.49   99.59
  -2   1  -3 3212.98   99.59
   2  -1   3 3068.89  102.69
   2  -1   3 3238.08   98.59
  -3   1  -3  368.06   15.80
  -3   1  -3  381.16   16.30
   3  -1   3  351.16   19.70
   3  -1   3  404.26   14.60
  -4   1  -3 1610.84   52.89
  -4   1  -3 1666.83   52.29
   4  -1   3 1536.05   51.59
   4  -1   3 1291.37   56.09
  -5   1  -3  771.22   29.80
  -5   1  -3  782.02   30.70
  -5   1  -3  779.02   34.60
   5  -1   3  744.93   35.20
   5  -1   3  727.53   28.70
  -6   1  -3  135.09   15.30
  -6   1  -3  130.69   13.10
  -6   1  -3  133.19   12.10
   6  -1   3  119.99   15.50
  -7   1  -3  718.93   31.40
  -7   1  -3  758.62   35.90
  -7   1  -3  711.03   33.20
   7  -1   3  686.63   36.90
  -8   1  -3   12.30    8.10
  -8   1  -3   23.40    8.10
  -8   1  -3   28.60    9.70
   8  -1   3   19.30    9.50
  -9   1  -3  384.26   26.20
  -9   1  -3  378.56   26.30
  -9   1  -3  368.26   23.10
   9  -1   3  352.16   27.90
 -10   1  -3   36.70   11.00
 -10   1  -3   32.50   10.60
  10  -1   3   41.70    7.40
 -11   1  -3  119.49   16.80
  11  -1   3  115.99   12.60
  12   0  -3    9.50    7.40
 -12   0   3   12.90   11.20
 -12   0   3   16.10    9.60
 -11   0   3  136.69   16.20
 -11   0   3  149.49   21.30
 -10   0   3   12.50    9.60
 -10   0   3    4.00    6.70
  -9   0   3  313.37   19.10
  -9   0   3  325.37   23.10
  -8   0   3   15.70    7.70
  -8   0   3   19.80    6.30
  -7   0   3  563.14   24.30
  -7   0   3  545.15   27.50
  -7   0   3  582.54   26.40
  -6   0   3  582.84   21.70
  -6   0   3  588.74   24.20
  -6   0   3  619.94   24.60
  -6   0   3  613.84   27.30
   5   0  -3  515.45   20.80
  -5   0   3  560.14   19.00
  -5   0   3  580.74   23.00
  -5   0   3  509.95   20.90
  -5   0   3  487.75   23.00
  -4   0   3 4004.60  120.59
  -4   0   3 3895.61  122.59
  -4   0   3 3728.13  117.79
  -4   0   3 3719.63  122.99
   3   0  -3   28.30    3.20
  -3   0   3   30.50    4.00
  -3   0   3   27.20    4.50
  -3   0   3   32.40    2.10
  -3   0   3   26.50    6.30
   2   0  -3 3304.57   98.79
  -2   0   3 3279.27   99.39
  -2   0   3 3239.18  100.59
  -2   0   3 2941.31  103.59
   1   0  -3   30.70    3.00
  -1   0   3   24.20    3.10
  -1   0   3   29.20    8.50
  -1   0   3   27.50    1.50
   0   0  -3 6228.98  186.38
   0   0  -3 6144.29  187.18
   0   0   3 5900.11  188.58
   0   0   3 5999.80  186.98
  -1   0  -3 1914.01   58.29
   1   0   3 1930.31   58.99
   1   0   3 1676.13   62.09
  -2   0  -3 2965.10   92.69
  -2   0  -3 2947.41   91.49
  -2   0  -3 2952.50   96.59
   2   0   3 3024.80   91.19
   2   0   3 2702.63   96.59
  -3   0  -3 3119.69   99.79
  -3   0  -3 3167.28  100.49
  -3   0  -3 3162.58  105.09
   3   0   3 3092.59  105.79
   3   0   3 3209.48   98.29
  -4   0  -3  544.05   22.80
  -4   0  -3  534.85   26.80
  -4   0  -3  575.64   23.10
   4   0   3  609.64   28.70
  -5   0  -3  899.31   39.80
  -5   0  -3  921.01   36.00
  -5   0  -3  917.21   35.50
   5   0   3  996.30   42.00
  -6   0  -3   69.49   11.30
  -6   0  -3   41.80    8.00
  -6   0  -3   51.19    9.40
   6   0   3   68.19   12.50
  -7   0  -3  938.11   42.90
  -7   0  -3  912.41   40.40
  -7   0  -3  891.01   38.50
   7   0   3 1038.00   46.00
  -8   0  -3  235.28   22.00
  -8   0  -3  208.88   22.70
  -8   0  -3  202.48   18.00
   8   0   3  206.58   23.10
  -9   0  -3  143.49   16.40
  -9   0  -3  191.98   20.70
   9   0   3  154.98   11.90
   9   0   3  207.98   23.20
 -10   0  -3  189.38   21.10
 -10   0  -3  118.69   17.70
  10   0   3  182.68   13.60
 -11   0  -3   30.70   12.30
  11   0   3   42.40    8.90
  12  -1  -3    9.80    7.10
 -12   1   3    7.20    9.10
 -12   1   3   16.90   12.80
  11  -1  -3  114.29   12.30
 -11   1   3  118.09   18.30
 -11   1   3  105.99   14.30
 -10   1   3   77.89   14.40
 -10   1   3  104.49   12.50
  -9   1   3  149.69   13.90
  -9   1   3  137.79   16.30
  -8   1   3  477.65   25.60
  -8   1   3  484.85   22.50
  -7   1   3   17.00    6.00
  -7   1   3   21.80    5.40
  -7   1   3   32.70    6.40
  -6   1   3 1482.05   49.30
  -6   1   3 1503.35   52.19
  -6   1   3 1363.46   47.00
  -6   1   3 1355.06   51.79
  -5   1   3  174.78   14.20
  -5   1   3  215.68   12.20
  -5   1   3  177.58    9.00
  -5   1   3  201.88   10.40
   4  -1  -3  794.82   26.60
  -4   1   3  708.73   33.80
  -4   1   3  810.32   27.80
  -4   1   3  788.12   29.40
   3  -1  -3  658.63   22.20
  -3   1   3  679.23   24.30
  -3   1   3  637.64   28.60
  -3   1   3  641.94   22.80
   2  -1  -3  213.48    7.50
   2  -1  -3  215.68    8.70
   2  -1  -3  229.88    8.20
  -2   1   3  233.48   12.30
  -2   1   3  218.78    9.60
   1  -1  -3 1268.97   40.70
   1  -1  -3 1289.97   40.20
   1  -1  -3 1227.58   39.70
  -1   1   3 1253.77   40.20
  -1   1   3 1227.78   42.30
  -1   1   3 1242.68   40.10
  -1   1   3 1294.87   40.40
   0  -1  -3   60.49    5.00
   0   1   3   75.89    6.40
   0   1   3   56.99    5.90
   0   1   3   70.89    5.40
  -1  -1  -3 2936.41   92.09
  -1  -1  -3 2770.12   93.39
   1   1   3 3059.59   91.69
   1   1   3 2848.71   93.19
  -2  -1  -3   37.70    7.40
  -2  -1  -3   37.20    4.10
  -2  -1  -3   38.20    5.60
   2   1   3   32.80    6.40
   2   1   3   33.90    4.10
  -3  -1  -3 2389.46   75.09
  -3  -1  -3 2288.67   80.09
  -3  -1  -3 2363.76   76.29
   3   1   3 2353.06   73.79
   3   1   3 2256.97   79.69
  -4  -1  -3  312.67   20.00
  -4  -1  -3  350.26   16.70
  -4  -1  -3  371.36   17.30
   4   1   3  357.66   20.90
   4   1   3  382.96   14.50
  -5  -1  -3 1067.49   40.40
  -5  -1  -3 1042.50   40.00
  -5  -1  -3 1068.39   44.30
   5   1   3 1055.79   35.80
   5   1   3 1008.80   44.80
  -6  -1  -3  677.53   31.50
  -6  -1  -3  685.03   30.70
  -6  -1  -3  710.63   34.50
   6   1   3  749.53   36.60
   6   1   3  693.23   25.90
  -7  -1  -3  293.77   22.30
  -7  -1  -3  307.27   19.40
   7   1   3  291.57   23.30
   7   1   3  276.27   14.10
  -8  -1  -3  443.76   26.50
  -8  -1  -3  527.05   30.70
   8   1   3  439.26   20.70
   8   1   3  580.54   33.40
  -9  -1  -3   19.30    9.90
  -9  -1  -3   17.00   10.30
   9   1   3   13.60   10.40
   9   1   3   12.60    5.50
 -10  -1  -3  146.69   19.30
 -10  -1  -3  208.08   22.90
  10   1   3  197.78   15.60
  12  -2  -3  154.08   14.50
 -12   2   3  142.59   17.00
 -12   2   3  156.78   22.20
  11  -2  -3    1.00    5.30
 -11   2   3   -9.20    8.00
 -11   2   3    0.10    6.00
 -10   2   3  320.17   23.90
 -10   2   3  357.06   20.90
  -9   2   3    2.90    5.00
  -9   2   3   -6.00    5.60
  -8   2   3  919.61   36.00
  -8   2   3  933.71   39.70
  -7   2   3  370.16   22.30
  -7   2   3  375.16   20.90
  -7   2   3  406.16   18.50
   6  -2  -3  647.74   23.00
   6  -2  -3  634.64   21.70
  -6   2   3  628.64   24.40
  -6   2   3  583.14   26.30
  -6   2   3  590.54   30.80
   5  -2  -3 1443.06   47.90
   5  -2  -3 1504.05   47.20
  -5   2   3 1503.45   49.50
  -5   2   3 1506.75   51.79
  -5   2   3 1423.86   55.99
   4  -2  -3  201.48    8.80
  -4   2   3  204.28    9.70
  -4   2   3  188.38   13.60
  -4   2   3  183.68   11.00
   3  -2  -3 2753.92   85.49
  -3   2   3 2738.33   87.39
  -3   2   3 2798.02   86.39
  -3   2   3 2691.13   89.29
   2  -2  -3  237.68    9.90
   2  -2  -3  248.78   10.10
   2  -2  -3  238.68    9.30
  -2   2   3  243.38   11.80
  -2   2   3  259.27   10.50
  -2   2   3  240.18   10.00
   1  -2  -3 4151.48  131.39
   1  -2  -3 4234.68  132.69
   1  -2  -3 4321.77  132.39
  -1   2   3 4352.66  131.79
  -1   2   3 4274.47  130.59
  -1   2   3 4290.87  132.79
  -1   2   3 4287.07  131.89
  -1   2   3 4142.69  132.29
   0  -2  -3 1179.38   40.60
   0  -2  -3 1261.57   41.30
   0   2   3 1253.17   40.90
   0   2   3 1165.78   41.20
   0   2   3 1220.08   40.20
   0   2   3 1222.78   42.40
  -1  -2  -3 3030.20   99.59
  -1  -2  -3 3135.29   98.59
   1   2   3 3147.29   99.49
   1   2   3 3124.09   97.09
   1   2   3 3141.39   98.89
   1   2   3 3083.29  102.59
  -2  -2  -3 1763.62   57.59
  -2  -2  -3 1807.82   60.09
  -2  -2  -3 1827.72   62.39
   2   2   3 1836.42   57.69
   2   2   3 1857.41   58.89
   2   2   3 1827.62   61.89
  -3  -2  -3  897.31   36.20
  -3  -2  -3  896.51   32.10
  -3  -2  -3  922.91   33.60
   3   2   3  935.31   31.10
   3   2   3  899.31   35.90
   3   2   3  883.81   29.80
  -4  -2  -3 1477.25   56.09
  -4  -2  -3 1566.04   52.99
  -4  -2  -3 1416.46   59.69
   4   2   3 1453.55   56.09
   4   2   3 1523.25   49.10
  -5  -2  -3   55.09    8.40
  -5  -2  -3   55.79   10.40
   5   2   3   63.89   10.90
   5   2   3   59.69    6.10
  -6  -2  -3  911.51   38.30
  -6  -2  -3  987.10   43.00
   6   2   3  862.21   42.80
   6   2   3  965.30   33.50
  -7  -2  -3   50.99   12.20
  -7  -2  -3   51.59   10.50
   7   2   3   57.29   13.40
   7   2   3   58.19    7.10
  -8  -2  -3  484.75   28.40
  -8  -2  -3  451.55   30.40
   8   2   3  563.04   33.90
   8   2   3  514.35   22.30
  -9  -2  -3  112.79   17.40
  -9  -2  -3   80.49   14.70
   9   2   3   61.39    8.70
   9   2   3   78.99   16.20
 -10  -2  -3   85.19   15.70
 -10  -2  -3   94.79   19.30
  10   2   3   77.19   10.40
  12  -3  -3   82.79   10.90
 -12   3   3   69.49   12.60
 -12   3   3   79.99   16.90
  11  -3  -3   37.90    7.70
 -11   3   3   75.89   11.80
 -11   3   3   52.49   12.70
  10  -3  -3  188.98   13.00
 -10   3   3  208.18   15.90
 -10   3   3  217.68   21.20
   9  -3  -3  261.27   14.10
  -9   3   3  248.58   15.80
  -9   3   3  254.87   19.20
   8  -3  -3   95.59    7.40
   8  -3  -3  105.49    8.30
  -8   3   3  116.99   15.20
  -8   3   3  110.19   12.70
  -8   3   3  108.99   10.60
   7  -3  -3  613.24   23.40
   7  -3  -3  664.53   22.80
  -7   3   3  640.84   28.60
  -7   3   3  616.14   25.20
  -7   3   3  533.95   31.70
   6  -3  -3  154.68    7.80
   6  -3  -3  146.79    8.20
  -6   3   3  204.48   18.10
  -6   3   3  141.29   11.50
  -6   3   3  139.09    9.40
   5  -3  -3 1379.26   45.00
  -5   3   3 1359.96   46.00
  -5   3   3 1403.66   48.70
  -5   3   3 1372.66   50.79
   4  -3  -3   74.99    5.10
  -4   3   3   69.79    7.20
  -4   3   3   75.59    8.40
  -4   3   3   67.99    5.20
  -4   3   3   74.49    6.10
   3  -3  -3 1808.92   56.89
   3  -3  -3 1860.31   56.99
  -3   3   3 1774.02   59.89
  -3   3   3 1766.12   57.29
  -3   3   3 1741.63   58.29
   2  -3  -3  385.86   14.50
   2  -3  -3  373.66   15.00
  -2   3   3  419.16   16.70
  -2   3   3  385.66   14.50
  -2   3   3  377.26   14.70
  -2   3   3  351.46   15.30
   1  -3  -3 1590.44   52.99
   1  -3  -3 1594.44   52.29
  -1   3   3 1676.83   53.19
  -1   3   3 1560.94   50.19
  -1   3   3 1634.74   53.79
  -1   3   3 1607.14   52.29
   0  -3  -3 2838.52   94.19
   0  -3  -3 3088.69   94.09
   0   3   3 2970.50   94.39
   0   3   3 3074.79   96.79
   0   3   3 2934.91   93.49
   0   3   3 2877.91   94.59
  -1  -3  -3  700.33   28.10
  -1  -3  -3  768.82   27.20
   1   3   3  753.52   28.20
   1   3   3  730.43   26.00
   1   3   3  768.92   31.20
   1   3   3  718.73   28.00
  -2  -3  -3 1593.44   56.09
  -2  -3  -3 1554.14   53.89
   2   3   3 1573.24   59.99
   2   3   3 1613.24   53.29
   2   3   3 1645.84   55.89
   2   3   3 1608.74   51.89
  -3  -3  -3   21.20    5.40
  -3  -3  -3   13.30    5.70
   3   3   3   27.80    6.50
   3   3   3   22.10    4.40
   3   3   3   21.00    4.20
   3   3   3   26.10    7.90
  -4  -3  -3 1100.19   41.70
  -4  -3  -3 1167.78   45.30
   4   3   3 1054.59   44.50
   4   3   3 1135.99   38.40
   4   3   3 1076.09   48.90
  -5  -3  -3  274.77   19.80
  -5  -3  -3  273.47   17.20
   5   3   3  276.97   23.10
   5   3   3  275.77   13.30
   5   3   3  245.48   19.50
  -6  -3  -3  417.66   26.00
  -6  -3  -3  412.16   22.90
   6   3   3  419.86   27.10
   6   3   3  390.96   18.00
  -7  -3  -3  310.77   21.50
  -7  -3  -3  337.17   25.10
   7   3   3  266.07   25.90
   7   3   3  318.77   16.10
  -8  -3  -3  120.69   16.30
  -8  -3  -3  128.09   18.70
   8   3   3  135.99   11.90
   8   3   3  155.38   21.40
  -9  -3  -3  107.19   17.20
  -9  -3  -3   94.79   17.20
   9   3   3  122.79   12.30
   9   3   3  132.79   20.40
  13  -4  -3   58.69   10.10
 -13   4   3   48.10   12.00
  12  -4  -3   11.60    6.20
 -12   4   3   12.60    8.30
 -12   4   3   -1.40    9.30
  11  -4  -3  160.78   12.80
 -11   4   3  171.38   16.30
 -11   4   3  157.58   19.20
  10  -4  -3   12.50    4.60
  10  -4  -3    8.40    5.00
 -10   4   3   13.50    8.30
 -10   4   3   18.70    6.80
   9  -4  -3  430.16   18.40
   9  -4  -3  423.16   19.10
  -9   4   3  426.56   25.10
  -9   4   3  446.66   21.70
   8  -4  -3  117.49    8.40
   8  -4  -3  118.19    8.10
  -8   4   3  104.19   10.00
  -8   4   3   87.29   15.10
  -8   4   3  106.39   12.60
   7  -4  -3  625.14   23.10
  -7   4   3  590.44   27.70
  -7   4   3  659.33   32.10
  -7   4   3  600.04   24.70
   6  -4  -3  680.93   25.10
  -6   4   3  707.83   26.40
  -6   4   3  728.13   29.70
  -6   4   3  714.03   31.40
   5  -4  -3  564.84   20.20
  -5   4   3  557.84   23.40
  -5   4   3  552.94   24.70
  -5   4   3  562.94   21.20
  -5   4   3  546.05   20.80
   4  -4  -3 1474.95   47.80
  -4   4   3 1498.05   50.39
  -4   4   3 1515.85   48.90
  -4   4   3 1439.46   51.59
   3  -4  -3  619.34   22.00
   3  -4  -3  612.54   22.40
  -3   4   3  628.84   22.90
  -3   4   3  613.84   22.40
  -3   4   3  623.34   24.70
   2  -4  -3 1866.31   61.89
   2  -4  -3 1917.51   62.09
  -2   4   3 1911.71   60.89
  -2   4   3 1927.71   61.69
  -2   4   3 1942.71   63.59
  -2   4   3 1923.61   63.39
   1  -4  -3   69.99    6.40
   1  -4  -3   61.09    6.10
  -1   4   3   56.49    3.60
  -1   4   3   58.69    5.70
  -1   4   3   50.49    6.30
  -1   4   3   66.89    6.50
   0  -4  -3 1586.54   52.19
   0  -4  -3 1584.14   53.59
   0   4   3 1595.44   53.49
   0   4   3 1553.44   52.49
   0   4   3 1605.94   56.19
   0   4   3 1557.44   53.29
  -1  -4  -3  177.88   10.30
  -1  -4  -3  175.68   11.50
   1   4   3  174.38   11.50
   1   4   3  173.78   11.20
   1   4   3  174.88    9.40
   1   4   3  189.88   14.10
  -2  -4  -3  706.03   29.70
  -2  -4  -3  710.43   27.40
   2   4   3  709.33   33.40
   2   4   3  697.03   25.80
   2   4   3  710.13   28.10
   2   4   3  726.83   29.60
  -3  -4  -3 1156.38   44.60
  -3  -4  -3 1129.69   41.40
   3   4   3 1053.09   48.00
   3   4   3 1111.49   43.80
   3   4   3 1152.68   40.10
  -4  -4  -3  252.97   18.60
  -4  -4  -3  277.77   16.70
   4   4   3  274.17   14.10
   4   4   3  247.38   21.40
   4   4   3  287.47   19.00
  -5  -4  -3  775.72   35.90
  -5  -4  -3  666.03   31.10
   5   4   3  707.03   27.50
   5   4   3  658.73   34.70
  -6  -4  -3   33.90   10.20
  -6  -4  -3   25.00    8.60
   6   4   3   29.10   10.70
   6   4   3   24.10    5.50
  -7  -4  -3  602.64   35.00
  -7  -4  -3  602.24   31.50
   7   4   3  525.05   35.10
   7   4   3  630.24   26.20
  -8  -4  -3   11.20   10.40
  -8  -4  -3  -10.40    8.30
   8   4   3   13.90   11.60
   8   4   3   10.60    5.60
  -9  -4  -3  193.58   21.40
   9   4   3  136.19   21.50
   9   4   3  219.08   16.40
  13  -5  -3   76.89   11.60
 -13   5   3   90.59   13.30
  12  -5  -3   -2.70    5.00
 -12   5   3    9.00   10.00
 -12   5   3  -10.10    6.60
  11  -5  -3  214.78   14.10
 -11   5   3  206.88   22.10
 -11   5   3  213.58   17.90
  10  -5  -3   66.49    8.20
 -10   5   3   76.09   13.00
 -10   5   3   64.69    9.50
   9  -5  -3  120.29    9.20
  -9   5   3  118.79   18.50
  -9   5   3  131.19   11.80
  -9   5   3  131.79   15.40
   8  -5  -3  382.46   17.00
  -8   5   3  402.36   18.70
  -8   5   3  439.06   26.20
  -8   5   3  377.16   22.40
   7  -5  -3  149.29    9.00
  -7   5   3  143.99   15.50
  -7   5   3  158.28   14.50
  -7   5   3  160.18   10.10
   6  -5  -3 1203.58   39.90
  -6   5   3 1179.88   46.00
  -6   5   3 1214.58   41.30
  -6   5   3 1152.58   44.10
   5  -5  -3    2.00    2.40
  -5   5   3    0.50    2.40
  -5   5   3    1.50    4.50
  -5   5   3    1.60    3.50
   4  -5  -3 1586.24   52.69
  -4   5   3 1637.24   54.89
  -4   5   3 1677.53   57.19
   3  -5  -3  250.07   11.80
   3  -5  -3  237.68   11.90
  -3   5   3  241.08   11.50
  -3   5   3  250.07   11.50
  -3   5   3  220.88   12.90
   2  -5  -3 1157.68   39.00
   2  -5  -3 1140.19   40.00
  -2   5   3 1120.49   39.20
  -2   5   3 1154.58   37.90
  -2   5   3 1134.09   41.60
  -2   5   3 1188.68   41.10
   1  -5  -3  897.51   33.50
   1  -5  -3  938.31   32.00
  -1   5   3  946.61   33.10
  -1   5   3  892.11   33.50
  -1   5   3  933.11   35.90
   0  -5  -3 1227.38   40.90
   0  -5  -3 1160.08   42.90
   0   5   3 1160.18   41.70
   0   5   3 1168.98   42.30
   0   5   3 1261.07   43.20
   0   5   3 1193.28   45.90
  -1  -5  -3 1204.98   45.40
  -1  -5  -3 1227.08   42.70
   1   5   3 1224.98   42.80
   1   5   3 1272.37   49.30
   1   5   3 1239.08   44.80
   1   5   3 1222.78   45.00
  -2  -5  -3   35.00    6.00
  -2  -5  -3   17.30    6.40
   2   5   3   22.10    6.20
   2   5   3   36.10    5.40
   2   5   3   21.10    6.20
   2   5   3   30.80    9.20
  -3  -5  -3 1346.07   52.29
  -3  -5  -3 1348.27   48.60
   3   5   3 1312.37   51.59
   3   5   3 1381.56   48.50
   3   5   3 1306.47   56.69
  -4  -5  -3    6.20    5.20
  -4  -5  -3    9.10    7.00
   4   5   3    9.80    6.50
   4   5   3    8.20    5.00
  -5  -5  -3  558.24   31.20
  -5  -5  -3  514.05   26.90
   5   5   3  550.64   24.40
   5   5   3  573.44   31.90
  -6  -5  -3  101.99   17.00
  -6  -5  -3   86.79   13.00
   6   5   3  102.59   10.90
   6   5   3   80.09   14.80
  -7  -5  -3  282.87   21.80
  -7  -5  -3  314.67   28.90
   7   5   3  254.87   27.60
   7   5   3  279.27   17.50
  -8  -5  -3  172.88   19.10
   8   5   3  110.09   13.00
   8   5   3  157.18   23.30
 -12   6   3   54.89   13.80
 -11   6   3   23.90   10.60
 -10   6   3   91.99   14.20
  -9   6   3    1.60    8.40
  -9   6   3    5.20    6.20
  -8   6   3  274.07   18.60
  -8   6   3  259.47   20.90
  -7   6   3   55.79    9.50
  -7   6   3   50.39    9.90
  -6   6   3  439.36   22.90
  -6   6   3  418.76   20.80
  -5   6   3  289.07   14.10
  -5   6   3  281.37   17.10
  -5   6   3  308.37   15.50
  -4   6   3  319.97   17.20
  -4   6   3  303.77   14.50
  -4   6   3  310.07   15.00
   3  -6  -3  618.64   24.90
  -3   6   3  634.44   23.90
  -3   6   3  618.94   24.10
  -3   6   3  632.04   26.20
   2  -6  -3   63.19    7.50
  -2   6   3   86.79    9.90
  -2   6   3   62.49    7.60
  -2   6   3   89.79    8.00
   1  -6  -3 1572.34   55.59
  -1   6   3 1629.54   55.49
  -1   6   3 1611.94   54.39
  -1   6   3 1582.54   58.09
   0  -6  -3   28.30    6.00
   0   6   3   30.50    5.80
   0   6   3   26.00    7.20
   0   6   3   26.20    5.60
   0   6   3   34.00    6.30
  -1  -6  -3 1120.19   43.60
   1   6   3 1126.79   40.70
   1   6   3 1157.78   42.40
   1   6   3 1132.29   43.30
   1   6   3 1081.49   47.00
  -2  -6  -3  331.47   20.00
   2   6   3  325.77   19.30
   2   6   3  368.16   19.10
   2   6   3  290.07   22.40
   2   6   3  318.67   16.00
  -3  -6  -3  675.43   32.60
   3   6   3  669.23   32.10
   3   6   3  652.13   28.90
  -4  -6  -3  302.37   22.20
   4   6   3  302.17   22.00
   4   6   3  293.87   17.40
  -5  -6  -3   64.69   13.50
   5   6   3   69.39   13.80
   5   6   3   71.89   10.10
  -6  -6  -3  338.37   26.50
   6   6   3  290.27   28.50
   6   6   3  285.17   18.50
   7   6   3    0.70   10.00
   7   6   3    4.60    6.70
 -12   7   3   79.79   16.40
 -11   7   3   25.00   10.40
 -10   7   3   71.59   12.90
  -9   7   3  113.09   14.70
  -9   7   3   99.99   16.20
  -8   7   3  157.38   17.90
  -8   7   3  176.18   15.30
  -7   7   3  376.46   20.70
  -7   7   3  359.86   22.60
  -6   7   3  174.08   16.00
  -6   7   3  143.19   11.90
  -5   7   3  785.82   29.30
  -5   7   3  750.62   30.00
  -5   7   3  724.13   32.40
  -4   7   3   22.50    6.50
  -4   7   3   27.90    5.20
   3  -7  -3  894.81   34.10
  -3   7   3  839.72   32.40
  -3   7   3  900.41   35.30
   2  -7  -3  184.48   13.00
  -2   7   3  174.48   11.10
  -2   7   3  153.48   12.00
   1  -7  -3 1037.30   40.80
  -1   7   3 1071.09   43.80
  -1   7   3 1081.89   39.10
  -1   7   3 1070.39   40.30
   0  -7  -3  531.65   25.70
   0   7   3  538.45   25.00
   0   7   3  536.75   28.30
   0   7   3  526.65   23.60
   0   7   3  520.55   23.60
  -1  -7  -3  203.38   15.40
   1   7   3  201.88   14.30
   1   7   3  186.78   14.80
   1   7   3  179.38   12.60
  -2  -7  -3  600.94   30.10
   2   7   3  565.04   29.00
   2   7   3  616.34   27.80
   2   7   3  603.44   29.90
  -3  -7  -3    4.50    6.80
   3   7   3   -0.20    5.00
   3   7   3   -3.30    5.60
  -4  -7  -3  339.87   25.40
   4   7   3  373.86   20.80
   4   7   3  356.46   25.40
  -5  -7  -3   -3.70    8.60
   5   7   3   10.90    9.30
   5   7   3    1.30    5.70
   6   7   3  402.06   31.60
   6   7   3  370.46   22.00
 -12   8   3   39.10   13.30
 -11   8   3   54.89   13.30
 -10   8   3   56.39   11.90
 -10   8   3   45.40   14.20
  -9   8   3  140.59   16.40
  -9   8   3  120.99   17.90
  -8   8   3   24.20    9.60
  -8   8   3    9.00    7.10
  -7   8   3  389.96   21.00
  -7   8   3  340.77   23.10
  -6   8   3   58.79   11.10
  -6   8   3   47.60    8.90
  -5   8   3  260.47   17.90
  -5   8   3  239.18   14.10
  -4   8   3  325.37   19.20
  -4   8   3  319.17   16.30
   3  -8  -3  262.67   16.40
  -3   8   3  263.97   14.60
  -3   8   3  264.27   16.70
   2  -8  -3  644.24   28.90
  -2   8   3  646.14   28.50
  -2   8   3  634.94   26.50
   1  -8  -3    9.10    6.20
  -1   8   3   17.50    6.30
  -1   8   3   22.60    5.70
   0  -8  -3  598.74   28.70
   0   8   3  526.35   25.40
   0   8   3  545.05   27.00
   0   8   3  560.74   25.20
  -1  -8  -3   12.70    7.10
   1   8   3   14.50    5.90
   1   8   3    7.00    6.60
   1   8   3   18.70    6.30
  -2  -8  -3  459.95   27.20
   2   8   3  421.76   25.70
   2   8   3  450.05   23.50
  -3  -8  -3  100.39   15.50
   3   8   3  111.09   15.40
   3   8   3  110.99   13.00
  -4  -8  -3  275.87   26.00
   4   8   3  281.47   23.90
   4   8   3  252.27   18.40
   5   8   3  144.49   21.40
   5   8   3  142.69   15.00
 -11   9   3   73.19   14.40
 -10   9   3    0.30   10.90
 -10   9   3   -4.70    7.20
  -9   9   3  122.19   15.60
  -9   9   3  145.39   19.40
  -8   9   3   87.69   12.60
  -8   9   3   98.89   15.00
  -7   9   3  112.49   15.60
  -6   9   3  160.58   17.00
  -5   9   3   -0.40    3.90
  -5   9   3   11.50    7.30
  -4   9   3  384.56   22.40
  -4   9   3  370.16   18.80
   3  -9  -3   -0.20    5.40
  -3   9   3    9.70    6.60
  -3   9   3    7.70    4.80
   2  -9  -3  387.06   22.40
  -2   9   3  413.76   20.30
  -2   9   3  401.76   22.30
   1  -9  -3  203.38   16.70
  -1   9   3  175.38   14.70
  -1   9   3  215.28   16.10
  -1   9   3  180.28   13.60
   0  -9  -3  213.98   19.90
   0   9   3  264.57   16.30
   0   9   3  234.78   18.20
   0   9   3  238.38   16.80
  -1  -9  -3  400.76   26.20
   1   9   3  430.46   25.20
   1   9   3  354.36   21.30
   1   9   3  407.26   21.90
  -2  -9  -3   49.80   12.10
   2   9   3   29.40   10.20
   2   9   3   65.09   10.90
   3   9   3  383.56   27.20
   3   9   3  368.46   22.60
   4   9   3   37.10    9.30
   4   9   3   39.00   13.20
 -11  10   3   29.30   11.40
 -10  10   3   29.30   14.60
  -9  10   3   13.50   12.20
  -8  10   3  119.49   17.40
  -7  10   3    7.50    8.80
  -6  10   3  289.37   22.00
  -5  10   3   76.39   12.70
  -5  10   3   62.59    8.80
  -4  10   3  285.97   17.20
  -4  10   3  305.07   21.10
  -3  10   3   69.69   11.30
  -3  10   3   88.39   10.60
   2 -10  -3   95.49   13.80
  -2  10   3   93.39   10.80
  -2  10   3  121.39   14.60
   1 -10  -3  296.27   22.30
  -1  10   3  315.17   18.60
  -1  10   3  300.87   20.90
  -1  10   3  291.87   20.10
   0 -10  -3   -8.30    6.60
   0  10   3    1.00    7.30
   0  10   3    3.90    5.90
   0  10   3    5.40    7.10
  -1 -10  -3  256.27   26.30
   1  10   3  341.07   20.30
   1  10   3  296.27   22.80
   2  10   3   15.60    7.80
   2  10   3   21.20   10.30
 -10  11   3   53.99   17.20
  -9  11   3   10.60   12.40
  -8  11   3  117.99   19.20
  -7  11   3   57.99   14.00
  -6  11   3   40.70   11.70
  -5  11   3  148.79   18.80
  -4  11   3    5.90    8.10
  -4  11   3   21.10    6.80
  -3  11   3  190.48   19.40
  -3  11   3  206.88   15.70
   2 -11  -3   27.90   10.00
  -2  11   3   20.80    9.00
  -2  11   3   35.60    8.40
  -2  11   3   33.40    9.80
  -1  11   3  161.78   17.90
  -1  11   3  176.88   19.10
  -1  11   3  175.78   16.10
   0  11   3   41.30    9.40
   0  11   3   57.39   11.80
   0  11   3   44.00   11.20
  -9  12   3   40.30   15.00
  -8  12   3    7.50   10.80
  -7  12   3  154.08   20.40
  -6  12   3    9.80    9.90
  -5  12   3  115.99   17.40
  -4  12   3   18.40    7.30
  -4  12   3   30.90   11.30
  -3  12   3   55.19   11.70
  -3  12   3   72.19   14.20
  -3  12   3   64.19   10.50
  -2  12   3  103.79   16.40
  -2  12   3  113.29   16.50
  -2  12   3   95.29   13.60
  -1  12   3   47.30   12.20
   0  13  -4  102.29   14.70
  -1  13  -4    9.30    7.70
  -2  13  -4  101.49   11.70
  -2  13  -4  122.59   16.10
  -3  13  -4   26.10    7.10
  -3  13  -4   12.10    9.00
  -4  13  -4   72.59   10.40
  -4  13  -4   71.89   13.40
  -5  13  -4   47.90    8.60
  -5  13  -4   56.39   13.50
  -6  13  -4   33.40   11.90
  -7  13  -4  108.29   17.90
  -8  13  -4   22.10   12.20
   2  12  -4  168.58   17.90
   1  12  -4    0.90    7.30
   1  12  -4   11.20    5.20
   0  12  -4  109.99   10.90
   0  12  -4  115.19   15.40
  -1  12  -4  106.79   14.50
  -1  12  -4  118.79   11.20
  -2  12  -4  144.69   12.60
  -2  12  -4  149.19   17.00
  -3  12  -4  159.88   17.30
  -3  12  -4  173.58   13.00
  -4  12  -4   45.60   10.80
  -4  12  -4   41.70    7.60
  -5  12  -4  203.88   20.60
  -5  12  -4  180.38   15.20
  -6  12  -4   -2.70    8.10
  -6  12  -4   -0.30    8.10
  -7  12  -4  154.88   19.40
  -7  12  -4  121.09   18.00
  -8  12  -4   51.29   14.20
  -8  12  -4   57.79   14.00
   3  11  -4   52.79    6.80
   3  11  -4   52.79   12.50
   3  11  -4   53.99   11.10
   2  11  -4  123.79   10.00
   2  11  -4  119.79   14.60
   1  11  -4  127.49   14.80
   1  11  -4  144.49   10.50
   0  11  -4   62.49    7.50
   0  11  -4   49.60    9.90
  -1  11  -4  458.65   25.40
  -1  11  -4  457.85   20.70
  -2  11  -4    5.10    4.50
  -2  11  -4   17.50    7.90
  -3  11  -4  234.68   18.20
  -3  11  -4  248.78   14.60
  -4  11  -4   26.10    8.50
  -4  11  -4   26.50    6.00
  -4  11  -4   22.80    8.60
  -5  11  -4  201.68   13.70
  -5  11  -4  163.68   17.30
  -5  11  -4  201.18   19.90
  -6  11  -4  117.69   15.40
  -6  11  -4  102.09   15.60
  -7  11  -4   94.19   14.60
  -7  11  -4   79.99   14.90
  -8  11  -4  119.79   18.40
  -8  11  -4  103.09   20.20
  -9  11  -4   13.90   11.20
   5  10  -4  103.99   16.30
   5  10  -4   95.69    7.50
   4  10  -4   24.00    9.90
   4  10  -4   28.40    4.60
  -4 -10   4   20.20    8.60
   3  10  -4  301.17   19.80
   3  10  -4  285.67   13.50
  -3 -10   4  275.97   19.60
  -3 -10   4  268.87   19.50
   2  10  -4    2.40    5.80
   2  10  -4    5.40    3.50
  -2 -10   4    5.10    7.00
  -2 -10   4    8.50    6.40
   1  10  -4  398.46   17.30
   1  10  -4  403.96   22.40
  -1 -10   4  386.96   23.40
   0  10  -4   71.99    7.50
   0  10  -4   69.39   10.90
   0 -10   4   74.99   11.60
  -1  10  -4  333.97   20.00
  -1  10  -4  353.36   16.10
   1 -10   4  321.27   20.80
  -2  10  -4  108.19   12.90
  -2  10  -4  141.29    9.80
  -2  10  -4  135.49   13.80
  -3  10  -4  154.48   10.90
  -3  10  -4  154.28   15.60
  -3  10  -4  149.39   14.30
  -4  10  -4  347.07   22.00
  -4  10  -4  370.26   17.80
  -4  10  -4  371.66   21.60
  -5  10  -4   23.00    5.70
  -5  10  -4   17.60    7.90
  -5  10  -4   20.10    7.70
  -6  10  -4  263.17   21.20
  -6  10  -4  281.27   19.70
  -7  10  -4    3.70    8.80
  -7  10  -4    0.30    6.30
  -8  10  -4  213.58   23.20
  -9  10  -4   28.30   12.60
 -10  10  -4   44.80   15.40
   5   9  -4  222.78   21.60
   5   9  -4  245.68   10.60
  -5  -9   4  219.18   18.30
   4   9  -4   34.10    8.20
   4   9  -4   22.10    9.00
   4   9  -4   40.80    4.70
  -4  -9   4   38.70    8.90
  -4  -9   4   43.80    9.50
   3   9  -4  212.48   15.40
   3   9  -4  228.98   10.50
  -3  -9   4  198.18   16.00
  -3  -9   4  192.68   16.10
   2   9  -4  179.38   13.80
   2   9  -4  159.08    8.90
  -2  -9   4  151.88   14.90
  -2  -9   4  177.78   14.40
   1   9  -4  285.07   12.80
   1   9  -4  292.27   17.50
  -1  -9   4  279.27   18.40
   0   9  -4  607.64   23.10
   0   9  -4  618.74   27.80
   0  -9   4  612.54   29.10
  -1   9  -4   80.19    7.40
  -1   9  -4   98.49   12.00
  -1   9  -4   65.29    9.90
   1  -9   4   94.89   11.80
  -2   9  -4  781.32   34.10
  -2   9  -4  740.43   32.30
  -2   9  -4  812.12   29.10
   2  -9   4  781.92   34.10
  -3   9  -4   16.70    4.50
  -3   9  -4    5.40    5.30
  -3   9  -4    7.10    5.90
   3  -9   4   17.20    6.40
  -4   9  -4  717.33   33.40
  -4   9  -4  700.73   27.80
  -4   9  -4  735.63   31.40
  -5   9  -4   20.40    8.10
  -5   9  -4   29.20    7.70
  -5   9  -4   29.90    5.60
  -6   9  -4  616.14   32.20
  -6   9  -4  589.34   28.70
  -7   9  -4  209.18   17.10
  -7   9  -4  256.77   21.10
  -8   9  -4   97.99   16.90
  -9   9  -4  135.39   19.70
 -10   9  -4   -0.80   10.90
 -11   9  -4  112.19   20.90
   6   8  -4   98.49   15.20
   5   8  -4  132.69    6.70
   5   8  -4  136.29   16.20
  -5  -8   4  133.79   13.80
   4   8  -4  151.98   13.60
   4   8  -4  146.69    7.10
  -4  -8   4  149.99   14.40
  -4  -8   4  154.78   14.40
   3   8  -4   99.29   11.10
   3   8  -4   95.19    5.70
  -3  -8   4  100.29   11.40
  -3  -8   4   91.79   11.20
   2   8  -4  392.96   21.00
   2   8  -4  410.96   15.10
   2   8  -4  380.56   20.00
  -2  -8   4  412.26   21.50
  -2  -8   4  376.86   20.30
   1   8  -4   15.30    6.70
   1   8  -4    6.10    4.80
   1   8  -4    0.80    2.30
  -1  -8   4   -0.10    4.40
  -1  -8   4   -0.60    3.80
   0   8  -4  650.33   23.30
   0   8  -4  601.04   29.20
   0   8  -4  669.73   27.80
   0  -8   4  641.04   28.50
  -1   8  -4  174.48   13.80
  -1   8  -4  146.39    8.70
  -1   8  -4  166.58   11.70
   1  -8   4  155.48   12.60
  -2   8  -4  799.22   34.20
  -2   8  -4  822.72   32.40
  -2   8  -4  778.72   28.80
   2  -8   4  799.62   33.30
  -3   8  -4  515.45   21.70
  -3   8  -4  563.04   24.80
  -3   8  -4  565.84   27.00
   3  -8   4  580.34   25.80
  -4   8  -4  287.37   18.90
  -4   8  -4  272.37   13.90
  -4   8  -4  293.47   16.50
  -5   8  -4  651.93   30.80
  -5   8  -4  587.84   24.50
  -5   8  -4  601.24   27.10
  -6   8  -4   32.80    7.50
  -6   8  -4   47.60   10.90
  -7   8  -4  480.15   29.00
  -7   8  -4  524.45   25.50
  -8   8  -4   -9.20    7.80
  -9   8  -4  231.68   23.70
 -10   8  -4   56.39   15.20
 -11   8  -4   64.19   17.10
   6   7  -4  324.27   22.10
  -6  -7   4  348.57   20.40
   5   7  -4    4.20    5.90
   5   7  -4    7.50    4.80
  -5  -7   4   14.00    6.00
  -5  -7   4    4.30    5.30
   4   7  -4  345.97   18.20
   4   7  -4  369.96   20.50
  -4  -7   4  355.76   19.00
  -4  -7   4  359.36   19.40
   3   7  -4   60.59   12.00
   3   7  -4   61.99    3.80
   3   7  -4   79.49    9.70
   3   7  -4   64.99    8.40
  -3  -7   4   49.10   12.70
  -3  -7   4   72.89    9.10
  -3  -7   4   77.59   10.00
   2   7  -4  914.41   34.30
   2   7  -4  855.61   34.60
   2   7  -4  859.11   38.80
   2   7  -4  872.81   28.70
  -2  -7   4  905.61   34.30
  -2  -7   4  857.11   35.30
   1   7  -4  512.05   18.40
   1   7  -4  559.84   23.30
   1   7  -4  503.95   26.40
  -1  -7   4  522.25   22.50
  -1  -7   4  518.75   23.90
   0   7  -4  619.84   22.10
   0   7  -4  644.34   26.10
   0   7  -4  625.34   29.20
   0  -7   4  626.44   27.00
  -1   7  -4  876.61   37.70
  -1   7  -4  960.00   32.10
  -1   7  -4  942.91   35.30
   1  -7   4  974.30   36.80
  -2   7  -4   16.20    3.30
  -2   7  -4   15.60    6.50
  -2   7  -4   12.40    5.10
   2  -7   4   10.00    4.70
  -3   7  -4  579.14   24.40
  -3   7  -4  588.84   22.20
  -3   7  -4  575.94   27.20
   3  -7   4  577.94   25.10
  -4   7  -4   63.09   10.40
  -4   7  -4   94.49    8.00
  -4   7  -4   82.69    8.50
   4  -7   4   72.79    8.60
  -5   7  -4  879.91   34.40
  -5   7  -4  931.11   33.00
  -5   7  -4  860.41   38.10
  -6   7  -4  367.96   18.80
  -6   7  -4  370.66   23.20
  -7   7  -4  358.76   24.10
  -8   7  -4  304.57   22.70
  -9   7  -4   61.89   13.40
   9  -7   4   67.39    8.30
 -10   7  -4  273.37   27.80
  10  -7   4  269.77   16.80
 -11   7  -4   37.10   13.90
  11  -7   4   12.50    7.00
  12  -7   4  190.08   17.50
  13  -7   4   16.20    9.30
   7   6  -4    9.30    8.10
  -7  -6   4   10.00    8.80
   6   6  -4  443.56   24.30
   6   6  -4  453.65   20.90
  -6  -6   4  413.86   21.60
  -6  -6   4  476.75   23.00
   5   6  -4  185.08   11.50
   5   6  -4  201.18   12.60
   5   6  -4  163.98   20.40
   5   6  -4  212.18   15.20
   5   6  -4  196.38   14.10
  -5  -6   4  174.78   12.70
  -5  -6   4  156.28   12.30
  -5  -6   4  164.18   23.20
  -5  -6   4  180.98   13.10
   4   6  -4  280.47   13.40
   4   6  -4  285.37   15.10
   4   6  -4  276.07   22.20
   4   6  -4  291.17   16.60
  -4  -6   4  293.37   15.60
  -4  -6   4  275.97   27.80
  -4  -6   4  281.87   14.80
  -4  -6   4  269.27   16.00
   3   6  -4  886.11   33.40
   3   6  -4  855.31   31.90
   3   6  -4  861.71   30.20
   3   6  -4  815.52   38.60
  -3  -6   4  805.12   33.00
  -3  -6   4  790.52   30.40
  -3  -6   4  728.73   41.20
  -3  -6   4  847.92   32.00
   2   6  -4  357.66   12.20
   2   6  -4  345.27   13.40
   2   6  -4  366.16   17.60
   2   6  -4  381.36   17.30
   2   6  -4  355.96   22.50
  -2  -6   4  409.96   25.80
  -2  -6   4  342.67   18.00
  -2  -6   4  368.76   17.00
   1   6  -4 1673.03   57.89
   1   6  -4 1753.32   58.39
   1   6  -4 1624.54   62.79
   1   6  -4 1760.62   53.69
  -1  -6   4 1721.03   57.49
  -1  -6   4 1708.53   59.39
   0   6  -4    2.80    1.80
   0   6  -4    0.00    2.80
   0   6  -4    5.10    5.50
   0  -6   4    3.00    3.40
  -1   6  -4 1388.26   46.30
  -1   6  -4 1434.46   52.59
  -1   6  -4 1438.56   49.10
   1  -6   4 1465.75   50.49
  -2   6  -4  286.17   12.40
  -2   6  -4  311.97   17.50
  -2   6  -4  286.27   14.20
   2  -6   4  297.77   14.90
  -3   6  -4  781.12   27.40
  -3   6  -4  802.22   32.60
  -3   6  -4  735.73   28.70
   3  -6   4  754.42   29.50
  -4   6  -4  550.34   22.50
  -4   6  -4  556.04   21.50
  -4   6  -4  539.25   25.90
   4  -6   4  566.04   23.10
  -5   6  -4  490.05   20.40
  -5   6  -4  512.95   21.50
  -5   6  -4  513.65   25.30
  -6   6  -4  697.23   33.10
  -6   6  -4  723.33   29.70
  -6   6  -4  725.43   28.40
   6  -6   4  689.93   25.90
  -7   6  -4   24.30    5.70
  -7   6  -4   32.30    9.40
   7  -6   4   19.90    4.60
  -8   6  -4  515.25   29.50
  -8   6  -4  491.65   23.40
   8  -6   4  494.25   21.60
  -9   6  -4   27.50    7.80
  -9   6  -4   39.60   12.20
   9  -6   4   34.50    6.70
 -10   6  -4  255.17   26.50
  10  -6   4  234.28   16.30
 -11   6  -4   45.20   14.60
  11  -6   4   57.49   10.00
 -12   6  -4   39.30   16.00
  12  -6   4   45.20   10.00
  13  -6   4   52.49   11.10
   9   5  -4   52.49   10.00
  -9  -5   4   44.00   10.70
   8   5  -4   75.79   10.20
  -8  -5   4   67.89   11.00
   7   5  -4  252.07   15.20
  -7  -5   4  261.27   17.40
   6   5  -4   25.90    6.80
   6   5  -4   21.10    5.30
  -6  -5   4    8.60   10.70
  -6  -5   4   29.00    6.70
  -6  -5   4   16.70    5.20
   5   5  -4  323.27   23.60
   5   5  -4  378.86   16.50
   5   5  -4  363.16   19.50
   5   5  -4  370.36   18.90
  -5  -5   4  379.26   18.20
  -5  -5   4  365.86   17.50
  -5  -5   4  340.17   27.80
  -5  -5   4  332.77   17.80
   4   5  -4   -8.00    6.30
   4   5  -4    8.40    3.30
   4   5  -4   11.20    4.20
  -4  -5   4    8.00    4.20
  -4  -5   4    6.80    4.10
  -4  -5   4   17.80    8.70
   3   5  -4 1534.95   61.99
   3   5  -4 1663.43   55.79
   3   5  -4 1625.14   52.39
  -3  -5   4 1657.23   54.39
  -3  -5   4 1474.05   64.89
  -3  -5   4 1655.83   56.39
  -3  -5   4 1621.84   53.79
   2   5  -4  320.47   12.40
   2   5  -4  272.97   20.00
   2   5  -4  335.97   15.10
  -2  -5   4  340.67   16.20
  -2  -5   4  331.77   14.50
  -2  -5   4  241.78   20.70
  -2  -5   4  314.77   13.40
   1   5  -4  804.02   35.40
   1   5  -4  827.52   27.70
   1   5  -4  862.21   30.50
   1   5  -4  849.81   26.80
   1   5  -4  854.51   28.20
  -1  -5   4  812.02   37.80
  -1  -5   4  848.52   32.00
  -1  -5   4  845.02   28.50
  -1  -5   4  832.82   29.90
   0   5  -4  829.02   34.80
   0   5  -4  848.22   28.20
   0   5  -4  862.11   28.00
   0  -5   4  874.81   32.10
  -1   5  -4  334.67   14.80
  -1   5  -4  357.76   18.30
  -1   5  -4  332.77   13.40
  -1   5  -4  335.57   12.90
   1  -5   4  336.47   15.50
  -2   5  -4 1802.62   58.29
  -2   5  -4 1810.62   59.89
  -2   5  -4 1852.81   57.49
  -2   5  -4 1825.32   63.29
   2  -5   4 1817.12   60.89
  -3   5  -4  158.98    8.40
  -3   5  -4  157.08    7.80
  -3   5  -4  159.18   11.80
  -3   5  -4  168.28    9.30
   3  -5   4  170.68    9.70
  -4   5  -4 2311.37   78.89
  -4   5  -4 2326.97   73.59
  -4   5  -4 2304.67   74.49
   4  -5   4 2291.07   72.69
   4  -5   4 2272.07   74.39
   4  -5   4 2306.57   74.99
  -5   5  -4    2.20    3.20
  -5   5  -4    2.60    3.00
  -5   5  -4   -2.00    2.60
  -5   5  -4    5.30    5.90
   5  -5   4   -1.00    2.30
   5  -5   4    0.30    3.20
   5  -5   4   -2.50    2.70
  -6   5  -4 1030.20   37.10
  -6   5  -4 1048.70   42.80
   6  -5   4  975.40   39.10
   6  -5   4  993.10   35.50
  -7   5  -4  242.58   14.60
  -7   5  -4  230.88   17.90
   7  -5   4  232.98   15.80
   7  -5   4  234.08   12.80
  -8   5  -4  176.68   13.60
  -8   5  -4  193.28   20.00
   8  -5   4  186.58   15.00
   8  -5   4  184.78   12.30
  -9   5  -4  328.07   20.20
  -9   5  -4  319.57   24.90
   9  -5   4  291.57   17.10
   9  -5   4  289.77   20.50
 -10   5  -4   36.00    9.60
 -10   5  -4   32.80   12.50
  10  -5   4   49.20    8.60
  10  -5   4   36.90    8.20
 -11   5  -4  245.38   25.20
 -11   5  -4  177.58   18.90
 -11   5  -4  192.28   25.00
  11  -5   4  258.27   18.40
 -12   5  -4   10.00   10.50
 -12   5  -4   -8.50   10.70
  12  -5   4   -1.90    6.90
  13  -5   4   74.49   13.10
  10   4  -4   20.40    8.40
 -10  -4   4   37.00   10.60
   9   4  -4  136.19   13.70
  -9  -4   4  133.89   15.10
   8   4  -4   -2.20    4.80
  -8  -4   4   13.40   11.00
  -8  -4   4    4.10    6.00
   7   4  -4  488.75   21.50
  -7  -4   4  466.75   31.60
  -7  -4   4  426.46   22.70
   6   4  -4  146.79   12.40
   6   4  -4  165.08   13.40
  -6  -4   4  158.18   10.60
  -6  -4   4  151.08   11.90
  -6  -4   4  161.78   19.50
  -6  -4   4  197.28   12.20
   5   4  -4  473.65   22.10
   5   4  -4  454.85   19.10
   5   4  -4  477.95   21.00
  -5  -4   4  435.56   20.70
  -5  -4   4  481.85   19.80
  -5  -4   4  469.45   28.10
  -5  -4   4  469.85   21.00
   4   4  -4  725.23   26.30
   4   4  -4  719.73   28.90
  -4  -4   4  786.12   36.70
  -4  -4   4  772.22   29.40
  -4  -4   4  672.63   27.70
  -4  -4   4  788.82   27.50
   3   4  -4  805.02   29.70
   3   4  -4  778.42   34.00
   3   4  -4  787.82   27.30
  -3  -4   4  813.92   30.60
  -3  -4   4  778.02   36.70
  -3  -4   4  821.12   28.90
  -3  -4   4  800.42   28.50
   2   4  -4 1828.42   65.69
   2   4  -4 1884.71   59.69
   2   4  -4 1816.22   57.69
  -2  -4   4 1773.52   67.89
  -2  -4   4 1809.92   61.19
  -2  -4   4 1792.22   58.59
  -2  -4   4 1806.92   58.79
   1   4  -4   26.10    3.30
   1   4  -4   26.40    2.00
   1   4  -4   37.60    7.80
   1   4  -4   28.60    3.90
   1   4  -4   25.40    2.90
  -1  -4   4   29.80    3.50
  -1  -4   4   25.40    3.60
  -1  -4   4   26.10    4.70
  -1  -4   4   32.90    8.50
   0   4  -4 3637.34  108.89
   0   4  -4 3497.65  109.39
   0   4  -4 3373.76  115.29
   0  -4   4 3619.74  112.59
  -1   4  -4  135.69    6.50
  -1   4  -4  135.39    8.30
  -1   4  -4  130.59   11.70
   1  -4   4  141.19    8.50
  -2   4  -4 2704.13   84.19
  -2   4  -4 2681.03   84.89
  -2   4  -4 2713.63   84.39
  -2   4  -4 2662.43   88.39
   2  -4   4 2639.04   85.79
  -3   4  -4  108.69    6.90
  -3   4  -4  119.99    6.90
  -3   4  -4  117.09    6.70
  -3   4  -4   97.39   10.10
   3  -4   4  104.69    7.00
   3  -4   4  102.39    5.60
   3  -4   4  103.89    7.20
   3  -4   4  119.19    8.40
  -4   4  -4 1670.23   54.79
  -4   4  -4 1654.73   58.59
  -4   4  -4 1670.93   53.99
  -4   4  -4 1666.03   54.49
   4  -4   4 1631.84   54.59
   4  -4   4 1683.43   53.69
   4  -4   4 1669.33   54.29
   4  -4   4 1638.94   57.09
  -5   4  -4  978.90   34.10
  -5   4  -4  993.90   35.80
  -5   4  -4 1014.20   40.00
   5  -4   4 1010.20   34.70
   5  -4   4  996.30   38.30
  -6   4  -4  105.79   12.70
  -6   4  -4  127.09    9.90
   6  -4   4  115.59   11.90
   6  -4   4  101.59    8.50
  -7   4  -4  980.70   42.50
  -7   4  -4  986.20   38.10
   7  -4   4  930.71   36.00
   7  -4   4 1023.20   41.50
  -8   4  -4   11.50    6.30
  -8   4  -4    4.30    6.90
   8  -4   4    5.50    6.20
   8  -4   4    2.60    4.20
  -9   4  -4  565.24   29.00
  -9   4  -4  623.14   34.40
   9  -4   4  594.54   31.80
   9  -4   4  589.34   27.00
 -10   4  -4   26.30   10.50
 -10   4  -4    2.40    7.10
 -10   4  -4    1.20    9.40
  10  -4   4    8.90    5.80
  10  -4   4   -2.70    5.00
 -11   4  -4  174.18   21.20
 -11   4  -4  150.88   21.80
 -11   4  -4  152.88   18.00
  11  -4   4  171.08   15.40
  11  -4   4  142.19   15.20
 -12   4  -4   21.20   10.40
 -12   4  -4   48.00   16.30
  12  -4   4   38.20    9.00
  10   3  -4   -1.60    6.00
 -10  -3   4    6.90    8.00
   9   3  -4  204.88   14.40
  -9  -3   4  182.58   25.30
  -9  -3   4  224.78   17.20
  -8  -3   4   79.69   10.70
  -8  -3   4   39.90   12.70
  -7  -3   4  290.97   23.10
  -7  -3   4  264.17   16.50
   6   3  -4  211.48   14.40
  -6  -3   4  192.78   12.50
  -6  -3   4  243.98   13.00
  -6  -3   4  218.38   18.00
  -6  -3   4  153.68    9.90
   5   3  -4  279.07   14.00
   5   3  -4  304.87   15.80
  -5  -3   4  285.27   14.70
  -5  -3   4  272.37   19.20
  -5  -3   4  281.57   14.70
   4   3  -4 1522.15   51.69
   4   3  -4 1517.05   49.70
  -4  -3   4 1496.25   51.29
  -4  -3   4 1487.75   56.69
  -4  -3   4 1571.14   52.59
   3   3  -4   68.49    4.90
   3   3  -4   70.29    5.90
  -3  -3   4   76.59    6.10
  -3  -3   4   65.59    9.30
  -3  -3   4   69.49    7.10
   2   3  -4 1748.23   53.89
   2   3  -4 1691.23   52.99
   2   3  -4 1662.83   58.19
  -2  -3   4 1690.53   60.49
  -2  -3   4 1640.94   55.99
  -2  -3   4 1589.24   53.09
  -2  -3   4 1651.73   53.79
   1   3  -4  906.11   30.90
   1   3  -4  964.10   37.30
   1   3  -4  991.50   31.60
   1   3  -4  978.10   30.30
  -1  -3   4  966.50   34.30
  -1  -3   4  978.30   39.30
  -1  -3   4  994.80   32.90
   0   3  -4 1509.05   46.40
   0   3  -4 1402.96   51.79
   0   3  -4 1501.55   47.40
   0  -3   4 1410.86   53.19
   0  -3   4 1457.95   47.80
   0  -3   4 1544.05   49.50
  -1   3  -4 1964.30   66.39
  -1   3  -4 1998.80   62.09
  -1   3  -4 1862.01   63.59
   1  -3   4 2067.89   64.09
  -2   3  -4  641.54   23.20
  -2   3  -4  649.04   25.60
  -2   3  -4  628.84   22.00
   2  -3   4  615.14   22.60
   2  -3   4  621.44   21.00
  -3   3  -4 2554.04   80.79
  -3   3  -4 2648.83   84.39
  -3   3  -4 2555.64   79.89
  -3   3  -4 2600.64   81.59
   3  -3   4 2583.44   80.19
   3  -3   4 2491.85   83.39
   3  -3   4 2476.55   80.89
   3  -3   4 2501.35   80.39
  -4   3  -4   10.70    2.40
  -4   3  -4   11.60    3.90
  -4   3  -4    1.80    2.30
  -4   3  -4    5.70    4.40
   4  -3   4    5.20    2.70
   4  -3   4    5.10    1.90
   4  -3   4   -0.10    3.20
   4  -3   4   11.10    3.00
  -5   3  -4 1594.94   56.89
  -5   3  -4 1567.14   53.89
   5  -3   4 1555.74   52.59
   5  -3   4 1563.84   57.29
  -6   3  -4   74.49    9.00
  -6   3  -4  116.89   13.10
   6  -3   4   90.09   11.90
   6  -3   4   98.79    9.20
  -7   3  -4  842.72   34.90
  -7   3  -4  858.81   38.20
   7  -3   4  855.81   33.20
   7  -3   4  853.41   39.10
  -8   3  -4  214.28   20.70
  -8   3  -4  193.18   16.80
   8  -3   4  195.18   14.20
   8  -3   4  204.58   20.30
  -9   3  -4  207.98   21.90
  -9   3  -4  205.38   18.20
  -9   3  -4  235.58   22.10
   9  -3   4  210.68   21.90
   9  -3   4  253.67   22.60
 -10   3  -4  175.18   22.00
 -10   3  -4  181.28   18.90
 -10   3  -4  198.98   21.60
  10  -3   4  198.48   14.80
 -11   3  -4   26.30   11.00
 -11   3  -4   41.00   12.20
 -11   3  -4   27.10   12.80
  11  -3   4   27.10    8.50
  12  -3   4  124.09   14.50
  11   2  -4   47.50    9.80
 -11  -2   4   88.49   20.10
 -11  -2   4   68.59   13.50
  10   2  -4  126.69   13.50
 -10  -2   4  124.59   21.40
 -10  -2   4  108.69   14.10
   9   2  -4  107.89   11.40
  -9  -2   4   63.29   14.00
  -9  -2   4   81.89   11.90
  -8  -2   4  380.36   20.90
  -8  -2   4  395.16   26.50
  -7  -2   4   -9.30    5.10
  -7  -2   4   -2.60    4.70
  -6  -2   4  849.02   33.50
  -6  -2   4  872.11   33.20
  -6  -2   4  898.41   30.80
  -6  -2   4  868.61   38.20
   5   2  -4  212.38    7.40
   5   2  -4  211.48   12.70
   5   2  -4  197.28   10.90
   5   2  -4  214.78   10.60
  -5  -2   4  201.48   14.40
  -5  -2   4  213.98   12.20
  -5  -2   4  240.58   10.10
  -5  -2   4  206.58   12.20
   4   2  -4  962.60   32.80
   4   2  -4  978.10   34.30
  -4  -2   4  988.20   34.50
  -4  -2   4  930.11   37.80
  -4  -2   4  988.10   35.50
  -4  -2   4  969.90   32.10
   3   2  -4  787.02   27.00
   3   2  -4  803.32   27.40
  -3  -2   4  792.02   31.70
  -3  -2   4  824.02   29.90
  -3  -2   4  805.72   28.10
  -3  -2   4  780.82   26.30
   2   2  -4  406.46   13.60
   2   2  -4  425.86   15.00
   2   2  -4  432.46   13.60
   2   2  -4  434.56   15.40
  -2  -2   4  453.95   18.40
  -2  -2   4  425.36   14.80
  -2  -2   4  410.86   19.60
  -2  -2   4  436.06   16.20
   1   2  -4 1976.90   67.19
   1   2  -4 1975.30   62.49
   1   2  -4 2047.00   63.49
  -1  -2   4 2041.10   63.19
  -1  -2   4 2083.09   66.19
  -1  -2   4 1997.60   68.59
   0   2  -4   34.20    3.90
   0   2  -4   41.00    3.20
   0   2  -4   47.30    6.20
   0  -2   4   49.40    4.10
   0  -2   4   37.90    6.40
   0  -2   4   37.40    4.50
  -1   2  -4 2808.62   90.39
  -1   2  -4 2718.43   89.09
  -1   2  -4 2869.51   87.59
   1  -2   4 2775.52   88.99
   1  -2   4 2836.12   88.59
   1  -2   4 2813.22   86.49
  -2   2  -4  260.57   11.60
  -2   2  -4  274.87   14.00
  -2   2  -4  269.57   13.10
   2  -2   4  287.07   12.30
   2  -2   4  297.27   14.30
   2  -2   4  275.97   12.10
   2  -2   4  258.57   11.00
  -3   2  -4 2411.36   79.59
  -3   2  -4 2303.97   77.39
  -3   2  -4 2519.75   78.79
   3  -2   4 2495.45   77.49
   3  -2   4 2439.26   81.99
   3  -2   4 2441.46   77.59
  -4   2  -4  910.61   33.60
  -4   2  -4  929.01   34.90
   4  -2   4  913.11   32.80
   4  -2   4  913.11   37.80
   4  -2   4  921.81   31.80
  -5   2  -4 1302.17   46.40
  -5   2  -4 1314.17   48.10
   5  -2   4 1306.17   45.70
   5  -2   4 1263.17   51.59
   5  -2   4 1326.37   44.00
  -6   2  -4 1581.04   55.39
  -6   2  -4 1558.84   57.39
   6  -2   4 1500.95   60.99
   6  -2   4 1515.75   53.79
  -7   2  -4  258.17   18.70
  -7   2  -4  241.48   16.90
  -7   2  -4  284.87   20.40
   7  -2   4  244.78   15.70
   7  -2   4  270.27   21.70
  -8   2  -4  762.72   34.10
  -8   2  -4  718.03   36.70
  -8   2  -4  776.92   37.90
   8  -2   4  772.02   30.00
   8  -2   4  761.12   40.30
  -9   2  -4   -5.40    6.80
  -9   2  -4   14.70    8.50
  -9   2  -4   -5.40    7.70
   9  -2   4    2.30    4.60
   9  -2   4   -1.10    8.00
 -10   2  -4  281.47   27.40
 -10   2  -4  285.27   24.00
 -10   2  -4  283.77   24.60
  10  -2   4  278.87   17.50
 -11   2  -4   54.29   13.60
 -11   2  -4   48.10   13.50
  11  -2   4   50.39    9.50
 -12  -1   4   82.19   19.30
  11   1  -4    2.70    6.30
 -11  -1   4    0.20    8.00
 -11  -1   4    1.40   11.00
  10   1  -4  273.17   16.70
 -10  -1   4  255.57   18.80
 -10  -1   4  195.98   23.60
   9   1  -4   12.40    5.70
  -9  -1   4   14.00    8.00
  -9  -1   4   -3.00    5.80
  -8  -1   4  530.15   28.90
  -8  -1   4  480.15   23.90
  -7  -1   4  402.36   23.50
  -7  -1   4  416.46   19.40
  -7  -1   4  404.36   20.10
  -6  -1   4  282.37   17.60
  -6  -1   4  278.07   14.90
  -6  -1   4  293.07   12.60
  -6  -1   4  266.67   14.90
   5   1  -4 1425.36   46.60
   5   1  -4 1482.55   49.00
   5   1  -4 1493.15   50.19
  -5  -1   4 1488.25   53.79
  -5  -1   4 1513.05   47.60
  -5  -1   4 1530.45   50.89
  -5  -1   4 1489.15   51.99
   4   1  -4   82.69    3.90
   4   1  -4   87.79    5.20
  -4  -1   4   91.79    6.70
  -4  -1   4   70.09    8.00
  -4  -1   4   90.39    9.00
  -4  -1   4   88.19    4.50
   3   1  -4 2640.44   81.39
  -3  -1   4 2574.24   84.89
  -3  -1   4 2600.24   82.29
  -3  -1   4 2547.95   79.69
  -3  -1   4 2610.64   85.39
   2   1  -4    1.10    0.90
   2   1  -4    0.60    1.70
  -2  -1   4    1.40    2.10
  -2  -1   4   -5.50    2.80
  -2  -1   4   -0.40    2.70
   1   1  -4 2314.27   71.39
  -1  -1   4 2188.88   74.49
  -1  -1   4 2255.47   74.39
  -1  -1   4 2320.57   70.99
   0   1  -4  189.08    9.70
   0   1  -4  189.58   10.10
   0  -1   4  204.78   10.60
   0  -1   4  199.88    9.30
   0  -1   4  210.18    8.70
   0  -1   4  190.78   10.80
  -1   1  -4 2507.45   82.39
  -1   1  -4 2620.84   82.19
   1  -1   4 2569.44   80.99
   1  -1   4 2657.53   81.89
   1  -1   4 2516.65   83.99
  -2   1  -4 1507.15   49.20
  -2   1  -4 1448.36   49.60
   2  -1   4 1378.06   52.99
   2  -1   4 1576.44   48.50
   2  -1   4 1457.05   49.10
  -3   1  -4  864.11   30.80
  -3   1  -4  896.01   31.30
   3  -1   4  871.51   29.30
   3  -1   4  772.02   35.30
   3  -1   4  783.62   30.50
  -4   1  -4 1642.24   56.69
  -4   1  -4 1697.43   56.79
   4  -1   4 1652.83   62.59
   4  -1   4 1589.54   55.89
   4  -1   4 1682.23   54.09
  -5   1  -4   52.89    8.20
  -5   1  -4   37.60    8.40
  -5   1  -4   47.10    7.90
   5  -1   4   42.80    5.30
   5  -1   4   61.19    7.70
   5  -1   4   41.80    9.90
  -6   1  -4 1325.37   49.90
  -6   1  -4 1455.55   55.29
  -6   1  -4 1283.97   50.79
   6  -1   4 1297.87   45.80
   6  -1   4 1400.56   56.99
  -7   1  -4   64.99   10.50
  -7   1  -4   67.29   12.20
  -7   1  -4   57.69   11.10
   7  -1   4   65.19   13.80
   7  -1   4   57.79    7.10
  -8   1  -4  434.36   26.60
  -8   1  -4  415.36   27.30
  -8   1  -4  387.76   24.20
   8  -1   4  463.05   20.40
   8  -1   4  440.66   29.70
  -9   1  -4  224.08   22.90
  -9   1  -4  243.48   21.90
   9  -1   4  264.57   15.70
   9  -1   4  243.58   26.30
 -10   1  -4   89.69   15.10
 -10   1  -4  111.69   16.50
  10  -1   4   99.19   11.20
 -11   1  -4  154.78   20.00
  11  -1   4  133.19   14.20
  12   0  -4   78.99   11.70
 -12   0   4   76.89   17.40
 -12   0   4   53.39   12.50
  11   0  -4   27.00    7.60
 -11   0   4   19.40   11.80
 -11   0   4    3.50    7.50
  10   0  -4   95.29   11.00
 -10   0   4   99.29   12.80
 -10   0   4  113.59   17.40
   9   0  -4  142.19   12.10
  -9   0   4  156.28   18.50
  -9   0   4  178.28   15.40
   8   0  -4   25.50    5.60
  -8   0   4   27.50    6.90
  -8   0   4   15.60    7.60
   7   0  -4  779.52   29.00
  -7   0   4  821.22   31.70
  -7   0   4  712.03   33.40
  -7   0   4  774.72   31.10
   6   0  -4   23.90    4.30
  -6   0   4   18.50    5.60
  -6   0   4   29.40    5.10
  -6   0   4   20.50    6.00
   5   0  -4 1320.67   43.90
  -5   0   4 1306.97   41.80
  -5   0   4 1335.87   48.10
  -5   0   4 1295.87   48.60
  -5   0   4 1373.66   45.80
   4   0  -4   98.49    6.10
  -4   0   4   92.89    7.60
  -4   0   4   89.99    7.90
  -4   0   4   88.19    3.70
  -4   0   4   89.79   10.90
   3   0  -4 1180.38   37.10
  -3   0   4 1190.78   38.10
  -3   0   4  999.00   42.80
  -3   0   4 1124.09   39.50
   2   0  -4 1477.05   45.00
  -2   0   4 1261.17   50.49
  -2   0   4 1426.86   46.80
   1   0  -4  598.84   22.20
   1   0  -4  639.84   22.00
  -1   0   4  631.24   21.70
  -1   0   4  660.63   24.00
  -1   0   4  629.04   20.60
  -1   0   4  593.24   26.20
  -1   0   4  641.34   22.90
   0   0  -4 6607.74  199.18
   0   0  -4 6428.66  200.08
   0   0   4 6361.96  199.88
   0   0   4 6563.54  202.38
   0   0   4 6495.75  199.48
   0   0   4 6256.57  199.78
   0   0   4 6537.45  202.08
  -1   0  -4   13.10    4.30
  -1   0  -4    8.40    4.70
  -1   0  -4   16.50    3.40
   1   0   4    7.40    5.20
   1   0   4   13.20    3.80
   1   0   4   13.10    3.90
  -2   0  -4 2008.90   71.19
  -2   0  -4 1999.10   65.89
  -2   0  -4 2043.20   67.89
   2   0   4 2041.20   72.19
   2   0   4 2122.39   66.49
   2   0   4 2162.28   69.09
  -3   0  -4   73.89    7.90
  -3   0  -4   66.69    6.60
  -3   0  -4   53.49    8.80
   3   0   4   66.19    5.80
   3   0   4   79.79    7.70
   3   0   4   54.89    9.10
  -4   0  -4 1560.54   55.89
  -4   0  -4 1702.53   61.09
  -4   0  -4 1537.25   54.99
   4   0   4 1619.54   54.29
   4   0   4 1733.33   62.39
   4   0   4 1580.54   52.89
  -5   0  -4 1334.37   50.29
  -5   0  -4 1364.76   50.19
  -5   0  -4 1438.66   55.29
   5   0   4 1349.96   46.60
   5   0   4 1474.85   56.89
  -6   0  -4  350.16   22.70
  -6   0  -4  296.47   19.10
  -6   0  -4  305.07   18.70
   6   0   4  326.27   23.80
   6   0   4  306.47   14.80
  -7   0  -4  657.83   33.60
  -7   0  -4  558.44   29.00
   7   0   4  568.34   24.20
   7   0   4  666.73   35.40
  -8   0  -4   34.90   10.30
  -8   0  -4    7.10    7.60
   8   0   4   42.70   12.30
   8   0   4   36.80    6.70
  -9   0  -4  315.87   23.20
  -9   0  -4  369.96   26.40
   9   0   4  369.36   28.40
   9   0   4  332.07   18.40
 -10   0  -4    7.40    9.00
 -10   0  -4    8.10    9.70
  10   0   4   -7.30    4.80
  11   0   4  237.18   17.60
  12  -1  -4   10.00    7.10
 -12   1   4    4.90    8.70
 -12   1   4   14.20   10.90
  11  -1  -4   99.39   11.50
 -11   1   4   76.29   12.10
 -11   1   4   86.39   16.10
  10  -1  -4    9.60    5.40
 -10   1   4   11.40    8.10
 -10   1   4    0.30    6.20
   9  -1  -4  408.46   18.50
  -9   1   4  332.27   19.60
  -9   1   4  362.46   24.10
   8  -1  -4  127.89    9.80
  -8   1   4  139.99   12.50
  -8   1   4  153.28   16.20
   7  -1  -4  546.55   21.40
  -7   1   4  542.75   23.40
  -7   1   4  535.35   25.70
  -7   1   4  530.75   26.20
   6  -1  -4  529.15   19.70
  -6   1   4  462.15   22.90
  -6   1   4  475.75   25.20
  -6   1   4  514.25   21.40
   5  -1  -4  588.44   20.70
  -5   1   4  552.24   21.80
  -5   1   4  592.94   24.30
  -5   1   4  501.35   27.30
  -5   1   4  541.75   18.30
   4  -1  -4 1211.28   39.00
  -4   1   4 1177.68   39.90
  -4   1   4 1203.48   42.00
  -4   1   4 1117.79   47.10
   3  -1  -4  214.78    9.50
  -3   1   4  230.78   10.40
  -3   1   4  241.38   17.50
  -3   1   4  236.88   11.60
  -3   1   4  210.38    8.90
   2  -1  -4 3907.71  117.39
   2  -1  -4 3833.82  116.19
   2  -1  -4 3725.63  115.59
  -2   1   4 3747.73  122.59
  -2   1   4 3750.32  117.99
  -2   1   4 3701.73  117.99
   1  -1  -4   89.19    6.70
   1  -1  -4   80.29    5.20
  -1   1   4   88.09    6.60
  -1   1   4   85.59    8.20
  -1   1   4   83.69    5.30
  -1   1   4   80.79    5.80
  -1   1   4   90.69    5.60
   0  -1  -4 2513.05   82.19
   0  -1  -4 2615.74   82.49
   0  -1  -4 2619.44   80.09
   0   1   4 2524.75   82.79
   0   1   4 2511.25   79.99
   0   1   4 2525.45   83.19
   0   1   4 2561.54   82.19
   0   1   4 2554.44   82.19
  -1  -1  -4  953.10   33.80
  -1  -1  -4  843.52   34.80
  -1  -1  -4  965.00   30.90
   1   1   4  896.61   34.80
   1   1   4  942.11   33.40
   1   1   4  951.50   32.30
  -2  -1  -4 1098.79   36.40
  -2  -1  -4 1160.48   39.60
  -2  -1  -4 1027.10   42.00
   2   1   4 1124.99   37.90
   2   1   4 1114.29   42.20
  -3  -1  -4 1913.81   61.19
  -3  -1  -4 1763.82   66.89
  -3  -1  -4 1899.31   63.29
   3   1   4 1809.92   66.89
   3   1   4 1931.41   60.89
  -4  -1  -4  274.07   19.30
  -4  -1  -4  290.47   15.70
  -4  -1  -4  273.67   14.70
   4   1   4  268.57   19.10
   4   1   4  297.27   13.20
  -5  -1  -4 1954.50   72.99
  -5  -1  -4 1956.20   68.29
   5   1   4 1954.20   63.99
   5   1   4 1922.41   73.69
  -6  -1  -4    8.30    6.30
  -6  -1  -4    6.10    7.60
   6   1   4   11.80    8.50
   6   1   4   14.20    4.50
  -7  -1  -4  800.72   36.10
  -7  -1  -4  824.62   40.10
   7   1   4  815.52   41.10
   7   1   4  757.82   30.40
  -8  -1  -4  128.69   17.70
  -8  -1  -4  121.59   16.00
   8   1   4  137.59   11.90
   8   1   4  151.18   20.00
  -9  -1  -4  342.37   25.60
  -9  -1  -4  369.56   27.50
   9   1   4  320.47   18.30
   9   1   4  337.27   28.30
 -10  -1  -4  102.89   17.50
 -10  -1  -4   68.89   15.50
  10   1   4   95.29   11.70
  12  -2  -4    8.60    6.40
 -12   2   4    3.70   10.80
 -12   2   4    1.60    8.60
  11  -2  -4  211.68   15.30
 -11   2   4  254.77   18.50
 -11   2   4  206.78   22.70
  10  -2  -4   55.39    8.30
 -10   2   4   65.39   10.10
 -10   2   4   71.59   13.60
   9  -2  -4  129.09   10.30
  -9   2   4  151.08   13.40
  -9   2   4  133.99   15.90
   8  -2  -4  486.95   20.40
  -8   2   4  480.35   22.50
  -8   2   4  465.35   24.90
  -8   2   4  474.05   26.00
   7  -2  -4   31.10    5.00
  -7   2   4   41.00    6.80
  -7   2   4   54.09    9.10
  -7   2   4   35.20   10.00
   6  -2  -4  731.33   24.30
   6  -2  -4  691.23   25.50
  -6   2   4  677.83   34.90
  -6   2   4  686.63   26.80
  -6   2   4  717.23   29.70
   5  -2  -4    1.40    1.70
   5  -2  -4   -1.30    2.20
  -5   2   4   -4.10    2.60
  -5   2   4   -0.60    6.10
  -5   2   4   10.60    4.30
   4  -2  -4 1298.57   42.60
  -4   2   4 1298.77   45.00
  -4   2   4 1299.07   49.50
  -4   2   4 1302.57   43.50
   3  -2  -4 1210.78   39.60
   3  -2  -4 1205.88   38.30
   3  -2  -4 1216.18   39.40
  -3   2   4 1217.28   44.40
  -3   2   4 1185.88   41.00
  -3   2   4 1224.68   39.60
   2  -2  -4 1375.46   44.10
   2  -2  -4 1341.07   43.70
   2  -2  -4 1312.97   42.70
  -2   2   4 1375.36   43.80
  -2   2   4 1314.17   46.40
  -2   2   4 1339.37   43.60
  -2   2   4 1308.67   43.60
  -2   2   4 1339.57   43.30
   1  -2  -4 1607.14   53.09
   1  -2  -4 1585.24   53.79
   1  -2  -4 1574.14   52.19
  -1   2   4 1636.24   51.19
  -1   2   4 1604.14   52.79
  -1   2   4 1623.44   53.39
  -1   2   4 1652.33   53.09
  -1   2   4 1662.83   54.09
   0  -2  -4  708.43   26.90
   0  -2  -4  659.23   26.10
   0   2   4  710.63   28.00
   0   2   4  698.53   26.90
   0   2   4  730.93   25.80
   0   2   4  715.43   26.50
  -1  -2  -4 1053.19   37.30
  -1  -2  -4  988.10   38.00
   1   2   4  977.20   40.60
   1   2   4 1077.49   35.50
   1   2   4 1053.99   37.50
   1   2   4 1069.59   38.20
  -2  -2  -4  303.27   15.00
  -2  -2  -4  283.97   16.70
   2   2   4  302.17   16.40
   2   2   4  288.07   12.40
   2   2   4  307.17   14.10
  -3  -2  -4 1573.64   55.69
  -3  -2  -4 1575.04   59.29
   3   2   4 1657.33   59.29
   3   2   4 1602.94   53.49
  -4  -2  -4  179.88   17.70
  -4  -2  -4  189.18   13.70
   4   2   4  202.08   11.10
   4   2   4  180.38   15.80
  -5  -2  -4  758.92   33.00
  -5  -2  -4  798.42   37.90
   5   2   4  791.82   38.00
   5   2   4  782.12   29.30
  -6  -2  -4  240.68   17.20
  -6  -2  -4  270.27   21.50
   6   2   4  249.68   24.50
   6   2   4  261.07   13.90
  -7  -2  -4  151.68   19.40
  -7  -2  -4  140.19   15.20
   7   2   4  131.59   11.30
   7   2   4  149.88   20.20
  -8  -2  -4  341.87   26.40
  -8  -2  -4  258.47   23.50
   8   2   4  285.77   27.60
   8   2   4  290.57   16.60
  -9  -2  -4   44.70   13.30
  -9  -2  -4   36.50   12.20
   9   2   4   45.60   13.90
   9   2   4   40.60    8.40
  10   2   4  244.58   17.90
  12  -3  -4   72.49   10.50
 -12   3   4   80.29   16.40
 -12   3   4   57.89   11.40
  11  -3  -4   41.00    7.90
 -11   3   4   33.30    8.70
 -11   3   4   63.29   14.10
  10  -3  -4  233.38   14.10
 -10   3   4  224.68   16.50
 -10   3   4  194.38   19.80
   9  -3  -4    2.10    3.80
  -9   3   4    3.50    6.30
  -9   3   4    9.80    5.30
   8  -3  -4  518.45   19.30
   8  -3  -4  460.05   20.00
  -8   3   4  482.75   22.10
  -8   3   4  447.86   29.00
  -8   3   4  495.25   25.70
   7  -3  -4  129.49    7.70
   7  -3  -4  129.29    8.60
  -7   3   4  130.59   13.20
  -7   3   4  130.09   17.40
  -7   3   4  126.69    9.90
   6  -3  -4  307.77   13.00
  -6   3   4  271.77   13.80
  -6   3   4  278.97   20.60
  -6   3   4  274.67   15.60
   5  -3  -4  556.34   20.60
  -5   3   4  570.94   21.70
  -5   3   4  553.94   23.30
  -5   3   4  559.74   26.40
   4  -3  -4  406.96   15.70
  -4   3   4  406.76   17.50
  -4   3   4  430.16   20.30
  -4   3   4  400.76   15.80
   3  -3  -4 2570.04   79.89
   3  -3  -4 2492.65   78.99
  -3   3   4 2512.75   79.99
  -3   3   4 2511.55   80.59
  -3   3   4 2523.65   83.19
   2  -3  -4   48.10    5.80
   2  -3  -4   43.60    4.50
  -2   3   4   44.00    5.10
  -2   3   4   41.80    4.50
  -2   3   4   45.40    6.30
  -2   3   4   42.50    4.20
  -2   3   4   36.10    4.60
   1  -3  -4 2509.85   81.89
   1  -3  -4 2492.85   80.89
  -1   3   4 2513.35   81.79
  -1   3   4 2579.84   81.19
  -1   3   4 2504.55   82.49
  -1   3   4 2527.35   78.59
  -1   3   4 2578.04   81.39
   0  -3  -4  353.96   16.60
   0  -3  -4  390.36   17.20
   0   3   4  387.96   17.70
   0   3   4  406.16   17.10
   0   3   4  373.26   18.90
   0   3   4  389.06   16.20
  -1  -3  -4 1794.62   62.99
  -1  -3  -4 1850.41   61.79
   1   3   4 1842.92   66.29
   1   3   4 1879.81   62.59
   1   3   4 1856.61   62.89
   1   3   4 1827.02   60.09
  -2  -3  -4  850.01   34.80
  -2  -3  -4  812.32   32.20
   2   3   4  800.82   37.60
   2   3   4  875.71   32.20
   2   3   4  880.11   30.00
   2   3   4  851.91   34.10
  -3  -3  -4  900.91   35.70
  -3  -3  -4  910.91   39.00
   3   3   4  967.60   39.00
   3   3   4  917.21   34.00
   3   3   4  934.21   42.50
  -4  -3  -4 1329.77   48.30
  -4  -3  -4 1251.07   51.99
   4   3   4 1229.38   51.29
   4   3   4 1286.17   45.20
   4   3   4 1335.77   56.09
  -5  -3  -4   68.89   12.40
  -5  -3  -4   49.20    9.10
   5   3   4   62.39   12.30
   5   3   4   57.59    7.30
  -6  -3  -4  474.55   25.90
  -6  -3  -4  490.35   29.70
   6   3   4  423.36   28.80
   6   3   4  456.15   21.10
  -7  -3  -4   18.10    9.10
  -7  -3  -4   32.90   11.70
   7   3   4   26.90    6.50
   7   3   4   38.50   12.80
  -8  -3  -4  308.07   24.30
  -8  -3  -4  353.06   29.20
   8   3   4  312.67   29.90
   8   3   4  316.47   18.70
  -9  -3  -4   18.90   12.50
   9   3   4   54.79   15.20
   9   3   4   63.99    9.90
  13  -4  -4    4.00    6.70
 -13   4   4   25.00    9.60
  12  -4  -4  184.88   15.80
 -12   4   4  162.98   16.70
 -12   4   4  200.58   23.50
  11  -4  -4   13.10    5.60
 -11   4   4   -3.40    8.00
 -11   4   4   18.10    7.50
  10  -4  -4  150.78   11.50
  10  -4  -4  166.18   11.00
 -10   4   4  157.88   14.80
 -10   4   4  165.58   18.50
   9  -4  -4  182.88   11.70
  -9   4   4  178.78   21.30
  -9   4   4  182.68   13.50
  -9   4   4  181.88   18.10
   8  -4  -4  136.89    9.50
  -8   4   4  140.39   11.80
  -8   4   4  140.19   19.10
  -8   4   4  134.59   14.40
   7  -4  -4  225.08   11.40
  -7   4   4  224.98   15.40
  -7   4   4  206.48   20.50
  -7   4   4  218.78   12.90
   6  -4  -4  341.87   14.50
  -6   4   4  319.47   20.50
  -6   4   4  326.87   15.40
  -6   4   4  346.07   17.90
   5  -4  -4 1345.67   45.40
  -5   4   4 1387.16   51.19
  -5   4   4 1395.16   48.50
   4  -4  -4   16.00    3.40
  -4   4   4   10.80    3.60
  -4   4   4   14.00    5.20
  -4   4   4   15.30    3.30
   3  -4  -4 1246.28   41.80
   3  -4  -4 1248.38   42.30
  -3   4   4 1256.17   42.10
  -3   4   4 1286.27   42.40
  -3   4   4 1241.78   44.90
   2  -4  -4  196.38   10.40
   2  -4  -4  207.38   11.30
  -2   4   4  219.48   12.20
  -2   4   4  208.38    9.10
  -2   4   4  230.18   11.00
  -2   4   4  212.78   11.90
   1  -4  -4 1231.08   42.60
   1  -4  -4 1173.78   42.20
  -1   4   4 1212.28   42.30
  -1   4   4 1258.47   42.50
  -1   4   4 1248.88   44.60
  -1   4   4 1215.88   42.70
   0  -4  -4 1211.08   43.80
   0  -4  -4 1224.48   42.90
   0   4   4 1215.58   42.50
   0   4   4 1268.37   46.80
   0   4   4 1189.58   43.80
   0   4   4 1262.47   43.80
  -1  -4  -4  328.17   15.80
  -1  -4  -4  291.37   16.70
   1   4   4  321.17   19.90
   1   4   4  331.77   16.90
   1   4   4  302.37   16.70
   1   4   4  288.17   14.00
  -2  -4  -4 1716.73   59.29
  -2  -4  -4 1762.42   62.39
   2   4   4 1667.23   61.39
   2   4   4 1821.52   59.99
   2   4   4 1670.63   56.79
   2   4   4 1658.73   65.69
  -3  -4  -4   13.50    7.20
  -3  -4  -4   18.60    6.10
   3   4   4   25.10    6.10
   3   4   4    5.10    7.40
   3   4   4   21.00    6.80
  -4  -4  -4  984.10   40.90
  -4  -4  -4 1172.18   46.70
   4   4   4 1053.59   45.30
   4   4   4 1033.00   38.80
   4   4   4  941.91   49.50
  -5  -4  -4   63.99   12.40
  -5  -4  -4   55.39    9.90
   5   4   4   57.89    8.30
   5   4   4   55.79   12.20
  -6  -4  -4  515.55   32.10
  -6  -4  -4  438.16   26.10
   6   4   4  442.96   30.90
   6   4   4  511.05   23.10
  -7  -4  -4  130.79   16.60
  -7  -4  -4  157.48   20.90
   7   4   4  178.48   15.00
   7   4   4  136.89   20.70
  -8  -4  -4  175.08   24.10
  -8  -4  -4  177.28   20.40
   8   4   4  187.98   16.40
   8   4   4  161.58   23.30
   9   4   4  164.18   23.40
  13  -5  -4   -2.40    6.60
 -13   5   4   29.80   10.10
  12  -5  -4   47.60    9.00
 -12   5   4   50.59   11.00
 -12   5   4   53.39   14.10
  11  -5  -4   86.39   10.20
 -11   5   4   68.79   11.10
 -11   5   4   64.59   13.50
  10  -5  -4   33.80    6.60
 -10   5   4   39.00    8.10
 -10   5   4   17.70    8.90
   9  -5  -4  261.47   14.20
  -9   5   4  272.47   16.20
  -9   5   4  300.47   20.20
  -9   5   4  255.77   27.20
   8  -5  -4    1.90    3.60
  -8   5   4   -0.50    8.20
  -8   5   4    2.40    5.70
  -8   5   4    0.90    3.90
   7  -5  -4  327.57   14.70
  -7   5   4  322.07   15.80
  -7   5   4  333.97   22.20
  -7   5   4  315.57   18.50
   6  -5  -4   95.39    7.40
  -6   5   4  106.19   10.80
  -6   5   4  112.29   12.90
   5  -5  -4  530.85   19.70
  -5   5   4  498.85   22.00
  -5   5   4  501.35   20.40
  -5   5   4  482.65   23.80
   4  -5  -4  586.84   22.40
  -4   5   4  597.04   25.90
  -4   5   4  595.84   23.50
   3  -5  -4  175.28   10.40
   3  -5  -4  197.78   11.30
  -3   5   4  191.38    9.90
  -3   5   4  209.48   10.90
  -3   5   4  211.18   13.00
   2  -5  -4 1213.38   42.50
   2  -5  -4 1204.38   42.20
  -2   5   4 1230.08   44.70
  -2   5   4 1219.68   42.30
  -2   5   4 1213.28   43.70
   1  -5  -4   38.50    6.10
   1  -5  -4   36.90    5.90
  -1   5   4   41.30    6.50
  -1   5   4   49.10    7.70
  -1   5   4   37.00    6.20
  -1   5   4   31.50    5.40
   0  -5  -4  798.42   29.90
   0  -5  -4  768.82   31.50
   0   5   4  796.62   31.50
   0   5   4  776.72   31.30
   0   5   4  772.62   29.90
   0   5   4  834.52   35.20
  -1  -5  -4  185.78   14.60
  -1  -5  -4  213.98   12.80
   1   5   4  195.28   11.30
   1   5   4  189.08   13.40
   1   5   4  183.88   13.80
   1   5   4  196.58   18.40
  -2  -5  -4 1013.30   38.50
  -2  -5  -4 1048.40   42.50
   2   5   4  974.80   45.60
   2   5   4 1000.90   36.70
   2   5   4  970.00   40.70
   2   5   4 1101.39   40.10
  -3  -5  -4  440.06   25.70
  -3  -5  -4  443.16   22.00
   3   5   4  405.16   24.10
   3   5   4  432.06   21.40
  -4  -5  -4  255.67   17.60
  -4  -5  -4  297.37   22.40
   4   5   4  298.67   21.70
   4   5   4  240.68   16.10
  -5  -5  -4  326.97   25.10
  -5  -5  -4  292.87   20.50
   5   5   4  309.47   18.20
   5   5   4  301.67   24.00
  -6  -5  -4   46.00   14.00
  -6  -5  -4   42.80   10.40
   6   5   4   38.80   13.30
   6   5   4   22.40    7.00
  -7  -5  -4  332.27   25.30
  -7  -5  -4  389.46   30.90
   7   5   4  372.26   21.50
   7   5   4  346.87   30.10
  -8  -5  -4    1.00    9.90
   8   5   4    5.50    7.20
   8   5   4    4.50   12.40
 -12   6   4   13.10   10.70
 -11   6   4  113.49   16.50
 -10   6   4   56.39   11.80
  -9   6   4  262.57   27.80
  -9   6   4  251.17   19.10
  -8   6   4  187.88   19.90
  -8   6   4  174.48   14.70
  -7   6   4  253.37   16.20
  -7   6   4  226.68   18.70
  -6   6   4  633.84   27.60
  -6   6   4  650.53   30.30
  -5   6   4   31.70    6.10
  -5   6   4   39.90    5.90
  -5   6   4   37.60    8.30
  -4   6   4  801.42   30.50
  -4   6   4  836.12   33.90
  -4   6   4  808.82   30.30
   3  -6  -4   51.89    7.00
  -3   6   4   53.89    7.80
  -3   6   4   67.39    7.00
   2  -6  -4  844.82   33.30
  -2   6   4  893.11   32.70
  -2   6   4  889.91   35.90
  -2   6   4  856.91   34.00
   1  -6  -4  330.97   17.80
  -1   6   4  333.37   17.30
  -1   6   4  342.97   20.10
  -1   6   4  368.36   17.90
  -1   6   4  351.26   17.60
   0  -6  -4  435.16   22.10
   0   6   4  426.46   21.20
   0   6   4  420.76   19.70
   0   6   4  446.66   21.30
   0   6   4  415.46   24.40
  -1  -6  -4  905.21   37.00
   1   6   4  833.12   35.50
   1   6   4  790.62   39.50
   1   6   4  892.11   35.40
   1   6   4  836.62   32.80
  -2  -6  -4  145.79   15.70
   2   6   4  112.39   12.90
   2   6   4   99.99   12.20
  -3  -6  -4  555.84   30.80
   3   6   4  561.74   30.00
   3   6   4  530.35   25.90
  -4  -6  -4   11.10    8.80
   4   6   4    2.50    7.90
   4   6   4    8.60    6.00
  -5  -6  -4  557.84   35.00
   5   6   4  552.84   26.30
   5   6   4  515.65   33.60
  -6  -6  -4   98.99   17.80
   6   6   4  133.29   20.30
   6   6   4  116.29   13.00
   7   6   4  242.18   17.90
   7   6   4  214.78   28.00
 -12   7   4   41.30   13.10
 -11   7   4   46.10   12.70
 -10   7   4  137.49   22.40
 -10   7   4  160.98   17.80
  -9   7   4   36.30   12.00
  -9   7   4   22.70    8.40
  -8   7   4  157.58   15.60
  -8   7   4  190.28   20.30
  -7   7   4   -4.10    4.50
  -7   7   4   16.40    8.40
  -6   7   4  512.25   23.90
  -6   7   4  517.45   27.20
  -5   7   4   64.79   10.00
  -5   7   4   64.99    7.60
   4  -7  -4  631.74   26.40
  -4   7   4  606.04   25.60
  -4   7   4  658.63   29.30
   3  -7  -4  411.56   19.80
  -3   7   4  385.56   18.50
  -3   7   4  379.06   20.20
   2  -7  -4  297.07   17.30
  -2   7   4  286.77   16.90
  -2   7   4  288.47   15.80
  -2   7   4  298.37   19.00
   1  -7  -4  444.36   22.60
  -1   7   4  443.36   21.10
  -1   7   4  424.26   21.20
  -1   7   4  426.96   24.80
  -1   7   4  465.05   22.10
   0  -7  -4    5.20    5.70
   0   7   4   -0.20    4.50
   0   7   4    2.00    4.50
   0   7   4    3.20    4.90
  -1  -7  -4  594.34   29.40
   1   7   4  549.85   27.10
   1   7   4  554.24   27.80
   1   7   4  564.74   25.20
  -2  -7  -4    4.30    6.80
   2   7   4   12.20    6.80
   2   7   4   14.50    6.70
  -3  -7  -4  263.77   22.50
   3   7   4  238.48   20.60
   3   7   4  281.17   18.50
  -4  -7  -4  265.67   26.60
   4   7   4  288.47   19.00
   4   7   4  278.97   24.00
  -5  -7  -4   41.90   13.90
   5   7   4   38.80    8.70
   5   7   4   48.80   13.60
   6   7   4  183.18   24.50
   6   7   4  195.58   17.00
 -12   8   4   36.20   16.70
 -11   8   4   -3.90    8.10
 -10   8   4  102.29   15.00
 -10   8   4  126.99   21.40
  -9   8   4   32.50    9.00
  -9   8   4    5.00   10.00
  -8   8   4   69.09   10.90
  -8   8   4   66.69   13.90
  -7   8   4  150.68   17.20
  -6   8   4  114.39   14.60
  -5   8   4  467.45   24.50
  -5   8   4  373.56   19.40
  -4   8   4    8.30    4.60
  -4   8   4   -3.70    5.50
   3  -8  -4  674.83   30.30
  -3   8   4  734.03   29.30
  -3   8   4  695.83   31.40
   2  -8  -4   78.99   11.10
  -2   8   4   97.29   11.90
  -2   8   4   97.09   10.30
   1  -8  -4  424.06   23.80
  -1   8   4  432.56   23.00
  -1   8   4  409.86   21.10
  -1   8   4  405.56   21.90
   0  -8  -4  258.67   19.40
   0   8   4  239.28   17.50
   0   8   4  242.38   16.50
   0   8   4  230.68   16.50
  -1  -8  -4  284.67   21.30
   1   8   4  277.67   18.40
   1   8   4  236.88   18.90
   1   8   4  248.98   16.70
  -2  -8  -4  218.08   21.90
   2   8   4  265.97   20.70
   2   8   4  254.67   18.60
  -3  -8  -4   14.90    9.20
   3   8   4    3.10    9.50
   3   8   4   10.10    7.40
   4   8   4  384.16   23.20
   4   8   4  384.76   29.60
   5   8   4   12.60   11.10
 -11   9   4   25.10   10.70
 -10   9   4   62.89   12.20
 -10   9   4   56.29   15.70
  -9   9   4   59.19   14.80
  -8   9   4   20.90   11.00
  -7   9   4  269.07   21.90
  -6   9   4   -1.80    7.00
  -5   9   4  343.77   19.00
  -5   9   4  349.87   22.70
  -4   9   4  152.58   13.30
  -4   9   4  144.19   15.90
   3  -9  -4  163.18   15.70
  -3   9   4  159.08   16.00
  -3   9   4  151.28   13.20
   2  -9  -4  271.97   19.20
  -2   9   4  272.87   18.70
  -2   9   4  266.87   18.00
  -2   9   4  301.07   17.60
   1  -9  -4   15.60    8.50
  -1   9   4   24.20    7.20
  -1   9   4   21.20    7.70
  -1   9   4   11.30    6.50
   0  -9  -4  404.96   26.70
   0   9   4  433.66   25.20
   0   9   4  431.56   23.30
   0   9   4  403.96   23.10
  -1  -9  -4   14.60    9.90
   1   9   4   14.50    7.20
   1   9   4    8.90    7.90
  -2  -9  -4  369.16   28.00
   2   9   4  417.56   27.40
   2   9   4  360.26   23.60
   3   9   4   44.30   13.00
   3   9   4   29.50    9.20
 -10  10   4  -13.10   11.60
  -9  10   4   85.79   17.90
  -8  10   4   41.70   12.90
  -7  10   4  132.79   18.70
  -6  10   4   64.09   13.00
  -5  10   4   56.79   12.00
  -4  10   4  135.49   16.40
  -4  10   4  192.48   14.50
   3 -10  -4    0.80    7.10
  -3  10   4    6.70    5.70
  -3  10   4    2.10    6.70
  -3  10   4    5.70    5.50
   2 -10  -4  197.98   19.50
  -2  10   4  203.68   17.40
  -2  10   4  182.38   18.20
  -2  10   4  187.38   16.60
   1 -10  -4    8.80    9.00
  -1  10   4   19.70    8.50
  -1  10   4   13.60    8.40
  -1  10   4   17.70    7.40
   0 -10  -4  181.08   20.60
   0  10   4  189.78   17.80
   0  10   4  199.98   19.10
   0  10   4  221.18   21.20
   1  10   4   52.39   10.80
   1  10   4   72.69   14.10
   2  10   4   54.09   13.50
   2  10   4   40.70   13.20
 -11  11   4   34.90   16.80
 -10  11   4   38.50   16.70
  -9  11   4   36.10   14.50
  -8  11   4   64.09   15.10
  -7  11   4    3.70   10.40
  -6  11   4  165.28   20.00
  -5  11   4   -1.10    8.50
  -4  11   4  107.49   15.80
  -4  11   4  106.29   13.40
  -4  11   4   88.29   11.70
  -3  11   4   55.69   12.30
  -3  11   4   57.49   12.00
  -3  11   4   69.79   11.20
   2 -11  -4  107.89   20.20
  -2  11   4  108.89   15.00
  -2  11   4  113.89   13.80
  -2  11   4   80.79   13.90
  -1  11   4  153.68   18.10
  -1  11   4  165.68   17.00
  -1  11   4  123.89   16.60
   0  11   4    3.90    9.10
   0  11   4   32.80   11.90
  -8  12   4   48.30   15.00
  -7  12   4   13.10   10.40
  -6  12   4   48.80   14.40
  -5  12   4   59.09   13.60
  -4  12   4    3.40    8.00
  -4  12   4   25.20   11.40
  -4  12   4   17.00    8.20
  -3  12   4  159.88   16.90
  -3  12   4  163.38   19.90
  -3  12   4  169.68   19.10
  -2  12   4    4.00    8.70
  -1  12   4   76.99   14.80
   0  13  -5    4.20    8.00
  -1  13  -5   43.50   11.30
  -2  13  -5   61.89   13.10
  -2  13  -5   76.29    9.90
  -3  13  -5   42.10    7.90
  -3  13  -5   43.20   11.20
  -4  13  -5  140.29   13.40
  -4  13  -5  133.29   17.20
  -5  13  -5   -4.60    5.20
  -5  13  -5    2.50    8.90
  -6  13  -5  105.19   17.10
  -7  13  -5   11.30   10.70
   3  12  -5   71.19   13.00
   2  12  -5   32.80   10.70
   1  12  -5   51.49    7.40
   1  12  -5   51.29   11.40
   0  12  -5  114.79   10.90
   0  12  -5  127.39   15.90
  -1  12  -5   23.00    6.20
  -1  12  -5   19.30    9.10
  -2  12  -5  148.79   16.80
  -2  12  -5  187.58   13.10
  -3  12  -5    8.90    7.80
  -3  12  -5    6.80    5.00
  -4  12  -5  137.49   12.50
  -4  12  -5  114.49   15.50
  -5  12  -5   56.29    9.00
  -5  12  -5   51.49   11.80
  -5  12  -5   38.40   11.60
  -6  12  -5   67.99   14.80
  -6  12  -5   98.09   15.90
  -7  12  -5   70.29   13.70
  -7  12  -5   52.89   14.00
  -8  12  -5   36.20   13.60
   4  11  -5   87.59   17.80
   3  11  -5   24.70    9.10
   3  11  -5   26.80    5.40
  -3 -11   5   22.10    8.80
   2  11  -5  192.08   11.70
   2  11  -5  166.28   17.20
  -2 -11   5  197.38   19.70
   1  11  -5   -0.40    3.80
   1  11  -5   -0.30    6.20
  -1 -11   5    2.00    7.20
   0  11  -5  160.88   11.00
   0  11  -5  148.69   15.80
   0 -11   5  174.18   18.40
  -1  11  -5    9.30    4.40
  -1  11  -5   18.50    7.90
   1 -11   5   12.90    7.70
  -2  11  -5  225.68   13.40
  -2  11  -5  208.98   17.00
  -3  11  -5  179.88   18.50
  -3  11  -5  194.78   18.40
  -3  11  -5  180.08   12.50
  -4  11  -5   43.30    9.40
  -4  11  -5   39.40    7.10
  -4  11  -5   42.60   10.60
  -5  11  -5  211.68   20.70
  -5  11  -5  237.68   18.90
  -5  11  -5  233.98   14.90
  -6  11  -5   -8.90    7.90
  -6  11  -5   18.80    9.50
  -7  11  -5  117.39   16.60
  -7  11  -5  121.89   18.10
  -8  11  -5   22.80   11.40
  -9  11  -5   86.69   18.90
   5  10  -5  -10.80    8.70
   5  10  -5   -7.20    3.10
   4  10  -5  195.98   20.90
   4  10  -5  197.98   10.70
   4  10  -5  236.78   18.00
  -4 -10   5  233.48   20.10
  -4 -10   5  186.88   17.70
   3  10  -5   29.50    5.00
   3  10  -5   23.50    7.80
  -3 -10   5   28.10    9.20
   2  10  -5  225.68   17.20
   2  10  -5  247.88   12.20
  -2 -10   5  229.08   18.30
   1  10  -5  132.69   14.40
   1  10  -5  154.78    9.60
  -1 -10   5  141.59   16.00
   0  10  -5  270.87   13.80
   0  10  -5  306.27   19.20
   0 -10   5  279.77   19.70
  -1  10  -5  284.67   20.30
  -1  10  -5  297.57   14.70
  -1  10  -5  295.87   18.30
   1 -10   5  308.97   20.10
  -2  10  -5   13.10    7.10
  -2  10  -5   11.20    4.10
  -2  10  -5    2.40    5.10
   2 -10   5    1.30    5.90
  -3  10  -5  346.97   17.00
  -3  10  -5  357.06   23.10
  -3  10  -5  379.76   21.30
   3 -10   5  335.67   21.30
  -4  10  -5   18.50    8.00
  -4  10  -5   18.40    5.20
  -4  10  -5   21.40    7.30
  -5  10  -5  261.87   18.60
  -5  10  -5  225.78   21.20
  -5  10  -5  277.97   15.30
  -6  10  -5  109.99   14.10
  -6  10  -5  103.99   15.60
  -7  10  -5   87.99   13.40
  -7  10  -5   81.59   14.70
  -8  10  -5  156.48   20.90
  -9  10  -5   34.40   14.00
 -10  10  -5  115.59   20.70
   5   9  -5  107.39    6.30
   5   9  -5   75.59   13.90
  -5  -9   5   93.09   13.00
   4   9  -5  128.89   13.80
   4   9  -5  118.19    7.00
  -4  -9   5  119.39   14.20
  -4  -9   5  121.69   13.80
   3   9  -5  321.47   19.20
   3   9  -5  303.37   12.80
  -3  -9   5  316.37   19.30
  -3  -9   5  295.87   19.70
   2   9  -5   27.50    7.80
   2   9  -5   23.20    3.90
  -2  -9   5   16.90    7.20
   1   9  -5  537.35   19.70
   1   9  -5  508.75   24.90
   1   9  -5  498.75   35.00
  -1  -9   5  465.95   25.50
   0   9  -5   10.10    3.40
   0   9  -5    2.70    6.00
   0   9  -5    2.60    5.40
   0  -9   5    5.20    5.20
  -1   9  -5  448.96   24.80
  -1   9  -5  442.76   18.60
  -1   9  -5  497.35   23.30
   1  -9   5  425.46   23.50
  -2   9  -5  252.67   12.90
  -2   9  -5  258.27   18.30
  -2   9  -5  232.08   15.70
   2  -9   5  254.47   17.10
  -3   9  -5  465.25   20.20
  -3   9  -5  465.85   23.20
  -3   9  -5  516.75   26.80
   3  -9   5  476.45   24.40
  -4   9  -5  237.68   19.10
  -4   9  -5  282.77   17.40
  -4   9  -5  259.77   14.10
  -5   9  -5   93.89   14.00
  -5   9  -5   66.19    8.20
  -5   9  -5   88.09   10.80
  -6   9  -5  138.59   17.60
  -6   9  -5  130.19   13.70
  -7   9  -5    0.80    8.30
  -8   9  -5  232.98   24.30
  -9   9  -5   31.90   13.00
 -10   9  -5   92.59   19.00
   5   8  -5  302.97   20.80
   5   8  -5  295.87   18.40
  -5  -8   5  297.07   19.10
  -5  -8   5  293.97   18.90
   4   8  -5    2.50    1.80
   4   8  -5   -1.90    5.10
  -4  -8   5    8.20    5.70
  -4  -8   5    8.80    5.60
   3   8  -5  395.06   14.50
   3   8  -5  404.56   20.90
  -3  -8   5  413.16   20.60
  -3  -8   5  371.36   21.40
   2   8  -5  184.08    8.50
   2   8  -5  199.88   19.00
   2   8  -5  183.28   13.60
  -2  -8   5  174.68   12.90
  -2  -8   5  169.28   14.10
   1   8  -5  436.36   16.20
   1   8  -5  415.66   20.60
   1   8  -5  413.36   24.80
  -1  -8   5  408.46   22.10
   0   8  -5  438.26   24.90
   0   8  -5  480.05   22.30
   0   8  -5  467.65   17.90
   0  -8   5  471.65   23.50
  -1   8  -5  138.39    8.30
  -1   8  -5  167.28   16.20
  -1   8  -5  144.49   11.60
   1  -8   5  113.59   11.70
  -2   8  -5  979.50   34.60
  -2   8  -5  943.31   37.90
  -2   8  -5  987.40   41.80
   2  -8   5 1030.80   39.70
  -3   8  -5   26.10    6.20
  -3   8  -5   18.30    7.90
  -3   8  -5   12.20    3.90
   3  -8   5   22.50    6.20
  -4   8  -5  609.74   30.50
  -4   8  -5  606.14   26.50
  -4   8  -5  590.44   24.00
   4  -8   5  598.24   27.10
  -5   8  -5   29.60    5.70
  -5   8  -5   44.40   10.10
  -5   8  -5   41.20    7.50
  -6   8  -5  545.15   30.10
  -6   8  -5  562.54   26.20
  -7   8  -5  193.88   20.80
  -8   8  -5  122.69   17.50
  -9   8  -5  188.98   23.00
 -10   8  -5   11.70   11.90
 -11   8  -5  150.08   23.70
   5   7  -5  314.57   17.70
   5   7  -5  309.47   19.40
  -5  -7   5  308.97   18.80
  -5  -7   5  308.47   17.80
   4   7  -5  200.88   14.80
   4   7  -5  194.78   13.10
   4   7  -5  152.98   19.30
  -4  -7   5  211.88   25.60
  -4  -7   5  172.68   13.00
  -4  -7   5  174.08   13.70
   3   7  -5  256.17    9.30
   3   7  -5  242.18   15.30
   3   7  -5  253.67   21.70
   3   7  -5  253.27   14.90
  -3  -7   5  247.98   16.00
  -3  -7   5  279.27   27.80
  -3  -7   5  254.37   14.90
   2   7  -5  537.95   30.60
   2   7  -5  586.84   25.40
   2   7  -5  596.64   25.50
   2   7  -5  599.64   20.10
  -2  -7   5  599.14   25.10
  -2  -7   5  613.44   27.20
   1   7  -5   77.69   12.40
   1   7  -5   96.79   10.00
   1   7  -5   85.09    5.40
  -1  -7   5  108.99   11.40
   0   7  -5  794.22   27.50
   0   7  -5  786.22   36.10
   0   7  -5  844.72   31.80
   0  -7   5  788.92   32.90
  -1   7  -5    6.40    6.80
  -1   7  -5    9.30    2.80
  -1   7  -5    4.20    4.30
   1  -7   5    8.30    4.40
  -2   7  -5 1216.78   46.40
  -2   7  -5 1136.49   38.90
  -2   7  -5 1120.79   41.70
   2  -7   5 1121.69   42.80
  -3   7  -5  188.18   15.70
  -3   7  -5  178.18   12.10
  -3   7  -5  186.68   10.10
   3  -7   5  178.48   12.30
  -4   7  -5  323.47   16.50
  -4   7  -5  316.27   14.90
  -4   7  -5  315.67   20.00
   4  -7   5  326.27   17.00
  -5   7  -5  577.24   23.10
  -5   7  -5  551.24   24.30
  -5   7  -5  542.05   28.60
  -6   7  -5   74.49    9.20
  -6   7  -5   84.79   12.50
  -7   7  -5  508.55   30.10
  -8   7  -5    0.80    8.10
   8  -7   5    5.30    4.10
  -9   7  -5  350.16   27.60
   9  -7   5  344.17   18.60
 -10   7  -5   42.10   13.70
  10  -7   5   40.00    8.10
 -11   7  -5   22.10   14.00
  11  -7   5   23.50    8.30
  12  -7   5   24.20    9.30
   7   6  -5   81.99    9.80
  -7  -6   5   86.99   11.30
   6   6  -5  277.17   14.60
   6   6  -5  225.18   25.10
  -6  -6   5  222.88   15.60
  -6  -6   5  233.88   29.90
   5   6  -5   83.19    9.20
   5   6  -5  115.79   17.80
   5   6  -5   86.89    8.20
  -5  -6   5   90.39    9.40
  -5  -6   5  104.39   19.50
  -5  -6   5   83.39    9.30
  -5  -6   5   83.89   10.10
   4   6  -5  593.54   35.20
   4   6  -5  688.13   28.50
   4   6  -5  675.23   25.30
  -4  -6   5  671.43   26.80
  -4  -6   5  579.44   38.50
  -4  -6   5  709.43   27.40
  -4  -6   5  694.23   29.10
   3   6  -5   34.10   10.60
   3   6  -5   33.70    6.10
   3   6  -5   36.30    4.60
  -3  -6   5   33.10    5.50
  -3  -6   5   34.90    5.90
  -3  -6   5   20.70   10.30
  -3  -6   5   41.40    7.10
   2   6  -5  906.01   41.70
   2   6  -5  922.01   29.50
   2   6  -5  954.10   35.80
   2   6  -5  949.11   34.70
  -2  -6   5  971.40   36.70
  -2  -6   5  896.81   33.20
  -2  -6   5  934.51   34.00
  -2  -6   5  866.21   44.10
   1   6  -5  301.67   11.40
   1   6  -5  305.47   20.70
  -1  -6   5  323.47   16.90
   0   6  -5  569.84   27.90
   0   6  -5  541.95   22.60
   0   6  -5  554.14   19.50
   0  -6   5  543.45   24.00
  -1   6  -5  926.71   39.00
  -1   6  -5  961.90   35.10
  -1   6  -5  975.60   32.30
   1  -6   5  952.50   36.30
  -2   6  -5  191.48   11.00
  -2   6  -5  188.48    9.20
  -2   6  -5  160.58   13.50
   2  -6   5  169.48   11.30
  -3   6  -5 1255.67   42.70
  -3   6  -5 1293.67   48.70
  -3   6  -5 1275.17   44.30
   3  -6   5 1232.98   45.00
  -4   6  -5    8.00    6.40
  -4   6  -5    3.50    3.30
  -4   6  -5    0.70    3.40
   4  -6   5    3.50    3.10
  -5   6  -5 1123.19   40.90
  -5   6  -5 1051.39   38.80
  -5   6  -5 1091.29   39.50
  -5   6  -5 1130.59   45.40
  -6   6  -5   57.79   11.50
  -6   6  -5   43.80    6.50
   6  -6   5   43.90    5.60
  -7   6  -5  338.47   17.90
  -7   6  -5  372.26   23.90
   7  -6   5  358.36   16.80
  -8   6  -5  116.89   11.50
  -8   6  -5  119.29   17.40
   8  -6   5  104.29   10.30
   8  -6   5  111.09   13.70
  -9   6  -5   92.79   12.00
  -9   6  -5  140.29   19.70
   9  -6   5  134.09   16.00
   9  -6   5  104.59   11.00
 -10   6  -5  170.98   23.60
 -10   6  -5  162.28   22.20
  10  -6   5  168.78   15.30
  10  -6   5  218.58   22.40
 -11   6  -5    2.30   11.80
  11  -6   5  -13.40    5.70
  12  -6   5  116.19   15.20
   9   5  -5   17.70    7.30
  -9  -5   5   29.50    8.90
   8   5  -5  236.18   15.30
  -8  -5   5  178.88   16.90
   7   5  -5   -0.20    4.30
  -7  -5   5   -6.70    5.30
  -7  -5   5  -19.60    9.30
   6   5  -5  660.03   36.40
   6   5  -5  746.93   28.40
  -6  -5   5  767.42   31.00
  -6  -5   5  701.73   30.20
  -6  -5   5  663.53   41.50
   5   5  -5  244.48   12.50
   5   5  -5  241.48   15.00
   5   5  -5  229.88   21.70
  -5  -5   5  223.68   13.80
  -5  -5   5  212.98   14.30
  -5  -5   5  238.58   25.80
  -5  -5   5  231.58   13.00
   4   5  -5  847.62   30.10
   4   5  -5  834.42   39.30
   4   5  -5  800.12   32.10
  -4  -5   5  839.42   31.70
  -4  -5   5  871.11   33.80
  -4  -5   5  841.42   31.10
  -4  -5   5  877.11   43.50
   3   5  -5  618.04   32.20
   3   5  -5  645.94   24.90
   3   5  -5  619.64   22.50
  -3  -5   5  620.54   23.90
  -3  -5   5  605.34   26.30
  -3  -5   5  623.84   23.90
  -3  -5   5  601.54   34.80
   2   5  -5  351.66   12.80
   2   5  -5  366.06   14.10
   2   5  -5  376.96   16.00
   2   5  -5  368.76   11.90
   2   5  -5  320.27   21.80
  -2  -5   5  359.16   15.00
  -2  -5   5  349.17   15.30
  -2  -5   5  363.86   17.80
  -2  -5   5  349.57   24.20
   1   5  -5 1334.67   43.60
   1   5  -5 1277.87   51.79
   1   5  -5 1363.76   44.70
   1   5  -5 1375.46   42.50
  -1  -5   5 1370.96   47.90
  -1  -5   5 1306.67   54.59
   0   5  -5    2.50    1.60
   0   5  -5    5.80    5.70
   0   5  -5    3.70    2.40
   0  -5   5    3.70    3.00
  -1   5  -5 2293.17   76.09
  -1   5  -5 2337.37   81.49
  -1   5  -5 2429.86   74.89
   1  -5   5 2426.16   78.59
  -2   5  -5  173.28    9.20
  -2   5  -5  182.18   10.00
  -2   5  -5  162.88   12.70
  -2   5  -5  179.78    8.80
   2  -5   5  177.88   10.50
  -3   5  -5 1571.84   51.99
  -3   5  -5 1604.14   57.29
  -3   5  -5 1592.94   52.79
  -3   5  -5 1584.84   51.89
   3  -5   5 1547.85   53.59
  -4   5  -5  448.96   23.30
  -4   5  -5  452.75   18.40
  -4   5  -5  453.35   18.40
   4  -5   5  438.06   16.90
   4  -5   5  444.96   18.70
   4  -5   5  458.95   21.00
  -5   5  -5  680.23   25.90
  -5   5  -5  643.64   24.80
  -5   5  -5  635.64   25.40
  -5   5  -5  621.44   29.90
   5  -5   5  703.23   29.90
   5  -5   5  681.73   28.80
   5  -5   5  646.34   24.20
  -6   5  -5  707.53   33.20
  -6   5  -5  664.73   27.40
   6  -5   5  660.03   30.30
   6  -5   5  686.83   26.10
   6  -5   5  652.63   26.60
  -7   5  -5  128.59   16.10
  -7   5  -5  159.18   13.10
   7  -5   5  131.79   14.40
   7  -5   5  106.19    9.90
   7  -5   5  118.99   10.60
  -8   5  -5  725.23   37.60
  -8   5  -5  721.53   31.60
   8  -5   5  700.53   34.70
   8  -5   5  771.62   30.30
   8  -5   5  692.63   29.90
  -9   5  -5   -6.00    8.40
  -9   5  -5    3.50    6.60
   9  -5   5    6.40    5.40
   9  -5   5    7.50    7.50
 -10   5  -5  216.08   19.80
 -10   5  -5  236.38   25.00
  10  -5   5  228.08   18.50
  10  -5   5  254.07   24.00
 -11   5  -5   43.70   11.20
 -11   5  -5   39.70   12.00
 -11   5  -5   30.40   14.50
  11  -5   5   32.70    9.10
 -12   5  -5   35.90   19.70
  12  -5   5   95.29   14.40
  10   4  -5  105.19   12.90
 -10  -4   5  104.19   14.20
   9   4  -5   41.20    8.60
  -9  -4   5   39.10   10.20
  -9  -4   5   35.60   16.00
   8   4  -5  213.88   14.40
  -8  -4   5  198.08   17.10
  -8  -4   5  190.58   25.40
   7   4  -5  182.38   12.40
  -7  -4   5  182.38   14.10
  -7  -4   5  209.08   24.30
   6   4  -5  241.68   13.00
  -6  -4   5  218.28   14.30
  -6  -4   5  223.08   14.40
  -6  -4   5  242.98   24.20
   5   4  -5  837.22   30.40
   5   4  -5  864.71   32.70
  -5  -4   5  812.92   33.00
  -5  -4   5  887.01   41.60
  -5  -4   5  806.42   32.20
   4   4  -5   54.29    5.40
   4   4  -5   46.50    6.10
  -4  -4   5   46.80    5.30
  -4  -4   5   68.79    7.20
  -4  -4   5   69.69   12.50
  -4  -4   5   55.29    7.60
   3   4  -5 1124.19   45.80
   3   4  -5 1157.98   40.20
   3   4  -5 1214.88   39.20
  -3  -4   5 1150.28   40.30
  -3  -4   5 1160.28   48.70
  -3  -4   5 1191.58   42.90
  -3  -4   5 1203.88   39.60
   2   4  -5  150.98    5.90
   2   4  -5  180.48    8.80
   2   4  -5  159.38    5.80
   2   4  -5  183.78   14.80
   2   4  -5  160.88    7.90
  -2  -4   5  173.18    8.90
  -2  -4   5  167.68   10.70
  -2  -4   5  156.68    8.30
  -2  -4   5  161.88   17.20
   1   4  -5 1240.68   40.50
   1   4  -5 1228.98   41.20
   1   4  -5 1228.68   39.20
   1   4  -5 1303.87   48.00
  -1  -4   5 1225.28   49.70
  -1  -4   5 1236.48   44.00
   0   4  -5   40.40    4.50
   0   4  -5   26.50    6.70
   0   4  -5   39.20    3.30
   0  -4   5   35.10    5.60
  -1   4  -5 2521.15   78.19
  -1   4  -5 2526.75   84.29
  -1   4  -5 2414.56   79.89
   1  -4   5 2493.85   80.99
  -2   4  -5  932.81   32.80
  -2   4  -5 1023.00   38.00
  -2   4  -5  997.00   34.20
   2  -4   5  955.40   34.50
  -3   4  -5  205.08   13.50
  -3   4  -5  217.78   11.20
  -3   4  -5  209.98   10.20
  -3   4  -5  226.18   10.50
   3  -4   5  212.68   11.00
   3  -4   5  223.58   12.60
   3  -4   5  215.58   10.70
   3  -4   5  214.28    9.30
  -4   4  -5  984.80   34.90
  -4   4  -5 1019.70   35.70
  -4   4  -5 1029.60   34.00
  -4   4  -5  941.71   38.70
   4  -4   5  982.50   34.20
   4  -4   5  959.90   33.90
   4  -4   5  992.00   38.10
   4  -4   5 1024.90   35.20
  -5   4  -5    4.30    5.40
  -5   4  -5    2.00    3.80
   5  -4   5    0.00    2.00
   5  -4   5   -1.10    4.10
   5  -4   5    0.70    2.80
  -6   4  -5 1035.70   43.40
  -6   4  -5 1036.30   39.50
   6  -4   5 1066.89   38.30
   6  -4   5 1103.19   44.10
   6  -4   5 1010.80   37.80
  -7   4  -5  122.09   11.90
  -7   4  -5  127.29   15.70
   7  -4   5  124.69   15.30
   7  -4   5  123.79   11.10
   7  -4   5  143.09   11.50
  -8   4  -5  512.75   29.80
  -8   4  -5  490.15   25.60
   8  -4   5  473.25   22.80
   8  -4   5  518.45   24.50
   8  -4   5  543.95   30.80
  -9   4  -5  329.77   25.60
  -9   4  -5  330.17   21.70
   9  -4   5  348.87   20.50
   9  -4   5  331.97   25.80
   9  -4   5  316.37   18.60
 -10   4  -5   27.20   12.30
 -10   4  -5   31.90   10.60
 -10   4  -5   30.20   10.20
  10  -4   5   38.90    9.00
  10  -4   5   36.10   12.90
  10  -4   5   42.30    8.70
 -11   4  -5  147.59   18.80
 -11   4  -5  194.88   22.40
 -11   4  -5  134.49   21.30
  11  -4   5  164.98   16.20
  11  -4   5  178.88   18.10
  12  -4   5   14.90    9.50
  10   3  -5   39.50    9.10
 -10  -3   5   15.20    9.30
 -10  -3   5    9.10   13.90
   9   3  -5  192.98   14.20
  -9  -3   5  171.08   16.40
  -9  -3   5  154.68   22.80
   8   3  -5   35.80    6.90
  -8  -3   5   34.00    8.20
  -8  -3   5   35.30   11.70
   7   3  -5  673.43   27.00
  -7  -3   5  688.73   29.60
  -7  -3   5  681.53   36.80
  -6  -3   5  158.18   11.60
  -6  -3   5  109.69   14.40
   5   3  -5  887.51   32.80
   5   3  -5  877.31   31.20
   5   3  -5  875.71   31.80
  -5  -3   5  895.21   30.50
  -5  -3   5  918.81   39.50
  -5  -3   5  842.02   32.90
  -5  -3   5  845.62   33.90
   4   3  -5  383.06   16.10
   4   3  -5  366.36   15.20
  -4  -3   5  388.36   18.20
  -4  -3   5  355.06   21.30
  -4  -3   5  399.46   14.90
  -4  -3   5  375.26   16.80
   3   3  -5  445.76   17.30
   3   3  -5  488.85   17.70
  -3  -3   5  489.15   24.30
  -3  -3   5  471.75   18.50
  -3  -3   5  439.26   20.20
  -3  -3   5  474.05   17.10
   2   3  -5 1549.45   49.00
   2   3  -5 1577.64   56.19
   2   3  -5 1530.85   48.90
   2   3  -5 1604.84   50.79
   2   3  -5 1602.54   50.59
  -2  -3   5 1512.45   51.59
  -2  -3   5 1594.94   54.49
  -2  -3   5 1647.24   58.49
  -2  -3   5 1632.54   52.79
   1   3  -5  866.21   34.80
   1   3  -5  892.91   29.20
   1   3  -5  864.31   27.80
  -1  -3   5  854.61   36.40
  -1  -3   5  857.61   29.40
  -1  -3   5  826.32   31.80
   0   3  -5 3287.17  110.09
   0   3  -5 3403.36  104.59
   0   3  -5 3462.15  106.19
   0  -3   5 3439.16  108.09
   0  -3   5 3285.07  111.99
  -1   3  -5   -1.80    1.90
  -1   3  -5    2.80    4.80
  -1   3  -5    0.40    4.10
   1  -3   5    4.30    3.00
   1  -3   5    6.60    1.50
   1  -3   5    1.90    2.80
  -2   3  -5 1989.30   66.59
  -2   3  -5 1938.01   64.59
  -2   3  -5 1955.50   62.99
   2  -3   5 2082.59   64.09
   2  -3   5 1964.50   61.79
   2  -3   5 1857.21   65.09
   2  -3   5 1932.71   63.69
  -3   3  -5  262.07   14.80
  -3   3  -5  246.78   12.90
  -3   3  -5  253.57   11.90
   3  -3   5  247.78   12.10
   3  -3   5  256.07   11.30
   3  -3   5  243.88   11.00
   3  -3   5  286.17   15.00
  -4   3  -5 1362.76   44.50
  -4   3  -5 1325.97   46.70
  -4   3  -5 1418.36   50.39
  -4   3  -5 1414.16   48.30
   4  -3   5 1316.57   44.60
   4  -3   5 1452.35   52.09
   4  -3   5 1413.16   46.80
  -5   3  -5  977.70   36.50
  -5   3  -5  945.41   38.90
   5  -3   5  966.80   34.50
   5  -3   5  937.91   35.10
   5  -3   5  986.00   41.30
  -6   3  -5  417.06   20.90
  -6   3  -5  384.06   22.70
   6  -3   5  400.96   25.10
   6  -3   5  439.76   20.10
   6  -3   5  417.36   18.50
  -7   3  -5  687.03   31.10
  -7   3  -5  695.63   34.00
   7  -3   5  716.13   29.90
   7  -3   5  696.93   27.90
   7  -3   5  693.83   36.40
  -8   3  -5   22.50    9.80
  -8   3  -5   40.20    9.30
  -8   3  -5   49.00   11.60
   8  -3   5    9.00    9.00
   8  -3   5   32.00    6.40
   8  -3   5   49.30    8.70
  -9   3  -5  402.46   27.70
  -9   3  -5  362.86   25.80
  -9   3  -5  352.16   23.70
   9  -3   5  362.96   22.10
   9  -3   5  366.36   19.70
   9  -3   5  357.16   27.90
 -10   3  -5   -8.10    8.10
 -10   3  -5    0.10    8.30
 -10   3  -5   -2.20    8.80
  10  -3   5   10.00   10.40
  10  -3   5   24.90    7.20
 -11   3  -5  139.99   18.40
 -11   3  -5  139.19   18.40
  11  -3   5  145.69   15.40
  12  -3   5   28.60    9.50
  11   2  -5   79.79   11.40
 -11  -2   5   86.29   19.20
 -11  -2   5   51.89   11.60
  10   2  -5  -10.60    4.90
 -10  -2   5    2.90   10.70
 -10  -2   5   -6.60    6.30
   9   2  -5  280.57   16.50
  -9  -2   5  295.27   25.20
  -9  -2   5  249.48   17.60
   8   2  -5   27.30    6.30
  -8  -2   5   30.70   10.10
  -8  -2   5   13.40    6.40
   7   2  -5  516.15   21.80
  -7  -2   5  481.75   23.30
  -7  -2   5  543.15   23.80
  -7  -2   5  522.85   28.80
   6   2  -5  491.45   20.00
   6   2  -5  488.65   21.90
  -6  -2   5  496.05   26.20
  -6  -2   5  494.45   22.50
  -6  -2   5  469.55   21.80
   5   2  -5  386.96   13.40
   5   2  -5  391.06   16.20
   5   2  -5  408.26   17.40
  -5  -2   5  387.16   21.40
  -5  -2   5  423.46   18.40
  -5  -2   5  407.06   14.90
  -5  -2   5  397.26   19.20
   4   2  -5 1750.62   57.29
   4   2  -5 1777.62   57.29
   4   2  -5 1802.22   54.69
  -4  -2   5 1781.32   55.89
  -4  -2   5 1766.52   58.69
  -4  -2   5 1734.23   60.89
   3   2  -5    1.30    1.50
   3   2  -5    4.00    1.10
   3   2  -5    7.20    1.90
   3   2  -5    3.80    2.20
  -3  -2   5    5.70    2.60
  -3  -2   5    4.40    3.70
  -3  -2   5    7.00    4.10
   2   2  -5 3655.13  111.49
   2   2  -5 3549.15  110.39
  -2  -2   5 3535.85  115.29
  -2  -2   5 3584.74  116.79
   1   2  -5   73.99    5.20
   1   2  -5   82.59    9.20
   1   2  -5   92.09    6.30
  -1  -2   5  100.19    9.50
  -1  -2   5   91.19    4.60
  -1  -2   5   79.49    9.90
   0   2  -5 4107.19  127.09
   0   2  -5 3990.50  123.09
   0   2  -5 3930.71  124.59
   0  -2   5 4028.80  125.89
   0  -2   5 3794.52  128.19
   0  -2   5 3968.90  124.19
  -1   2  -5 1638.34   54.69
  -1   2  -5 1607.44   56.49
  -1   2  -5 1745.63   57.79
   1  -2   5 1715.63   53.59
   1  -2   5 1722.33   56.19
   1  -2   5 1730.83   56.89
  -2   2  -5  769.32   29.20
  -2   2  -5  778.52   29.80
   2  -2   5  790.62   28.10
   2  -2   5  769.32   27.10
   2  -2   5  784.62   27.30
   2  -2   5  757.42   30.70
  -3   2  -5 2398.06   79.09
  -3   2  -5 2439.56   79.79
   3  -2   5 2402.36   83.19
   3  -2   5 2393.46   77.79
   3  -2   5 2398.16   77.29
  -4   2  -5  355.26   17.90
  -4   2  -5  336.77   17.30
   4  -2   5  364.66   16.70
   4  -2   5  317.27   20.80
   4  -2   5  370.76   15.60
  -5   2  -5 1398.76   49.10
  -5   2  -5 1386.36   50.29
   5  -2   5 1368.76   48.20
   5  -2   5 1222.78   54.19
   5  -2   5 1337.27   46.10
  -6   2  -5   70.09    9.90
  -6   2  -5  102.59   12.20
   6  -2   5   42.60   11.40
   6  -2   5   62.59    7.20
   6  -2   5   80.49    9.80
  -7   2  -5  670.03   33.60
  -7   2  -5  664.63   30.60
  -7   2  -5  654.33   32.10
   7  -2   5  607.74   28.50
   7  -2   5  654.83   36.30
   7  -2   5  646.14   26.40
  -8   2  -5  173.38   17.20
  -8   2  -5  132.79   17.00
  -8   2  -5  160.28   18.70
   8  -2   5  124.69   11.30
   8  -2   5  135.79   19.50
  -9   2  -5  127.09   18.50
  -9   2  -5  139.79   16.60
  -9   2  -5  179.88   19.90
   9  -2   5  135.09   12.90
   9  -2   5  120.19   19.10
 -10   2  -5  130.39   17.50
 -10   2  -5  151.98   19.00
  10  -2   5  138.49   21.20
  10  -2   5  115.59   13.00
 -11   2  -5   76.79   15.90
 -11   2  -5   87.59   16.40
  11  -2   5   64.59   10.70
 -12  -1   5   -0.30   14.20
  11   1  -5   55.39   10.10
 -11  -1   5   73.09   17.00
 -11  -1   5   84.59   13.80
  10   1  -5   66.09    9.80
 -10  -1   5   81.69   11.60
 -10  -1   5   76.09   16.10
   9   1  -5   87.89    9.50
  -9  -1   5  101.09   12.20
  -9  -1   5   97.09   15.70
   8   1  -5  335.87   16.80
  -8  -1   5  335.67   19.10
  -8  -1   5  324.17   22.20
   7   1  -5   -0.80    3.40
  -7  -1   5   -5.70    4.40
  -7  -1   5   -0.60    3.90
  -7  -1   5    7.20    5.50
   6   1  -5  824.52   30.10
  -6  -1   5  867.61   36.10
  -6  -1   5  821.52   33.50
  -6  -1   5  822.12   32.10
   5   1  -5  158.28    8.80
  -5  -1   5  146.19   11.70
  -5  -1   5  154.98   11.90
  -5  -1   5  154.58    6.90
  -5  -1   5  149.79   10.10
   4   1  -5 1019.30   33.90
  -4  -1   5 1004.40   38.10
  -4  -1   5  998.90   31.40
  -4  -1   5  999.20   35.10
  -4  -1   5  964.60   38.60
   3   1  -5  760.62   26.40
   3   1  -5  774.32   24.30
  -3  -1   5  753.52   27.20
  -3  -1   5  755.22   29.80
  -3  -1   5  762.12   31.80
   2   1  -5 1602.64   51.89
  -2  -1   5 1622.74   55.29
  -2  -1   5 1616.04   57.79
   1   1  -5 1921.41   60.69
   1   1  -5 1825.92   62.19
  -1  -1   5 1883.31   65.19
  -1  -1   5 1902.51   63.69
  -1  -1   5 1885.91   60.09
   0   1  -5  339.97   15.30
   0   1  -5  328.67   15.30
   0  -1   5  334.27   12.70
   0  -1   5  295.17   15.80
   0  -1   5  337.77   15.10
   0  -1   5  351.36   17.00
  -1   1  -5 3291.47  107.49
  -1   1  -5 3421.86  106.89
   1  -1   5 3244.48  105.69
   1  -1   5 3393.96  107.39
   1  -1   5 3548.94  107.19
   1  -1   5 3269.77  109.59
  -2   1  -5  140.89   10.70
  -2   1  -5  148.99    9.70
   2  -1   5  151.18    9.50
   2  -1   5  146.49   10.00
   2  -1   5  129.99   13.20
  -3   1  -5 2745.63   90.89
  -3   1  -5 2768.32   89.89
   3  -1   5 2789.22   96.39
   3  -1   5 2753.32   90.09
   3  -1   5 2819.92   88.69
  -4   1  -5   47.30    7.10
  -4   1  -5   48.50    7.40
   4  -1   5   44.20    5.70
   4  -1   5   46.70   10.00
   4  -1   5   68.29    7.80
  -5   1  -5 1029.40   40.20
  -5   1  -5 1050.39   43.90
  -5   1  -5  998.60   40.00
   5  -1   5 1099.89   46.70
   5  -1   5 1044.60   38.80
   5  -1   5 1010.20   36.70
  -6   1  -5  487.15   25.50
  -6   1  -5  543.95   29.10
  -6   1  -5  514.65   25.60
   6  -1   5  546.55   31.20
   6  -1   5  517.45   21.80
  -7   1  -5  164.98   16.80
  -7   1  -5  146.39   15.20
  -7   1  -5  141.79   16.70
   7  -1   5  148.69   11.20
   7  -1   5  149.79   18.90
  -8   1  -5  497.05   30.20
  -8   1  -5  477.75   27.60
   8  -1   5  500.15   23.20
   8  -1   5  580.04   34.20
  -9   1  -5   11.20    9.80
  -9   1  -5   27.70   10.10
   9  -1   5   20.80    7.10
   9  -1   5   13.60   10.60
 -10   1  -5  261.37   25.70
 -10   1  -5  326.17   25.60
  10  -1   5  337.37   32.50
  10  -1   5  319.07   19.30
  11  -1   5    9.80    7.40
  12   0  -5   84.59   12.30
 -12   0   5   73.19   17.70
 -12   0   5   90.29   14.30
  11   0  -5    5.40    5.80
 -11   0   5   13.60    8.00
 -11   0   5    2.30    8.80
  10   0  -5  303.17   17.30
 -10   0   5  288.57   23.80
 -10   0   5  274.07   18.70
   9   0  -5    0.80    4.70
  -9   0   5    7.00    6.50
  -9   0   5    9.20    6.00
   8   0  -5  687.63   27.50
  -8   0   5  706.73   30.10
  -8   0   5  704.23   34.20
  -8   0   5  679.83   30.70
  -7   0   5  375.86   21.70
  -7   0   5  349.57   20.00
  -7   0   5  374.36   18.90
  -6   0   5  400.66   21.50
  -6   0   5  449.36   19.30
  -6   0   5  381.06   21.70
   5   0  -5  874.31   30.10
  -5   0   5  839.22   36.20
  -5   0   5  840.62   33.90
  -5   0   5  848.02   31.30
   4   0  -5  189.48    9.00
  -4   0   5  143.49   14.50
  -4   0   5  179.98   11.20
  -4   0   5  172.88    9.60
   3   0  -5 2306.87   69.79
  -3   0   5 2276.57   70.69
  -3   0   5 1896.61   76.39
  -3   0   5 2229.08   72.49
   2   0  -5    8.10    2.50
   2   0  -5    7.30    2.90
  -2   0   5    8.20    7.40
  -2   0   5    0.40    3.20
   1   0  -5 2827.72   88.09
   1   0  -5 2737.23   87.69
  -1   0   5 2753.02   86.19
  -1   0   5 2657.13   88.69
  -1   0   5 2822.72   93.09
  -1   0   5 2692.03   86.99
  -1   0   5 2834.42   88.89
   0   0  -5  889.91   33.10
   0   0  -5  889.61   30.90
   0   0   5  852.51   31.60
   0   0   5  856.81   34.00
   0   0   5  901.61   34.60
   0   0   5  883.91   31.30
  -1   0  -5 2715.03   92.29
  -1   0  -5 2845.72   94.29
  -1   0  -5 2852.21   90.09
   1   0   5 2744.23   95.19
   1   0   5 2889.51   91.39
   1   0   5 2852.31   91.89
   1   0   5 3048.40   93.19
  -2   0  -5 1896.11   63.29
  -2   0  -5 1919.21   65.99
  -2   0  -5 2025.30   68.89
   2   0   5 1908.41   69.69
   2   0   5 1955.50   64.59
   2   0   5 2056.09   64.69
  -3   0  -5 1412.06   51.19
  -3   0  -5 1497.15   54.89
  -3   0  -5 1404.16   49.10
   3   0   5 1479.65   49.70
   3   0   5 1443.16   49.00
   3   0   5 1502.35   56.09
  -4   0  -5 1739.73   61.09
  -4   0  -5 1847.12   66.79
  -4   0  -5 1733.63   62.59
   4   0   5 1927.61   68.59
   4   0   5 1712.53   59.29
   4   0   5 1827.62   60.39
  -5   0  -5  176.28   13.30
  -5   0  -5  208.18   17.10
  -5   0  -5  147.39   13.50
   5   0   5  161.28   17.20
   5   0   5  158.18   10.40
  -6   0  -5 1160.18   47.30
  -6   0  -5 1143.99   50.39
   6   0   5 1264.07   53.09
   6   0   5 1234.28   42.90
  -7   0  -5    8.50    7.60
  -7   0  -5   14.50    7.30
   7   0   5   -2.80    3.80
   7   0   5    4.00    7.90
  -8   0  -5  713.93   36.70
  -8   0  -5  569.84   32.40
   8   0   5  787.12   40.00
   8   0   5  611.34   27.50
  -9   0  -5   72.09   14.50
  -9   0  -5   37.40   12.30
   9   0   5   66.09    9.70
   9   0   5   72.99   15.60
 -10   0  -5  167.58   21.70
 -10   0  -5  185.88   22.00
  10   0   5  152.58   22.30
  10   0   5  171.28   15.60
  12  -1  -5   56.99    9.90
 -12   1   5  104.69   19.00
 -12   1   5   94.89   14.30
  11  -1  -5   50.39    8.80
 -11   1   5   44.00    9.90
 -11   1   5   32.80   12.30
  10  -1  -5  116.09   11.10
 -10   1   5  193.78   21.30
 -10   1   5  145.89   14.70
   9  -1  -5  178.28   12.60
  -9   1   5  236.38   18.80
  -9   1   5  225.38   15.90
   8  -1  -5  131.19    9.90
  -8   1   5  148.19   15.40
  -8   1   5  105.09   13.40
  -8   1   5  146.79   13.10
   7  -1  -5  503.75   20.90
  -7   1   5  496.05   25.60
  -7   1   5  512.65   27.10
  -7   1   5  539.25   23.20
   6  -1  -5  192.18   10.60
  -6   1   5  188.28   13.40
  -6   1   5  194.98   11.80
  -6   1   5  225.08   20.40
   5  -1  -5 1435.66   45.90
  -5   1   5 1424.86   49.60
  -5   1   5 1283.57   54.69
  -5   1   5 1324.37   46.80
   4  -1  -5   29.90    4.10
  -4   1   5   27.60    4.50
  -4   1   5   26.60    4.90
  -4   1   5   30.40    9.50
   3  -1  -5 1592.14   49.40
   3  -1  -5 1614.54   51.19
  -3   1   5 1526.35   50.19
  -3   1   5 1547.55   59.19
  -3   1   5 1584.74   52.99
   2  -1  -5  443.46   15.40
   2  -1  -5  449.95   17.50
  -2   1   5  438.66   15.40
  -2   1   5  462.35   17.80
  -2   1   5  443.66   22.60
  -2   1   5  424.26   18.10
  -2   1   5  440.86   18.00
   1  -1  -5 1393.26   47.20
   1  -1  -5 1427.26   48.60
  -1   1   5 1456.95   47.30
  -1   1   5 1487.75   47.40
  -1   1   5 1452.95   51.49
  -1   1   5 1443.46   47.60
  -1   1   5 1336.67   48.80
   0  -1  -5 2683.73   78.59
   0  -1  -5 2374.86   81.69
   0  -1  -5 2610.64   81.89
   0   1   5 2373.46   82.39
   0   1   5 2538.95   81.39
   0   1   5 2282.57   81.99
   0   1   5 2563.54   82.39
  -1  -1  -5  145.89   10.90
  -1  -1  -5  149.29    7.30
  -1  -1  -5  149.99   12.10
   1   1   5  165.18   11.00
   1   1   5  156.08   10.20
   1   1   5  134.69   11.10
  -2  -1  -5 2421.66   75.89
  -2  -1  -5 2410.96   79.79
  -2  -1  -5 2457.25   83.09
   2   1   5 2437.66   78.29
   2   1   5 2387.26   77.69
   2   1   5 2252.77   82.29
  -3  -1  -5  128.19   13.60
  -3  -1  -5  109.59   11.10
  -3  -1  -5  114.99    8.40
   3   1   5  114.09   13.40
   3   1   5  146.59    9.40
  -4  -1  -5 1559.24   59.39
  -4  -1  -5 1482.75   54.89
   4   1   5 1486.85   51.49
   4   1   5 1525.95   59.59
  -5  -1  -5  552.44   29.90
  -5  -1  -5  536.85   26.60
   5   1   5  540.05   22.70
   5   1   5  545.85   30.40
  -6  -1  -5  536.25   28.60
  -6  -1  -5  670.73   33.50
   6   1   5  576.24   32.90
   6   1   5  578.04   24.50
  -7  -1  -5  285.57   21.20
  -7  -1  -5  357.86   25.40
   7   1   5  332.77   25.90
   7   1   5  325.87   17.30
  -8  -1  -5  274.37   23.60
  -8  -1  -5  241.18   22.40
   8   1   5  298.97   25.50
   8   1   5  294.57   16.90
  -9  -1  -5  215.28   23.40
  -9  -1  -5  219.18   24.50
   9   1   5  254.57   17.00
   9   1   5  231.38   25.80
 -10  -1  -5   -6.50   16.00
  10   1   5   12.60    6.60
  10   1   5   12.20   11.30
  12  -2  -5    2.80    6.30
 -12   2   5   -2.10    7.30
 -12   2   5   -8.80    9.00
  11  -2  -5  124.39   12.70
 -11   2   5  152.58   19.60
 -11   2   5  120.89   14.70
  10  -2  -5    2.80    4.80
 -10   2   5    2.70    5.40
 -10   2   5    5.70    8.30
   9  -2  -5  336.27   17.00
  -9   2   5  397.56   20.60
  -9   2   5  367.66   23.80
   8  -2  -5   17.60    4.50
  -8   2   5   19.90    8.00
  -8   2   5   10.80    5.60
  -8   2   5   14.00    8.40
   7  -2  -5  424.96   18.30
  -7   2   5  428.46   22.40
  -7   2   5  397.56   26.70
  -7   2   5  451.85   20.10
   6  -2  -5  373.96   16.00
  -6   2   5  360.76   17.10
  -6   2   5  392.76   19.80
  -6   2   5  378.36   25.50
   5  -2  -5  521.95   20.00
  -5   2   5  535.95   29.10
  -5   2   5  517.15   21.00
  -5   2   5  536.25   23.10
   4  -2  -5 1797.22   57.19
   4  -2  -5 1810.52   58.29
  -4   2   5 1830.22   66.49
  -4   2   5 1775.42   58.29
  -4   2   5 1786.32   60.59
   3  -2  -5  587.04   20.30
   3  -2  -5  596.54   21.30
   3  -2  -5  563.84   19.20
  -3   2   5  583.24   22.10
  -3   2   5  554.94   25.70
  -3   2   5  569.64   20.70
  -3   2   5  549.85   20.20
   2  -2  -5 2618.14   82.49
   2  -2  -5 2508.25   80.49
   2  -2  -5 2596.84   81.39
  -2   2   5 2584.84   85.39
  -2   2   5 2603.74   81.79
  -2   2   5 2528.85   81.59
  -2   2   5 2581.74   81.49
  -2   2   5 2518.55   81.29
   1  -2  -5   61.49    7.30
   1  -2  -5   50.79    5.70
  -1   2   5   63.19    6.90
  -1   2   5   62.29    7.70
  -1   2   5   53.09    6.30
  -1   2   5   65.19    4.80
   0  -2  -5 2362.46   77.89
   0  -2  -5 2271.47   77.59
   0   2   5 2318.77   79.49
   0   2   5 2358.66   77.09
   0   2   5 2452.65   78.09
   0   2   5 2399.06   78.29
  -1  -2  -5  437.46   19.80
  -1  -2  -5  420.36   20.90
   1   2   5  437.26   20.00
   1   2   5  438.26   20.80
   1   2   5  444.06   18.20
   1   2   5  456.75   23.20
  -2  -2  -5 1365.96   53.09
  -2  -2  -5 1450.65   50.79
   2   2   5 1400.16   52.79
   2   2   5 1410.26   47.60
   2   2   5 1457.35   49.70
  -3  -2  -5 1016.40   38.20
  -3  -2  -5  926.41   41.00
   3   2   5  956.70   40.80
   3   2   5  958.80   35.50
  -4  -2  -5  325.07   22.30
  -4  -2  -5  320.97   19.10
   4   2   5  348.27   16.70
   4   2   5  324.17   22.30
  -5  -2  -5  687.93   35.10
  -5  -2  -5  669.73   31.10
   5   2   5  622.44   34.20
   5   2   5  656.13   26.90
  -6  -2  -5   35.70   11.00
  -6  -2  -5   61.69   10.60
   6   2   5   54.29    7.90
   6   2   5   40.20   11.80
  -7  -2  -5  790.82   39.00
  -7  -2  -5  867.11   43.20
   7   2   5  801.72   33.20
   7   2   5  795.32   42.40
  -8  -2  -5   56.39   14.30
  -8  -2  -5   24.20   11.50
   8   2   5   30.60   11.70
   8   2   5   39.80    8.10
  -9  -2  -5  310.77   30.40
  -9  -2  -5  282.67   27.50
   9   2   5  291.47   19.60
   9   2   5  345.87   28.10
  10   2   5   87.99   19.20
  12  -3  -5   -1.20    6.10
 -12   3   5   -3.30    8.90
 -12   3   5   -4.20    6.50
  11  -3  -5  143.49   13.20
 -11   3   5  184.68   16.80
 -11   3   5  196.98   22.00
  10  -3  -5   43.60    7.40
 -10   3   5   58.19   13.00
 -10   3   5   65.99    9.80
   9  -3  -5  159.78   11.50
  -9   3   5  152.38   19.20
  -9   3   5  168.08   17.40
  -9   3   5  169.98   14.30
   8  -3  -5  304.27   15.30
  -8   3   5  302.67   25.00
  -8   3   5  321.17   19.60
  -8   3   5  322.17   17.10
   7  -3  -5  141.29    9.50
  -7   3   5  167.98   11.20
  -7   3   5  175.18   13.70
  -7   3   5  176.68   20.40
   6  -3  -5 1537.25   50.79
  -6   3   5 1535.25   54.59
  -6   3   5 1495.95   51.99
  -6   3   5 1498.35   61.19
   5  -3  -5   -1.00    2.40
  -5   3   5    5.30    3.80
  -5   3   5   -3.90    5.10
   4  -3  -5 2106.99   66.39
  -4   3   5 2044.10   67.79
  -4   3   5 2028.30   64.59
  -4   3   5 2018.60   65.99
  -4   3   5 2045.50   71.89
   3  -3  -5  112.59    7.70
   3  -3  -5  117.19    6.60
  -3   3   5  120.99    6.90
  -3   3   5  113.99    7.50
  -3   3   5  112.39   10.70
  -3   3   5  115.89    7.30
   2  -3  -5 1361.76   46.80
   2  -3  -5 1335.27   44.80
  -2   3   5 1361.66   48.00
  -2   3   5 1368.16   45.80
  -2   3   5 1357.16   45.50
  -2   3   5 1367.66   44.30
  -2   3   5 1347.77   46.20
   1  -3  -5  852.51   31.40
   1  -3  -5  820.82   30.10
  -1   3   5  795.72   30.70
  -1   3   5  836.52   27.30
  -1   3   5  815.32   31.80
  -1   3   5  822.22   30.50
  -1   3   5  840.72   31.30
   0  -3  -5 1156.58   42.30
   0  -3  -5 1129.49   42.30
   0   3   5 1184.68   45.00
   0   3   5 1225.38   43.00
   0   3   5 1166.28   42.40
   0   3   5 1199.58   41.50
  -1  -3  -5 1701.93   61.49
  -1  -3  -5 1712.13   59.89
   1   3   5 1774.22   60.49
   1   3   5 1776.62   58.19
   1   3   5 1787.92   61.49
   1   3   5 1673.73   64.09
  -2  -3  -5  187.58   13.00
  -2  -3  -5  174.78   14.70
   2   3   5  155.98    9.80
   2   3   5  174.88   12.70
   2   3   5  178.08   17.50
   2   3   5  161.88   13.20
  -3  -3  -5  940.71   42.10
  -3  -3  -5  990.50   38.90
   3   3   5 1003.30   45.10
   3   3   5  970.70   41.70
   3   3   5  974.40   37.00
  -4  -3  -5   -2.50    6.80
  -4  -3  -5   -0.90    5.40
   4   3   5   -0.10    7.00
   4   3   5    9.90    7.30
   4   3   5    1.40    4.20
  -5  -3  -5  666.93   32.20
  -5  -3  -5  722.33   37.60
   5   3   5  692.93   28.80
   5   3   5  671.33   36.50
  -6  -3  -5   90.49   13.80
  -6  -3  -5  149.79   19.10
   6   3   5  145.69   12.80
   6   3   5  106.39   17.00
  -7  -3  -5  451.65   32.20
  -7  -3  -5  412.86   27.50
   7   3   5  418.46   31.50
   7   3   5  464.05   23.20
  -8  -3  -5  229.58   26.30
  -8  -3  -5  194.48   22.00
   8   3   5  224.18   25.30
   8   3   5  236.68   17.60
   9   3   5   44.60   10.00
   9   3   5   19.30   13.10
  13  -4  -5   25.60    9.80
  12  -4  -5   38.80    8.80
 -12   4   5   72.29   15.30
 -12   4   5   39.40   10.40
  11  -4  -5   15.00    6.20
 -11   4   5   31.30   10.90
 -11   4   5   10.00    7.10
  10  -4  -5   74.19    9.00
 -10   4   5   94.09   11.50
 -10   4   5  100.89   14.10
   9  -4  -5   11.40    4.90
  -9   4   5   15.10   10.70
  -9   4   5    7.90    5.00
  -9   4   5    4.50    6.70
   8  -4  -5  340.87   15.90
  -8   4   5  362.56   27.50
  -8   4   5  305.57   19.50
  -8   4   5  343.17   17.40
   7  -4  -5  123.79    9.20
  -7   4   5  136.19   10.10
  -7   4   5  137.59   13.20
  -7   4   5  158.08   18.50
   6  -4  -5  512.15   19.90
  -6   4   5  518.85   27.60
  -6   4   5  467.45   22.80
   5  -4  -5  450.55   18.30
  -5   4   5  457.15   23.90
  -5   4   5  431.46   19.90
   4  -4  -5  606.54   23.30
  -4   4   5  596.54   27.10
  -4   4   5  621.04   24.00
  -4   4   5  622.94   23.30
   3  -4  -5  846.72   30.70
   3  -4  -5  836.42   29.30
  -3   4   5  815.62   29.20
  -3   4   5  827.92   29.40
  -3   4   5  810.52   32.90
   2  -4  -5  199.18   12.00
   2  -4  -5  186.88   10.40
  -2   4   5  165.08   11.30
  -2   4   5  196.08   10.70
  -2   4   5  171.68   11.50
  -2   4   5  202.28   11.10
   1  -4  -5 2329.67   77.59
   1  -4  -5 2298.07   77.19
  -1   4   5 2356.96   77.29
  -1   4   5 2301.77   77.49
  -1   4   5 2343.87   79.69
  -1   4   5 2404.66   77.89
   0  -4  -5   86.19    9.60
   0  -4  -5  106.69   10.10
   0   4   5   80.99   11.20
   0   4   5   80.69    8.90
   0   4   5   80.39    8.40
   0   4   5   82.69    9.40
  -1  -4  -5 1352.16   49.30
  -1  -4  -5 1380.26   51.39
   1   4   5 1283.27   54.09
   1   4   5 1421.46   50.19
   1   4   5 1357.96   47.50
   1   4   5 1410.86   50.99
  -2  -4  -5  343.77   18.60
  -2  -4  -5  296.57   20.00
   2   4   5  314.17   16.80
   2   4   5  313.47   19.10
   2   4   5  347.77   18.30
   2   4   5  329.87   22.90
  -3  -4  -5  787.02   36.40
  -3  -4  -5  687.83   31.20
   3   4   5  736.43   30.90
   3   4   5  770.92   38.60
   3   4   5  704.73   34.50
  -4  -4  -5  506.25   30.20
  -4  -4  -5  510.65   26.00
   4   4   5  484.45   29.20
   4   4   5  520.55   24.20
  -5  -4  -5  173.28   20.30
  -5  -4  -5  157.88   16.10
   5   4   5  207.08   22.50
   5   4   5  162.58   14.60
  -6  -4  -5  563.54   30.40
  -6  -4  -5  485.65   33.50
   6   4   5  506.65   34.00
   6   4   5  557.54   26.20
  -7  -4  -5   14.90   12.30
  -7  -4  -5   14.90    9.80
   7   4   5   -0.30    9.80
   7   4   5    8.20    6.80
  -8  -4  -5  218.88   24.00
   8   4   5  249.48   18.90
   8   4   5  236.18   26.90
  13  -5  -5  -11.70    6.10
 -13   5   5    9.90    9.20
  12  -5  -5   48.60    8.80
 -12   5   5   83.39   12.30
 -12   5   5   36.50   12.70
  11  -5  -5   -1.80    4.70
 -11   5   5    1.50    8.20
 -11   5   5    0.00    6.00
  10  -5  -5   76.19    9.10
 -10   5   5   97.29   14.50
 -10   5   5   72.29   10.00
   9  -5  -5   46.90    6.90
  -9   5   5   50.09   10.20
  -9   5   5   48.80   14.60
  -9   5   5   47.20    8.00
   8  -5  -5  151.88   10.00
  -8   5   5  162.58   20.80
  -8   5   5  151.58   11.80
  -8   5   5  160.68   15.70
   7  -5  -5  349.07   15.80
  -7   5   5  346.27   23.80
  -7   5   5  336.67   19.10
   6  -5  -5  125.19    8.90
  -6   5   5  148.69   16.10
  -6   5   5  140.29   11.50
   5  -5  -5  747.73   27.30
  -5   5   5  733.43   32.50
  -5   5   5  693.13   28.50
   4  -5  -5   13.40    3.90
   4  -5  -5    7.30    4.40
  -4   5   5   20.60    4.40
  -4   5   5   23.30    6.30
  -4   5   5   24.50    4.80
   3  -5  -5  954.50   34.90
   3  -5  -5  956.80   35.50
  -3   5   5  975.10   34.90
  -3   5   5  984.50   35.40
  -3   5   5 1002.70   38.30
   2  -5  -5  405.56   18.80
   2  -5  -5  438.56   19.60
  -2   5   5  437.96   19.30
  -2   5   5  382.46   20.30
  -2   5   5  430.46   20.40
  -2   5   5  429.96   19.00
   1  -5  -5 1846.72   63.59
   1  -5  -5 1834.72   64.29
  -1   5   5 1891.81   64.19
  -1   5   5 1869.21   64.29
  -1   5   5 1914.21   64.59
  -1   5   5 1873.11   67.39
   0  -5  -5 1244.48   46.80
   0  -5  -5 1233.88   44.90
   0   5   5 1192.88   45.70
   0   5   5 1233.08   50.09
   0   5   5 1194.78   44.30
   0   5   5 1302.07   46.60
  -1  -5  -5  396.86   22.20
  -1  -5  -5  395.86   19.40
   1   5   5  372.96   20.60
   1   5   5  346.37   17.50
   1   5   5  370.26   20.40
   1   5   5  386.66   24.50
  -2  -5  -5  942.81   41.30
  -2  -5  -5  881.91   36.60
   2   5   5  805.52   42.70
   2   5   5  982.10   37.80
   2   5   5  981.70   40.30
  -3  -5  -5   53.09    9.20
  -3  -5  -5   52.09   11.50
   3   5   5   51.59    8.80
   3   5   5   65.19   12.20
  -4  -5  -5  722.13   34.10
  -4  -5  -5  751.82   39.50
   4   5   5  758.92   32.30
   4   5   5  741.63   38.60
  -5  -5  -5    7.40    7.90
  -5  -5  -5   17.50   10.40
   5   5   5    7.90    5.80
   5   5   5   -0.20    8.60
  -6  -5  -5  651.33   35.80
  -6  -5  -5  743.13   43.10
   6   5   5  677.03   41.00
   6   5   5  671.23   31.60
  -7  -5  -5  103.49   17.00
   7   5   5  122.19   14.30
   7   5   5   77.79   17.90
 -12   6   5   17.80   10.70
 -11   6   5   47.40   12.20
 -10   6   5   92.59   19.20
 -10   6   5  112.39   14.80
  -9   6   5  217.38   25.80
  -9   6   5  187.58   18.10
  -8   6   5   22.90    7.50
  -8   6   5   18.80   10.20
  -7   6   5  457.95   26.90
  -7   6   5  414.06   21.80
  -6   6   5   35.10    6.90
  -6   6   5   26.40    8.60
  -5   6   5  364.26   17.90
  -5   6   5  406.06   21.90
   4  -6  -5  292.87   14.90
  -4   6   5  292.57   18.20
  -4   6   5  292.87   15.00
   3  -6  -5  305.87   16.10
  -3   6   5  306.07   18.00
  -3   6   5  314.37   16.00
   2  -6  -5 1000.20   38.40
  -2   6   5  960.90   40.60
  -2   6   5 1032.00   38.10
  -2   6   5  998.90   38.00
  -2   6   5 1036.60   39.50
   1  -6  -5   13.60    5.40
  -1   6   5    3.80    4.20
  -1   6   5    5.80    5.20
  -1   6   5   12.30    5.20
  -1   6   5    6.80    5.80
   0  -6  -5  565.44   26.70
   0   6   5  522.75   25.60
   0   6   5  525.55   23.90
   0   6   5  509.95   28.90
   0   6   5  529.15   25.30
  -1  -6  -5   34.40    8.80
   1   6   5   34.30    8.10
   1   6   5   18.70    5.80
   1   6   5    9.50    5.80
  -2  -6  -5  723.43   36.20
   2   6   5  732.53   32.30
   2   6   5  707.53   34.50
  -3  -6  -5  139.19   17.70
   3   6   5  150.18   14.40
   3   6   5  112.59   15.70
  -4  -6  -5  345.07   27.60
   4   6   5  341.37   20.40
   4   6   5  340.97   26.40
  -5  -6  -5  256.47   27.20
   5   6   5  230.78   25.60
   5   6   5  229.98   17.30
   6   6   5   91.29   18.60
   6   6   5   97.29   13.00
 -12   7   5   11.70   10.40
 -11   7   5   66.19   13.30
 -10   7   5   10.10   12.80
 -10   7   5   10.60    7.60
  -9   7   5  197.38   18.70
  -9   7   5  233.48   25.50
  -8   7   5  203.98   22.50
  -8   7   5  174.68   14.80
  -7   7   5  176.58   13.80
  -7   7   5  208.78   20.40
  -6   7   5  332.17   22.00
  -5   7   5   21.10    7.80
   4  -7  -5  530.05   23.50
  -4   7   5  500.85   25.90
  -4   7   5  529.15   23.00
   3  -7  -5    9.40    5.10
  -3   7   5    5.50    4.40
  -3   7   5    8.50    5.80
  -3   7   5    8.60    4.90
   2  -7  -5  718.23   31.10
  -2   7   5  696.03   29.90
  -2   7   5  691.13   30.90
  -2   7   5  708.83   33.60
  -2   7   5  719.33   29.90
   1  -7  -5  140.49   13.80
  -1   7   5  120.89   12.60
  -1   7   5  134.99   13.00
  -1   7   5  158.08   12.90
   0  -7  -5  339.77   20.70
   0   7   5  302.97   17.80
   0   7   5  300.17   19.10
   0   7   5  277.57   18.50
  -1  -7  -5  367.06   24.40
   1   7   5  354.06   21.60
   1   7   5  330.97   18.90
   1   7   5  354.96   22.10
  -2  -7  -5   63.19   13.30
   2   7   5   59.79   12.10
   2   7   5   72.19   11.00
  -3  -7  -5  482.65   32.40
   3   7   5  442.86   29.50
   3   7   5  507.25   26.30
  -4  -7  -5   -3.90   10.20
   4   7   5   10.60    7.20
   4   7   5    1.50    9.20
   5   7   5  501.65   35.90
   5   7   5  515.75   27.10
 -11   8   5   44.60   11.70
 -10   8   5   55.69   11.80
 -10   8   5   37.70   15.20
  -9   8   5   14.40    7.70
  -9   8   5   45.10   13.50
  -8   8   5  288.57   27.50
  -7   8   5   -6.40    7.50
  -6   8   5  297.77   21.60
  -5   8   5   79.39   12.50
   4  -8  -5  328.87   19.10
  -4   8   5  350.16   18.40
  -4   8   5  325.27   21.00
   3  -8  -5  185.98   15.00
  -3   8   5  184.28   13.90
  -3   8   5  178.88   16.80
  -3   8   5  190.58   13.70
   2  -8  -5  202.98   17.00
  -2   8   5  199.88   15.20
  -2   8   5  192.28   15.50
  -2   8   5  252.07   16.20
   1  -8  -5  444.36   25.70
  -1   8   5  407.36   23.30
  -1   8   5  462.35   23.70
  -1   8   5  433.36   23.40
   0  -8  -5    5.70    8.00
   0   8   5   22.20    8.00
   0   8   5   25.10    8.30
   0   8   5   10.50    6.40
  -1  -8  -5  551.44   32.80
   1   8   5  580.24   31.20
   1   8   5  608.94   30.30
  -2  -8  -5   14.90    9.80
   2   8   5   21.00    9.60
   2   8   5    2.30    7.00
  -3  -8  -5  442.76   31.40
   3   8   5  389.76   29.10
   3   8   5  419.56   25.20
   4   8   5  101.79   13.70
   4   8   5   86.39   17.80
 -11   9   5    2.50   15.60
 -11   9   5   11.60    9.30
 -10   9   5   52.29   16.30
  -9   9   5   27.10   13.00
  -8   9   5  105.99   17.40
  -7   9   5   64.89   12.80
  -6   9   5   63.79   12.70
  -5   9   5  203.18   20.40
  -4   9   5   21.70    8.70
  -4   9   5   19.60    6.50
  -4   9   5   11.80    6.40
   3  -9  -5  354.16   22.40
  -3   9   5  365.66   22.70
  -3   9   5  354.86   21.40
  -3   9   5  359.76   20.60
   2  -9  -5   17.80    8.50
  -2   9   5   13.90    6.90
  -2   9   5   10.60    6.90
  -2   9   5   18.40    8.00
   1  -9  -5  329.37   24.00
  -1   9   5  279.07   20.00
  -1   9   5  305.07   20.50
  -1   9   5  320.67   21.20
   0  -9  -5   81.09   15.20
   0   9   5   95.79   13.00
   0   9   5   83.49   12.30
   0   9   5   88.09   13.70
  -1  -9  -5  153.48   20.00
   1   9   5  138.69   16.20
   1   9   5  139.69   17.80
   2   9   5  209.68   22.50
   2   9   5  225.48   20.90
   3   9   5   42.00   12.60
   3   9   5   50.59   14.50
 -11  10   5   -2.40   15.90
 -10  10   5   46.60   17.00
  -9  10   5   66.69   17.20
  -8  10   5   38.50   13.30
  -7  10   5  166.68   20.70
  -6  10   5   27.80   11.20
  -5  10   5  153.58   18.20
  -4  10   5   31.80   10.30
  -4  10   5   35.20    9.10
  -4  10   5   16.70    7.00
   3 -10  -5  170.68   18.10
  -3  10   5  145.99   17.10
  -3  10   5  172.28   16.90
  -3  10   5  172.08   16.20
   2 -10  -5  133.09   17.30
  -2  10   5  159.28   17.90
  -2  10   5  158.08   15.90
  -2  10   5  161.28   17.40
   1 -10  -5   47.70   13.00
  -1  10   5   52.39   11.20
  -1  10   5   50.79   11.90
  -1  10   5   63.69   11.50
   0  10   5  252.27   21.80
   0  10   5  228.48   20.80
   1  10   5    4.90    7.80
   1  10   5    7.30    9.40
 -10  11   5   26.50   14.90
  -9  11   5   86.09   18.90
  -8  11   5    0.40   11.20
  -7  11   5   36.50   12.70
  -6  11   5   32.20   11.30
  -5  11   5   24.90   11.20
  -4  11   5  123.09   15.40
  -4  11   5   88.89   14.40
  -4  11   5  100.99   16.30
  -3  11   5   -8.00    6.50
  -3  11   5   -6.10    6.90
  -3  11   5   -1.20    7.90
  -2  11   5  168.08   19.00
  -2  11   5  190.78   18.20
  -2  11   5  163.48   19.10
  -1  11   5    2.10    9.10
  -1  11   5   -4.80    7.80
  -1  11   5    3.10    8.20
  -7  12   5   10.90   10.50
  -6  12   5   61.69   14.90
  -5  12   5    0.10    9.00
  -4  12   5   83.49   15.70
  -3  12   5   16.20   10.50
   0  13  -6   26.20   10.00
  -1  13  -6  141.19   17.40
  -2  13  -6   -7.00    7.10
  -2  13  -6    4.30    5.20
  -3  13  -6  103.49   11.50
  -3  13  -6  113.19   16.40
  -4  13  -6    1.50    5.40
  -4  13  -6   20.50   10.10
  -5  13  -6  118.29   12.90
  -5  13  -6   95.29   16.40
  -6  13  -6   56.79   14.40
  -6  13  -6   70.29   16.40
  -7  13  -6   57.69   14.20
   3  12  -6  111.29   15.30
   2  12  -6   14.30    8.20
   1  12  -6  154.38   11.60
   1  12  -6  160.88   17.60
   0  12  -6   35.10   10.50
   0  12  -6   40.40    7.10
  -1  12  -6  110.29   14.50
  -1  12  -6  127.39   11.40
  -2  12  -6   98.99   10.20
  -2  12  -6   98.39   14.30
  -3  12  -6  122.29   11.60
  -3  12  -6   87.69   13.60
  -4  12  -6  169.38   19.50
  -4  12  -6  155.68   17.60
  -4  12  -6  151.28   13.60
  -5  12  -6   16.70    8.60
  -5  12  -6   25.90    7.40
  -5  12  -6   28.00   10.70
  -6  12  -6  127.79   17.70
  -6  12  -6   74.39   15.70
  -7  12  -6   -4.60   10.30
  -7  12  -6    4.80    9.20
  -8  12  -6   94.69   18.70
   4  11  -6    3.40    8.70
   4  11  -6   13.70    6.50
   4  11  -6    4.20    7.30
  -4 -11   6   -1.50    8.10
   3  11  -6  124.59    9.50
   3  11  -6  117.99   15.00
  -3 -11   6  143.79   17.60
   2  11  -6   34.40    5.90
   2  11  -6   20.20    8.10
  -2 -11   6   14.60    8.70
   1  11  -6   87.69   12.70
   1  11  -6  106.49    9.30
  -1 -11   6  106.99   15.10
   0  11  -6  300.57   20.60
   0  11  -6  286.77   15.30
   0 -11   6  346.07   22.60
  -1  11  -6   33.40    9.20
  -1  11  -6   41.10    6.40
   1 -11   6   30.70    9.20
  -2  11  -6  249.18   18.50
  -2  11  -6  280.27   14.60
  -2  11  -6  190.78   19.80
   2 -11   6  236.48   19.30
  -3  11  -6    5.30    6.30
  -3  11  -6    0.80    4.00
  -3  11  -6   11.40    8.60
  -4  11  -6  257.37   19.10
  -4  11  -6  230.28   22.40
  -4  11  -6  223.18   14.50
  -5  11  -6    0.10    8.40
  -5  11  -6   12.80    6.00
  -5  11  -6    8.20    7.50
  -6  11  -6  221.58   20.50
  -6  11  -6  194.38   21.40
  -7  11  -6  133.89   17.00
  -7  11  -6  145.39   20.50
  -8  11  -6   82.79   17.50
  -9  11  -6   54.49   16.40
   5  10  -6   64.39    5.90
   4  10  -6   94.49   13.00
   4  10  -6  108.79    7.80
  -4 -10   6   89.49   13.80
   3  10  -6   83.69    7.10
   3  10  -6   70.09   11.20
  -3 -10   6   57.79   11.40
   2  10  -6  176.08   17.00
   2  10  -6  220.68   11.30
  -2 -10   6  238.58   18.30
   1  10  -6    2.90    3.20
   1  10  -6    3.80    5.90
  -1 -10   6   -3.50    5.50
   0  10  -6  323.97   15.30
   0  10  -6  342.17   20.40
   0  10  -6  311.67   22.30
   0 -10   6  325.27   20.80
  -1  10  -6   20.00    9.10
  -1  10  -6    4.10    3.70
  -1  10  -6    6.60    6.10
   1 -10   6   16.00    7.60
  -2  10  -6  301.27   21.30
  -2  10  -6  269.57   18.20
  -2  10  -6  272.37   14.30
   2 -10   6  278.97   19.60
  -3  10  -6  216.28   19.00
  -3  10  -6  244.78   13.60
  -3  10  -6  227.38   16.70
   3 -10   6  226.08   17.50
  -4  10  -6  153.18   11.40
  -4  10  -6  128.59   17.00
  -4  10  -6  167.18   16.40
  -5  10  -6  304.37   20.20
  -5  10  -6  232.78   20.50
  -5  10  -6  300.27   16.30
  -6  10  -6   16.60    7.90
  -6  10  -6   19.70   10.10
  -7  10  -6  347.07   28.00
  -8  10  -6   10.70   12.10
  -9  10  -6  180.18   24.60
 -10  10  -6   25.10   15.00
   5   9  -6   -0.30    2.40
   5   9  -6    0.60    6.70
   5   9  -6    2.20    6.70
  -5  -9   6   -3.50    6.30
   4   9  -6  218.98   16.70
   4   9  -6  216.28    9.70
  -4  -9   6  222.58   18.00
   3   9  -6    9.80    2.90
   3   9  -6    6.70    6.20
  -3  -9   6   15.90    7.30
   2   9  -6  317.37   19.30
   2   9  -6  332.07   26.10
   2   9  -6  333.17   13.60
  -2  -9   6  300.37   20.10
   1   9  -6  286.97   21.80
   1   9  -6  294.87   13.20
   1   9  -6  304.17   18.50
  -1  -9   6  314.37   19.90
   0   9  -6  225.88   16.10
   0   9  -6  255.37   20.60
   0   9  -6  261.67   12.20
   0  -9   6  234.58   17.10
  -1   9  -6  475.65   27.50
  -1   9  -6  460.95   23.60
  -1   9  -6  477.05   19.60
   1  -9   6  512.75   25.60
  -2   9  -6   10.30    8.80
  -2   9  -6   20.50    4.60
  -2   9  -6   11.70    6.30
   2  -9   6   19.90    7.00
  -3   9  -6  525.45   25.70
  -3   9  -6  564.84   30.20
  -3   9  -6  538.15   22.40
   3  -9   6  547.35   27.00
  -4   9  -6    7.20    7.10
  -4   9  -6   -5.30    3.20
  -4   9  -6  -10.70    4.20
   4  -9   6    1.70    5.20
  -5   9  -6  576.34   32.70
  -5   9  -6  586.94   25.10
  -5   9  -6  602.74   28.10
  -6   9  -6  171.58   15.90
  -6   9  -6  159.78   19.30
  -7   9  -6  251.47   25.00
  -8   9  -6  140.89   20.40
  -9   9  -6   58.69   15.70
 -10   9  -6  126.39   22.30
   5   8  -6   79.09   11.30
  -5  -8   6   89.59   12.30
   4   8  -6  223.48   15.30
   4   8  -6  211.18    8.50
  -4  -8   6  177.98   16.50
  -4  -8   6  206.98   14.90
   3   8  -6  237.98   23.90
   3   8  -6  274.87   17.20
   3   8  -6  294.97   11.20
  -3  -8   6  277.07   18.40
   2   8  -6   70.69   13.60
   2   8  -6   85.99   10.40
   2   8  -6   90.39    5.90
  -2  -8   6  134.99   13.90
   1   8  -6  624.94   33.70
   1   8  -6  669.73   28.60
   1   8  -6  642.94   23.20
  -1  -8   6  664.33   30.10
   0   8  -6    6.10    2.80
   0   8  -6   16.50    5.40
   0   8  -6    3.90    7.50
   0  -8   6    6.80    5.10
  -1   8  -6  542.95   24.90
  -1   8  -6  569.54   30.00
  -1   8  -6  571.74   21.60
   1  -8   6  569.44   26.80
  -2   8  -6  111.09   14.40
  -2   8  -6  123.39    8.40
  -2   8  -6   91.09   10.40
   2  -8   6  114.99   12.30
  -3   8  -6  442.06   18.90
  -3   8  -6  423.46   25.60
  -3   8  -6  432.76   21.60
   3  -8   6  455.95   22.60
  -4   8  -6  318.07   15.50
  -4   8  -6  295.07   21.80
  -4   8  -6  319.87   17.70
   4  -8   6  313.57   18.10
  -5   8  -6  144.89   10.70
  -5   8  -6  153.98   13.70
  -5   8  -6  156.08   17.70
  -6   8  -6  457.15   23.20
  -6   8  -6  459.35   28.50
  -7   8  -6   15.60   10.20
  -8   8  -6  324.87   26.60
  -9   8  -6   20.90   11.80
 -10   8  -6  208.18   26.20
 -11   8  -6   49.60   19.10
   5   7  -6  207.58   24.70
   5   7  -6  250.77   15.90
  -5  -7   6  290.47   32.20
  -5  -7   6  255.07   17.10
   4   7  -6   10.50    9.80
   4   7  -6    4.90    4.40
  -4  -7   6    1.30    9.70
  -4  -7   6   -0.70    4.50
  -4  -7   6   -1.60    3.90
   3   7  -6  669.13   28.50
   3   7  -6  676.63   36.80
   3   7  -6  702.23   28.50
   3   7  -6  682.33   22.20
  -3  -7   6  646.54   27.40
  -3  -7   6  666.43   30.20
  -3  -7   6  634.84   40.10
   2   7  -6  169.68    7.60
   2   7  -6  149.88   18.00
   2   7  -6  176.88   12.40
  -2  -7   6  176.98   13.50
  -2  -7   6  180.68   22.20
   1   7  -6  548.95   19.60
   1   7  -6  554.24   24.20
   1   7  -6  556.04   30.60
  -1  -7   6  542.15   25.70
   0   7  -6  333.07   22.30
   0   7  -6  294.17   16.10
   0   7  -6  294.77   12.60
   0  -7   6  306.57   17.40
  -1   7  -6  378.36   15.80
  -1   7  -6  402.66   19.10
  -1   7  -6  407.66   23.60
   1  -7   6  401.66   20.30
  -2   7  -6  447.66   21.00
  -2   7  -6  485.55   26.20
  -2   7  -6  462.65   18.60
   2  -7   6  460.95   22.20
  -3   7  -6   23.80    7.90
  -3   7  -6   26.70    4.70
  -3   7  -6   27.90    6.20
   3  -7   6   31.10    6.50
  -4   7  -6  887.11   34.80
  -4   7  -6  944.51   40.70
  -4   7  -6  909.61   33.30
   4  -7   6  889.51   35.50
  -5   7  -6   48.60    7.60
  -5   7  -6   49.60    6.90
  -5   7  -6   34.20   10.20
   5  -7   6   46.40    7.20
  -6   7  -6  727.33   36.50
  -7   7  -6  201.58   21.50
  -8   7  -6  138.29   19.10
   8  -7   6  123.79   11.40
  -9   7  -6  299.37   29.20
   9  -7   6  245.88   16.70
 -10   7  -6   28.30   14.00
  10  -7   6   34.90    9.10
 -11   7  -6  245.28   29.40
  11  -7   6  187.98   18.20
  12  -7   6    7.00    8.50
   7   6  -6  295.67   17.30
   7   6  -6  263.97   29.00
  -7  -6   6  303.37   19.00
  -7  -6   6  235.38   32.50
   6   6  -6   33.70    6.60
   6   6  -6   27.80   12.40
  -6  -6   6    1.90   12.20
  -6  -6   6   12.80    6.30
  -6  -6   6   14.60    6.50
   5   6  -6  197.18   11.90
   5   6  -6  181.88   22.00
  -5  -6   6  199.78   13.40
  -5  -6   6  225.28   16.30
  -5  -6   6  191.98   26.10
  -5  -6   6  192.38   14.80
   4   6  -6  283.57   13.30
   4   6  -6  237.68   23.80
  -4  -6   6  253.77   16.70
  -4  -6   6  263.97   14.30
  -4  -6   6  257.27   28.20
  -4  -6   6  260.87   14.30
   3   6  -6  375.06   17.50
   3   6  -6  342.27   24.80
   3   6  -6  367.36   15.50
   3   6  -6  352.96   12.30
  -3  -6   6  391.06   17.20
  -3  -6   6  352.76   16.60
  -3  -6   6  399.16   20.20
  -3  -6   6  368.86   28.50
   2   6  -6  735.23   23.80
   2   6  -6  725.33   25.80
   2   6  -6  647.64   35.10
  -2  -6   6  773.92   31.10
  -2  -6   6  676.23   38.30
   1   6  -6   68.49    4.60
   1   6  -6   73.39    8.90
   1   6  -6   65.99   11.70
  -1  -6   6   69.69    8.80
   0   6  -6 1289.57   51.79
   0   6  -6 1311.67   42.30
   0  -6   6 1277.27   47.50
  -1   6  -6    1.50    6.30
  -1   6  -6   -0.10    2.00
   1  -6   6    3.00    3.50
  -2   6  -6 1486.75   51.99
  -2   6  -6 1501.35   49.99
  -2   6  -6 1527.85   57.29
   2  -6   6 1528.35   53.59
  -3   6  -6  260.57   13.70
  -3   6  -6  244.08   18.00
  -3   6  -6  245.38   12.20
   3  -6   6  263.17   14.40
  -4   6  -6 1503.45   50.39
  -4   6  -6 1411.46   49.00
  -4   6  -6 1405.56   49.80
  -4   6  -6 1402.56   55.49
   4  -6   6 1452.75   50.59
  -5   6  -6  479.25   25.90
  -5   6  -6  450.15   19.90
  -5   6  -6  441.76   19.80
  -5   6  -6  450.45   20.00
   5  -6   6  462.45   18.20
   5  -6   6  461.15   20.30
  -6   6  -6  225.78   13.70
  -6   6  -6  233.98   21.40
   6  -6   6  210.78   16.10
   6  -6   6  214.68   12.10
  -7   6  -6  440.26   27.40
  -7   6  -6  436.16   21.90
   7  -6   6  458.85   20.70
   7  -6   6  451.95   25.40
  -8   6  -6    9.80    6.10
  -8   6  -6    4.00    8.60
   8  -6   6   -1.60    3.80
   8  -6   6   -4.50    5.90
  -9   6  -6  291.37   20.10
  -9   6  -6  349.47   28.20
   9  -6   6  393.66   26.40
   9  -6   6  347.07   20.20
 -10   6  -6   15.90   12.30
 -10   6  -6   15.40   13.50
  10  -6   6    3.60    9.30
  10  -6   6    2.70    6.70
 -11   6  -6  125.29   21.30
 -11   6  -6  145.29   21.10
  11  -6   6  109.29   14.40
  12  -6   6   25.70   10.30
   9   5  -6   87.89   11.80
  -9  -5   6   76.99   12.10
   8   5  -6   79.99   10.30
  -8  -5   6   44.00   17.70
  -8  -5   6   68.09   10.60
   7   5  -6  203.18   13.80
  -7  -5   6  209.28   26.80
  -7  -5   6  212.58   15.60
   6   5  -6   85.99   14.90
   6   5  -6  100.69    9.80
  -6  -5   6  112.69   11.60
  -6  -5   6  115.69   11.30
  -6  -5   6  111.59   19.10
   5   5  -6   70.99   13.00
   5   5  -6   71.09    7.50
  -5  -5   6   60.29    8.10
  -5  -5   6   35.70   12.70
  -5  -5   6   73.29    9.60
  -5  -5   6   75.09    9.20
   4   5  -6  855.81   31.70
   4   5  -6  814.62   30.00
   4   5  -6  848.92   40.00
  -4  -5   6  823.42   31.70
  -4  -5   6  840.42   30.60
  -4  -5   6  845.02   43.50
  -4  -5   6  853.41   34.40
   3   5  -6   -2.60    6.40
   3   5  -6    4.00    1.10
   3   5  -6    1.00    2.80
   3   5  -6    5.80    3.40
   3   5  -6    6.00    1.40
  -3  -5   6    2.70    2.90
  -3  -5   6    3.50    4.20
  -3  -5   6    2.70    7.60
  -3  -5   6    7.20    3.60
   2   5  -6  834.52   38.00
   2   5  -6  833.52   28.90
   2   5  -6  800.02   26.80
  -2  -5   6  885.11   41.70
  -2  -5   6  841.22   33.30
   1   5  -6  283.77   10.90
   1   5  -6  307.87   20.10
   1   5  -6  286.67   12.40
  -1  -5   6  287.77   21.60
  -1  -5   6  275.67   15.30
   0   5  -6 1009.40   35.10
   0   5  -6 1027.80   33.50
   0   5  -6  969.80   41.30
   0  -5   6 1022.30   38.10
  -1   5  -6  892.01   32.40
  -1   5  -6  916.71   37.70
  -1   5  -6  887.91   30.40
   1  -5   6  873.41   33.90
  -2   5  -6  300.07   14.60
  -2   5  -6  322.97   13.30
  -2   5  -6  309.47   18.30
   2  -5   6  300.77   15.30
  -3   5  -6 1785.82   64.19
  -3   5  -6 1779.72   59.19
  -3   5  -6 1790.02   58.39
  -3   5  -6 1766.32   58.89
   3  -5   6 1739.03   59.89
  -4   5  -6  100.39    8.90
  -4   5  -6   98.49    7.80
  -4   5  -6   85.59   11.80
   4  -5   6   98.09    7.70
   4  -5   6   84.39    6.50
   4  -5   6   91.69   10.60
  -5   5  -6  958.00   40.80
  -5   5  -6  927.51   35.60
   5  -5   6  958.80   39.30
   5  -5   6  947.31   33.90
  -6   5  -6   42.40    9.90
  -6   5  -6   21.50    6.40
   6  -5   6   43.20    9.10
   6  -5   6   47.40    6.60
  -7   5  -6  471.85   28.30
  -7   5  -6  429.26   23.10
   7  -5   6  477.65   22.00
   7  -5   6  488.45   27.70
  -8   5  -6  143.89   18.20
  -8   5  -6  103.79   12.90
   8  -5   6  140.19   17.50
   8  -5   6  115.69   12.30
  -9   5  -6  193.28   22.60
  -9   5  -6  147.89   16.40
   9  -5   6  158.38   19.90
   9  -5   6  142.79   14.40
 -10   5  -6  142.89   17.30
 -10   5  -6  147.79   22.00
 -10   5  -6  164.28   21.00
  10  -5   6  116.89   14.10
  10  -5   6  144.19   20.40
 -11   5  -6   33.60   12.00
 -11   5  -6   36.20   11.30
 -11   5  -6   25.40   15.10
  11  -5   6   24.40    9.60
  12  -5   6   97.69   14.40
  10   4  -6   25.20    7.90
 -10  -4   6   10.90   17.30
 -10  -4   6   40.80   10.40
   9   4  -6   56.39    9.00
  -9  -4   6   40.20   15.30
  -9  -4   6   44.80   10.00
   8   4  -6  273.87   16.30
  -8  -4   6  269.37   29.00
  -8  -4   6  242.88   17.60
   7   4  -6   22.00    5.80
  -7  -4   6   27.50    7.40
  -7  -4   6   22.20   10.30
  -7  -4   6   11.40    5.60
   6   4  -6  394.26   17.90
  -6  -4   6  382.96   20.40
  -6  -4   6  391.96   27.50
  -6  -4   6  392.26   19.60
   5   4  -6  141.99    9.20
  -5  -4   6  143.59   11.70
  -5  -4   6  127.59   10.30
  -5  -4   6  154.98   18.80
   4   4  -6  774.82   27.60
   4   4  -6  747.73   33.90
   4   4  -6  741.63   26.90
  -4  -4   6  739.63   26.50
  -4  -4   6  715.23   30.60
  -4  -4   6  710.23   36.20
  -4  -4   6  741.93   28.50
   3   4  -6  369.56   21.30
   3   4  -6  344.77   14.20
   3   4  -6  352.16   14.40
   3   4  -6  335.57   11.60
   3   4  -6  335.17   11.50
  -3  -4   6  338.07   15.30
  -3  -4   6  355.76   22.90
  -3  -4   6  344.27   17.70
   2   4  -6  433.86   22.80
   2   4  -6  404.66   14.80
   2   4  -6  412.06   14.10
   2   4  -6  404.96   15.90
  -2  -4   6  433.26   19.70
  -2  -4   6  376.46   23.90
   1   4  -6 2021.50   70.89
   1   4  -6 1941.91   62.49
   1   4  -6 2003.60   63.99
  -1  -4   6 2054.19   73.99
  -1  -4   6 1955.20   65.09
  -1  -4   6 2003.10   67.89
   0   4  -6   33.00    4.90
   0   4  -6   20.00    6.10
   0   4  -6   16.70    2.70
   0  -4   6   18.50    4.70
  -1   4  -6 1729.73   62.09
  -1   4  -6 1756.22   58.29
  -1   4  -6 1759.32   55.99
   1  -4   6 1693.43   58.89
  -2   4  -6  101.69   11.10
  -2   4  -6  123.39    9.30
  -2   4  -6  117.89    7.30
   2  -4   6  109.09    8.10
   2  -4   6  112.59    9.00
   2  -4   6  123.69    5.70
  -3   4  -6 1580.34   55.79
  -3   4  -6 1754.12   60.99
  -3   4  -6 1709.23   57.59
   3  -4   6 1689.63   56.79
   3  -4   6 1664.53   56.49
   3  -4   6 1729.73   54.69
   3  -4   6 1739.73   59.79
  -4   4  -6  383.76   18.20
  -4   4  -6  407.26   17.30
  -4   4  -6  384.96   21.30
  -4   4  -6  371.36   15.50
   4  -4   6  361.36   17.00
   4  -4   6  377.56   20.70
   4  -4   6  380.06   15.90
   4  -4   6  384.76   16.30
  -5   4  -6  632.44   29.90
  -5   4  -6  635.44   27.00
   5  -4   6  633.24   25.30
   5  -4   6  641.34   30.80
   5  -4   6  624.24   25.20
  -6   4  -6 1261.27   48.70
  -6   4  -6 1309.97   52.79
   6  -4   6 1325.57   54.49
   6  -4   6 1312.77   46.70
   6  -4   6 1356.56   47.80
  -7   4  -6  111.89   12.70
  -7   4  -6  122.99   15.50
   7  -4   6  115.89   10.90
   7  -4   6  102.09   15.80
   7  -4   6  115.19   11.70
  -8   4  -6  709.53   37.20
  -8   4  -6  682.13   33.00
   8  -4   6  699.23   29.70
   8  -4   6  700.03   38.60
   8  -4   6  697.73   31.50
  -9   4  -6   25.60    9.10
  -9   4  -6   13.30    8.90
  -9   4  -6    1.60    9.20
   9  -4   6   17.00    6.70
   9  -4   6   16.50   11.40
   9  -4   6   18.70    7.70
 -10   4  -6  316.97   24.30
 -10   4  -6  288.87   28.90
 -10   4  -6  387.16   26.90
  10  -4   6  283.57   19.80
  10  -4   6  302.27   22.20
  10  -4   6  336.57   28.90
 -11   4  -6    4.80    9.60
 -11   4  -6   31.60   11.10
 -11   4  -6   37.50   24.80
  11  -4   6   12.90    8.60
  12  -4   6   86.99   15.00
 -11  -3   6   18.90   15.10
  10   3  -6  208.38   16.20
 -10  -3   6  218.08   28.50
 -10  -3   6  199.88   18.90
   9   3  -6   13.10    5.70
  -9  -3   6    9.90   12.50
  -9  -3   6   14.40    7.60
   8   3  -6  402.46   19.80
  -8  -3   6  408.56   29.40
  -8  -3   6  399.86   22.00
   7   3  -6  106.19    9.50
  -7  -3   6  106.69   11.50
  -7  -3   6  115.59   12.10
  -7  -3   6  112.89   16.70
   6   3  -6  201.58   11.40
  -6  -3   6  191.08   12.90
  -6  -3   6  201.28   19.90
  -6  -3   6  167.78   12.80
   5   3  -6  473.35   19.00
  -5  -3   6  456.95   20.50
  -5  -3   6  464.25   22.40
  -5  -3   6  450.25   25.60
   4   3  -6  199.48    9.90
   4   3  -6  203.98    8.00
   4   3  -6  197.48    7.30
   4   3  -6  204.18    9.70
  -4  -3   6  206.28   16.10
  -4  -3   6  198.38    9.10
  -4  -3   6  207.08   13.50
  -4  -3   6  193.48   11.20
   3   3  -6 1007.90   33.00
   3   3  -6  963.10   32.10
   3   3  -6 1013.70   34.10
   3   3  -6  983.00   31.80
  -3  -3   6 1053.89   41.90
  -3  -3   6 1026.50   38.60
  -3  -3   6  979.70   35.10
   2   3  -6   29.90    7.10
   2   3  -6   21.40    3.50
   2   3  -6   16.10    2.40
  -2  -3   6   19.80    3.70
  -2  -3   6   16.10    6.70
  -2  -3   6   14.60    4.60
   1   3  -6 1254.87   46.40
   1   3  -6 1257.67   41.50
   1   3  -6 1234.48   40.20
  -1  -3   6 1210.98   40.60
  -1  -3   6 1255.87   48.50
  -1  -3   6 1235.68   44.90
   0   3  -6   28.50    5.30
   0   3  -6   40.80    4.40
   0   3  -6   30.00    7.20
   0  -3   6   47.00    8.50
   0  -3   6   43.20    6.50
  -1   3  -6 1073.99   36.60
  -1   3  -6 1111.99   41.10
  -1   3  -6 1072.39   38.90
   1  -3   6 1091.19   38.70
   1  -3   6 1065.99   34.40
   1  -3   6 1102.29   39.00
  -2   3  -6 1331.67   47.30
  -2   3  -6 1409.16   45.60
  -2   3  -6 1315.27   48.70
   2  -3   6 1389.46   46.40
   2  -3   6 1315.07   46.30
   2  -3   6 1378.76   48.70
   2  -3   6 1337.17   44.00
  -3   3  -6  559.14   25.10
  -3   3  -6  594.14   22.60
  -3   3  -6  570.74   24.10
   3  -3   6  604.44   22.00
   3  -3   6  555.64   22.60
   3  -3   6  546.85   21.40
   3  -3   6  594.54   26.50
  -4   3  -6 1786.32   63.19
  -4   3  -6 1803.42   61.59
   4  -3   6 1713.53   59.49
   4  -3   6 1798.22   66.09
  -5   3  -6   31.60    8.20
  -5   3  -6   19.50    6.40
   5  -3   6   34.80    9.30
   5  -3   6   22.70    5.20
   5  -3   6   26.40    5.60
  -6   3  -6 1454.15   55.89
  -6   3  -6 1486.55   53.79
   6  -3   6 1320.37   59.09
   6  -3   6 1451.05   50.29
   6  -3   6 1439.66   52.29
  -7   3  -6   29.60    9.20
  -7   3  -6   35.20    8.80
   7  -3   6   17.80   10.60
   7  -3   6   22.50    5.70
   7  -3   6   34.90    7.70
  -8   3  -6  434.66   27.50
  -8   3  -6  454.45   26.10
  -8   3  -6  472.85   28.30
   8  -3   6  442.96   31.10
   8  -3   6  432.16   23.90
   8  -3   6  413.96   21.50
  -9   3  -6  155.78   18.10
  -9   3  -6  148.19   18.70
  -9   3  -6  133.19   18.50
   9  -3   6  145.39   21.40
   9  -3   6  159.78   14.40
   9  -3   6  138.29   15.10
 -10   3  -6  156.58   18.60
 -10   3  -6  116.69   17.10
  10  -3   6  127.19   21.00
  10  -3   6  111.99   15.70
  10  -3   6  113.59   12.90
 -11   3  -6  174.58   21.30
  11  -3   6  119.19   14.30
  11   2  -6   31.50    8.80
 -11  -2   6   24.60   15.00
 -11  -2   6   19.00    9.30
  10   2  -6  107.89   12.30
 -10  -2   6  104.49   18.90
 -10  -2   6  100.99   13.60
   9   2  -6  167.78   13.10
  -9  -2   6  154.08   15.60
  -9  -2   6  156.68   20.50
   8   2  -6   29.00    5.90
  -8  -2   6   37.00   11.50
  -8  -2   6   39.70    8.30
   7   2  -6  433.36   19.10
  -7  -2   6  390.66   25.50
  -7  -2   6  408.36   21.00
  -7  -2   6  444.86   22.10
   6   2  -6   18.80    4.70
  -6  -2   6   32.20    6.10
  -6  -2   6   18.70    7.40
  -6  -2   6   25.90    6.60
   5   2  -6  854.41   31.60
   5   2  -6  904.11   31.10
  -5  -2   6  883.51   33.30
  -5  -2   6  909.61   36.00
  -5  -2   6  891.71   37.90
   4   2  -6   45.90    3.70
   4   2  -6   45.70    3.90
   4   2  -6   33.30    4.50
  -4  -2   6   30.90    4.90
  -4  -2   6   36.00    7.40
  -4  -2   6   43.30    7.20
   3   2  -6 1590.44   51.79
  -3  -2   6 1641.94   57.39
  -3  -2   6 1554.44   52.79
  -3  -2   6 1568.44   57.19
   2   2  -6  867.11   33.50
   2   2  -6  886.61   30.10
  -2  -2   6  842.42   35.00
  -2  -2   6  866.71   34.80
   1   2  -6  454.65   17.90
   1   2  -6  453.15   21.20
  -1  -2   6  446.06   17.20
  -1  -2   6  431.46   21.10
  -1  -2   6  441.56   22.30
   0   2  -6 1537.55   52.09
   0   2  -6 1550.94   53.49
   0  -2   6 1555.44   53.89
   0  -2   6 1482.25   55.09
   0  -2   6 1564.84   47.80
   0  -2   6 1493.15   51.29
  -1   2  -6    6.80    4.30
  -1   2  -6   -0.50    4.30
   1  -2   6   14.90    4.80
   1  -2   6    7.50    2.60
   1  -2   6   13.40    4.40
   1  -2   6    8.00    4.20
  -2   2  -6 1761.12   61.09
  -2   2  -6 1760.02   61.19
   2  -2   6 1797.22   63.99
   2  -2   6 1832.12   59.49
   2  -2   6 1781.02   58.89
   2  -2   6 1822.22   59.99
  -3   2  -6   18.90    5.00
  -3   2  -6   24.40    5.90
   3  -2   6   21.80    7.30
   3  -2   6   23.70    4.80
   3  -2   6   26.10    3.70
   3  -2   6   25.90    5.10
  -4   2  -6 1410.76   51.79
  -4   2  -6 1506.35   52.39
   4  -2   6 1402.46   57.49
   4  -2   6 1496.45   49.60
   4  -2   6 1386.06   50.69
  -5   2  -6  970.40   37.80
  -5   2  -6  929.21   37.80
   5  -2   6  918.41   34.10
   5  -2   6  865.71   35.70
   5  -2   6  936.81   43.60
  -6   2  -6  127.49   15.30
  -6   2  -6  156.98   15.30
  -6   2  -6  150.58   15.20
   6  -2   6  123.49   12.40
   6  -2   6  167.78   19.80
   6  -2   6  135.49   10.50
  -7   2  -6  359.36   22.40
  -7   2  -6  310.77   22.10
  -7   2  -6  394.06   24.50
   7  -2   6  365.46   26.90
   7  -2   6  342.37   17.90
   7  -2   6  331.87   19.90
  -8   2  -6   72.09   12.70
  -8   2  -6   59.89   12.20
  -8   2  -6   98.39   14.50
   8  -2   6   71.49   15.10
   8  -2   6   42.20    7.60
  -9   2  -6  400.16   26.80
  -9   2  -6  368.66   26.70
   9  -2   6  397.66   21.50
   9  -2   6  422.26   31.50
 -10   2  -6  -10.00    8.80
 -10   2  -6    4.70    8.10
  10  -2   6   -0.50    6.00
  10  -2   6   -4.00   10.20
  11  -2   6  231.68   20.00
  11   1  -6  104.59   12.90
 -11  -1   6  123.09   19.90
 -11  -1   6   65.19   12.20
  10   1  -6    9.50    5.80
 -10  -1   6    4.20    6.30
 -10  -1   6    5.10    8.90
   9   1  -6  231.68   14.30
  -9  -1   6  195.28   15.40
  -9  -1   6  268.97   25.00
   8   1  -6   52.19    7.10
  -8  -1   6   35.70    9.70
  -8  -1   6   46.40    8.30
  -8  -1   6   40.30    8.40
   7   1  -6  313.67   15.50
  -7  -1   6  304.27   20.70
  -7  -1   6  327.07   18.70
  -7  -1   6  309.67   17.30
   6   1  -6  259.87   13.50
  -6  -1   6  262.07   14.80
  -6  -1   6  304.37   18.20
  -6  -1   6  287.07   18.10
   5   1  -6  767.92   27.40
   5   1  -6  743.23   26.30
  -5  -1   6  730.53   32.90
  -5  -1   6  740.23   32.10
  -5  -1   6  756.42   28.90
   4   1  -6 1891.41   61.29
   4   1  -6 1878.91   58.69
  -4  -1   6 1890.61   62.49
  -4  -1   6 1851.01   68.19
  -4  -1   6 1915.41   66.09
   3   1  -6  290.77   12.60
  -3  -1   6  281.17   18.10
  -3  -1   6  296.87   15.90
   2   1  -6 3395.76  102.99
  -2  -1   6 3343.07  101.69
  -2  -1   6 3242.18  106.39
  -2  -1   6 3048.79  109.19
   1   1  -6   11.80    4.00
   1   1  -6   12.20    5.20
  -1  -1   6   27.90    7.70
  -1  -1   6   16.80    3.80
  -1  -1   6   20.10    6.00
  -1  -1   6   20.70    2.30
   0   1  -6 3793.82  119.89
   0   1  -6 3763.52  119.69
   0  -1   6 3791.22  120.29
   0  -1   6 3554.74  122.29
   0  -1   6 3823.92  117.39
   0  -1   6 3813.82  120.89
   0  -1   6 3766.32  121.39
  -1   1  -6  552.94   23.40
  -1   1  -6  570.14   22.40
   1  -1   6  546.25   25.40
   1  -1   6  541.65   22.80
   1  -1   6  509.05   21.10
   1  -1   6  548.95   23.30
  -2   1  -6 2004.40   67.09
  -2   1  -6 2007.10   68.79
   2  -1   6 1978.20   67.19
   2  -1   6 2065.89   67.29
   2  -1   6 2055.99   66.89
   2  -1   6 2058.49   72.99
  -3   1  -6 1097.29   41.10
  -3   1  -6 1049.30   39.10
   3  -1   6 1052.59   38.40
   3  -1   6 1098.19   45.40
   3  -1   6 1131.09   39.60
  -4   1  -6  227.68   14.30
  -4   1  -6  227.48   16.60
  -4   1  -6  216.78   15.00
   4  -1   6  226.18   13.90
   4  -1   6  226.68   18.80
   4  -1   6  215.88   12.50
  -5   1  -6  912.91   38.10
  -5   1  -6  983.90   39.60
  -5   1  -6 1054.49   42.50
   5  -1   6  888.21   35.10
   5  -1   6 1000.20   44.60
   5  -1   6  964.60   37.00
  -6   1  -6    5.50    6.80
  -6   1  -6   -2.60    5.50
  -6   1  -6    1.30    6.00
   6  -1   6    5.10    4.60
   6  -1   6    2.60    4.00
   6  -1   6    4.60    7.40
  -7   1  -6  634.94   33.60
  -7   1  -6  641.84   32.40
   7  -1   6  634.34   27.30
   7  -1   6  669.93   36.90
  -8   1  -6  146.49   18.20
  -8   1  -6   81.99   14.30
   8  -1   6   93.59   11.10
   8  -1   6   85.29   15.90
  -9   1  -6  335.27   26.20
  -9   1  -6  342.17   25.90
   9  -1   6  381.16   21.10
   9  -1   6  377.46   29.70
 -10   1  -6  102.79   18.10
 -10   1  -6  118.29   17.20
  10  -1   6  135.69   14.60
  10  -1   6  181.78   24.00
  12   0  -6    6.00    7.40
 -12   0   6    3.70   10.90
 -12   0   6   -5.80    7.00
  11   0  -6  169.48   15.30
 -11   0   6  192.28   23.80
 -11   0   6  187.18   18.10
  10   0  -6   38.60    7.20
 -10   0   6   45.00   12.00
 -10   0   6   64.59   10.90
   9   0  -6   57.89    8.10
  -9   0   6   54.49   12.20
  -9   0   6   63.49    9.50
   8   0  -6  201.88   12.30
  -8   0   6  193.38   15.90
  -8   0   6  208.58   14.10
  -8   0   6  217.28   18.00
   7   0  -6   72.79    7.60
  -7   0   6   76.59   11.70
  -7   0   6   69.19    8.30
  -7   0   6   63.69   10.50
   6   0  -6  592.04   23.10
  -6   0   6  595.44   24.90
  -6   0   6  604.24   27.90
  -6   0   6  577.54   29.90
   5   0  -6   21.40    4.30
  -5   0   6   20.20    4.60
  -5   0   6   15.10    5.00
  -5   0   6   14.30    7.20
   4   0  -6 1326.87   42.20
  -4   0   6 1176.48   50.39
  -4   0   6 1251.07   43.10
  -4   0   6 1219.28   45.50
   3   0  -6  444.26   16.90
  -3   0   6  436.26   19.30
  -3   0   6  377.36   23.20
   2   0  -6  320.77   14.10
   2   0  -6  295.37   12.80
  -2   0   6  332.37   20.40
  -2   0   6  319.77   11.90
  -2   0   6  329.97   13.30
  -2   0   6  323.77   15.40
   1   0  -6 1343.27   46.60
   1   0  -6 1353.06   47.20
   1   0  -6 1400.46   47.10
  -1   0   6 1401.26   46.00
  -1   0   6 1409.66   48.00
  -1   0   6 1299.67   45.30
  -1   0   6 1327.87   46.00
  -1   0   6 1485.05   52.49
  -1   0   6 1408.96   48.40
   0   0  -6  940.01   35.20
   0   0  -6  939.71   32.90
   0   0  -6  864.71   34.20
   0   0   6  941.11   33.30
   0   0   6  929.71   34.20
   0   0   6 1020.10   37.40
   0   0   6  912.51   36.40
   0   0   6  903.81   33.80
  -1   0  -6 1822.92   63.09
  -1   0  -6 1719.03   58.79
   1   0   6 1768.82   59.89
   1   0   6 1904.81   62.29
   1   0   6 1779.72   61.19
   1   0   6 1834.12   64.69
  -2   0  -6  333.27   14.90
  -2   0  -6  327.47   17.70
  -2   0  -6  305.17   18.50
   2   0   6  347.17   16.50
   2   0   6  348.97   16.00
   2   0   6  324.27   19.40
   2   0   6  357.36   16.10
  -3   0  -6 1831.82   65.19
  -3   0  -6 1907.91   67.79
  -3   0  -6 1775.72   61.99
   3   0   6 1835.82   62.59
   3   0   6 1940.21   69.49
   3   0   6 1890.71   62.59
  -4   0  -6  200.68   16.20
  -4   0  -6  168.48   12.40
  -4   0  -6  192.18   15.20
   4   0   6  199.18   12.10
   4   0   6  169.48   17.20
   4   0   6  208.48   12.50
  -5   0  -6  775.52   35.60
  -5   0  -6  908.01   39.30
   5   0   6  808.92   32.20
   5   0   6  906.01   41.20
  -6   0  -6  280.67   21.00
  -6   0  -6  247.68   18.40
   6   0   6  288.87   22.40
   6   0   6  236.58   14.70
  -7   0  -6  479.75   28.70
  -7   0  -6  561.14   31.20
   7   0   6  534.75   32.20
   7   0   6  496.15   23.60
  -8   0  -6  329.97   24.40
  -8   0  -6  294.57   22.90
   8   0   6  265.87   17.50
   8   0   6  340.77   26.90
  -9   0  -6   75.79   14.80
  -9   0  -6   60.39   14.40
   9   0   6   90.79   17.00
   9   0   6   90.39   11.70
 -10   0  -6  233.48   28.20
  10   0   6  289.97   29.20
  10   0   6  245.18   19.00
  12  -1  -6   64.09   10.60
 -12   1   6   64.49   15.80
 -12   1   6   76.49   13.00
  11  -1  -6   45.00    8.90
 -11   1   6   26.50    8.60
 -11   1   6   24.40   10.70
  10  -1  -6  178.58   13.20
 -10   1   6  147.29   14.60
 -10   1   6  201.98   21.30
   9  -1  -6    2.60    4.50
  -9   1   6   -1.70    6.70
  -9   1   6   -4.30    4.90
   8  -1  -6  515.65   22.20
  -8   1   6  534.25   28.80
  -8   1   6  501.75   23.90
  -8   1   6  502.15   27.50
   7  -1  -6   64.29    7.20
  -7   1   6   57.09   10.00
  -7   1   6   51.19   11.80
  -7   1   6   62.99    8.70
   6  -1  -6  350.86   15.70
  -6   1   6  401.96   20.50
  -6   1   6  387.36   25.20
  -6   1   6  339.87   16.80
   5  -1  -6  516.55   19.90
  -5   1   6  526.15   29.80
  -5   1   6  493.55   20.90
  -5   1   6  509.05   23.10
   4  -1  -6  264.27    9.70
   4  -1  -6  256.07   12.10
  -4   1   6  297.17   20.60
  -4   1   6  261.87   14.10
   3  -1  -6 1722.03   54.89
   3  -1  -6 1784.52   57.49
  -3   1   6 1766.92   56.29
  -3   1   6 1726.43   58.89
  -3   1   6 1765.12   65.99
   2  -1  -6    7.90    3.40
   2  -1  -6    1.90    2.20
  -2   1   6    7.90    3.60
  -2   1   6    9.90    4.10
  -2   1   6    5.00    3.30
  -2   1   6    8.00    2.90
  -2   1   6   20.00    7.40
  -2   1   6    3.50    1.80
   1  -1  -6 2540.05   80.89
   1  -1  -6 2552.84   78.49
   1  -1  -6 2333.87   79.39
  -1   1   6 2470.85   79.39
  -1   1   6 2452.25   79.69
  -1   1   6 2480.45   79.39
  -1   1   6 2351.06   81.39
  -1   1   6 2450.85   83.99
  -1   1   6 2460.65   79.59
   0  -1  -6   67.69    8.30
   0  -1  -6   83.29    9.20
   0  -1  -6   70.69    5.70
   0   1   6   75.09    7.20
   0   1   6   56.59    7.00
   0   1   6   38.00    6.60
   0   1   6   69.19    9.00
   0   1   6   56.79    8.20
  -1  -1  -6 1260.57   41.00
  -1  -1  -6 1298.67   47.40
  -1  -1  -6 1265.37   45.60
   1   1   6 1157.58   47.00
   1   1   6 1216.08   44.90
   1   1   6 1288.77   45.10
  -2  -1  -6 1112.09   38.30
  -2  -1  -6 1172.58   43.20
  -2  -1  -6 1205.68   45.70
   2   1   6 1111.29   40.10
   2   1   6 1125.39   41.30
   2   1   6 1087.29   45.10
   2   1   6 1158.38   41.00
  -3  -1  -6  655.93   29.00
  -3  -1  -6  681.53   32.20
   3   1   6  654.23   32.30
   3   1   6  676.63   27.10
   3   1   6  670.53   26.40
  -4  -1  -6 1518.45   58.49
  -4  -1  -6 1443.56   54.89
   4   1   6 1503.25   59.19
   4   1   6 1400.56   51.29
  -5  -1  -6  232.28   17.70
  -5  -1  -6  241.48   19.50
   5   1   6  215.08   14.00
   5   1   6  212.88   21.00
  -6  -1  -6  745.43   37.60
  -6  -1  -6  742.23   35.60
   6   1   6  758.52   39.00
   6   1   6  728.83   30.60
  -7  -1  -6    3.80    7.00
  -7  -1  -6    8.30    8.60
   7   1   6    3.00    5.50
   7   1   6   -0.40    7.80
  -8  -1  -6  383.76   27.80
  -8  -1  -6  450.15   30.20
   8   1   6  355.46   21.20
   8   1   6  432.66   30.00
  -9  -1  -6   84.89   16.20
  -9  -1  -6   83.79   16.50
   9   1   6  100.19   12.40
   9   1   6  105.29   17.80
  10   1   6  136.99   21.00
  12  -2  -6  156.78   14.80
 -12   2   6  190.78   19.20
 -12   2   6  170.98   22.70
  11  -2  -6    2.00    5.70
 -11   2   6    0.90    8.80
 -11   2   6   -2.10    6.80
  10  -2  -6  140.19   12.40
 -10   2   6  132.99   17.90
 -10   2   6  114.69   13.10
   9  -2  -6   60.79    8.00
  -9   2   6   64.49   11.90
  -9   2   6   89.29   14.20
  -9   2   6   93.29   11.30
   8  -2  -6  204.98   12.80
  -8   2   6  246.78   17.80
  -8   2   6  201.48   21.90
  -8   2   6  244.58   15.10
   7  -2  -6  254.37   13.20
  -7   2   6  231.68   23.10
  -7   2   6  259.37   14.60
  -7   2   6  239.58   16.90
   6  -2  -6  317.37   14.50
  -6   2   6  320.67   17.70
  -6   2   6  288.67   15.10
  -6   2   6  316.17   24.00
   5  -2  -6 1450.85   49.80
  -5   2   6 1488.05   52.99
  -5   2   6 1563.74   61.39
   4  -2  -6    7.00    3.40
   4  -2  -6    4.10    1.90
  -4   2   6    9.20    3.20
  -4   2   6    8.20    3.90
  -4   2   6    7.70    7.70
   3  -2  -6 1355.86   43.90
   3  -2  -6 1308.67   42.10
   3  -2  -6 1244.68   40.80
  -3   2   6 1259.17   43.90
  -3   2   6 1212.18   43.00
  -3   2   6 1301.47   49.90
  -3   2   6 1281.17   43.90
  -3   2   6 1274.37   42.80
   2  -2  -6  193.28   11.60
   2  -2  -6  193.58    9.40
  -2   2   6  198.08    9.90
  -2   2   6  193.18    9.90
  -2   2   6  193.78   11.00
  -2   2   6  205.08   10.70
  -2   2   6  175.18   13.50
   1  -2  -6 2349.67   78.79
   1  -2  -6 2499.65   80.39
   1  -2  -6 2469.65   76.69
  -1   2   6 2470.75   81.59
  -1   2   6 2379.26   79.59
  -1   2   6 2334.87   80.19
  -1   2   6 2470.95   77.49
   0  -2  -6 1439.86   50.19
   0  -2  -6 1363.26   50.09
   0   2   6 1378.46   51.69
   0   2   6 1424.96   49.90
   0   2   6 1443.96   50.09
   0   2   6 1407.36   50.89
  -1  -2  -6  297.87   18.50
  -1  -2  -6  353.76   18.50
   1   2   6  371.36   18.00
   1   2   6  332.67   19.00
   1   2   6  351.36   16.60
   1   2   6  343.57   20.70
  -2  -2  -6 1661.63   58.79
  -2  -2  -6 1499.95   60.59
   2   2   6 1696.03   63.09
   2   2   6 1648.54   61.39
   2   2   6 1697.63   57.69
   2   2   6 1615.14   55.69
  -3  -2  -6   -4.80    6.40
  -3  -2  -6   16.70    7.10
   3   2   6    9.20    7.60
   3   2   6   11.70    5.30
  -4  -2  -6 1136.79   48.20
  -4  -2  -6 1107.59   44.60
   4   2   6 1073.69   41.10
   4   2   6 1065.99   48.00
  -5  -2  -6   43.50   10.30
  -5  -2  -6   35.40   10.10
   5   2   6   36.90    7.20
   5   2   6   41.60   11.10
  -6  -2  -6  514.35   31.60
  -6  -2  -6  521.65   29.20
   6   2   6  490.85   24.10
   6   2   6  488.55   31.40
  -7  -2  -6  266.17   26.00
  -7  -2  -6  174.68   20.20
   7   2   6  190.18   16.30
   7   2   6  186.48   22.70
  -8  -2  -6  165.38   22.30
  -8  -2  -6  143.19   19.20
   8   2   6  144.49   20.80
   8   2   6  160.98   15.70
  -9  -2  -6  229.58   26.30
   9   2   6  263.27   27.80
   9   2   6  280.67   20.00
  12  -3  -6   44.50    8.90
 -12   3   6   30.30   13.30
 -12   3   6   31.30    9.90
  11  -3  -6   47.10    8.60
 -11   3   6   51.09   12.20
 -11   3   6   39.80    9.70
  10  -3  -6   19.90    6.20
 -10   3   6   26.30    7.90
 -10   3   6   17.60    8.30
   9  -3  -6  330.67   16.70
  -9   3   6  313.27   18.20
  -9   3   6  292.07   27.70
  -9   3   6  321.17   22.10
   8  -3  -6   -1.80    3.80
  -8   3   6    2.40    6.20
  -8   3   6   -1.00    9.00
  -8   3   6    2.60    4.80
   7  -3  -6  412.66   18.00
  -7   3   6  398.46   29.00
  -7   3   6  428.86   22.30
  -7   3   6  389.56   19.10
   6  -3  -6   38.70    5.50
  -6   3   6   35.60   10.80
  -6   3   6   38.80    7.00
   5  -3  -6  803.72   29.40
  -5   3   6  775.62   37.50
  -5   3   6  849.91   32.10
  -5   3   6  776.12   29.30
   4  -3  -6  433.76   17.60
   4  -3  -6  398.16   15.00
  -4   3   6  415.46   22.70
  -4   3   6  417.76   18.10
  -4   3   6  383.06   17.80
   3  -3  -6  440.16   16.80
   3  -3  -6  435.46   19.00
  -3   3   6  416.06   18.00
  -3   3   6  458.55   18.10
  -3   3   6  455.05   18.10
  -3   3   6  448.26   22.10
   2  -3  -6 1198.28   41.60
   2  -3  -6 1151.58   39.50
  -2   3   6 1206.78   38.70
  -2   3   6 1190.88   43.50
  -2   3   6  961.80   39.80
  -2   3   6 1187.28   40.70
   1  -3  -6    8.60    4.80
   1  -3  -6   -0.30    3.20
  -1   3   6   11.00    4.80
  -1   3   6    7.20    4.00
  -1   3   6   -1.60    3.60
  -1   3   6   24.90    5.50
   0  -3  -6  828.92   33.60
   0  -3  -6  838.92   34.20
   0   3   6  838.02   36.10
   0   3   6  849.61   32.80
   0   3   6  871.41   34.30
   0   3   6  904.41   34.20
  -1  -3  -6  184.58   14.60
  -1  -3  -6  171.58   13.30
   1   3   6  198.58   13.80
   1   3   6  179.78   11.70
   1   3   6  161.08   13.70
   1   3   6  185.28   17.50
  -2  -3  -6 1107.29   47.00
  -2  -3  -6 1112.79   43.90
   2   3   6 1102.29   46.20
   2   3   6 1188.08   49.60
   2   3   6 1189.18   43.30
  -3  -3  -6  373.66   24.90
  -3  -3  -6  392.16   22.20
   3   3   6  394.86   20.60
   3   3   6  385.66   24.40
   3   3   6  412.86   26.10
  -4  -3  -6  438.76   24.20
  -4  -3  -6  388.36   27.00
   4   3   6  406.46   27.00
   4   3   6  456.25   22.00
  -5  -3  -6  384.86   27.60
  -5  -3  -6  413.26   24.90
   5   3   6  336.27   26.10
   5   3   6  417.76   21.30
  -6  -3  -6   71.19   15.30
  -6  -3  -6   67.69   12.70
   6   3   6   59.99    9.60
   6   3   6   33.90   12.40
  -7  -3  -6  520.65   34.70
  -7  -3  -6  487.35   30.90
   7   3   6  443.46   32.50
   7   3   6  482.65   25.60
  -8  -3  -6   17.70   11.50
   8   3   6   -2.60    9.00
   8   3   6   -1.40    6.40
   9   3   6  338.37   46.00
  12  -4  -6    4.30    6.60
 -12   4   6   -9.80    8.60
 -12   4   6   -1.80    6.70
  11  -4  -6  105.09   11.30
 -11   4   6   63.59   14.10
 -11   4   6   92.79   12.00
  10  -4  -6   31.20    7.10
 -10   4   6   51.19   12.40
 -10   4   6   56.79   17.30
 -10   4   6   45.10    8.70
   9  -4  -6  257.27   14.60
  -9   4   6  257.27   27.50
  -9   4   6  252.07   16.00
  -9   4   6  241.48   19.10
   8  -4  -6  254.97   13.70
  -8   4   6  251.37   15.10
  -8   4   6  279.37   28.20
  -8   4   6  239.58   17.50
   7  -4  -6  315.37   15.60
  -7   4   6  355.76   19.60
  -7   4   6  345.77   26.40
   6  -4  -6  882.91   32.00
  -6   4   6  828.62   40.50
  -6   4   6  882.71   34.80
   5  -4  -6   95.39    8.40
  -5   4   6   68.89   11.50
  -5   4   6   55.49    7.50
   4  -4  -6 1042.50   36.50
   4  -4  -6 1094.59   38.60
  -4   4   6 1101.69   37.10
  -4   4   6 1070.09   38.00
  -4   4   6 1082.89   38.50
  -4   4   6 1070.59   43.10
   3  -4  -6   86.29    7.30
   3  -4  -6   97.09    9.60
  -3   4   6   90.99    7.50
  -3   4   6   76.29   10.10
  -3   4   6   96.39    6.90
   2  -4  -6 1159.08   41.40
   2  -4  -6 1181.58   42.80
  -2   4   6 1189.48   44.20
  -2   4   6 1180.08   42.40
  -2   4   6 1205.28   42.20
  -2   4   6 1141.99   43.20
   1  -4  -6  487.15   22.20
   1  -4  -6  523.05   23.20
  -1   4   6  511.55   22.50
  -1   4   6  461.55   22.40
  -1   4   6  477.55   22.30
  -1   4   6  500.55   24.40
   0  -4  -6  593.14   27.20
   0  -4  -6  564.64   26.30
   0   4   6  652.43   27.40
   0   4   6  594.64   25.40
   0   4   6  603.34   27.00
   0   4   6  578.44   29.60
  -1  -4  -6  724.43   33.20
  -1  -4  -6  728.73   31.50
   1   4   6  709.23   32.40
   1   4   6  766.22   31.80
   1   4   6  710.63   35.60
   1   4   6  744.43   29.20
  -2  -4  -6  225.08   16.30
  -2  -4  -6  219.68   18.40
   2   4   6  218.18   15.50
   2   4   6  224.08   21.50
   2   4   6  201.18   17.10
  -3  -4  -6  839.32   40.80
  -3  -4  -6  861.61   37.00
   3   4   6  750.82   38.70
   3   4   6  891.11   35.20
  -4  -4  -6   20.80   10.10
  -4  -4  -6   16.40    8.00
   4   4   6    3.00    7.40
   4   4   6   -1.10    5.20
  -5  -4  -6  813.72   42.80
  -5  -4  -6  792.92   38.10
   5   4   6  735.73   41.50
   5   4   6  812.82   34.80
  -6  -4  -6   82.39   14.60
  -6  -4  -6  118.19   19.30
   6   4   6  117.19   13.30
   6   4   6   65.69   15.70
  -7  -4  -6  344.37   28.90
  -7  -4  -6  407.66   34.50
   7   4   6  378.06   31.60
   7   4   6  329.17   22.50
   8   4   6  112.19   20.60
  12  -5  -6    3.30    5.80
 -12   5   6   24.60    9.10
 -12   5   6   -3.10    9.60
  11  -5  -6   41.50    8.00
 -11   5   6   53.29    9.90
 -11   5   6   32.70   12.10
  10  -5  -6  139.39   12.10
 -10   5   6  149.69   14.00
 -10   5   6  121.59   16.70
 -10   5   6  138.29   22.30
   9  -5  -6   53.09    7.60
  -9   5   6   57.19    8.60
  -9   5   6   21.90   12.20
  -9   5   6   47.20   10.00
   8  -5  -6  231.28   13.40
  -8   5   6  222.88   16.60
  -8   5   6  281.17   27.80
   7  -5  -6    4.40    4.00
  -7   5   6    7.70    5.30
  -7   5   6   -3.40    7.90
   6  -5  -6  452.75   19.50
  -6   5   6  427.36   25.30
  -6   5   6  419.66   20.70
   5  -5  -6  113.89    9.80
  -5   5   6  118.69    9.40
  -5   5   6  124.29   14.30
   4  -5  -6  601.54   24.90
   4  -5  -6  589.24   23.00
  -4   5   6  566.94   23.80
  -4   5   6  587.74   28.20
  -4   5   6  569.84   22.80
   3  -5  -6  794.62   31.00
   3  -5  -6  762.02   29.60
  -3   5   6  766.92   32.90
  -3   5   6  770.02   29.80
  -3   5   6  810.02   30.80
   2  -5  -6  295.77   16.70
   2  -5  -6  280.37   15.70
  -2   5   6  318.17   16.80
  -2   5   6  322.97   18.20
  -2   5   6  311.87   16.10
  -2   5   6  312.67   17.60
   1  -5  -6  750.62   30.80
   1  -5  -6  688.83   29.80
  -1   5   6  668.73   32.50
  -1   5   6  734.03   30.70
  -1   5   6  707.03   30.00
  -1   5   6  744.93   30.40
   0  -5  -6   44.60    8.70
   0  -5  -6   40.10    8.40
   0   5   6   41.20   10.00
   0   5   6   29.60    6.70
   0   5   6   39.50    7.90
   0   5   6   76.29   10.30
  -1  -5  -6  928.51   40.40
  -1  -5  -6  929.81   37.20
   1   5   6  896.31   37.30
   1   5   6  833.62   41.90
   1   5   6  907.71   38.80
   1   5   6  892.51   35.10
  -2  -5  -6   45.10   11.10
  -2  -5  -6   36.90    8.70
   2   5   6   36.60    8.10
   2   5   6   34.30    9.10
  -3  -5  -6  752.52   39.40
  -3  -5  -6  747.93   34.80
   3   5   6  743.33   37.90
   3   5   6  765.82   33.20
  -4  -5  -6  266.17   20.30
  -4  -5  -6  335.17   29.00
   4   5   6  272.17   18.50
   4   5   6  282.27   24.20
  -5  -5  -6   66.29   15.80
  -5  -5  -6  133.09   16.60
   5   5   6  130.49   19.60
   5   5   6  106.99   12.80
  -6  -5  -6  211.68   26.50
  -6  -5  -6  201.58   21.70
   6   5   6  189.88   17.50
   6   5   6  227.28   27.40
  -7  -5  -6    4.40   11.50
   7   5   6   -5.70   10.00
   7   5   6   10.50    8.30
 -12   6   6   63.79   14.60
 -11   6   6   -3.50    7.60
 -10   6   6  162.68   24.70
 -10   6   6  152.78   17.60
  -9   6   6   27.90   13.70
  -9   6   6   29.40    9.00
  -8   6   6   96.69   12.00
  -8   6   6   92.79   17.40
  -7   6   6  129.79   12.80
  -7   6   6  153.18   18.50
  -6   6   6  173.88   18.30
  -6   6   6  173.98   12.60
  -5   6   6  663.63   32.30
   4  -6  -6    1.70    4.00
  -4   6   6    0.40    3.70
  -4   6   6    7.60    4.50
  -4   6   6   -1.00    5.50
   3  -6  -6  752.72   30.30
  -3   6   6  699.33   32.00
  -3   6   6  757.12   29.80
  -3   6   6  746.13   30.30
   2  -6  -6    9.30    5.40
  -2   6   6   17.70    5.80
  -2   6   6   13.60    5.20
  -2   6   6   15.20    6.80
  -2   6   6    6.40    5.70
   1  -6  -6  605.34   28.00
  -1   6   6  563.84   26.60
  -1   6   6  616.34   31.00
  -1   6   6  584.14   27.70
  -1   6   6  582.34   27.00
   0  -6  -6  261.47   19.00
   0   6   6  263.97   18.30
   0   6   6  283.27   16.40
   0   6   6  234.18   16.90
   0   6   6  249.28   20.30
  -1  -6  -6  353.86   23.70
   1   6   6  327.37   20.10
   1   6   6  403.06   22.00
   1   6   6  320.37   21.40
  -2  -6  -6  534.55   31.60
   2   6   6  550.64   27.20
   2   6   6  483.35   29.10
  -3  -6  -6   26.60   11.40
   3   6   6   47.50    9.60
   3   6   6   38.90   11.30
  -4  -6  -6  437.56   32.30
   4   6   6  440.26   31.20
   4   6   6  448.66   24.30
  -5  -6  -6   -0.70   11.40
   5   6   6    4.50   11.80
   5   6   6   -5.10    5.80
   6   6   6  282.77   31.40
   6   6   6  307.37   21.00
 -12   7   6   61.89   14.80
 -11   7   6   41.90   11.10
 -10   7   6   81.89   13.20
 -10   7   6  100.09   20.90
  -9   7   6   97.99   19.90
  -9   7   6   96.59   13.00
  -8   7   6   45.70   13.20
  -8   7   6   49.10    9.20
  -7   7   6  332.67   24.50
  -6   7   6   12.40    8.20
  -5   7   6  636.24   31.90
   4  -7  -6  166.98   12.80
  -4   7   6  151.28   11.80
  -4   7   6  165.28   16.50
  -4   7   6  174.68   12.70
   3  -7  -6  358.46   19.40
  -3   7   6  327.17   18.50
  -3   7   6  324.77   20.20
  -3   7   6  300.07   17.50
   2  -7  -6  248.28   17.50
  -2   7   6  262.07   16.40
  -2   7   6  260.97   16.90
  -2   7   6  249.08   17.20
   1  -7  -6   66.89   11.50
  -1   7   6   71.79   10.80
  -1   7   6   71.19   10.60
  -1   7   6   81.59   10.90
   0  -7  -6  527.35   29.00
   0   7   6  537.55   27.70
   0   7   6  496.95   25.20
   0   7   6  524.15   27.90
  -1  -7  -6   34.50   10.70
   1   7   6   17.30    8.50
   1   7   6   44.70    9.80
  -2  -7  -6  683.63   39.10
   2   7   6  643.94   32.60
   2   7   6  725.93   37.30
  -3  -7  -6   58.99   15.60
   3   7   6   49.60   13.40
   3   7   6   58.39   10.70
   4   7   6  153.28   22.10
   4   7   6  182.48   17.60
   5   7   6   47.80   10.30
   5   7   6   53.09   16.50
 -11   8   6   52.49   19.00
 -11   8   6   62.89   13.20
 -10   8   6  -11.50   11.70
 -10   8   6    4.80    7.60
  -9   8   6  104.99   19.20
  -8   8   6   28.00   11.80
  -7   8   6  150.28   19.40
  -6   8   6  165.08   18.60
  -5   8   6   61.79   11.70
   4  -8  -6  229.28   16.30
  -4   8   6  257.07   18.90
  -4   8   6  213.68   15.20
  -4   8   6  230.98   15.60
   3  -8  -6   -2.30    5.70
  -3   8   6    2.70    5.20
  -3   8   6    0.70    5.00
  -3   8   6   -2.70    6.00
   2  -8  -6  362.56   22.90
  -2   8   6  366.36   21.80
  -2   8   6  334.07   20.60
  -2   8   6  344.37   21.70
   1  -8  -6   57.09   11.60
  -1   8   6   37.70    9.10
  -1   8   6   45.30    9.60
  -1   8   6   44.30    9.70
   0  -8  -6  556.84   31.40
   0   8   6  519.75   29.30
   0   8   6  546.95   29.30
   0   8   6  509.95   27.20
  -1  -8  -6  125.09   18.50
   1   8   6  178.68   20.00
   1   8   6  146.99   16.60
  -2  -8  -6  150.38   20.60
   2   8   6  175.98   21.20
   2   8   6  167.78   17.60
   3   8   6  227.28   20.20
   3   8   6  201.98   24.30
 -11   9   6   18.60   17.70
 -10   9   6   45.10   18.30
  -9   9   6   27.60   13.80
  -8   9   6  117.89   19.40
  -7   9   6    5.40    8.80
  -6   9   6  267.87   22.20
  -5   9   6   18.70    8.90
   4  -9  -6  168.18   17.50
  -4   9   6  156.78   17.70
  -4   9   6  169.98   14.80
  -4   9   6  151.08   15.20
   3  -9  -6   62.59   11.50
  -3   9   6   48.20    9.80
  -3   9   6   55.99   11.70
  -3   9   6   48.20    9.70
   2  -9  -6  206.98   20.70
  -2   9   6  193.38   19.00
  -2   9   6  195.18   16.90
  -2   9   6  230.08   19.70
   1  -9  -6  297.37   24.40
  -1   9   6  313.77   22.50
  -1   9   6  291.97   21.70
  -1   9   6  275.37   21.10
   0  -9  -6   62.79   14.60
   0   9   6   75.19   13.50
   0   9   6   56.49   12.30
  -1  -9  -6  354.06   40.50
   1   9   6  364.16   24.80
   1   9   6  352.36   26.50
   2   9   6    7.20    9.30
   2   9   6   14.90    9.20
 -11  10   6   18.90   16.90
 -10  10   6   86.19   20.60
  -9  10   6   13.10   13.30
  -8  10   6   80.19   16.90
  -7  10   6   -0.30    9.30
  -6  10   6  127.89   17.80
  -5  10   6   59.59   12.50
  -4  10   6   29.40   10.70
   3 -10  -6  200.48   20.90
  -3  10   6  185.48   18.10
  -3  10   6  171.78   18.10
  -3  10   6  212.98   20.70
   2 -10  -6   -6.80    8.10
  -2  10   6   -7.00    7.30
  -2  10   6   -1.30    7.40
  -2  10   6   -1.50    7.50
  -1  10   6  175.58   19.90
  -1  10   6  176.38   18.90
  -1  10   6  179.98   19.40
   0  10   6   -5.70    8.20
   0  10   6   -7.50    8.30
  -9  11   6   36.10   15.60
  -8  11   6   33.80   13.90
  -7  11   6  103.59   18.30
  -6  11   6    7.20    9.30
  -5  11   6   93.69   16.60
  -4  11   6    0.70    8.70
  -3  11   6  112.69   17.20
  -3  11   6  146.89   17.40
  -3  11   6  155.28   18.60
  -2  11   6   42.70   12.00
  -2  11   6   63.79   13.30
  -2  11   6   57.19   13.40
   0  13  -7   76.99   13.60
  -1  13  -7    2.20    7.80
  -2  13  -7   86.39   14.80
  -2  13  -7  106.39   11.20
  -3  13  -7   66.19    9.40
  -3  13  -7   64.19   12.90
  -4  13  -7   12.70    9.80
  -4  13  -7   15.40    6.80
  -5  13  -7  121.09   17.70
  -5  13  -7  113.69   18.10
  -5  13  -7  103.39   12.20
  -6  13  -7  -12.60    8.90
  -7  13  -7   95.49   18.00
   3  12  -7   11.10   10.30
  -3 -12   7   -1.10    9.00
   2  12  -7  101.29   14.60
  -2 -12   7   79.69   13.60
   1  12  -7   46.00    7.10
   1  12  -7   35.90   10.40
  -1 -12   7   25.70    9.70
   0  12  -7   65.99   11.90
   0  12  -7   95.59    9.80
   0 -12   7   70.39   12.90
  -1  12  -7  150.28   17.20
  -1  12  -7  178.68   12.70
   1 -12   7  159.38   19.20
  -2  12  -7    9.20    7.80
  -2  12  -7   12.80    5.40
   2 -12   7   11.20    8.40
  -3  12  -7  136.29   18.60
  -3  12  -7  170.38   17.90
  -3  12  -7  154.48   13.20
  -4  12  -7   -7.20    7.00
  -4  12  -7    2.40    9.70
  -4  12  -7    8.50    5.50
  -5  12  -7  133.99   17.30
  -5  12  -7  117.89   18.50
  -5  12  -7  165.78   14.70
  -6  12  -7   12.80   11.40
  -6  12  -7   26.80   10.70
  -7  12  -7   44.80   15.30
   4  11  -7   66.39   12.60
   4  11  -7   61.59    9.50
  -4 -11   7   58.79   12.70
   3  11  -7  123.29   15.70
   3  11  -7  140.99    9.60
  -3 -11   7  102.69   15.30
   2  11  -7   21.60    4.80
   2  11  -7   30.70    9.20
  -2 -11   7   16.40    9.50
   1  11  -7  189.18   11.90
   1  11  -7  222.98   17.90
  -1 -11   7  234.58   21.90
   0  11  -7    0.00    3.70
   0  11  -7    5.80    6.30
   0 -11   7    4.70    7.10
  -1  11  -7  235.98   22.80
  -1  11  -7  234.48   13.50
  -1  11  -7  223.98   17.60
   1 -11   7  233.48   19.30
  -2  11  -7   38.60    9.60
  -2  11  -7   43.80    7.00
  -2  11  -7   27.80   10.40
   2 -11   7   56.89   11.00
  -3  11  -7  136.99   12.00
  -3  11  -7  161.58   19.50
  -3  11  -7  146.09   15.90
   3 -11   7  163.28   17.70
  -4  11  -7  131.09   12.00
  -4  11  -7  146.99   19.00
  -4  11  -7  114.29   14.40
  -5  11  -7   15.40   10.40
  -5  11  -7   38.10   10.20
  -5  11  -7   45.20    8.20
  -6  11  -7   69.39   16.00
  -6  11  -7   73.39   13.00
  -7  11  -7  -14.80    9.80
  -8  11  -7  139.09   22.70
   5  10  -7  146.29   23.80
   5  10  -7  154.28    8.40
   4  10  -7   -6.60    6.60
   4  10  -7   -1.80    2.90
  -4 -10   7   10.70    8.40
   3  10  -7  200.98   18.00
   3  10  -7  178.88    9.90
  -3 -10   7  165.18   18.10
   2  10  -7   85.49    7.60
   2  10  -7   74.69   11.80
  -2 -10   7  100.99   14.00
   1  10  -7  270.07   18.80
   1  10  -7  302.47   13.90
   1  10  -7  246.78   23.90
  -1 -10   7  283.67   20.30
   0  10  -7  173.78   16.60
   0  10  -7  167.28   19.40
   0  10  -7  230.88   11.80
   0 -10   7  168.98   17.30
  -1  10  -7   94.59   12.10
  -1  10  -7  128.99    9.30
  -1  10  -7  138.39   17.80
   1 -10   7  115.39   14.30
  -2  10  -7  291.17   23.10
  -2  10  -7  291.77   15.30
  -2  10  -7  288.67   19.20
   2 -10   7  356.46   21.60
  -3  10  -7   12.00    7.40
  -3  10  -7    8.50    8.40
  -3  10  -7   11.50    4.60
   3 -10   7   -1.40    6.20
  -4  10  -7  319.47   20.50
  -4  10  -7  294.57   24.70
  -4  10  -7  357.06   17.60
   4 -10   7  294.47   20.80
  -5  10  -7    6.00    5.00
  -5  10  -7   20.60   10.60
  -5  10  -7   -4.60    5.80
  -6  10  -7  289.77   25.10
  -6  10  -7  308.47   21.20
  -7  10  -7   57.29   15.40
  -8  10  -7  121.79   20.70
  -9  10  -7   83.39   18.20
   5   9  -7  146.89   15.60
   5   9  -7  138.69    7.10
  -5  -9   7  124.49   15.10
   4   9  -7  124.79   14.00
   4   9  -7  105.99    6.60
  -4  -9   7  108.09   13.90
   3   9  -7   69.09    5.90
   3   9  -7   72.99   21.40
   3   9  -7   84.59   11.70
  -3  -9   7   68.69   11.60
   2   9  -7  351.76   14.40
   2   9  -7  315.67   19.80
   2   9  -7  314.17   26.10
  -2  -9   7  368.36   22.50
   1   9  -7   49.20    5.50
   1   9  -7   46.50    9.10
   1   9  -7   45.30   12.40
  -1  -9   7   38.20    8.80
   0   9  -7  353.36   19.80
   0   9  -7  325.37   24.50
   0   9  -7  332.47   14.90
   0  -9   7  327.77   20.40
  -1   9  -7   14.70    4.00
  -1   9  -7   23.40   10.20
  -1   9  -7   12.60    6.10
   1  -9   7   15.00    6.80
  -2   9  -7  741.43   37.70
  -2   9  -7  728.43   32.00
  -2   9  -7  723.83   27.80
   2  -9   7  700.83   33.00
  -3   9  -7  149.29   14.50
  -3   9  -7  193.98   11.80
  -3   9  -7  208.08   21.30
   3  -9   7  172.68   16.10
  -4   9  -7  351.76   20.70
  -4   9  -7  343.97   25.40
  -4   9  -7  409.56   18.70
   4  -9   7  392.86   22.40
  -5   9  -7  191.28   15.40
  -5   9  -7  223.88   22.70
  -5   9  -7  198.18   13.20
   5  -9   7  190.68   15.50
  -6   9  -7  136.09   18.70
  -6   9  -7  157.88   15.40
  -7   9  -7  234.78   24.50
  -8   9  -7   15.40   10.40
  -9   9  -7  202.98   25.80
 -10   9  -7   33.20   15.30
   5   8  -7   52.29    9.70
   5   8  -7   33.80    3.10
  -5  -8   7   39.10    9.20
   4   8  -7  265.27   10.50
   4   8  -7  248.78   26.40
   4   8  -7  281.17   17.70
  -4  -8   7  217.38   29.60
  -4  -8   7  281.97   19.50
   3   8  -7    2.70    5.30
   3   8  -7    6.20    2.40
   3   8  -7    2.60    9.50
  -3  -8   7   14.70    6.90
   2   8  -7  431.26   21.70
   2   8  -7  420.76   16.30
   2   8  -7  462.55   29.70
  -2  -8   7  421.66   23.30
   1   8  -7   62.59    5.70
   1   8  -7   49.30    7.80
   1   8  -7   43.50   11.50
  -1  -8   7   53.49    9.10
   0   8  -7  219.08   10.90
   0   8  -7  214.68   21.60
   0   8  -7  236.58   15.20
   0  -8   7  237.28   16.30
  -1   8  -7  505.35   29.60
  -1   8  -7  491.35   23.80
  -1   8  -7  521.15   20.30
   1  -8   7  510.35   25.50
  -2   8  -7  179.88   13.50
  -2   8  -7  180.28   10.50
  -2   8  -7  174.48   18.50
   2  -8   7  159.28   15.10
  -3   8  -7  583.74   31.60
  -3   8  -7  584.64   23.30
  -3   8  -7  558.84   25.90
   3  -8   7  544.05   26.50
  -4   8  -7   -0.20    4.50
  -4   8  -7    0.60    7.80
  -4   8  -7    3.20    3.80
   4  -8   7    1.10    4.40
  -5   8  -7  606.94   34.10
  -5   8  -7  656.73   28.80
  -5   8  -7  656.43   26.60
   5  -8   7  620.84   28.60
  -6   8  -7   43.90   12.10
  -7   8  -7  287.67   27.20
  -8   8  -7  127.39   20.20
  -9   8  -7  122.99   20.40
 -10   8  -7  123.79   21.70
   6   7  -7  435.66   22.40
   6   7  -7  319.87   31.90
  -6  -7   7  389.96   23.10
  -6  -7   7  357.76   39.50
   5   7  -7   53.59   15.40
  -5  -7   7  101.29   12.50
  -5  -7   7   92.89   21.00
   4   7  -7  307.77   11.10
   4   7  -7  296.07   25.50
  -4  -7   7  326.07   19.60
  -4  -7   7  281.07   31.70
   3   7  -7  228.68   24.30
   3   7  -7  278.27   10.60
  -3  -7   7  291.87   30.30
  -3  -7   7  271.87   17.90
   2   7  -7  354.36   13.30
   2   7  -7  318.57   24.90
  -2  -7   7  354.96   20.30
  -2  -7   7  327.17   31.90
   1   7  -7  518.35   18.70
   1   7  -7  474.45   29.00
  -1  -7   7  513.05   25.00
   0   7  -7   11.20    2.90
   0   7  -7    8.20    7.50
   0  -7   7    6.60    4.90
  -1   7  -7 1126.09   38.90
  -1   7  -7 1179.58   48.70
  -1   7  -7 1088.89   42.10
   1  -7   7 1177.88   44.40
  -2   7  -7   20.40    8.30
  -2   7  -7   31.30    6.50
  -2   7  -7   31.10    5.00
   2  -7   7   29.40    7.00
  -3   7  -7  540.45   21.60
  -3   7  -7  504.95   23.40
  -3   7  -7  550.24   29.60
   3  -7   7  521.15   24.50
  -4   7  -7  253.87   13.50
  -4   7  -7  236.68   19.70
  -4   7  -7  245.38   14.80
   4  -7   7  239.58   14.90
  -5   7  -7  333.67   17.00
  -5   7  -7  343.37   18.10
  -5   7  -7  382.66   24.70
   5  -7   7  340.67   18.20
  -6   7  -7  395.76   25.70
  -7   7  -7   72.59   14.00
   7  -7   7   70.69    8.40
  -8   7  -7  575.14   35.40
   8  -7   7  544.25   25.40
  -9   7  -7   -1.00   10.90
   9  -7   7    8.00    6.10
 -10   7  -7  170.18   24.10
  10  -7   7  146.49   15.70
 -11   7  -7    4.50   15.10
  11  -7   7   -2.80    8.00
  12  -7   7   89.29   15.10
   8   6  -7  116.59   16.60
  -8  -6   7  117.69   19.30
   7   6  -7  112.29   11.50
   7   6  -7  115.19   19.90
  -7  -6   7  104.09   12.20
  -7  -6   7  134.49   25.50
   6   6  -7  198.28   24.40
   6   6  -7  169.58   12.20
  -6  -6   7  150.88   13.60
  -6  -6   7  170.38   27.80
  -6  -6   7  145.79   14.80
   5   6  -7  421.96   29.60
   5   6  -7  375.66   17.90
  -5  -6   7  387.36   19.60
  -5  -6   7  402.86   33.60
  -5  -6   7  383.96   21.60
   4   6  -7   14.50    1.90
   4   6  -7   15.20    4.20
   4   6  -7    7.30    9.40
  -4  -6   7   21.70    5.40
  -4  -6   7   19.00   10.90
  -4  -6   7   16.10    6.20
   3   6  -7  701.43   23.60
   3   6  -7  776.82   38.00
   3   6  -7  701.03   26.50
  -3  -6   7  710.33   31.50
  -3  -6   7  766.42   42.00
   2   6  -7   20.00    9.90
   2   6  -7   14.20    2.60
   2   6  -7   21.30    4.30
  -2  -6   7   20.50    6.50
  -2  -6   7   12.40    9.80
   1   6  -7  745.23   35.80
   1   6  -7  693.73   26.10
   1   6  -7  716.33   24.50
  -1  -6   7  684.23   30.10
   0   6  -7  206.58   12.30
   0   6  -7  177.78   17.80
   0   6  -7  202.98    9.60
   0  -6   7  203.28   13.70
  -1   6  -7 1199.38   40.90
  -1   6  -7 1261.47   49.99
  -1   6  -7 1220.58   45.10
   1  -6   7 1178.78   45.30
  -2   6  -7  645.54   24.30
  -2   6  -7  641.54   31.30
  -2   6  -7  638.44   26.20
   2  -6   7  664.93   27.90
  -3   6  -7  150.08   10.70
  -3   6  -7  171.18   11.30
  -3   6  -7  152.28    9.70
  -3   6  -7  135.29   15.50
   3  -6   7  147.49   11.00
  -4   6  -7  826.62   31.20
  -4   6  -7  871.61   32.10
  -4   6  -7  798.82   37.20
  -4   6  -7  840.92   31.90
   4  -6   7  806.92   32.50
  -5   6  -7   45.30   11.00
  -5   6  -7   45.50    7.10
   5  -6   7   58.49    6.40
  -6   6  -7  681.83   35.20
  -6   6  -7  718.53   30.00
   6  -6   7  713.63   27.90
   6  -6   7  720.63   34.40
  -7   6  -7   68.09    9.90
  -7   6  -7   95.49   15.70
   7  -6   7   65.49   12.40
   7  -6   7   65.49    8.50
  -8   6  -7  274.77   19.70
  -8   6  -7  346.77   26.30
   8  -6   7  309.67   18.70
   8  -6   7  317.07   24.10
  -9   6  -7  119.19   14.80
  -9   6  -7  125.39   19.70
   9  -6   7  104.29   16.80
   9  -6   7  110.09   13.00
 -10   6  -7   31.10   14.60
 -10   6  -7   62.79   18.40
  10  -6   7   48.30   13.90
  10  -6   7   25.50    9.10
 -11   6  -7  108.09   21.10
  11  -6   7  108.79   15.40
  12  -6   7   10.50    9.20
   9   5  -7   86.49   17.60
   9   5  -7   84.29   12.00
  -9  -5   7  124.59   25.40
  -9  -5   7   84.59   12.70
   8   5  -7   14.10    6.60
   8   5  -7   13.20   11.10
  -8  -5   7    5.40    6.60
  -8  -5   7    7.10   13.80
   7   5  -7  361.76   28.30
   7   5  -7  383.26   18.90
  -7  -5   7  343.67   20.20
  -7  -5   7  422.36   33.40
  -7  -5   7  333.37   20.40
   6   5  -7   82.49    8.80
   6   5  -7   99.99   16.10
  -6  -5   7   87.29   18.10
  -6  -5   7  107.49   12.60
  -6  -5   7   85.59   10.00
   5   5  -7  335.67   11.70
   5   5  -7  314.87   15.70
   5   5  -7  351.86   24.70
  -5  -5   7  350.56   17.50
  -5  -5   7  345.17   27.40
  -5  -5   7  336.57   19.40
   4   5  -7  157.18   18.00
   4   5  -7  169.88   10.00
   4   5  -7  163.28    6.60
  -4  -5   7  141.29   13.60
  -4  -5   7  152.48   10.80
  -4  -5   7  164.98   21.10
   3   5  -7  597.54   22.60
   3   5  -7  563.24   19.80
   3   5  -7  656.03   32.80
  -3  -5   7  597.34   27.20
  -3  -5   7  595.64   34.70
   2   5  -7  609.64   22.70
   2   5  -7  587.04   20.50
   2   5  -7  610.74   30.90
  -2  -5   7  606.04   33.40
  -2  -5   7  586.84   26.80
   1   5  -7  334.77   14.80
   1   5  -7  305.47   13.00
   1   5  -7  379.76   22.50
  -1  -5   7  341.37   18.10
  -1  -5   7  401.06   25.20
   0   5  -7 1841.42   58.69
   0   5  -7 1819.92   60.99
   0   5  -7 1909.81   67.89
   0  -5   7 1728.33   63.39
  -1   5  -7   44.70    7.00
  -1   5  -7   37.80    4.50
  -1   5  -7   43.40    9.40
   1  -5   7   27.30    5.70
  -2   5  -7 1473.95   48.70
  -2   5  -7 1469.05   55.39
  -2   5  -7 1439.96   50.69
   2  -5   7 1416.06   51.29
  -3   5  -7   26.50    4.80
  -3   5  -7   32.20    5.40
  -3   5  -7   44.30    9.00
  -3   5  -7   36.30    7.00
   3  -5   7   45.40    4.10
   3  -5   7   49.99    7.70
   3  -5   7   44.70    6.40
  -4   5  -7 1262.57   44.80
  -4   5  -7 1261.97   43.40
  -4   5  -7 1194.78   42.70
  -4   5  -7 1266.97   49.50
   4  -5   7 1253.27   41.60
   4  -5   7 1189.08   47.50
   4  -5   7 1156.08   43.20
  -5   5  -7  481.55   22.90
  -5   5  -7  509.85   26.80
   5  -5   7  455.95   20.20
   5  -5   7  464.85   26.00
  -6   5  -7  262.67   16.70
  -6   5  -7  249.78   20.80
   6  -5   7  264.67   15.30
   6  -5   7  288.87   21.30
  -7   5  -7  601.34   33.50
  -7   5  -7  579.04   28.30
   7  -5   7  572.74   26.80
   7  -5   7  620.94   34.40
  -8   5  -7   37.30   12.10
  -8   5  -7   53.89   10.50
   8  -5   7   46.20    8.90
   8  -5   7   51.19   13.70
  -9   5  -7  268.87   26.50
  -9   5  -7  245.58   21.50
   9  -5   7  265.17   19.80
   9  -5   7  277.47   28.70
 -10   5  -7   -3.70    8.10
 -10   5  -7  -14.10   10.00
 -10   5  -7   10.70    9.10
  10  -5   7    0.60   11.50
  10  -5   7   -1.50    7.20
 -11   5  -7  132.69   21.60
 -11   5  -7   96.79   17.30
  11  -5   7  145.99   17.50
  12  -5   7   24.20    9.70
  10   4  -7   -9.20    6.40
 -10  -4   7   -0.80   14.30
 -10  -4   7    6.60    8.30
   9   4  -7  143.29   13.90
  -9  -4   7  128.79   15.00
  -9  -4   7  122.89   21.90
   8   4  -7   24.90    6.80
  -8  -4   7   25.90   12.40
  -8  -4   7   14.90    7.40
   7   4  -7  222.48   14.10
  -7  -4   7  227.98   16.00
  -7  -4   7  224.38   15.60
  -7  -4   7  215.68   24.90
   6   4  -7  258.07   14.10
  -6  -4   7  278.77   16.10
  -6  -4   7  240.68   24.70
  -6  -4   7  297.07   18.00
   5   4  -7  200.68   11.40
  -5  -4   7  202.88   21.40
  -5  -4   7  198.28   12.60
  -5  -4   7  194.48   14.40
   4   4  -7  782.22   25.70
   4   4  -7  837.42   36.30
   4   4  -7  738.93   28.20
  -4  -4   7  779.92   30.00
  -4  -4   7  768.12   32.90
  -4  -4   7  765.42   38.30
   3   4  -7    4.20    2.90
   3   4  -7    8.90    2.20
   3   4  -7   -2.30    5.60
  -3  -4   7   10.00    4.80
  -3  -4   7    3.70    6.40
   2   4  -7 1657.93   54.69
   2   4  -7 1786.82   62.59
   2   4  -7 1608.94   52.79
  -2  -4   7 1640.34   64.59
  -2  -4   7 1600.54   55.89
  -2  -4   7 1686.83   59.69
   1   4  -7   46.00    5.40
   1   4  -7   41.40    4.40
   1   4  -7   50.59    9.30
  -1  -4   7   50.69    7.90
  -1  -4   7   44.80    5.20
  -1  -4   7   60.89   11.40
   0   4  -7 2587.64   83.79
   0   4  -7 2590.34   81.49
   0   4  -7 2630.34   88.39
   0  -4   7 2461.25   85.79
  -1   4  -7  728.43   26.60
  -1   4  -7  722.83   32.00
  -1   4  -7  782.12   29.30
   1  -4   7  729.93   29.70
  -2   4  -7  720.33   27.00
  -2   4  -7  753.22   29.50
  -2   4  -7  722.23   31.50
   2  -4   7  765.12   30.40
   2  -4   7  725.43   24.60
   2  -4   7  724.33   28.80
  -3   4  -7 1023.90   41.30
  -3   4  -7 1000.30   39.00
   3  -4   7 1027.90   41.10
   3  -4   7 1049.49   37.30
   3  -4   7 1041.00   35.30
  -4   4  -7  113.69   12.70
  -4   4  -7  130.39    9.90
  -4   4  -7  148.59   12.90
   4  -4   7  126.89    9.40
   4  -4   7  158.18   12.60
   4  -4   7  126.69   14.80
  -5   4  -7 1131.69   43.70
  -5   4  -7 1112.69   45.80
   5  -4   7 1119.79   41.20
   5  -4   7 1152.68   49.10
   5  -4   7 1134.89   41.60
  -6   4  -7   -2.50    5.90
  -6   4  -7    6.20    7.70
   6  -4   7    4.50    4.90
   6  -4   7   12.80    5.00
   6  -4   7   13.60    8.20
  -7   4  -7  626.54   31.00
  -7   4  -7  659.73   34.20
   7  -4   7  609.54   29.30
   7  -4   7  635.74   27.80
   7  -4   7  732.43   39.00
  -8   4  -7   44.30   12.00
  -8   4  -7   34.90    9.70
   8  -4   7   45.90    9.50
   8  -4   7   38.60    7.90
   8  -4   7   24.50   11.70
  -9   4  -7  208.38   21.30
  -9   4  -7  162.98   20.60
  -9   4  -7  192.68   20.10
   9  -4   7  195.98   18.40
   9  -4   7  172.78   23.90
 -10   4  -7  126.29   18.10
 -10   4  -7  123.49   19.90
 -10   4  -7   93.69   16.30
  10  -4   7   96.59   20.50
  10  -4   7   94.99   14.30
 -11   4  -7   70.59   17.30
  11  -4   7  130.39   16.90
  12  -4   7   98.09   16.10
 -11  -3   7   41.00   16.50
  10   3  -7   38.60    8.90
 -10  -3   7   14.80   13.50
 -10  -3   7   25.30    9.80
   9   3  -7   79.89   10.20
  -9  -3   7   44.60   14.60
  -9  -3   7  102.39   13.20
   8   3  -7  162.68   13.40
  -8  -3   7  192.28   23.00
  -8  -3   7  143.39   14.40
   7   3  -7   -5.10    3.80
  -7  -3   7    6.40    8.00
  -7  -3   7   13.30    6.30
  -7  -3   7    2.50    4.80
   6   3  -7  480.95   20.70
  -6  -3   7  506.35   29.30
  -6  -3   7  493.25   22.70
  -6  -3   7  527.85   25.20
   5   3  -7   -3.40    3.10
  -5  -3   7    2.90    5.60
  -5  -3   7   -2.80    4.10
  -5  -3   7    5.80    4.20
   4   3  -7  650.53   24.10
  -4  -3   7  649.34   31.30
  -4  -3   7  599.54   28.60
  -4  -3   7  628.54   25.30
   3   3  -7  422.46   21.50
   3   3  -7  426.86   16.90
   3   3  -7  399.86   15.80
  -3  -3   7  397.26   21.20
  -3  -3   7  440.06   23.70
   2   3  -7  923.51   36.10
   2   3  -7  832.72   29.20
   2   3  -7  862.01   30.20
  -2  -3   7  863.81   37.80
  -2  -3   7  816.52   29.30
  -2  -3   7  832.52   35.00
   1   3  -7 1456.05   49.10
   1   3  -7 1599.44   55.09
   1   3  -7 1515.95   50.29
  -1  -3   7 1474.15   48.40
  -1  -3   7 1457.25   54.39
  -1  -3   7 1515.05   57.19
   0   3  -7  125.59    9.40
   0   3  -7  140.89   11.70
   0   3  -7  107.69    7.60
   0  -3   7  117.49    8.50
   0  -3   7  146.19   14.20
   0  -3   7  124.29   11.70
  -1   3  -7 2202.88   72.19
  -1   3  -7 2223.88   75.99
  -1   3  -7 2224.08   74.29
   1  -3   7 2289.07   75.19
   1  -3   7 2220.88   69.39
   1  -3   7 2180.38   74.59
  -2   3  -7    3.40    4.90
  -2   3  -7    0.70    4.20
   2  -3   7    1.90    2.30
   2  -3   7   -1.00    2.70
   2  -3   7    1.70    3.70
   2  -3   7   -4.40    3.60
  -3   3  -7 2039.20   71.19
  -3   3  -7 2035.80   70.49
   3  -3   7 2022.70   67.29
   3  -3   7 2039.50   68.49
   3  -3   7 2043.90   67.49
   3  -3   7 2099.69   74.29
  -4   3  -7  317.87   18.00
  -4   3  -7  350.66   19.00
   4  -3   7  259.67   20.40
   4  -3   7  248.98   14.30
   4  -3   7  284.07   15.50
  -5   3  -7 1132.99   46.40
  -5   3  -7 1195.38   45.80
   5  -3   7 1150.48   43.80
   5  -3   7 1190.88   42.50
   5  -3   7 1140.79   51.49
  -6   3  -7  338.47   22.00
  -6   3  -7  322.67   20.70
   6  -3   7  325.77   19.40
   6  -3   7  347.67   17.80
   6  -3   7  345.97   26.10
  -7   3  -7  276.57   20.10
  -7   3  -7  266.97   20.50
   7  -3   7  263.17   18.20
   7  -3   7  250.27   15.90
   7  -3   7  297.37   28.70
  -8   3  -7  370.16   24.80
  -8   3  -7  321.37   24.80
  -8   3  -7  362.66   23.50
   8  -3   7  326.17   21.50
   8  -3   7  352.96   19.80
   8  -3   7  337.17   28.80
  -9   3  -7   39.80   12.10
  -9   3  -7   25.90    9.60
   9  -3   7    9.80    7.60
   9  -3   7   18.70    7.70
   9  -3   7   16.10   11.20
 -10   3  -7  336.57   25.40
 -10   3  -7  304.77   27.90
  10  -3   7  343.57   33.70
  10  -3   7  310.07   23.60
  10  -3   7  319.67   21.10
  11  -3   7    8.10    8.40
  11   2  -7   10.10    7.30
 -11  -2   7    2.00    8.30
 -11  -2   7   -2.00   11.60
  10   2  -7  156.78   14.90
 -10  -2   7  183.88   17.80
 -10  -2   7  210.68   25.80
   9   2  -7   -8.50    4.40
  -9  -2   7   -3.10    5.60
  -9  -2   7    1.90    8.30
   8   2  -7  358.46   18.40
  -8  -2   7  368.96   26.10
  -8  -2   7  362.96   20.50
  -8  -2   7  357.56   20.90
   7   2  -7  195.28   12.00
  -7  -2   7  177.18   18.80
  -7  -2   7  201.58   15.40
  -7  -2   7  210.78   14.40
   6   2  -7  430.66   18.50
  -6  -2   7  393.56   24.10
  -6  -2   7  398.66   19.90
  -6  -2   7  444.96   23.20
   5   2  -7  403.16   17.10
  -5  -2   7  391.46   22.60
  -5  -2   7  376.46   22.00
  -5  -2   7  367.56   18.00
   4   2  -7  117.39    7.80
  -4  -2   7  134.49   14.00
  -4  -2   7  118.29    8.70
  -4  -2   7  153.28   13.00
   3   2  -7 1724.03   55.49
  -3  -2   7 1576.24   61.69
  -3  -2   7 1728.23   61.49
   2   2  -7   77.09    9.10
   2   2  -7   49.60    5.70
  -2  -2   7   47.50    8.80
  -2  -2   7   67.19    9.70
   1   2  -7 1593.94   53.69
   1   2  -7 1663.63   56.79
  -1  -2   7 1593.64   58.29
  -1  -2   7 1599.64   53.19
  -1  -2   7 1537.75   58.19
   0   2  -7   85.99    9.40
   0   2  -7   93.99    9.10
   0  -2   7   69.39    4.40
   0  -2   7   86.39    8.40
   0  -2   7   86.19   10.40
   0  -2   7   77.29    9.60
  -1   2  -7 2124.09   75.59
  -1   2  -7 2264.97   76.09
   1  -2   7 2361.76   75.59
   1  -2   7 2316.17   72.79
   1  -2   7 2202.38   77.49
   1  -2   7 2346.67   76.99
  -2   2  -7 1115.19   41.10
  -2   2  -7 1030.60   40.00
   2  -2   7 1098.59   39.50
   2  -2   7 1166.58   39.90
   2  -2   7 1060.29   38.40
   2  -2   7 1058.39   43.70
  -3   2  -7  733.73   29.80
  -3   2  -7  742.03   30.90
   3  -2   7  671.43   28.30
   3  -2   7  728.73   34.70
  -4   2  -7 1452.95   52.69
  -4   2  -7 1414.86   51.59
   4  -2   7 1375.36   50.39
   4  -2   7 1330.87   56.89
   4  -2   7 1428.16   49.50
  -5   2  -7  432.36   23.00
  -5   2  -7  401.76   23.00
   5  -2   7  398.56   19.50
   5  -2   7  402.96   27.40
   5  -2   7  421.16   21.10
  -6   2  -7  871.71   37.70
  -6   2  -7  807.62   36.80
  -6   2  -7  862.21   39.30
   6  -2   7  832.52   35.20
   6  -2   7  821.02   33.20
   6  -2   7  868.01   43.30
  -7   2  -7    5.50    6.50
  -7   2  -7   -2.60    6.20
  -7   2  -7   -1.70    6.90
   7  -2   7   -1.90    4.10
   7  -2   7   -5.90    7.60
   7  -2   7    4.20    5.90
  -8   2  -7  643.64   34.30
  -8   2  -7  591.74   32.90
   8  -2   7  629.64   30.40
   8  -2   7  604.44   37.80
   8  -2   7  626.64   28.40
  -9   2  -7  106.99   17.10
  -9   2  -7  144.39   18.20
   9  -2   7  119.59   13.20
   9  -2   7  112.99   20.00
 -10   2  -7  204.78   24.00
 -10   2  -7  165.98   20.70
  10  -2   7  185.38   25.20
  10  -2   7  208.18   19.00
  11  -2   7   92.29   15.30
  11   1  -7   23.30    7.90
 -11  -1   7   17.70    9.80
 -11  -1   7   43.50   15.60
  10   1  -7   77.39   10.40
 -10  -1   7   78.99   11.90
 -10  -1   7   95.89   17.70
   9   1  -7   92.19   10.40
  -9  -1   7  130.69   18.30
  -9  -1   7  101.29   12.20
   8   1  -7   62.49    8.10
  -8  -1   7   69.89   10.10
  -8  -1   7   71.59   11.10
  -8  -1   7   80.49   13.80
   7   1  -7  521.15   22.70
  -7  -1   7  553.24   28.80
  -7  -1   7  554.64   28.10
  -7  -1   7  547.95   25.00
   6   1  -7   75.09    7.70
  -6  -1   7   74.99   12.10
  -6  -1   7   60.09    9.90
  -6  -1   7   75.29    8.80
   5   1  -7  949.90   33.10
  -5  -1   7  943.51   38.50
  -5  -1   7  907.51   34.30
  -5  -1   7  856.01   39.80
   4   1  -7  109.89    8.00
  -4  -1   7  111.19   11.40
  -4  -1   7  141.89   16.50
   3   1  -7 1647.34   52.19
  -3  -1   7 1470.85   59.89
  -3  -1   7 1528.75   55.69
   2   1  -7  300.07   15.20
   2   1  -7  294.97   13.60
  -2  -1   7  280.47   19.10
  -2  -1   7  274.57   15.80
  -2  -1   7  299.47   12.40
   1   1  -7 1028.90   37.50
   1   1  -7 1043.80   38.40
  -1  -1   7 1060.99   40.10
  -1  -1   7 1029.10   37.10
  -1  -1   7  996.00   42.10
  -1  -1   7 1073.49   33.90
   0   1  -7 2596.14   83.39
   0   1  -7 2613.14   82.99
   0  -1   7 2486.05   80.69
   0  -1   7 2568.14   84.59
   0  -1   7 2502.85   82.39
   0  -1   7 2474.05   84.79
   0  -1   7 2422.26   86.29
  -1   1  -7  292.47   16.50
  -1   1  -7  326.87   15.50
   1  -1   7  272.37   16.50
   1  -1   7  307.87   14.80
   1  -1   7  315.47   16.20
   1  -1   7  356.96   19.30
  -2   1  -7 1792.92   62.39
  -2   1  -7 1741.93   59.99
   2  -1   7 1727.03   60.39
   2  -1   7 1792.72   60.09
   2  -1   7 1808.82   66.09
  -3   1  -7   12.80    6.80
  -3   1  -7   10.50    4.90
  -3   1  -7    4.80    5.00
   3  -1   7    7.50    4.10
   3  -1   7    2.90    4.20
   3  -1   7   16.70    7.20
  -4   1  -7 1207.68   45.50
  -4   1  -7 1268.27   49.10
  -4   1  -7 1154.98   47.20
   4  -1   7 1196.88   51.09
   4  -1   7 1221.38   44.20
   4  -1   7 1274.57   44.90
  -5   1  -7  186.48   18.30
  -5   1  -7  156.58   16.30
  -5   1  -7  168.98   14.20
   5  -1   7  180.98   12.80
   5  -1   7  188.28   20.10
   5  -1   7  191.08   13.30
  -6   1  -7  289.67   20.80
  -6   1  -7  344.27   22.50
   6  -1   7  341.27   18.30
   6  -1   7  348.87   18.90
   6  -1   7  389.86   26.30
  -7   1  -7  430.86   26.30
  -7   1  -7  368.96   25.00
   7  -1   7  483.45   30.30
   7  -1   7  394.16   21.10
  -8   1  -7  297.77   23.00
  -8   1  -7  298.47   23.30
   8  -1   7  295.67   18.80
   8  -1   7  315.07   26.60
  -9   1  -7  298.47   28.00
  -9   1  -7  319.47   25.50
   9  -1   7  351.86   21.50
   9  -1   7  386.86   29.90
 -10   1  -7   15.10   13.60
  10  -1   7   18.80   12.40
  10  -1   7   28.40    9.30
  12   0  -7   -5.20    7.20
 -12   0   7    3.80   10.90
  11   0  -7   46.10    9.10
 -11   0   7   61.79   14.70
 -11   0   7   51.79   11.40
  10   0  -7   -0.40    5.30
 -10   0   7    4.30    8.60
 -10   0   7   -1.90    6.30
   9   0  -7  222.38   14.50
  -9   0   7  237.28   16.90
  -9   0   7  239.18   24.90
  -9   0   7  231.38   22.60
   8   0  -7   12.80    5.20
  -8   0   7    7.70    7.50
  -8   0   7   13.60    6.40
  -8   0   7    6.90    6.50
   7   0  -7  500.05   21.80
  -7   0   7  540.55   27.70
  -7   0   7  492.85   28.90
  -7   0   7  546.75   24.10
   6   0  -7  116.19    9.00
  -6   0   7  124.19   10.70
  -6   0   7   78.29   13.00
  -6   0   7  102.59   12.40
   5   0  -7  354.26   15.40
  -5   0   7  334.07   23.60
  -5   0   7  338.47   18.70
   4   0  -7 1074.29   37.80
  -4   0   7 1074.69   47.40
  -4   0   7 1132.79   41.90
   3   0  -7  417.56   17.50
  -3   0   7  414.46   19.60
  -3   0   7  417.36   15.20
  -3   0   7  442.96   25.10
   2   0  -7 2107.19   67.29
   2   0  -7 2082.59   68.59
  -2   0   7 1993.40   65.89
  -2   0   7 2051.19   68.09
  -2   0   7 2236.48   76.39
  -2   0   7 2091.09   70.39
   1   0  -7    8.90    4.00
   1   0  -7   11.40    4.20
   1   0  -7   -7.50    3.80
  -1   0   7   -0.20    2.90
  -1   0   7    6.30    3.00
  -1   0   7   -1.00    2.80
  -1   0   7    3.60    3.90
  -1   0   7    1.60    3.20
  -1   0   7    0.20    5.50
   0   0  -7 3429.96  110.09
   0   0  -7 3348.96  109.79
   0   0  -7 3322.27  107.39
   0   0   7 3557.84  112.39
   0   0   7 3176.28  108.69
   0   0   7 3402.46  107.89
   0   0   7 3434.36  111.99
  -1   0  -7  861.51   31.10
  -1   0  -7  881.11   34.80
  -1   0  -7  828.52   34.00
   1   0   7  898.31   34.20
   1   0   7  847.02   36.20
   1   0   7  843.52   33.10
   1   0   7  852.01   31.90
  -2   0  -7  838.12   31.10
  -2   0  -7  827.52   34.70
  -2   0  -7  867.91   35.60
   2   0   7  861.01   32.30
   2   0   7  851.21   37.10
   2   0   7  837.72   33.10
   2   0   7  848.02   32.00
  -3   0  -7 1242.88   47.60
  -3   0  -7 1239.28   48.50
  -3   0  -7 1145.59   43.20
   3   0   7 1211.68   44.60
   3   0   7 1283.57   44.10
   3   0   7 1258.97   50.49
  -4   0  -7  615.64   30.00
  -4   0  -7  544.65   28.10
   4   0   7  567.64   31.20
   4   0   7  639.54   25.60
   4   0   7  598.54   25.90
  -5   0  -7  968.50   44.00
  -5   0  -7 1081.89   45.70
   5   0   7 1010.90   39.90
   5   0   7 1124.99   48.20
   5   0   7 1094.29   40.00
  -6   0  -7  104.69   14.60
  -6   0  -7  113.09   15.10
   6   0   7  108.49   11.20
   6   0   7   88.89   15.10
  -7   0  -7 1183.88   50.89
  -7   0  -7 1079.29   49.80
   7   0   7 1101.19   44.00
   7   0   7 1193.58   53.39
  -8   0  -7   15.20   10.70
  -8   0  -7   22.60    9.60
   8   0   7    7.00    5.80
   8   0   7   10.40    9.60
  -9   0  -7  224.08   25.00
  -9   0  -7  297.87   25.40
   9   0   7  256.37   19.20
   9   0   7  318.27   26.90
  10   0   7   26.70   12.40
  10   0   7   43.40    9.70
  12  -1  -7    2.10    6.40
 -12   1   7   -1.50    7.20
 -12   1   7   10.30   10.90
  11  -1  -7   96.19   11.90
 -11   1   7  108.49   17.50
 -11   1   7   82.99   12.50
  10  -1  -7   15.50    6.40
 -10   1   7   15.50    8.80
 -10   1   7   22.70    8.20
   9  -1  -7  127.59   11.40
  -9   1   7  143.39   16.90
  -9   1   7  141.79   13.90
  -9   1   7  122.89   16.30
   8  -1  -7  187.18   12.50
  -8   1   7  211.78   19.80
  -8   1   7  214.88   21.90
  -8   1   7  203.18   13.90
   7  -1  -7  153.28   10.80
  -7   1   7  163.18   16.10
  -7   1   7  157.28   11.50
  -7   1   7  127.09   17.40
   6  -1  -7  841.82   31.50
  -6   1   7  874.81   33.20
  -6   1   7  815.72   42.00
  -6   1   7  871.61   36.00
   5  -1  -7    6.20    3.70
  -5   1   7    1.40    7.40
  -5   1   7    7.70    4.80
   4  -1  -7 1503.45   50.89
  -4   1   7 1540.65   53.59
  -4   1   7 1477.15   60.09
   3  -1  -7   66.69    7.10
   3  -1  -7   55.69    3.70
  -3   1   7   58.59    7.20
  -3   1   7   67.29    5.80
  -3   1   7   56.99    6.00
  -3   1   7   62.29   11.30
   2  -1  -7 1486.55   49.99
   2  -1  -7 1536.05   52.39
  -2   1   7 1591.54   53.09
  -2   1   7 1492.35   52.09
  -2   1   7 1520.85   51.09
  -2   1   7 1456.75   49.10
  -2   1   7 1588.34   58.59
  -2   1   7 1528.65   51.09
   1  -1  -7  759.02   29.30
   1  -1  -7  701.53   28.30
   1  -1  -7  768.82   27.30
  -1   1   7  752.32   28.40
  -1   1   7  755.52   32.70
  -1   1   7  699.43   28.20
  -1   1   7  691.03   27.80
  -1   1   7  759.72   28.00
  -1   1   7  725.43   30.10
   0  -1  -7  956.00   35.30
   0  -1  -7  910.51   31.20
   0  -1  -7  894.71   35.40
   0   1   7  850.71   34.10
   0   1   7  889.91   33.10
   0   1   7  885.61   36.40
   0   1   7  898.61   36.40
  -1  -1  -7 1132.29   44.20
  -1  -1  -7 1163.28   39.70
  -1  -1  -7 1248.88   46.00
   1   1   7 1149.39   41.80
   1   1   7 1201.48   44.10
   1   1   7 1127.19   46.10
   1   1   7 1230.48   43.70
  -2  -1  -7  146.39   14.60
  -2  -1  -7  148.39   14.10
   2   1   7   96.19   13.30
   2   1   7  125.89   11.70
   2   1   7  124.19   10.60
  -3  -1  -7 1221.68   49.40
  -3  -1  -7 1417.66   52.79
   3   1   7 1258.27   45.80
   3   1   7 1337.27   52.99
   3   1   7 1212.88   46.90
  -4  -1  -7    4.10    6.90
  -4  -1  -7   11.40    7.80
   4   1   7   12.60    5.20
   4   1   7   14.70    5.80
   4   1   7   14.60    8.00
  -5  -1  -7 1015.10   45.40
  -5  -1  -7 1120.59   47.80
   5   1   7 1132.39   49.60
   5   1   7 1099.99   42.20
  -6  -1  -7  179.98   20.00
  -6  -1  -7  145.69   17.70
   6   1   7  176.18   14.90
   6   1   7  183.18   21.30
  -7  -1  -7  613.34   34.30
  -7  -1  -7  582.54   33.90
   7   1   7  560.04   34.60
   7   1   7  557.54   27.70
  -8  -1  -7  289.67   27.20
  -8  -1  -7  291.27   26.60
   8   1   7  276.57   19.70
   8   1   7  319.67   26.50
  -9  -1  -7    3.90   12.80
   9   1   7   49.00   10.50
   9   1   7   45.10   13.40
  12  -2  -7   15.00    7.50
 -12   2   7   24.50    9.30
 -12   2   7   16.20   11.70
  11  -2  -7   27.50    7.40
 -11   2   7   31.10   11.30
 -11   2   7   27.10    8.90
  10  -2  -7   90.29   10.10
 -10   2   7   90.29   15.30
 -10   2   7   80.49   11.40
   9  -2  -7   27.10    6.40
  -9   2   7   45.80    8.60
  -9   2   7   49.60   12.20
  -9   2   7   31.70    9.10
   8  -2  -7  377.66   18.30
  -8   2   7  392.46   20.50
  -8   2   7  418.06   24.00
  -8   2   7  389.86   28.60
   7  -2  -7  127.49   10.00
  -7   2   7  157.18   13.10
  -7   2   7  134.79   14.60
  -7   2   7  151.88   20.50
   6  -2  -7  244.88   13.30
  -6   2   7  291.27   23.60
  -6   2   7  257.77   16.40
   5  -2  -7  456.35   19.10
  -5   2   7  443.56   21.20
  -5   2   7  430.96   28.30
   4  -2  -7  695.83   26.80
  -4   2   7  700.93   25.60
  -4   2   7  716.43   35.00
  -4   2   7  691.53   27.90
   3  -2  -7 1384.96   46.40
   3  -2  -7 1330.67   42.90
  -3   2   7 1354.26   45.80
  -3   2   7 1241.28   51.89
  -3   2   7 1288.97   45.00
  -3   2   7 1405.46   46.50
  -3   2   7 1246.28   45.80
   2  -2  -7  219.88   10.90
   2  -2  -7  199.78   12.80
  -2   2   7  209.98   11.00
  -2   2   7  209.78   15.70
  -2   2   7  207.08   11.20
  -2   2   7  233.28   12.30
  -2   2   7  208.98   12.80
   1  -2  -7 1817.02   62.69
   1  -2  -7 1894.31   63.89
   1  -2  -7 1826.62   59.69
  -1   2   7 1889.91   60.89
  -1   2   7 1757.52   64.19
  -1   2   7 1904.41   66.29
   0  -2  -7   73.29    9.60
   0  -2  -7   93.89   10.70
   0   2   7   98.79   10.40
   0   2   7   81.89   10.20
   0   2   7   64.39    9.30
   0   2   7   76.69    9.80
  -1  -2  -7 1098.29   43.80
  -1  -2  -7 1071.89   42.40
   1   2   7 1079.69   44.70
   1   2   7 1158.58   41.90
   1   2   7 1056.89   41.30
   1   2   7 1065.89   44.20
  -2  -2  -7  107.89   12.20
  -2  -2  -7  143.39   15.10
   2   2   7  152.18   16.20
   2   2   7  109.09   13.90
   2   2   7  135.89   12.80
  -3  -2  -7 1176.08   47.70
  -3  -2  -7 1099.99   44.70
   3   2   7 1083.59   42.10
   3   2   7  998.40   46.40
  -4  -2  -7  416.26   25.10
  -4  -2  -7  470.85   27.40
   4   2   7  399.76   26.40
   4   2   7  422.86   21.90
  -5  -2  -7  155.78   18.50
  -5  -2  -7  179.18   17.70
   5   2   7  189.18   21.10
   5   2   7  145.09   13.70
  -6  -2  -7  558.44   33.30
  -6  -2  -7  680.53   36.30
   6   2   7  600.74   35.80
   6   2   7  613.74   29.00
  -7  -2  -7   13.70   10.20
  -7  -2  -7    8.50    9.80
   7   2   7   -5.80    8.70
   7   2   7   -5.20    5.80
  -8  -2  -7  340.67   31.60
  -8  -2  -7  277.97   27.40
   8   2   7  276.87   28.20
   8   2   7  374.36   22.50
   9   2   7   41.10   13.80
  12  -3  -7   41.50    9.10
 -12   3   7   62.39   12.00
 -12   3   7   77.69   16.70
  11  -3  -7   -1.50    5.50
 -11   3   7   -1.40    8.40
 -11   3   7    8.70    7.00
  10  -3  -7  105.09   11.20
 -10   3   7   88.09   16.70
 -10   3   7  116.89   16.60
 -10   3   7  109.39   12.50
   9  -3  -7   36.70    6.70
  -9   3   7   30.50    7.60
  -9   3   7   36.80    9.30
  -9   3   7   14.60   10.10
   8  -3  -7  109.39    9.90
  -8   3   7  140.09   12.80
  -8   3   7  151.38   15.80
  -8   3   7  145.69   21.30
   7  -3  -7  338.97   16.30
  -7   3   7  338.47   19.80
  -7   3   7  276.07   27.20
   6  -3  -7  167.58   11.00
  -6   3   7  186.38   13.40
  -6   3   7  186.18   21.50
   5  -3  -7  873.61   32.90
  -5   3   7  946.31   42.90
  -5   3   7  884.61   32.20
  -5   3   7  883.91   34.60
   4  -3  -7   12.40    4.70
  -4   3   7    7.50    3.80
  -4   3   7    7.10    7.50
   3  -3  -7 1075.09   37.80
   3  -3  -7 1145.09   41.20
  -3   3   7 1141.89   39.90
  -3   3   7 1129.39   39.30
  -3   3   7 1186.38   45.80
  -3   3   7 1073.09   39.90
   2  -3  -7  219.58   12.30
   2  -3  -7  219.18   14.00
  -2   3   7  237.98   15.50
  -2   3   7  233.28   13.70
   1  -3  -7 1342.57   49.00
   1  -3  -7 1379.86   49.60
  -1   3   7 1344.57   49.99
  -1   3   7 1400.86   50.99
  -1   3   7 1394.66   49.90
  -1   3   7 1347.47   50.59
   0  -3  -7 1578.54   56.59
   0  -3  -7 1586.94   57.59
   0   3   7 1531.35   56.19
   0   3   7 1570.94   57.89
   0   3   7 1599.84   56.69
   0   3   7 1552.04   59.29
  -1  -3  -7  587.44   29.50
  -1  -3  -7  593.84   28.20
   1   3   7  618.64   30.00
   1   3   7  618.64   31.20
   1   3   7  680.23   28.20
   1   3   7  588.14   26.40
  -2  -3  -7 1024.30   42.00
  -2  -3  -7 1007.80   44.30
   2   3   7  960.00   43.70
   2   3   7 1041.60   45.90
   2   3   7 1030.20   40.30
  -3  -3  -7  153.48   16.20
  -3  -3  -7  178.78   18.90
   3   3   7  142.39   13.50
   3   3   7  142.09   17.20
   3   3   7  156.88   18.20
  -4  -3  -7  975.30   43.80
  -4  -3  -7 1169.68   49.40
   4   3   7 1001.30   40.90
   4   3   7  916.21   46.70
  -5  -3  -7   33.50   11.40
  -5  -3  -7   69.39   14.50
   5   3   7   34.90   12.40
   5   3   7   28.40    8.90
  -6  -3  -7  658.23   37.30
  -6  -3  -7  722.43   40.60
   6   3   7  734.23   33.10
   6   3   7  701.53   40.70
  -7  -3  -7  191.48   23.40
  -7  -3  -7  175.78   21.70
   7   3   7  133.19   19.90
   7   3   7  177.08   17.70
  -8  -3  -7  106.79   22.30
   8   3   7  156.58   16.90
   8   3   7  185.78   24.00
  12  -4  -7   33.10    8.20
 -12   4   7   18.40    8.20
 -12   4   7   30.30   12.50
  11  -4  -7   19.30    6.90
 -11   4   7   39.70   10.90
 -11   4   7   32.80    8.80
  10  -4  -7   82.59    9.80
 -10   4   7  119.59   13.30
 -10   4   7   99.19   19.20
 -10   4   7   92.19   14.90
   9  -4  -7  158.78   12.00
  -9   4   7  150.48   13.70
  -9   4   7  180.68   18.30
  -9   4   7  141.99   21.90
   8  -4  -7    2.80    4.50
  -8   4   7   22.80   12.30
  -8   4   7    7.30    6.30
   7  -4  -7  312.47   16.00
  -7   4   7  304.27   28.30
  -7   4   7  295.07   18.30
   6  -4  -7   11.00    4.70
  -6   4   7    6.90    4.90
  -6   4   7    4.50    4.00
  -6   4   7   12.40    9.60
   5  -4  -7  517.75   22.30
  -5   4   7  541.75   22.90
  -5   4   7  482.75   27.80
   4  -4  -7  382.36   18.10
  -4   4   7  349.57   21.70
  -4   4   7  328.27   16.10
   3  -4  -7  291.07   16.40
   3  -4  -7  277.97   14.00
  -3   4   7  303.97   19.10
  -3   4   7  290.47   15.30
  -3   4   7  304.37   15.20
   2  -4  -7 1044.70   37.50
   2  -4  -7  987.70   38.30
  -2   4   7  994.90   38.10
  -2   4   7 1006.20   38.50
  -2   4   7  998.90   40.40
  -2   4   7  975.80   38.90
   1  -4  -7    3.80    5.90
   1  -4  -7   11.50    5.80
  -1   4   7    0.10    5.60
  -1   4   7    6.50    5.30
  -1   4   7   15.00    6.40
  -1   4   7   18.00    6.10
   0  -4  -7  930.91   37.70
   0  -4  -7  915.61   38.90
   0   4   7  918.81   36.70
   0   4   7  900.91   38.30
   0   4   7  922.41   40.80
   0   4   7  923.31   37.60
  -1  -4  -7    3.80    6.90
  -1  -4  -7    6.00    6.90
   1   4   7   10.70    7.50
   1   4   7    8.20    6.10
   1   4   7   15.80    7.50
   1   4   7    8.20    5.40
  -2  -4  -7  964.20   41.60
  -2  -4  -7  987.30   45.30
   2   4   7 1067.29   41.00
   2   4   7  935.71   44.00
   2   4   7 1064.79   47.20
  -3  -4  -7  272.17   20.20
  -3  -4  -7  277.57   23.30
   3   4   7  260.47   17.90
   3   4   7  264.17   21.80
  -4  -4  -7  455.35   27.80
  -4  -4  -7  497.15   32.10
   4   4   7  456.15   30.80
   4   4   7  492.25   25.10
  -5  -4  -7  391.46   26.90
  -5  -4  -7  386.26   30.00
   5   4   7  341.57   28.80
   5   4   7  393.66   23.00
  -6  -4  -7  194.88   24.00
  -6  -4  -7  178.08   21.30
   6   4   7  221.08   19.00
   6   4   7  174.98   24.00
  -7  -4  -7  238.18   25.10
   7   4   7  253.37   21.90
   7   4   7  260.07   28.80
  12  -5  -7   -3.90    6.40
 -12   5   7  -11.30    8.10
 -12   5   7    2.10    7.00
  11  -5  -7   71.19   10.10
 -11   5   7   79.89   14.60
  10  -5  -7    4.00    5.30
 -10   5   7   11.50   12.20
 -10   5   7    7.00    8.40
   9  -5  -7  176.78   13.00
  -9   5   7  213.18   26.70
  -9   5   7  198.28   18.80
   8  -5  -7  147.49   11.70
  -8   5   7  184.48   24.20
  -8   5   7  136.49   15.20
   7  -5  -7  178.58   12.20
  -7   5   7  192.68   14.50
  -7   5   7  199.28   22.10
   6  -5  -7  346.37   18.00
  -6   5   7  385.76   19.70
  -6   5   7  391.56   25.50
   5  -5  -7    6.20    5.20
  -5   5   7   28.50    9.50
   4  -5  -7  577.64   25.70
  -4   5   7  587.34   29.50
   3  -5  -7   48.20    7.00
   3  -5  -7   40.30    7.60
  -3   5   7   35.90    8.80
  -3   5   7   42.50    7.00
  -3   5   7   40.60    6.80
   2  -5  -7  779.92   31.60
   2  -5  -7  766.62   31.50
  -2   5   7  730.73   32.00
  -2   5   7  786.72   34.00
  -2   5   7  783.72   31.70
  -2   5   7  744.83   33.20
   1  -5  -7  254.47   16.70
   1  -5  -7  287.27   18.20
  -1   5   7  253.17   19.10
  -1   5   7  276.07   18.00
  -1   5   7  263.17   17.30
  -1   5   7  266.77   17.00
   0  -5  -7  572.64   29.20
   0  -5  -7  591.04   28.00
   0   5   7  638.94   29.00
   0   5   7  562.74   31.60
   0   5   7  555.64   26.50
   0   5   7  561.44   28.40
  -1  -5  -7  416.96   23.50
  -1  -5  -7  419.16   26.70
   1   5   7  421.66   27.90
   1   5   7  417.76   23.10
   1   5   7  392.86   24.40
  -2  -5  -7  122.89   16.70
  -2  -5  -7  132.39   15.00
   2   5   7  136.09   14.20
   2   5   7  112.39   15.30
  -3  -5  -7  692.13   34.70
  -3  -5  -7  787.82   41.10
   3   5   7  812.72   33.80
   3   5   7  655.33   38.00
  -4  -5  -7    9.80   11.60
  -4  -5  -7    9.70    9.00
   4   5   7   17.60    7.60
   4   5   7   14.70   10.10
  -5  -5  -7  753.22   44.20
  -5  -5  -7  657.83   37.00
   5   5   7  747.33   34.00
   5   5   7  702.73   42.50
  -6  -5  -7   27.60   13.20
   6   5   7   15.30   13.00
   6   5   7   33.40    9.60
 -12   6   7   21.80   11.10
 -11   6   7   97.69   23.30
 -11   6   7   77.69   14.60
 -10   6   7   38.30   11.30
 -10   6   7   49.90   17.70
  -9   6   7   38.70   14.90
  -9   6   7   53.29   11.00
  -8   6   7  261.97   27.30
  -8   6   7  254.17   17.80
  -8   6   7  250.47   17.10
  -7   6   7   17.00    9.40
  -7   6   7    9.50    5.80
  -6   6   7  390.86   25.90
  -5   6   7   39.60    9.60
  -4   6   7  432.46   24.50
   3  -6  -7  118.79   11.70
  -3   6   7  112.19   13.60
  -3   6   7  127.49   11.90
  -3   6   7  105.89   11.20
   2  -6  -7  304.87   18.90
  -2   6   7  306.47   18.00
  -2   6   7  346.57   19.80
  -2   6   7  325.27   21.30
  -2   6   7  294.17   19.10
   1  -6  -7  350.66   22.70
  -1   6   7  397.06   21.80
  -1   6   7  390.06   25.00
  -1   6   7  452.85   23.90
  -1   6   7  406.46   22.40
   0  -6  -7   32.20    9.50
   0   6   7   35.30    8.00
   0   6   7   48.00    9.50
   0   6   7   40.30    9.20
  -1  -6  -7  607.84   34.30
   1   6   7  645.14   33.50
   1   6   7  650.33   31.30
  -2  -6  -7   63.49   14.40
   2   6   7   71.49   11.20
   2   6   7   59.59   12.70
  -3  -6  -7  479.35   34.40
   3   6   7  571.54   35.00
   3   6   7  610.24   28.80
  -4  -6  -7  179.58   24.60
   4   6   7  173.48   16.50
   4   6   7  157.78   22.00
   5   6   7  180.18   24.80
   5   6   7  175.28   17.10
 -11   7   7   -5.50    8.10
 -11   7   7    8.20   17.10
 -10   7   7   83.09   20.00
 -10   7   7   59.49   12.70
  -9   7   7   40.20   15.10
  -9   7   7   36.50    9.80
  -8   7   7   99.99   17.10
  -7   7   7   86.19   15.30
  -6   7   7  133.49   17.30
  -5   7   7  166.68   17.50
  -4   7   7   66.19   12.40
   3  -7  -7  390.46   21.50
  -3   7   7  358.86   22.60
  -3   7   7  370.96   21.20
  -3   7   7  368.16   20.40
   2  -7  -7    5.00    6.20
  -2   7   7    9.00    5.50
  -2   7   7   -0.90    5.70
  -2   7   7   15.10    6.50
   1  -7  -7  520.25   29.00
  -1   7   7  526.05   28.20
  -1   7   7  508.45   26.80
  -1   7   7  577.84   28.40
   0  -7  -7  117.59   16.20
   0   7   7  152.18   16.20
   0   7   7  118.49   13.80
   0   7   7  111.19   14.60
  -1  -7  -7  221.08   23.50
   1   7   7  225.38   20.10
   1   7   7  186.28   20.30
  -2  -7  -7  248.48   26.50
   2   7   7  268.97   22.00
   2   7   7  227.18   23.50
  -3  -7  -7   32.80   13.50
   3   7   7   47.50   10.40
   3   7   7   63.09   15.70
   4   7   7  283.47   20.50
   4   7   7  284.47   30.10
 -11   8   7  -12.30   14.10
 -10   8   7    1.80   13.80
  -9   8   7   78.39   18.90
  -8   8   7   46.60   14.40
  -7   8   7  198.28   22.40
  -6   8   7    5.70    7.90
  -5   8   7  244.18   22.90
  -4   8   7   64.99   12.40
   3  -8  -7  327.67   21.80
  -3   8   7  324.07   21.90
  -3   8   7  313.07   19.70
  -3   8   7  308.07   20.60
   2  -8  -7  364.66   24.70
  -2   8   7  376.56   23.20
  -2   8   7  385.96   23.80
  -2   8   7  385.86   24.10
   1  -8  -7  135.09   17.80
  -1   8   7  135.39   16.30
  -1   8   7  118.39   15.00
  -1   8   7  120.49   14.70
   0  -8  -7  295.47   25.50
   0   8   7  347.87   24.50
   0   8   7  367.96   24.60
  -1  -8  -7    5.10   10.40
   1   8   7   16.30    9.20
   1   8   7    6.10    9.10
   2   8   7  338.87   28.10
   2   8   7  336.67   23.40
   3   8   7  -13.80    9.60
   3   8   7   -4.00    7.10
 -11   9   7   56.39   19.50
 -10   9   7    8.10   15.20
  -9   9   7  112.59   20.80
  -8   9   7    1.60   10.20
  -7   9   7   27.40   12.20
  -6   9   7   28.00   11.20
  -5   9   7   54.69   13.50
  -4   9   7  182.28   19.20
   3  -9  -7   13.70    9.00
  -3   9   7    7.60    8.30
  -3   9   7   -5.50    6.40
  -3   9   7   17.90    8.20
   2  -9  -7  280.47   24.10
  -2   9   7  286.87   21.30
  -2   9   7  335.17   23.40
  -2   9   7  307.57   22.40
   1  -9  -7   -0.90   10.00
  -1   9   7   15.00    8.90
  -1   9   7   -0.70    7.50
  -1   9   7   16.40    8.80
   0  -9  -7  171.08   22.60
   0   9   7  157.48   19.10
   0   9   7  163.28   18.80
   1   9   7   57.39   12.40
   1   9   7   64.49   15.30
 -10  10   7    5.70   15.80
  -9  10   7   48.10   16.70
  -8  10   7   23.10   13.40
  -7  10   7   -0.10    9.70
  -6  10   7   65.99   14.40
  -5  10   7   -2.60    8.80
  -4  10   7  156.58   19.30
  -3  10   7   16.20    9.90
  -3  10   7   20.30   10.00
  -3  10   7   18.50    9.30
   2 -10  -7   65.89   18.60
  -2  10   7  135.49   17.80
  -2  10   7   94.19   15.10
  -2  10   7  112.69   16.70
  -1  10   7  135.29   18.10
  -1  10   7  137.99   18.60
  -8  11   7   21.30   13.70
  -7  11   7   -5.20   10.20
  -6  11   7   68.49   16.30
  -5  11   7    3.90   10.80
  -4  11   7   43.70   14.20
  -3  11   7   86.29   16.40
  -2  11   7   -9.00    9.30
   0  13  -8   75.49   13.80
   0 -13   8   50.19   13.70
  -1  13  -8   19.30    9.30
  -2  13  -8   64.09   12.40
  -2  13  -8   94.89   12.80
  -3  13  -8   -0.30    5.50
  -3  13  -8    1.50    8.10
  -4  13  -8  120.79   13.00
  -4  13  -8  126.69   19.50
  -4  13  -8  129.29   17.50
  -5  13  -8    2.80    9.30
  -5  13  -8    5.50   16.10
  -5  13  -8    0.80    6.20
  -6  13  -8   65.69   14.40
   2  12  -8   87.09   14.00
  -2 -12   8   88.19   15.00
   1  12  -8    6.30    4.70
   1  12  -8   -2.70    7.30
  -1 -12   8    0.60    8.20
   0  12  -8   89.49   13.90
   0  12  -8   85.39    9.60
   0 -12   8   68.69   13.70
  -1  12  -8    3.90    6.90
  -1  12  -8   15.70    5.90
   1 -12   8   10.40    9.00
  -2  12  -8  143.79   12.70
  -2  12  -8  112.29   17.80
  -2  12  -8  105.39   14.40
   2 -12   8  146.59   18.10
  -3  12  -8  104.29   11.20
  -3  12  -8   94.69   14.20
  -3  12  -8   78.29   16.30
   3 -12   8   89.89   14.70
  -4  12  -8  106.09   17.80
  -4  12  -8   88.09   10.90
  -4  12  -8   93.99   15.00
  -5  12  -8   97.99   18.90
  -5  12  -8   96.79   11.60
  -5  12  -8   79.29   14.40
  -6  12  -8   13.50   11.50
  -6  12  -8    6.20    9.10
  -7  12  -8  123.49   23.30
   4  11  -8  115.29   15.20
  -4 -11   8   98.19   15.20
   3  11  -8   -1.10    6.80
   3  11  -8    0.00    3.70
  -3 -11   8   -4.50    8.00
   2  11  -8   94.79   14.00
   2  11  -8  128.29    9.30
  -2 -11   8   78.89   14.00
   1  11  -8  100.49    9.30
   1  11  -8   89.79   13.90
  -1 -11   8   88.99   14.80
   0  11  -8   97.79   13.90
   0  11  -8   81.29    8.90
   0  11  -8  109.19   17.70
   0 -11   8  120.19   16.10
  -1  11  -8  128.19   15.00
  -1  11  -8  155.38   11.40
  -1  11  -8  146.19   20.20
   1 -11   8  163.08   17.60
  -2  11  -8   34.30    9.60
  -2  11  -8   35.40    6.70
  -2  11  -8   47.40   12.90
   2 -11   8   33.80   10.10
  -3  11  -8  230.78   18.50
  -3  11  -8  200.58   23.00
  -3  11  -8  180.68   13.50
   3 -11   8  225.78   21.50
  -4  11  -8   -7.50    4.20
  -4  11  -8   19.60   10.90
  -4  11  -8    4.10    7.80
   4 -11   8    1.60    7.50
  -5  11  -8  191.18   23.60
  -5  11  -8  193.68   15.90
  -5  11  -8  221.28   20.40
  -6  11  -8  114.99   19.40
  -6  11  -8  153.98   18.30
  -7  11  -8  127.39   22.50
  -8  11  -8   91.89   19.60
   5  10  -8   35.20    4.70
   5  10  -8   28.30    9.50
  -5 -10   8   30.10   10.00
   4  10  -8  120.99    8.10
   4  10  -8  123.59   15.40
  -4 -10   8   99.09   15.00
   3  10  -8   94.59   13.10
   3  10  -8  118.09    8.30
  -3 -10   8  140.59   17.00
   2  10  -8   33.00    5.10
   2  10  -8   36.20   13.50
   2  10  -8   17.40    8.00
  -2 -10   8   27.10    9.00
   1  10  -8  296.87   14.30
   1  10  -8  279.77   24.40
   1  10  -8  308.07   20.00
  -1 -10   8  286.37   21.10
   0  10  -8   17.50   10.50
   0  10  -8   13.60    6.60
   0  10  -8    8.80    3.70
   0 -10   8   10.10    6.90
  -1  10  -8  301.97   24.70
  -1  10  -8  234.08   17.80
  -1  10  -8  268.07   14.20
   1 -10   8  277.57   20.10
  -2  10  -8   23.50    7.90
  -2  10  -8   19.90    5.00
  -2  10  -8   24.50   11.40
   2 -10   8   24.70    8.50
  -3  10  -8  245.08   14.60
  -3  10  -8  259.07   18.40
  -3  10  -8  220.48   23.80
   3 -10   8  251.27   19.00
  -4  10  -8  110.59   11.10
  -4  10  -8  127.79   19.50
  -4  10  -8  128.09   14.60
   4 -10   8  152.98   16.50
  -5  10  -8   72.49    9.40
  -5  10  -8   56.29   11.30
  -5  10  -8   67.39   15.30
   5 -10   8   53.99   10.80
  -6  10  -8  253.37   27.00
  -7  10  -8   17.40   13.60
  -8  10  -8  168.68   24.90
  -9  10  -8   -0.90   11.10
   5   9  -8  145.49   15.70
   5   9  -8  144.99    7.70
  -5  -9   8  130.39   16.50
   4   9  -8   -1.40    2.40
   4   9  -8   12.60    7.20
  -4  -9   8    3.20    7.20
   3   9  -8  205.68   24.30
   3   9  -8  227.28   10.80
   3   9  -8  219.18   17.00
  -3  -9   8  261.87   19.40
   2   9  -8   84.89    7.00
   2   9  -8   67.39   10.40
   2   9  -8   76.49   15.60
  -2  -9   8   83.19   12.70
   1   9  -8  260.67   17.60
   1   9  -8  276.67   26.90
   1   9  -8  274.27   12.70
  -1  -9   8  242.08   18.60
   0   9  -8  185.98   21.20
   0   9  -8  125.09    9.00
   0   9  -8  146.49   14.30
   0  -9   8  149.59   16.00
  -1   9  -8  150.58   10.00
  -1   9  -8  170.78   21.20
  -1   9  -8  162.28   14.80
   1  -9   8  146.09   15.30
  -2   9  -8  330.67   25.90
  -2   9  -8  329.57   19.90
  -2   9  -8  349.96   16.50
   2  -9   8  316.67   20.40
  -3   9  -8   73.59   10.80
  -3   9  -8   74.49   14.50
  -3   9  -8   84.49    8.80
   3  -9   8   71.59   11.30
  -4   9  -8  470.55   21.00
  -4   9  -8  474.55   30.20
  -4   9  -8  420.96   23.30
   4  -9   8  401.06   23.80
  -5   9  -8   10.50    9.20
  -5   9  -8    1.80    4.90
  -5   9  -8    6.90    6.20
   5  -9   8   -1.80    4.80
  -6   9  -8  333.67   27.50
  -7   9  -8   35.20   13.30
  -8   9  -8   82.89   18.00
  -9   9  -8  136.59   22.40
   6   8  -8   14.30    7.50
  -6  -8   8    6.90    6.70
   5   8  -8  159.88   15.80
   5   8  -8  139.19   21.80
   5   8  -8  145.39    7.40
  -5  -8   8  153.38   26.70
  -5  -8   8  184.08   18.00
   4   8  -8   58.69   16.10
   4   8  -8   40.70    9.00
   4   8  -8   67.39    5.20
  -4  -8   8   65.69   19.30
  -4  -8   8   56.89   10.80
   3   8  -8  168.08   15.00
   3   8  -8  147.79    7.90
   3   8  -8  155.08   21.20
  -3  -8   8  135.99   14.90
   2   8  -8  250.77   25.10
   2   8  -8  259.67   11.40
   2   8  -8  242.28   15.80
  -2  -8   8  238.88   17.60
   1   8  -8   59.19   12.80
   1   8  -8   36.90    7.70
   1   8  -8   52.69    5.50
  -1  -8   8   54.49    9.50
   0   8  -8  437.46   28.80
   0   8  -8  424.96   17.40
   0   8  -8  399.26   21.40
   0  -8   8  423.46   23.40
  -1   8  -8    1.70    3.10
  -1   8  -8   -3.20    8.20
  -1   8  -8   -4.90    3.80
   1  -8   8    9.60    5.50
  -2   8  -8  680.33   30.80
  -2   8  -8  753.12   28.00
  -2   8  -8  735.93   37.70
   2  -8   8  722.53   32.80
  -3   8  -8   88.09   10.80
  -3   8  -8   80.49    8.40
  -3   8  -8   88.49   14.40
   3  -8   8   90.19   11.70
  -4   8  -8  456.55   22.80
  -4   8  -8  435.46   28.30
  -4   8  -8  427.76   20.30
   4  -8   8  450.35   23.30
  -5   8  -8  350.66   19.60
  -5   8  -8  334.87   18.50
  -5   8  -8  309.17   25.00
   5  -8   8  319.27   19.40
  -6   8  -8  122.99   18.30
  -7   8  -8  333.57   27.80
  -8   8  -8   24.60   12.00
  -9   8  -8  318.87   32.30
 -10   8  -8   19.90   14.50
   7   7  -8   54.19   17.30
  -7  -7   8   49.00   20.80
   6   7  -8   68.09    5.00
   6   7  -8   45.90   15.10
  -6  -7   8   88.89   22.30
  -6  -7   8   66.39   11.90
   5   7  -8   93.49   17.40
   5   7  -8   87.19    5.30
  -5  -7   8  111.79   14.10
  -5  -7   8   90.29   20.50
   4   7  -8  286.67   27.80
   4   7  -8  244.78   10.20
  -4  -7   8  239.48   17.70
  -4  -7   8  269.57   31.70
   3   7  -8    2.90    2.20
   3   7  -8    3.20    9.30
  -3  -7   8   -2.90    4.50
  -3  -7   8   -4.90    9.80
   2   7  -8  411.36   28.00
   2   7  -8  415.76   15.80
  -2  -7   8  406.06   22.70
  -2  -7   8  393.66   30.70
   1   7  -8   68.99    6.00
   1   7  -8   69.99   12.90
  -1  -7   8   68.19   10.30
   0   7  -8  553.34   32.20
   0   7  -8  601.84   22.20
   0  -7   8  569.34   27.70
  -1   7  -8  265.57   21.40
  -1   7  -8  263.17   12.90
   1  -7   8  261.97   17.00
  -2   7  -8  275.87   21.50
  -2   7  -8  262.87   15.80
  -2   7  -8  271.57   13.60
   2  -7   8  278.07   17.10
  -3   7  -8  630.44   24.70
  -3   7  -8  585.94   32.40
  -3   7  -8  615.04   26.90
   3  -7   8  579.54   27.60
  -4   7  -8   13.20    8.70
  -4   7  -8   11.70    5.80
  -4   7  -8   12.20    4.80
   4  -7   8    7.70    4.80
  -5   7  -8  690.83   36.50
  -6   7  -8   50.79   12.20
  -7   7  -8  306.67   27.80
   7  -7   8  248.68   15.40
  -8   7  -8   73.49   16.10
   8  -7   8   40.40    8.30
  -9   7  -8  106.49   19.60
   9  -7   8  162.08   15.80
 -10   7  -8  112.39   21.00
  10  -7   8   82.89   13.50
  11  -7   8    7.60    9.30
   8   6  -8  125.19   22.30
   8   6  -8  142.49   15.30
  -8  -6   8  100.59   24.90
  -8  -6   8  131.79   16.30
   7   6  -8   16.40    6.40
   7   6  -8   19.90   13.90
  -7  -6   8    6.10    6.00
  -7  -6   8    5.20    6.50
  -7  -6   8   14.30   14.60
   6   6  -8  272.87   28.00
   6   6  -8  212.78   13.80
  -6  -6   8  225.88   29.80
  -6  -6   8  239.08   17.40
  -6  -6   8  216.08   15.40
   5   6  -8   21.90    3.00
   5   6  -8   26.90    5.60
   5   6  -8   16.40   10.40
  -5  -6   8   17.00    5.70
  -5  -6   8   25.90   13.50
  -5  -6   8   25.90    7.60
   4   6  -8  344.67   16.30
   4   6  -8  357.66   26.50
   4   6  -8  346.77   13.10
  -4  -6   8  376.36   30.20
  -4  -6   8  323.57   20.50
   3   6  -8  208.68    9.10
   3   6  -8  194.08   11.50
   3   6  -8  233.18   22.80
  -3  -6   8  226.18   25.70
  -3  -6   8  206.08   15.70
   2   6  -8  322.37   15.00
   2   6  -8  326.47   13.00
   2   6  -8  322.17   23.00
  -2  -6   8  320.47   25.50
  -2  -6   8  301.67   19.10
   1   6  -8  937.41   42.00
   1   6  -8  918.61   33.20
   1   6  -8  906.51   31.00
  -1  -6   8  841.12   37.10
   0   6  -8   38.30    4.80
   0   6  -8   37.30   10.50
   0   6  -8   54.59    7.50
   0  -6   8   30.70    7.30
  -1   6  -8  808.62   29.70
  -1   6  -8  770.02   37.20
  -1   6  -8  891.61   32.60
   1  -6   8  818.32   34.50
  -2   6  -8   60.79   11.30
  -2   6  -8   35.30    5.30
  -2   6  -8   31.80    7.30
   2  -6   8   38.20    7.50
  -3   6  -8 1131.19   42.50
  -3   6  -8 1163.88   48.60
  -3   6  -8 1141.19   43.00
  -3   6  -8 1221.28   41.70
   3  -6   8 1157.58   44.00
  -4   6  -8  231.48   13.30
  -4   6  -8  215.78   14.60
  -4   6  -8  204.68   13.40
  -4   6  -8  227.48   20.60
   4  -6   8  209.08   13.80
  -5   6  -8  520.65   24.50
  -5   6  -8  530.05   29.50
   5  -6   8  518.55   28.20
   5  -6   8  494.95   21.10
  -6   6  -8  338.97   19.90
  -6   6  -8  361.76   25.30
   6  -6   8  407.96   25.70
   6  -6   8  350.16   18.00
  -7   6  -8   90.79   15.90
  -7   6  -8   91.39   12.40
   7  -6   8   86.99   14.90
   7  -6   8   85.49   10.40
  -8   6  -8  304.27   28.60
  -8   6  -8  299.97   20.40
   8  -6   8  309.57   26.30
   8  -6   8  251.77   18.70
  -9   6  -8   19.90    9.60
  -9   6  -8   20.60   12.50
   9  -6   8    3.80    7.10
   9  -6   8   14.40   11.60
 -10   6  -8  224.58   27.50
  10  -6   8  208.68   20.30
  10  -6   8  231.28   27.70
  11  -6   8   -3.20    8.30
  11  -6   8    9.50   12.90
   9   5  -8   10.80    7.30
   9   5  -8   10.80   12.40
  -9  -5   8    7.60    7.40
  -9  -5   8   10.60   15.70
   8   5  -8  200.88   15.00
   8   5  -8  171.38   23.00
  -8  -5   8  186.88   17.20
  -8  -5   8  215.08   30.60
   7   5  -8   21.10   11.50
   7   5  -8   23.70    6.70
  -7  -5   8   28.40   14.80
  -7  -5   8   13.90    6.70
  -7  -5   8   30.40    7.90
   6   5  -8  175.38   11.90
   6   5  -8  148.99   18.70
  -6  -5   8  174.68   13.80
  -6  -5   8  191.28   24.50
  -6  -5   8  189.68   15.30
   5   5  -8  301.17   23.20
   5   5  -8  276.07   11.90
   5   5  -8  282.97   14.60
  -5  -5   8  279.97   18.60
  -5  -5   8  293.67   16.20
  -5  -5   8  293.47   29.20
   4   5  -8  154.48    9.80
   4   5  -8  145.99    7.60
   4   5  -8  161.38   19.30
  -4  -5   8  146.49   15.10
  -4  -5   8  145.79   20.90
   3   5  -8  724.03   24.80
   3   5  -8  707.13   35.30
   3   5  -8  727.93   27.10
  -3  -5   8  669.03   31.60
  -3  -5   8  750.02   38.90
   2   5  -8   -2.00    7.30
   2   5  -8    2.30    3.40
   2   5  -8    0.30    2.30
  -2  -5   8   -0.60    4.10
  -2  -5   8    1.20    8.20
   1   5  -8  831.12   31.40
   1   5  -8  848.62   29.60
   1   5  -8  944.71   39.40
  -1  -5   8  895.11   42.10
  -1  -5   8  769.12   34.90
   0   5  -8    3.70    2.70
   0   5  -8    4.30    4.80
   0   5  -8    6.40    7.30
   0  -5   8   13.50    5.50
  -1   5  -8  796.22   31.50
  -1   5  -8  787.32   29.00
  -1   5  -8  788.52   35.30
   1  -5   8  805.12   33.10
  -2   5  -8  848.72   31.00
  -2   5  -8  821.52   33.40
  -2   5  -8  843.52   37.20
   2  -5   8  838.22   33.70
  -3   5  -8  375.96   17.40
  -3   5  -8  378.06   20.00
  -3   5  -8  349.17   22.50
   3  -5   8  362.86   14.50
   3  -5   8  354.66   20.60
   3  -5   8  370.36   18.40
  -4   5  -8  868.11   36.00
  -4   5  -8  840.62   38.50
  -4   5  -8  879.61   35.90
  -4   5  -8  955.80   34.50
   4  -5   8  856.11   39.10
   4  -5   8  894.71   32.10
  -5   5  -8   29.00    9.60
  -5   5  -8   28.10    7.70
   5  -5   8   16.80    5.20
   5  -5   8   28.20    8.90
  -6   5  -8  787.72   38.40
  -6   5  -8  749.53   34.20
   6  -5   8  835.02   41.30
   6  -5   8  743.73   31.80
  -7   5  -8    1.70    6.70
  -7   5  -8   16.50    9.60
   7  -5   8   13.10    6.30
   7  -5   8    6.70    9.90
  -8   5  -8  377.36   27.90
  -8   5  -8  377.96   25.10
   8  -5   8  336.77   29.40
   8  -5   8  351.26   22.30
  -9   5  -8  105.89   16.00
  -9   5  -8  101.89   18.30
   9  -5   8  101.39   20.10
   9  -5   8   98.59   13.80
 -10   5  -8  111.29   17.70
 -10   5  -8  133.49   18.60
 -10   5  -8  184.78   24.60
  10  -5   8  115.69   15.30
  10  -5   8  140.59   23.30
  11  -5   8  123.39   16.40
  11  -5   8  104.89   21.40
  10   4  -8   60.09   10.50
 -10  -4   8   41.60   10.70
 -10  -4   8   43.80   17.90
   9   4  -8  103.99   12.00
  -9  -4   8  138.89   23.80
  -9  -4   8  123.69   14.50
   8   4  -8   29.60    7.40
  -8  -4   8   48.10    9.30
  -8  -4   8   43.90   15.00
   7   4  -8  156.98   12.10
  -7  -4   8  179.58   22.40
  -7  -4   8  160.38   15.80
  -7  -4   8  165.98   14.90
   6   4  -8    1.50    4.30
  -6  -4   8    1.50    5.10
  -6  -4   8   11.10    5.40
  -6  -4   8   10.60    8.70
   5   4  -8  503.25   27.30
   5   4  -8  458.45   20.20
  -5  -4   8  481.65   25.30
  -5  -4   8  455.85   29.10
  -5  -4   8  498.05   22.30
   4   4  -8   18.90    4.30
   4   4  -8    4.50    7.30
  -4  -4   8   21.70    9.20
  -4  -4   8   12.90    6.50
   3   4  -8  748.73   26.20
   3   4  -8  738.03   34.50
   3   4  -8  725.43   27.70
  -3  -4   8  771.92   37.60
  -3  -4   8  724.43   33.10
   2   4  -8  480.25   25.80
   2   4  -8  482.45   19.80
   2   4  -8  475.65   18.60
  -2  -4   8  501.65   24.90
  -2  -4   8  470.05   27.70
   1   4  -8  354.46   16.40
   1   4  -8  359.36   15.10
   1   4  -8  401.36   21.80
  -1  -4   8  320.07   19.30
  -1  -4   8  333.77   22.50
   0   4  -8  588.34   27.40
   0   4  -8  563.54   21.70
   0   4  -8  546.35   23.60
   0  -4   8  521.25   25.60
  -1   4  -8   26.90    6.10
  -1   4  -8   49.00    6.10
  -1   4  -8   27.90    7.20
   1  -4   8   36.90    7.30
   1  -4   8   38.80    6.70
  -2   4  -8 1581.84   57.99
  -2   4  -8 1659.23   60.49
  -2   4  -8 1666.13   56.09
   2  -4   8 1645.64   52.79
   2  -4   8 1648.94   58.19
   2  -4   8 1677.13   59.99
  -3   4  -8    4.20    5.90
  -3   4  -8   12.30    7.00
  -3   4  -8   -1.10    2.10
   3  -4   8    0.90    5.80
   3  -4   8    5.00    3.80
   3  -4   8    3.90    3.30
  -4   4  -8  885.31   36.20
  -4   4  -8  868.61   37.80
   4  -4   8  774.62   39.20
   4  -4   8  873.31   32.60
  -5   4  -8  519.65   26.70
  -5   4  -8  557.74   28.70
   5  -4   8  539.85   32.00
   5  -4   8  534.55   24.50
  -6   4  -8  193.48   18.80
  -6   4  -8  161.78   16.10
   6  -4   8  193.08   15.90
   6  -4   8  159.68   20.30
  -7   4  -8  314.57   22.30
  -7   4  -8  342.07   24.00
   7  -4   8  310.37   20.20
   7  -4   8  277.77   29.00
  -8   4  -8  137.59   17.10
  -8   4  -8  126.79   16.00
  -8   4  -8   95.39   16.10
   8  -4   8  125.59   14.60
   8  -4   8  122.19   20.80
  -9   4  -8  435.76   29.60
  -9   4  -8  444.06   30.80
  -9   4  -8  482.05   30.00
   9  -4   8  433.96   27.10
   9  -4   8  461.85   36.40
 -10   4  -8   13.10   10.70
 -10   4  -8   -1.90   10.50
  10  -4   8   -8.80   11.20
  10  -4   8   13.80    9.00
  11  -4   8  167.18   18.90
  11  -4   8  101.19   22.50
  10   3  -8   -3.90    5.70
 -10  -3   8   -0.80    6.90
 -10  -3   8    6.90   11.20
   9   3  -8  170.88   14.50
  -9  -3   8  133.19   14.90
  -9  -3   8  209.08   25.40
   8   3  -8    9.60    5.10
  -8  -3   8    9.80    6.30
  -8  -3   8    3.40    8.80
  -8  -3   8   12.70    7.10
   7   3  -8  244.38   14.50
  -7  -3   8  257.37   16.40
  -7  -3   8  247.08   24.60
  -7  -3   8  230.98   17.50
   6   3  -8  168.88   11.40
  -6  -3   8  184.28   20.30
  -6  -3   8  165.58   12.60
  -6  -3   8  179.28   17.10
   5   3  -8  572.04   22.80
  -5  -3   8  569.04   31.00
  -5  -3   8  551.64   24.30
  -5  -3   8  556.64   28.60
   4   3  -8  771.72   28.20
  -4  -3   8  748.93   35.90
  -4  -3   8  720.53   34.00
   3   3  -8   90.79   11.20
   3   3  -8   83.19    7.80
  -3  -3   8   87.29   12.60
  -3  -3   8   85.19   11.50
   2   3  -8 1500.85   52.29
   2   3  -8 1561.34   57.59
  -2  -3   8 1526.85   58.59
  -2  -3   8 1627.64   60.79
   1   3  -8   11.70    5.70
   1   3  -8    0.90    3.90
  -1  -3   8    9.90    5.80
  -1  -3   8    8.60    2.30
  -1  -3   8   19.30    6.70
   0   3  -8 1863.91   63.59
   0   3  -8 1973.80   66.19
   0  -3   8 1839.72   66.89
   0  -3   8 1786.42   63.19
  -1   3  -8  779.32   30.90
  -1   3  -8  721.73   31.60
   1  -3   8  768.02   32.00
   1  -3   8  751.82   31.60
   1  -3   8  775.82   25.90
  -2   3  -8 1135.99   43.50
  -2   3  -8 1131.09   43.00
   2  -3   8 1122.49   39.10
   2  -3   8 1114.59   42.20
   2  -3   8 1162.78   45.80
  -3   3  -8  774.02   32.90
  -3   3  -8  724.43   32.30
   3  -3   8  782.92   36.70
   3  -3   8  761.82   30.70
   3  -3   8  783.52   29.70
   3  -3   8  760.42   29.70
  -4   3  -8  121.99   13.10
  -4   3  -8  150.48   14.60
   4  -3   8  122.79   11.20
   4  -3   8  115.49   10.80
   4  -3   8  130.99   17.70
  -5   3  -8  799.42   35.70
  -5   3  -8  815.82   36.10
   5  -3   8  777.62   33.20
   5  -3   8  810.92   41.50
   5  -3   8  785.82   32.10
  -6   3  -8   54.89   11.30
  -6   3  -8   50.89   10.80
   6  -3   8   48.20    8.20
   6  -3   8   63.29   14.00
   6  -3   8   56.49    9.80
  -7   3  -8  553.54   30.20
  -7   3  -8  561.64   31.20
  -7   3  -8  501.55   29.60
   7  -3   8  509.95   27.10
   7  -3   8  511.65   25.40
   7  -3   8  583.84   36.20
  -8   3  -8   41.00   12.50
  -8   3  -8   48.00   10.90
   8  -3   8   47.70    9.40
   8  -3   8   43.60    8.70
   8  -3   8   41.40   14.20
  -9   3  -8  224.18   24.00
  -9   3  -8  305.27   23.50
   9  -3   8  302.57   21.90
   9  -3   8  284.87   20.00
   9  -3   8  318.67   31.90
 -10   3  -8  103.69   18.60
  10  -3   8  102.19   15.10
  10  -3   8   88.59   19.60
  11  -3   8   68.19   22.30
  11  -3   8   79.29   13.60
  11   2  -8   87.69   12.10
 -11  -2   8  115.29   21.70
 -11  -2   8   78.39   13.50
  10   2  -8   21.00    7.40
 -10  -2   8   14.10   12.10
 -10  -2   8   15.30    8.10
   9   2  -8   86.59   10.60
  -9  -2   8   72.09   11.20
  -9  -2   8   66.59   15.50
   8   2  -8   60.19    8.30
  -8  -2   8   66.99   13.70
  -8  -2   8   73.89   11.70
  -8  -2   8   76.89   10.50
   7   2  -8   75.99    8.90
  -7  -2   8   84.79   10.40
  -7  -2   8   67.29   11.40
  -7  -2   8   64.89   12.10
   6   2  -8  555.94   23.00
  -6  -2   8  557.84   29.50
  -6  -2   8  550.34   24.70
  -6  -2   8  528.25   29.00
   5   2  -8   26.10    5.50
  -5  -2   8   26.40    5.90
  -5  -2   8   26.20    7.80
  -5  -2   8   19.90    8.10
   4   2  -8 1120.79   39.10
  -4  -2   8 1102.49   45.30
  -4  -2   8 1102.89   47.40
   3   2  -8  175.28   12.80
   3   2  -8  146.89    9.60
  -3  -2   8  184.38   14.70
  -3  -2   8  196.28   19.20
   2   2  -8 1057.29   36.90
   2   2  -8 1007.40   39.70
  -2  -2   8 1045.30   42.00
  -2  -2   8  966.20   43.30
   1   2  -8  482.65   20.80
   1   2  -8  477.55   22.30
  -1  -2   8  486.95   20.10
  -1  -2   8  488.85   24.30
  -1  -2   8  431.66   24.40
   0   2  -8  610.94   26.20
   0   2  -8  632.44   25.70
   0  -2   8  619.54   26.30
   0  -2   8  622.14   21.50
   0  -2   8  575.44   28.20
  -1   2  -8 1742.93   59.29
  -1   2  -8 1688.83   58.69
   1  -2   8 1680.93   61.59
   1  -2   8 1686.83   55.69
   1  -2   8 1661.83   57.99
   1  -2   8 1608.14   60.09
  -2   2  -8  252.67   15.20
  -2   2  -8  272.87   16.10
   2  -2   8  227.18   14.20
   2  -2   8  247.18   14.90
   2  -2   8  230.08   13.50
   2  -2   8  262.27   18.80
  -3   2  -8 1014.40   38.40
  -3   2  -8 1035.90   40.40
   3  -2   8  984.30   37.10
   3  -2   8  829.42   36.20
   3  -2   8 1020.40   44.30
  -4   2  -8   40.10    9.70
  -4   2  -8   37.80    7.70
   4  -2   8   22.10    6.10
   4  -2   8   42.90    7.30
   4  -2   8   21.30    9.40
  -5   2  -8  592.04   28.40
  -5   2  -8  562.94   29.60
  -5   2  -8  583.24   30.00
   5  -2   8  587.64   26.90
   5  -2   8  611.04   34.10
   5  -2   8  553.24   25.50
  -6   2  -8  120.69   14.70
  -6   2  -8  133.09   16.50
  -6   2  -8  132.49   15.50
   6  -2   8  129.39   18.40
   6  -2   8  150.28   14.00
   6  -2   8  150.88   13.70
  -7   2  -8  294.17   21.90
  -7   2  -8  316.87   23.60
   7  -2   8  308.27   26.20
   7  -2   8  288.87   19.30
   7  -2   8  307.97   18.70
  -8   2  -8  395.86   28.90
  -8   2  -8  441.16   27.50
   8  -2   8  417.86   23.50
   8  -2   8  447.96   24.50
   8  -2   8  428.06   31.60
  -9   2  -8   39.40   13.80
  -9   2  -8   47.10   12.20
   9  -2   8   44.50   10.50
   9  -2   8   46.70    9.90
   9  -2   8   73.69   16.70
  10  -2   8  243.08   27.70
  10  -2   8  253.37   22.20
  11   1  -8   13.80    7.50
 -11  -1   8   22.20    8.80
 -11  -1   8   31.90   13.70
  10   1  -8  108.99   11.70
 -10  -1   8  116.49   18.80
 -10  -1   8  124.49   15.10
   9   1  -8    8.40    5.20
  -9  -1   8   -1.90    5.10
  -9  -1   8    7.40    9.30
  -9  -1   8   12.70    7.00
   8   1  -8  320.07   17.00
  -8  -1   8  317.47   23.20
  -8  -1   8  351.76   22.70
  -8  -1   8  333.27   19.40
   7   1  -8   70.59    8.10
  -7  -1   8   79.89   12.40
  -7  -1   8   80.39   13.80
  -7  -1   8   68.29    9.20
   6   1  -8  286.77   14.70
  -6  -1   8  302.87   19.60
  -6  -1   8  302.17   22.50
  -6  -1   8  292.07   16.40
   5   1  -8  326.77   15.40
  -5  -1   8  327.37   19.90
  -5  -1   8  331.17   23.80
   4   1  -8  260.47   12.80
  -4  -1   8  255.87   16.20
  -4  -1   8  214.78   21.30
   3   1  -8 1280.87   43.50
  -3  -1   8 1233.18   52.49
  -3  -1   8 1212.58   47.10
   2   1  -8   37.90    6.30
   2   1  -8   33.90    6.40
  -2  -1   8   19.60    7.10
  -2  -1   8   24.60    4.30
  -2  -1   8   29.40    7.10
   1   1  -8 1819.92   62.49
   1   1  -8 1864.11   62.49
  -1  -1   8 1789.22   64.29
  -1  -1   8 1780.62   62.09
  -1  -1   8 1820.22   67.59
  -1  -1   8 1821.82   58.09
   0   1  -8   42.40    7.00
   0   1  -8   47.40    6.80
   0  -1   8   49.60    7.10
   0  -1   8   58.79   10.10
   0  -1   8   47.10    5.90
   0  -1   8   49.99    8.60
  -1   1  -8 1816.32   63.69
  -1   1  -8 1879.41   61.99
   1  -1   8 1836.12   66.89
   1  -1   8 1776.62   62.49
   1  -1   8 1816.12   61.19
   1  -1   8 1786.82   64.49
  -2   1  -8  267.07   14.70
  -2   1  -8  258.87   16.30
  -2   1  -8  255.67   16.60
   2  -1   8  277.07   14.70
   2  -1   8  248.78   18.50
   2  -1   8  254.07   15.10
  -3   1  -8  772.72   34.50
  -3   1  -8  801.32   34.60
  -3   1  -8  755.62   31.20
   3  -1   8  793.92   36.90
   3  -1   8  788.82   31.00
   3  -1   8  782.82   31.90
  -4   1  -8  707.03   30.80
  -4   1  -8  646.54   32.70
  -4   1  -8  761.32   34.20
   4  -1   8  718.93   30.50
   4  -1   8  787.92   37.30
   4  -1   8  780.22   30.30
  -5   1  -8  359.26   22.40
  -5   1  -8  299.67   22.10
   5  -1   8  389.76   25.70
   5  -1   8  312.87   18.70
   5  -1   8  366.26   18.90
  -6   1  -8  857.31   40.30
  -6   1  -8  889.41   41.30
   6  -1   8  911.81   44.10
   6  -1   8  857.51   36.00
   6  -1   8  911.01   36.10
  -7   1  -8   -0.60    8.40
  -7   1  -8   -5.50    5.30
   7  -1   8    3.00    8.50
   7  -1   8   11.40    6.40
   7  -1   8    1.40    5.10
  -8   1  -8  484.65   30.10
  -8   1  -8  495.65   32.50
   8  -1   8  440.96   24.80
   8  -1   8  490.05   33.10
  -9   1  -8   36.00   10.80
  -9   1  -8   36.40   15.70
   9  -1   8   38.70    9.70
   9  -1   8   57.69   15.50
  10  -1   8  103.39   19.60
  10  -1   8  133.79   16.10
  11   0  -8   -2.00    5.60
 -11   0   8   15.30   12.20
 -11   0   8   11.00    8.40
  10   0  -8  114.69   11.90
 -10   0   8  160.78   16.10
 -10   0   8  143.59   19.00
   9   0  -8   29.80    7.20
  -9   0   8   37.00    8.30
  -9   0   8   40.00   11.00
  -9   0   8   36.70   11.10
   8   0  -8  234.28   14.40
  -8   0   8  239.28   23.40
  -8   0   8  243.38   16.50
  -8   0   8  221.68   18.60
   7   0  -8  251.87   13.90
  -7   0   8  244.88   15.60
  -7   0   8  250.07   18.20
  -7   0   8  215.18   22.60
   6   0  -8  156.78   10.80
  -6   0   8  179.78   14.90
  -6   0   8  166.28   19.50
  -6   0   8  159.18   11.80
   5   0  -8 1025.50   36.80
  -5   0   8 1043.50   47.50
  -5   0   8 1001.20   40.90
   4   0  -8    0.30    3.80
  -4   0   8    0.30    4.30
  -4   0   8   13.80    8.30
   3   0  -8  884.51   33.00
  -3   0   8  939.31   41.60
  -3   0   8  867.71   30.90
  -3   0   8  919.11   35.60
   2   0  -8  319.17   16.10
   2   0  -8  322.17   14.40
   2   0  -8  314.27   15.60
  -2   0   8  285.27   14.90
  -2   0   8  302.47   16.50
  -2   0   8  312.77   20.50
  -2   0   8  288.87   11.00
  -2   0   8  300.57   12.80
   1   0  -8 1187.08   43.80
   1   0  -8 1243.18   43.10
   1   0  -8 1165.58   42.50
  -1   0   8 1193.98   41.80
  -1   0   8 1178.78   44.20
  -1   0   8 1213.48   41.60
  -1   0   8 1190.88   44.70
  -1   0   8 1242.78   47.80
  -1   0   8 1172.28   42.60
   0   0  -8 1761.32   60.19
   0   0  -8 1638.44   57.19
   0   0  -8 1729.13   59.79
   0   0   8 1757.22   61.89
   0   0   8 1625.94   58.69
   0   0   8 1740.03   57.69
   0   0   8 1686.13   61.79
  -1   0  -8  309.57   18.40
  -1   0  -8  303.97   17.50
  -1   0  -8  304.97   14.80
   1   0   8  338.77   17.90
   1   0   8  295.27   19.00
   1   0   8  301.67   15.50
  -2   0  -8 1358.46   52.69
  -2   0  -8 1321.77   48.50
  -2   0  -8 1424.56   53.29
   2   0   8 1471.65   55.89
   2   0   8 1480.65   49.99
   2   0   8 1436.26   51.59
  -3   0  -8   28.80    9.20
  -3   0  -8   42.10    8.70
   3   0   8   35.50    6.30
   3   0   8   44.90   10.60
   3   0   8   28.80    6.90
  -4   0  -8 1607.14   60.39
  -4   0  -8 1506.15   59.99
   4   0   8 1659.13   63.29
   4   0   8 1522.75   54.89
   4   0   8 1528.75   56.49
  -5   0  -8   83.79   14.20
  -5   0  -8  117.69   14.60
   5   0   8   97.89   14.70
   5   0   8   97.89   10.50
   5   0   8   70.39   10.10
  -6   0  -8  709.83   37.30
  -6   0  -8  795.32   37.70
   6   0   8  711.83   32.50
   6   0   8  777.12   39.70
  -7   0  -8  150.48   18.60
  -7   0  -8  125.49   16.90
   7   0   8   93.69   12.40
   7   0   8  107.39   17.30
  -8   0  -8  263.47   24.70
  -8   0  -8  222.88   23.60
   8   0   8  228.18   24.50
   8   0   8  198.68   18.20
  -9   0  -8  154.48   22.90
   9   0   8  145.89   16.80
   9   0   8  153.38   21.60
  12  -1  -8   23.50    8.80
 -12   1   8   31.90   10.50
 -12   1   8   46.50   15.30
  11  -1  -8   12.80    7.00
 -11   1   8   21.00   11.80
 -11   1   8   35.30    9.20
  10  -1  -8   24.90    7.30
 -10   1   8   31.30   10.80
 -10   1   8   39.30    9.20
   9  -1  -8  204.58   14.70
  -9   1   8  263.77   25.40
  -9   1   8  256.57   21.00
  -9   1   8  264.07   17.70
   8  -1  -8    0.70    4.50
  -8   1   8   14.80    6.30
  -8   1   8   11.90    9.00
  -8   1   8   12.90    6.90
   7  -1  -8  285.97   15.00
  -7   1   8  318.67   20.10
  -7   1   8  275.77   27.00
  -7   1   8  276.57   16.10
   6  -1  -8    9.10    4.50
  -6   1   8   11.50    8.90
  -6   1   8   12.00    6.30
   5  -1  -8  927.41   34.30
  -5   1   8  899.81   37.10
  -5   1   8  969.60   45.20
   4  -1  -8  353.86   17.00
  -4   1   8  354.06   18.50
  -4   1   8  386.66   25.40
   3  -1  -8  368.16   18.00
  -3   1   8  386.96   17.30
  -3   1   8  395.66   24.50
  -3   1   8  430.46   16.40
  -3   1   8  389.46   18.90
   2  -1  -8 1384.86   49.30
   2  -1  -8 1287.17   46.40
   2  -1  -8 1359.06   47.40
  -2   1   8 1485.75   47.40
  -2   1   8 1329.67   45.40
  -2   1   8 1342.07   47.60
  -2   1   8 1426.06   54.49
  -2   1   8 1423.16   49.50
  -2   1   8 1359.16   48.80
   1  -1  -8   76.69    9.50
   1  -1  -8   64.39    8.20
   1  -1  -8   84.89    7.60
  -1   1   8   78.49    8.40
  -1   1   8   75.39   11.00
  -1   1   8   60.89    7.10
  -1   1   8   74.79    9.60
  -1   1   8   98.59   10.10
  -1   1   8   75.49    8.20
   0  -1  -8  888.31   31.50
   0  -1  -8  892.21   35.80
   0  -1  -8  877.01   35.50
   0   1   8  902.11   33.40
   0   1   8  892.41   36.80
   0   1   8  869.11   36.80
  -1  -1  -8   67.19    9.70
  -1  -1  -8   71.79   10.30
   1   1   8   70.49    9.70
   1   1   8   63.19   10.30
   1   1   8   72.59    9.20
   1   1   8   87.19    8.80
  -2  -1  -8 1135.39   45.20
  -2  -1  -8 1032.70   44.00
   2   1   8 1113.09   46.40
   2   1   8 1075.29   42.20
   2   1   8 1130.49   40.60
  -3  -1  -8  617.04   30.00
  -3  -1  -8  512.15   28.00
   3   1   8  523.05   29.80
   3   1   8  598.34   26.90
   3   1   8  581.04   24.70
  -4  -1  -8  547.25   29.50
  -4  -1  -8  576.04   29.70
   4   1   8  505.85   30.10
   4   1   8  517.25   26.00
   4   1   8  568.04   24.50
  -5  -1  -8  712.93   34.80
  -5  -1  -8  606.44   34.00
   5   1   8  673.53   36.00
   5   1   8  660.33   30.20
  -6  -1  -8   89.09   15.10
  -6  -1  -8  114.79   16.50
   6   1   8  103.19   16.30
   6   1   8  106.59   12.90
  -7  -1  -8  386.26   29.00
  -7  -1  -8  400.66   27.70
   7   1   8  383.66   28.70
   7   1   8  387.06   23.30
  -8  -1  -8    2.40    9.20
  -8  -1  -8    4.80   11.90
   8   1   8   11.90    7.30
   8   1   8    2.50    9.10
   9   1   8  286.67   21.90
   9   1   8  293.27   29.30
  12  -2  -8    7.10    7.10
 -12   2   8    8.30    7.80
 -12   2   8    6.50   10.10
  11  -2  -8  103.59   12.50
 -11   2   8  123.09   18.50
 -11   2   8   91.89   13.10
  10  -2  -8   35.00    7.20
 -10   2   8   40.00   12.90
 -10   2   8   26.80   11.20
 -10   2   8   39.90    9.20
   9  -2  -8  180.28   13.20
  -9   2   8  137.19   20.20
  -9   2   8  179.88   18.50
  -9   2   8  208.98   15.60
   8  -2  -8  152.38   12.00
  -8   2   8  203.08   18.90
  -8   2   8  173.38   13.50
  -8   2   8  191.28   23.20
   7  -2  -8  276.27   15.30
  -7   2   8  321.47   26.20
  -7   2   8  283.07   18.80
   6  -2  -8  909.51   34.10
  -6   2   8  929.91   37.80
  -6   2   8  872.11   44.70
   5  -2  -8  164.88   11.10
  -5   2   8  148.69   18.30
  -5   2   8  134.79   11.80
   4  -2  -8 1096.09   38.70
  -4   2   8 1062.59   36.30
  -4   2   8  943.91   45.90
  -4   2   8 1037.40   39.40
   3  -2  -8   82.49    9.00
   3  -2  -8   71.89    8.90
  -3   2   8   64.99    8.10
  -3   2   8   82.49    8.00
  -3   2   8   51.09   10.90
  -3   2   8   86.09    8.50
   2  -2  -8 1118.99   38.00
   2  -2  -8 1070.09   38.40
   2  -2  -8 1068.49   40.80
  -2   2   8 1123.19   39.50
  -2   2   8 1084.89   45.30
  -2   2   8 1066.89   38.60
  -2   2   8 1031.50   40.80
  -2   2   8 1057.49   39.70
  -2   2   8 1092.39   39.10
   1  -2  -8  131.89   11.50
   1  -2  -8  115.09   11.50
  -1   2   8  162.08   15.40
  -1   2   8  156.78   11.30
  -1   2   8  138.39   11.60
  -1   2   8  129.19   13.00
   0  -2  -8  725.03   31.80
   0  -2  -8  743.53   31.40
   0   2   8  629.24   31.90
   0   2   8  762.02   32.50
   0   2   8  714.33   32.00
   0   2   8  760.72   30.90
   0   2   8  722.73   29.00
  -1  -2  -8  632.34   30.20
  -1  -2  -8  626.64   29.60
   1   2   8  576.14   30.50
   1   2   8  628.54   28.70
   1   2   8  680.63   28.60
   1   2   8  609.24   26.30
   1   2   8  664.53   31.40
  -2  -2  -8  463.75   25.30
  -2  -2  -8  468.55   26.50
   2   2   8  464.55   23.10
   2   2   8  448.66   21.40
   2   2   8  411.16   26.00
   2   2   8  496.35   27.20
  -3  -2  -8  822.72   38.30
  -3  -2  -8  882.51   39.90
   3   2   8  810.22   35.30
   3   2   8  918.21   41.00
   3   2   8  796.52   40.10
   3   2   8  825.72   33.60
  -4  -2  -8    8.80    8.90
  -4  -2  -8   14.20    8.30
   4   2   8    1.00    5.60
   4   2   8    2.80    7.60
  -5  -2  -8  651.83   35.80
  -5  -2  -8  720.03   37.20
   5   2   8  679.83   32.10
   5   2   8  732.43   38.90
  -6  -2  -8   77.69   15.20
  -6  -2  -8   58.99   13.80
   6   2   8   53.69   10.40
   6   2   8   64.89   14.10
  -7  -2  -8  381.76   29.40
  -7  -2  -8  386.36   29.10
   7   2   8  395.06   29.80
   7   2   8  337.17   23.40
  -8  -2  -8  214.68   25.80
   8   2   8  223.98   20.80
   8   2   8  192.38   23.60
  12  -3  -8    5.90    6.60
 -12   3   8    8.70   10.40
 -12   3   8   -4.40    7.70
  11  -3  -8   35.60    8.20
 -11   3   8   48.00   10.40
 -11   3   8   44.50   12.50
  10  -3  -8  128.99   12.20
 -10   3   8  137.09   21.40
 -10   3   8  168.68   16.00
 -10   3   8  157.68   19.00
   9  -3  -8   45.00    7.70
  -9   3   8   41.70   10.80
  -9   3   8   41.40   14.50
   8  -3  -8  336.17   17.40
  -8   3   8  314.67   30.20
  -8   3   8  316.67   21.20
   7  -3  -8    5.90    4.50
  -7   3   8    0.50    5.30
  -7   3   8    9.50   10.20
   6  -3  -8  668.73   27.20
  -6   3   8  707.73   38.60
  -6   3   8  651.23   29.40
   5  -3  -8  106.89    9.90
  -5   3   8   85.49   14.40
  -5   3   8   96.39    8.30
  -5   3   8  106.99   10.50
   4  -3  -8  500.75   23.00
  -4   3   8  480.25   29.00
  -4   3   8  506.95   22.10
  -4   3   8  520.65   22.00
   3  -3  -8  722.13   30.30
   3  -3  -8  702.03   26.60
  -3   3   8  719.63   29.30
  -3   3   8  726.03   34.40
   2  -3  -8  345.57   18.90
   2  -3  -8  341.97   17.00
  -2   3   8  355.36   18.90
  -2   3   8  329.97   17.90
  -2   3   8  356.76   21.80
  -2   3   8  335.67   17.60
   1  -3  -8  527.85   24.90
   1  -3  -8  567.94   25.50
  -1   3   8  550.84   27.30
  -1   3   8  523.15   25.10
  -1   3   8  522.15   26.00
  -1   3   8  518.05   25.70
   0  -3  -8   88.19   11.80
   0  -3  -8  112.39   12.60
   0   3   8   91.09   11.00
   0   3   8   97.29   12.40
   0   3   8   80.39   11.30
   0   3   8   82.69   11.40
  -1  -3  -8 1254.27   49.90
  -1  -3  -8 1286.67   51.79
   1   3   8 1219.78   51.89
   1   3   8 1310.77   48.90
   1   3   8 1281.97   49.10
   1   3   8 1312.87   52.79
  -2  -3  -8   37.20   10.30
  -2  -3  -8   18.70    8.60
   2   3   8   29.10    9.60
   2   3   8   29.40    9.20
   2   3   8   20.50    6.80
  -3  -3  -8  767.02   36.80
  -3  -3  -8  802.12   39.10
   3   3   8  747.63   33.30
   3   3   8  747.23   39.30
  -4  -3  -8  498.75   29.80
  -4  -3  -8  389.86   26.10
   4   3   8  399.56   28.70
   4   3   8  369.76   22.70
  -5  -3  -8  208.28   22.00
  -5  -3  -8  152.68   19.00
   5   3   8  117.99   18.40
   5   3   8  143.59   15.60
  -6  -3  -8  211.38   23.30
  -6  -3  -8  237.88   25.00
   6   3   8  231.38   25.50
   6   3   8  228.08   20.20
  -7  -3  -8   19.60   13.00
   7   3   8   23.70   12.10
   7   3   8   35.00   10.60
  12  -4  -8   39.30    9.20
 -12   4   8   55.99   14.00
 -12   4   8   52.99   10.70
  11  -4  -8    7.70    6.00
 -11   4   8    3.60    9.00
  10  -4  -8   95.79   10.70
 -10   4   8   94.79   14.90
 -10   4   8   72.19   17.20
   9  -4  -8   12.10    5.70
  -9   4   8   32.50   13.90
  -9   4   8   15.20    8.50
   8  -4  -8  154.68   12.90
  -8   4   8  196.08   24.70
  -8   4   8  136.89   15.20
   7  -4  -8  160.78   11.80
  -7   4   8  194.58   23.30
  -7   4   8  173.08   14.30
   6  -4  -8  199.98   13.10
  -6   4   8  195.08   14.20
  -6   4   8  182.88   11.40
  -6   4   8  183.08   20.70
   5  -4  -8  646.84   26.70
  -5   4   8  622.04   26.20
  -5   4   8  575.54   25.30
  -5   4   8  573.94   33.20
   4  -4  -8    6.90    5.40
  -4   4   8   10.80    8.00
   3  -4  -8  843.72   34.00
   3  -4  -8  806.82   31.50
  -3   4   8  912.31   38.80
  -3   4   8  800.72   33.50
  -3   4   8  887.01   34.00
   2  -4  -8    4.40    4.60
   2  -4  -8    3.80    5.60
  -2   4   8    1.80    5.00
  -2   4   8    0.60    5.00
  -2   4   8    0.20    4.10
  -2   4   8   -4.90    5.10
   1  -4  -8 1397.66   51.49
   1  -4  -8 1379.76   50.49
  -1   4   8 1293.97   52.49
  -1   4   8 1318.47   50.79
  -1   4   8 1369.86   52.19
  -1   4   8 1289.47   51.49
   0  -4  -8  445.36   24.00
   0  -4  -8  417.46   24.80
   0   4   8  457.05   23.30
   0   4   8  439.76   23.40
   0   4   8  432.66   25.80
   0   4   8  410.46   24.20
  -1  -4  -8  653.13   34.20
  -1  -4  -8  663.73   31.90
   1   4   8  654.53   34.90
   1   4   8  720.53   31.20
   1   4   8  653.23   33.70
  -2  -4  -8  628.94   31.70
  -2  -4  -8  645.84   34.30
   2   4   8  637.14   29.40
   2   4   8  566.84   33.40
  -3  -4  -8   56.89   12.50
  -3  -4  -8   50.69   13.00
   3   4   8   62.79   13.70
   3   4   8   61.89   10.30
  -4  -4  -8  662.83   35.30
  -4  -4  -8  698.93   38.60
   4   4   8  547.95   36.40
   4   4   8  654.13   30.90
  -5  -4  -8   16.70    9.90
  -5  -4  -8   12.70   10.20
   5   4   8    7.40   10.50
   5   4   8   17.20    7.30
  -6  -4  -8  314.47   28.70
   6   4   8  360.96   23.20
   6   4   8  344.07   32.60
   7   4   8   50.19   16.30
   7   4   8   27.40   13.00
  12  -5  -8   44.90   13.40
 -12   5   8   47.70   13.60
  11  -5  -8   31.70    8.00
 -11   5   8   37.40   16.80
 -11   5   8   39.80   12.60
  10  -5  -8   70.19    9.60
 -10   5   8   82.89   13.90
 -10   5   8   71.89   18.40
   9  -5  -8   84.79   10.30
  -9   5   8   86.59   20.50
  -9   5   8   80.69   12.60
   8  -5  -8   63.99    8.80
  -8   5   8   46.20   14.50
  -8   5   8   57.19   10.20
   7  -5  -8  360.86   18.50
  -7   5   8  328.57   26.20
  -7   5   8  299.77   18.80
  -7   5   8  307.27   15.60
   6  -5  -8   10.00    5.70
  -6   5   8   17.10    9.90
   5  -5  -8  481.15   23.70
  -5   5   8  487.05   28.90
   4  -5  -8  271.37   16.90
  -4   5   8  256.37   19.90
   3  -5  -8  535.15   24.40
   3  -5  -8  496.05   22.80
  -3   5   8  470.95   23.80
  -3   5   8  503.15   23.80
  -3   5   8  501.35   27.40
   2  -5  -8  314.27   18.50
   2  -5  -8  319.27   18.50
  -2   5   8  284.07   19.70
  -2   5   8  298.47   19.60
  -2   5   8  288.57   18.60
  -2   5   8  302.37   18.70
   1  -5  -8  243.38   17.90
   1  -5  -8  212.48   16.70
  -1   5   8  234.28   18.40
  -1   5   8  227.38   16.90
  -1   5   8  223.88   16.80
  -1   5   8  221.78   18.10
   0  -5  -8  707.33   33.60
   0  -5  -8  779.22   36.70
   0   5   8  792.62   38.50
   0   5   8  771.52   34.60
   0   5   8  703.53   35.10
   0   5   8  729.33   33.30
  -1  -5  -8    8.60    8.80
  -1  -5  -8    5.80    7.40
   1   5   8   18.30    8.40
   1   5   8   14.60    7.00
  -2  -5  -8  854.91   43.00
  -2  -5  -8  813.62   38.80
   2   5   8  890.01   37.20
   2   5   8  797.32   41.70
  -3  -5  -8   77.39   13.60
  -3  -5  -8   57.09   15.10
   3   5   8   77.19   15.40
   3   5   8   95.49   12.40
  -4  -5  -8  338.27   26.10
  -4  -5  -8  344.07   28.90
   4   5   8  304.17   29.80
   4   5   8  309.07   20.70
  -5  -5  -8   36.00   12.30
   5   5   8   21.00   13.10
   5   5   8   14.40    8.00
   6   5   8  157.38   17.40
   6   5   8  129.79   22.40
 -11   6   8   54.59   12.90
 -11   6   8   77.09   21.20
 -10   6   8    1.30   12.30
 -10   6   8    5.40    7.70
  -9   6   8  162.28   17.30
  -9   6   8  164.48   24.50
  -8   6   8   25.60   12.70
  -8   6   8   45.70   13.20
  -7   6   8  171.18   21.30
  -6   6   8  207.78   22.10
  -5   6   8  103.69   15.40
  -4   6   8  273.97   21.00
   3  -6  -8   21.10    7.10
  -3   6   8   29.00    7.20
  -3   6   8   28.70    8.60
  -3   6   8   40.60    8.90
   2  -6  -8  386.76   22.20
  -2   6   8  336.57   22.00
  -2   6   8  392.86   23.50
  -2   6   8  383.66   24.40
  -2   6   8  438.06   22.90
   1  -6  -8   75.19   12.20
  -1   6   8   84.69   12.30
  -1   6   8   66.69   11.40
  -1   6   8   60.69   11.20
   0  -6  -8  420.26   27.70
   0   6   8  423.16   24.20
   0   6   8  441.96   26.60
   0   6   8  449.56   25.50
  -1  -6  -8  271.67   25.60
   1   6   8  272.47   22.10
   1   6   8  259.57   19.90
  -2  -6  -8  164.28   21.20
   2   6   8  178.58   21.20
   2   6   8  242.38   19.60
  -3  -6  -8  287.87   29.10
   3   6   8  287.47   20.40
   3   6   8  293.97   29.20
   4   6   8   41.00    9.80
   4   6   8   55.19   15.10
   5   6   8  260.87   33.90
   5   6   8  278.27   24.70
 -11   7   8   39.70   11.00
 -11   7   8   54.49   19.00
 -10   7   8   56.29   19.20
  -9   7   8   66.19   17.80
  -8   7   8  157.98   22.80
  -8   7   8  158.58   13.50
  -7   7   8   37.60   12.70
  -6   7   8  311.67   24.40
  -5   7   8    7.60    8.90
  -4   7   8  332.87   23.50
  -3   7   8   44.70    8.90
  -3   7   8   57.69   11.20
  -3   7   8   50.19   10.00
   2  -7  -8  293.67   21.50
  -2   7   8  299.97   19.90
  -2   7   8  267.57   20.50
  -2   7   8  309.27   20.90
   1  -7  -8  446.56   27.40
  -1   7   8  423.16   25.70
  -1   7   8  424.56   26.10
  -1   7   8  403.66   24.60
   0  -7  -8   76.29   14.30
   0   7   8  106.19   15.00
   0   7   8   89.29   14.50
  -1  -7  -8  539.95   35.20
   1   7   8  582.44   30.30
   1   7   8  505.95   32.40
  -2  -7  -8   -3.80   10.60
   2   7   8   -2.00    8.70
   2   7   8   -2.30    7.60
   3   7   8  300.77   30.60
   3   7   8  278.57   21.00
 -11   8   8  -14.90   15.00
 -10   8   8   98.79   22.10
  -9   8   8   -6.30   12.10
  -8   8   8   79.59   18.00
  -7   8   8   -6.60    8.70
  -6   8   8  133.99   18.80
  -5   8   8   98.59   16.10
  -4   8   8   58.19   13.30
  -3   8   8  365.96   24.50
  -3   8   8  321.77   21.80
  -3   8   8  367.76   37.90
   2  -8  -8   -5.20    7.60
  -2   8   8    0.70    7.20
  -2   8   8   -4.10    7.20
  -2   8   8   -4.00    5.80
   1  -8  -8  392.16   28.30
  -1   8   8  350.36   25.60
  -1   8   8  427.96   26.30
  -1   8   8  354.06   25.50
   0  -8  -8   17.80   12.00
   0   8   8    9.90    8.90
   0   8   8    0.90    8.60
  -1  -8  -8  184.18   23.50
   1   8   8  303.07   24.70
   1   8   8  209.58   23.40
   2   8   8   89.59   17.50
   2   8   8   91.99   14.40
 -11   9   8   67.59   23.30
 -10   9   8   21.40   17.20
  -9   9   8   20.20    8.10
  -9   9   8   18.50   14.80
  -8   9   8   19.00   13.10
  -7   9   8  190.88   23.90
  -6   9   8   -3.60    9.10
  -5   9   8  141.99   19.70
  -4   9   8    7.20    8.90
  -3   9   8  225.78   23.00
   2  -9  -8   76.79   15.20
  -2   9   8   91.09   15.40
  -2   9   8   52.59   12.50
  -2   9   8   93.19   14.70
   1  -9  -8   57.99   14.30
  -1   9   8   81.39   15.40
  -1   9   8   79.09   14.60
   0   9   8  132.79   19.40
   0   9   8  185.08   20.30
  -9  10   8   44.30   17.90
  -8  10   8   12.00   12.40
  -7  10   8  142.99   21.60
  -6  10   8   29.80   12.80
  -5  10   8   39.70   13.70
  -4  10   8  121.49   19.10
  -3  10   8   32.10   12.00
  -2  10   8   76.59   14.90
  -2  10   8  115.29   17.20
  -2  10   8  124.49   18.20
  -1  10   8   11.10   15.20
  -5  11   8   -2.70   11.30
  -4  11   8   71.49   19.60
  -1  13  -9   79.09   14.60
   1 -13   9  106.39   17.30
  -2  13  -9    8.00    8.70
   2 -13   9    3.30    9.40
  -3  13  -9   60.09   13.00
  -3  13  -9   64.89   10.50
  -4  13  -9   83.39   15.30
  -4  13  -9   71.29   11.00
  -5  13  -9   13.20   11.30
  -6  13  -9   44.60   13.40
   2  12  -9   22.00    9.10
  -2 -12   9   -1.60    8.70
   1  12  -9  102.19   14.80
   1  12  -9  102.39   10.50
  -1 -12   9  128.59   18.20
   0  12  -9   83.69   13.70
   0  12  -9   81.19    9.50
   0 -12   9  113.99   16.80
  -1  12  -9   35.10   10.70
  -1  12  -9   58.59   14.30
  -1  12  -9   51.29    7.90
   1 -12   9   34.00   11.70
  -2  12  -9  124.59   20.50
  -2  12  -9  132.69   12.60
  -2  12  -9   97.79   14.30
   2 -12   9  106.09   16.90
  -3  12  -9   16.10    6.70
  -3  12  -9   29.10   13.50
  -3  12  -9   -1.40    8.20
   3 -12   9   21.90    9.70
  -4  12  -9  143.39   22.80
  -4  12  -9  158.78   14.50
  -4  12  -9  162.38   19.40
  -5  12  -9    7.10   11.50
  -5  12  -9    2.50    9.70
  -5  12  -9    0.80    6.30
  -6  12  -9  127.49   23.70
  -6  12  -9   88.59   18.40
   4  11  -9   37.10   11.10
  -4 -11   9   42.80   11.50
   3  11  -9   32.00    5.90
   3  11  -9   43.80   11.00
  -3 -11   9   52.59   12.30
   2  11  -9   76.49   12.80
   2  11  -9   94.49    8.90
  -2 -11   9   87.09   15.10
   1  11  -9   12.30    7.70
   1  11  -9   17.30    5.10
   1  11  -9    9.30   11.20
  -1 -11   9   22.40   10.00
   0  11  -9  160.88   22.40
   0  11  -9  188.38   12.40
   0  11  -9  190.18   18.60
   0 -11   9  166.18   18.80
  -1  11  -9    1.30    4.30
  -1  11  -9    3.20    7.40
  -1  11  -9    6.00   11.40
   1 -11   9    0.10    7.10
  -2  11  -9  248.78   26.10
  -2  11  -9  274.67   15.80
  -2  11  -9  233.38   19.60
   2 -11   9  261.97   21.40
  -3  11  -9   82.89   17.60
  -3  11  -9   45.00   11.30
  -3  11  -9   66.29    9.10
   3 -11   9   69.09   13.50
  -4  11  -9  134.99   16.90
  -4  11  -9  151.08   13.60
  -4  11  -9  102.29   19.40
   4 -11   9  141.19   17.70
  -5  11  -9   92.69   18.40
  -5  11  -9  106.59   15.10
  -5  11  -9   81.39   11.20
  -6  11  -9   67.79   17.20
  -7  11  -9  177.48   25.80
   5  10  -9    7.10    3.70
   5  10  -9   21.60    9.10
  -5 -10   9   18.90    9.50
   4  10  -9  103.19   14.40
   4  10  -9  112.49    8.30
  -4 -10   9  110.39   15.50
   3  10  -9   -4.50    6.30
   3  10  -9    1.60    3.30
   3  10  -9   -1.40   12.60
  -3 -10   9    1.70    8.10
   2  10  -9  216.18   11.70
   2  10  -9  222.78   26.00
   2  10  -9  155.38   16.60
  -2 -10   9  223.68   21.20
   1  10  -9   45.20   10.20
   1  10  -9   42.20    6.20
   1  10  -9   21.70   11.60
  -1 -10   9   31.70    9.90
   0  10  -9  220.88   24.60
   0  10  -9  204.98   17.30
   0  10  -9  250.07   13.20
   0 -10   9  190.78   19.30
  -1  10  -9  174.08   22.20
  -1  10  -9  147.29   10.90
  -1  10  -9  162.88   16.10
   1 -10   9  131.49   15.80
  -2  10  -9   81.79    9.10
  -2  10  -9   59.69   15.10
  -2  10  -9   68.89   11.60
   2 -10   9   46.90   10.70
  -3  10  -9  243.98   26.30
  -3  10  -9  258.47   19.80
  -3  10  -9  300.77   16.50
   3 -10   9  272.47   20.70
  -4  10  -9   11.20   10.50
  -4  10  -9   -3.80    6.80
  -4  10  -9    9.70    5.30
   4 -10   9    2.90    6.60
  -5  10  -9  410.76   31.30
  -5  10  -9  419.96   25.30
  -5  10  -9  386.76   24.10
   5 -10   9  348.77   24.20
  -6  10  -9   -3.90   10.40
  -7  10  -9  192.08   25.60
  -8  10  -9   10.40   14.10
   6   9  -9  143.19   16.50
  -6  -9   9  120.69   16.50
   5   9  -9   29.20    4.50
   5   9  -9   44.60   10.40
  -5  -9   9   31.60   10.10
   4   9  -9  123.69   21.20
   4   9  -9  106.79   13.50
   4   9  -9   93.99    7.30
  -4  -9   9  111.49   15.20
   3   9  -9  131.99    8.40
   3   9  -9  127.49   14.30
   3   9  -9  110.89   19.80
  -3  -9   9   95.09   14.30
   2   9  -9  171.08   16.50
   2   9  -9  152.78   21.10
   2   9  -9  179.18   10.10
  -2  -9   9  181.58   18.80
   1   9  -9  298.97   14.10
   1   9  -9  244.28   26.00
   1   9  -9  288.47   19.00
  -1  -9   9  306.37   21.10
   0   9  -9   10.90    6.10
   0   9  -9   11.90   10.30
   0   9  -9   14.50    4.40
   0  -9   9    8.00    7.00
  -1   9  -9  446.86   30.50
  -1   9  -9  436.46   19.40
  -1   9  -9  428.96   23.70
   1  -9   9  414.76   25.10
  -2   9  -9   42.60   12.90
  -2   9  -9   40.60    6.60
  -2   9  -9   53.09   10.00
   2  -9   9   39.40    9.70
  -3   9  -9  375.36   28.30
  -3   9  -9  379.16   22.80
  -3   9  -9  428.96   20.10
   3  -9   9  454.75   25.10
  -4   9  -9   92.59   16.10
  -4   9  -9   90.29   10.10
  -4   9  -9  106.99   13.30
   4  -9   9  101.19   13.30
  -5   9  -9  287.47   19.50
  -5   9  -9  318.17   26.90
   5  -9   9  303.27   20.20
  -6   9  -9  131.29   19.40
  -7   9  -9   44.40   15.00
  -8   9  -9  273.77   30.20
  -9   9  -9   -9.00   11.00
   6   8  -9   62.29   11.30
   6   8  -9   75.69    6.70
   6   8  -9   61.19   18.50
  -6  -8   9   77.99   13.00
  -6  -8   9   79.09   22.50
   5   8  -9  187.18    9.50
   5   8  -9  165.18   24.20
  -5  -8   9  186.88   18.80
  -5  -8   9  178.68   29.60
   4   8  -9    9.70    3.20
   4   8  -9   21.70   12.40
  -4  -8   9    6.50   12.90
  -4  -8   9    4.70    7.20
   3   8  -9  312.37   29.60
   3   8  -9  306.17   13.40
  -3  -8   9  310.27   21.20
   2   8  -9    9.30    9.90
   2   8  -9    1.60    2.80
  -2  -8   9   -5.00    4.80
   1   8  -9  300.47   24.90
   1   8  -9  308.57   13.80
  -1  -8   9  263.97   18.90
   0   8  -9  127.69    8.80
   0   8  -9  106.09   16.90
   0  -8   9  123.69   14.80
  -1   8  -9  376.46   16.90
  -1   8  -9  368.56   26.80
  -1   8  -9  354.46   20.40
   1  -8   9  348.87   21.80
  -2   8  -9  318.27   16.10
  -2   8  -9  341.97   25.40
  -2   8  -9  309.77   19.10
   2  -8   9  348.67   20.90
  -3   8  -9  101.79   16.20
  -3   8  -9   98.29   11.80
  -3   8  -9  107.39   10.50
   3  -8   9   92.79   12.40
  -4   8  -9  407.96   19.50
  -4   8  -9  385.06   27.50
  -4   8  -9  380.66   21.60
   4  -8   9  354.76   21.70
  -5   8  -9    0.90    9.00
  -6   8  -9  353.36   27.70
  -7   8  -9   58.29   15.50
  -8   8  -9  286.27   29.90
  -9   8  -9   93.39   19.90
   7   7  -9  166.78   24.80
  -7  -7   9  165.08   18.00
  -7  -7   9  157.18   29.80
   6   7  -9   13.60   12.00
  -6  -7   9   20.40    8.80
  -6  -7   9   36.90   16.70
   5   7  -9  153.58   21.60
   5   7  -9  145.69    8.30
  -5  -7   9  202.38   29.20
  -5  -7   9  162.18   17.50
   4   7  -9   77.09   15.80
   4   7  -9   59.29    5.60
  -4  -7   9   54.59   10.70
  -4  -7   9   72.39   18.40
   3   7  -9  397.16   28.60
   3   7  -9  385.76   15.50
  -3  -7   9  369.16   22.50
  -3  -7   9  404.16   33.00
   2   7  -9  248.48   11.60
   2   7  -9  227.88   22.90
  -2  -7   9  285.17   29.40
  -2  -7   9  224.58   17.40
   1   7  -9  127.89    8.40
   1   7  -9  149.69   18.80
  -1  -7   9  127.89   14.40
   0   7  -9  831.52   29.60
   0   7  -9  803.92   40.00
   0  -7   9  761.22   35.60
  -1   7  -9   60.69    6.90
  -1   7  -9   37.70   10.40
   1  -7   9   57.99    9.80
  -2   7  -9  745.53   28.40
  -2   7  -9  686.53   36.40
   2  -7   9  731.33   33.00
  -3   7  -9    1.80    7.90
  -3   7  -9   17.80    4.90
  -3   7  -9   12.00    5.90
   3  -7   9   14.90    6.10
  -4   7  -9  600.94   27.80
  -4   7  -9  613.34   26.10
  -4   7  -9  685.93   34.90
   4  -7   9  590.94   28.40
  -5   7  -9  228.08   23.30
  -6   7  -9  146.29   18.60
  -7   7  -9  391.16   29.40
   7  -7   9  355.36   19.50
  -8   7  -9   55.99   15.40
   8  -7   9   54.09   10.10
  -9   7  -9  167.58   23.60
   9  -7   9  189.28   17.50
 -10   7  -9    1.80   11.90
  10  -7   9   12.10    8.70
  11  -7   9  127.39   17.10
   9   6  -9   65.99   19.90
  -9  -6   9   51.29   24.50
   8   6  -9   17.10    7.50
   8   6  -9   22.90   14.60
  -8  -6   9   -3.60    7.00
  -8  -6   9    9.80   17.30
   7   6  -9  121.49   12.10
   7   6  -9  128.59   21.20
  -7  -6   9  141.49   14.20
  -7  -6   9  118.39   24.50
  -7  -6   9  119.89   15.00
   6   6  -9   99.29   18.60
   6   6  -9   94.19   10.10
  -6  -6   9  106.19   13.70
  -6  -6   9  112.39   22.70
   5   6  -9   80.79    6.90
   5   6  -9   83.69    8.90
   5   6  -9   89.79   17.10
  -5  -6   9   79.49   18.10
  -5  -6   9   71.69   11.70
   4   6  -9  415.46   16.30
   4   6  -9  435.76   28.10
   4   6  -9  389.56   18.70
  -4  -6   9  402.26   23.90
  -4  -6   9  400.66   31.00
   3   6  -9   33.30   11.50
   3   6  -9   23.10    3.90
   3   6  -9   18.50    5.10
  -3  -6   9    6.00    6.40
  -3  -6   9   46.20   14.10
   2   6  -9  707.73   36.10
   2   6  -9  657.83   27.10
   2   6  -9  682.13   25.10
  -2  -6   9  768.22   40.90
  -2  -6   9  669.73   32.40
   1   6  -9   46.10    7.20
   1   6  -9   34.40    4.90
   1   6  -9   38.70   10.10
  -1  -6   9   33.80    8.70
   0   6  -9 1363.26   46.50
   0   6  -9 1342.97   48.80
   0   6  -9 1411.86   55.79
   0  -6   9 1333.27   52.79
  -1   6  -9  258.87   15.80
  -1   6  -9  275.07   20.80
  -1   6  -9  259.87   13.40
   1  -6   9  239.78   16.90
  -2   6  -9  425.06   25.90
  -2   6  -9  438.36   19.40
  -2   6  -9  437.76   22.00
   2  -6   9  441.66   23.00
  -3   6  -9  653.93   33.60
  -3   6  -9  681.13   29.80
  -3   6  -9  677.13   27.00
   3  -6   9  618.84   28.90
  -4   6  -9  183.58   15.70
  -4   6  -9  178.28   13.00
  -4   6  -9  198.88   13.10
  -4   6  -9  210.78   20.10
   4  -6   9  172.08   17.80
   4  -6   9  179.18   14.40
  -5   6  -9  562.24   28.10
  -5   6  -9  581.84   32.50
   5  -6   9  623.54   33.30
   5  -6   9  598.24   24.20
  -6   6  -9    4.60    6.70
  -6   6  -9   14.40    9.40
   6  -6   9   12.10    9.00
   6  -6   9   14.30    5.90
  -7   6  -9  447.86   25.90
  -7   6  -9  388.16   29.30
   7  -6   9  440.96   23.10
   7  -6   9  427.66   31.20
  -8   6  -9   -3.20    8.20
  -8   6  -9  -22.90    8.50
   8  -6   9    4.70    7.00
   8  -6   9    4.10   10.90
  -9   6  -9   99.09   18.90
  -9   6  -9  101.29   16.20
   9  -6   9   97.49   14.20
   9  -6   9  111.29   21.00
 -10   6  -9   97.19   19.30
  10  -6   9   75.89   13.50
  10  -6   9   62.69   17.90
  11  -6   9   23.30   11.20
   9   5  -9   52.99   15.80
   9   5  -9   46.90    9.70
  -9  -5   9   72.79   20.40
  -9  -5   9   47.80   10.80
   8   5  -9   63.49   10.00
   8   5  -9   62.99   15.40
  -8  -5   9   78.99   11.90
  -8  -5   9  109.09   21.20
   7   5  -9    1.00    9.80
   7   5  -9   14.60    5.90
  -7  -5   9   18.70    7.30
  -7  -5   9   12.00   11.70
  -7  -5   9   16.30    7.10
   6   5  -9  237.08   23.40
   6   5  -9  208.58   13.70
  -6  -5   9  225.78   26.50
  -6  -5   9  228.58   18.20
  -6  -5   9  249.38   15.80
   5   5  -9   11.10    9.20
   5   5  -9   10.80    4.80
  -5  -5   9   25.00   12.10
  -5  -5   9   17.10    7.10
   4   5  -9  592.54   32.10
   4   5  -9  534.45   20.70
   4   5  -9  486.15   21.90
  -4  -5   9  548.55   34.60
  -4  -5   9  545.95   28.40
   3   5  -9  133.29    8.70
   3   5  -9  120.29   15.30
   3   5  -9  141.89    9.90
  -3  -5   9  169.58   20.10
  -3  -5   9  137.69   15.50
   2   5  -9  471.15   18.80
   2   5  -9  440.06   26.40
   2   5  -9  447.26   20.30
  -2  -5   9  466.75   25.50
  -2  -5   9  499.05   30.30
   1   5  -9  902.41   32.40
   1   5  -9  955.70   40.80
   1   5  -9  895.51   34.50
  -1  -5   9  853.11   38.70
  -1  -5   9  931.51   43.70
   0   5  -9  113.89   13.40
   0   5  -9   87.69    9.80
   0   5  -9   99.79    8.50
   0  -5   9  135.89   14.50
  -1   5  -9 1087.89   44.80
  -1   5  -9 1049.89   40.70
  -1   5  -9 1080.99   38.90
   1  -5   9 1104.79   43.80
  -2   5  -9   21.30    7.30
  -2   5  -9    2.60    3.80
  -2   5  -9   16.80    7.70
   2  -5   9   13.60    5.60
   2  -5   9    0.20    4.60
  -3   5  -9 1228.88   49.90
  -3   5  -9 1303.07   47.70
  -3   5  -9 1270.17   44.70
   3  -5   9 1130.69   49.00
   3  -5   9 1188.08   40.60
   3  -5   9 1212.28   46.00
  -4   5  -9   78.49   11.40
  -4   5  -9  100.09   13.60
   4  -5   9   79.29    8.00
   4  -5   9   83.09   13.30
  -5   5  -9  586.74   28.70
  -5   5  -9  613.74   31.60
   5  -5   9  555.84   24.90
   5  -5   9  513.75   32.70
  -6   5  -9  280.67   20.60
  -6   5  -9  285.67   22.40
   6  -5   9  209.18   16.00
   6  -5   9  296.77   25.50
  -7   5  -9  307.67   25.10
  -7   5  -9  250.07   22.30
   7  -5   9  293.37   30.50
   7  -5   9  262.27   18.60
  -8   5  -9  264.77   23.20
  -8   5  -9  277.77   26.20
   8  -5   9  242.88   28.20
   8  -5   9  245.88   20.40
  -9   5  -9   25.10   12.00
  -9   5  -9   20.70   11.40
  -9   5  -9    8.70    9.80
   9  -5   9   25.10    9.90
   9  -5   9   27.70   14.70
 -10   5  -9  285.87   27.00
  10  -5   9  247.88   22.40
  10  -5   9  308.57   34.00
  11  -5   9   10.00    9.30
  10   4  -9   73.19   11.60
 -10  -4   9   51.99   19.60
 -10  -4   9   67.09   12.60
   9   4  -9    3.80    6.00
  -9  -4   9   -7.60    6.60
  -9  -4   9    4.00   11.60
   8   4  -9  180.28   13.90
  -8  -4   9  169.28   23.40
  -8  -4   9  192.48   18.70
  -8  -4   9  163.38   16.00
   7   4  -9   46.80    7.70
  -7  -4   9   56.89    9.40
  -7  -4   9   57.19   10.80
  -7  -4   9   84.99   17.50
   6   4  -9  242.58   20.80
   6   4  -9  242.98   14.20
  -6  -4   9  266.17   27.40
  -6  -4   9  257.57   15.90
  -6  -4   9  216.58   18.00
   5   4  -9  230.78   13.40
   5   4  -9  245.28   20.00
  -5  -4   9  260.47   25.00
  -5  -4   9  222.78   20.80
   4   4  -9  151.58   10.40
   4   4  -9  155.48   16.30
  -4  -4   9  168.88   17.30
  -4  -4   9  145.99   18.00
   3   4  -9  549.74   28.90
   3   4  -9  556.34   22.90
  -3  -4   9  544.35   29.20
  -3  -4   9  572.54   31.80
   2   4  -9    4.80    4.30
   2   4  -9    5.70    3.40
   2   4  -9    2.50    7.50
  -2  -4   9    2.40    6.20
  -2  -4   9   -1.70    7.10
   1   4  -9 1172.08   44.00
   1   4  -9 1208.78   42.70
   1   4  -9 1245.38   48.70
  -1  -4   9 1331.17   52.69
  -1  -4   9 1189.08   49.30
   0   4  -9   68.09    7.60
   0   4  -9   73.59    9.20
   0   4  -9   68.09   10.40
   0  -4   9   84.19   11.10
  -1   4  -9 1277.77   47.50
  -1   4  -9 1357.96   50.29
   1  -4   9 1267.27   49.70
   1  -4   9 1251.07   48.30
  -2   4  -9  777.72   32.20
  -2   4  -9  741.33   33.00
   2  -4   9  729.03   31.60
   2  -4   9  724.73   33.60
   2  -4   9  714.53   25.80
  -3   4  -9  463.75   24.20
  -3   4  -9  444.16   24.50
   3  -4   9  442.06   19.60
   3  -4   9  469.95   21.80
   3  -4   9  480.95   27.40
  -4   4  -9  636.54   31.90
  -4   4  -9  653.73   31.30
   4  -4   9  698.43   28.00
   4  -4   9  668.33   36.10
  -5   4  -9  263.77   19.50
  -5   4  -9  256.57   19.50
   5  -4   9  271.77   26.70
   5  -4   9  249.38   16.50
  -6   4  -9 1194.28   49.20
  -6   4  -9 1171.98   48.00
   6  -4   9 1067.49   43.90
   6  -4   9  963.20   51.69
  -7   4  -9   -0.10    8.20
  -7   4  -9    6.20    8.80
   7  -4   9  -11.10    8.50
   7  -4   9    9.30    6.60
  -8   4  -9  498.65   31.00
  -8   4  -9  537.45   31.60
  -8   4  -9  453.35   30.10
   8  -4   9  493.85   36.20
   8  -4   9  444.16   26.90
  -9   4  -9   83.89   15.10
  -9   4  -9   81.39   16.50
   9  -4   9  111.69   21.60
   9  -4   9   91.69   13.90
 -10   4  -9  183.18   23.20
  10  -4   9  200.08   20.00
  10  -4   9  174.98   26.40
  11  -4   9   57.79   12.70
  10   3  -9   60.09   10.60
 -10  -3   9   52.09   16.60
 -10  -3   9   29.80   10.20
   9   3  -9   45.00    8.40
  -9  -3   9   51.79   15.60
  -9  -3   9   54.29   10.70
   8   3  -9   63.59    9.00
  -8  -3   9   39.50   13.60
  -8  -3   9   47.20    9.30
  -8  -3   9   60.49   11.60
   7   3  -9  307.57   16.50
  -7  -3   9  330.87   22.20
  -7  -3   9  290.97   18.50
  -7  -3   9  313.77   25.00
   6   3  -9   15.40    5.30
  -6  -3   9   32.60   10.80
  -6  -3   9   12.50    5.60
  -6  -3   9    6.00    7.20
   5   3  -9  326.57   16.60
  -5  -3   9  361.86   24.00
  -5  -3   9  385.26   24.90
   4   3  -9    8.20    6.70
   4   3  -9    8.10    4.20
  -4  -3   9   11.80    7.20
  -4  -3   9    7.20    7.00
   3   3  -9  622.24   30.80
   3   3  -9  660.13   26.30
  -3  -3   9  674.53   33.50
  -3  -3   9  697.83   34.20
   2   3  -9  264.47   14.70
   2   3  -9  278.27   18.50
  -2  -3   9  278.87   20.00
  -2  -3   9  280.57   20.40
   1   3  -9  557.54   23.70
   1   3  -9  528.65   25.80
  -1  -3   9  536.75   27.90
  -1  -3   9  482.45   27.40
   0   3  -9 1043.80   41.60
   0   3  -9 1130.49   40.80
   0  -3   9 1016.70   40.60
   0  -3   9 1129.39   45.10
  -1   3  -9  135.09   12.90
  -1   3  -9  129.49   12.40
   1  -3   9  126.99   13.90
   1  -3   9  115.79    7.20
   1  -3   9  105.09   11.80
  -2   3  -9 1027.50   39.60
  -2   3  -9  979.50   39.20
   2  -3   9  981.50   35.40
   2  -3   9  909.51   42.10
   2  -3   9  995.00   39.20
  -3   3  -9    4.50    5.60
  -3   3  -9   -8.00    6.50
   3  -3   9    7.90    7.50
   3  -3   9   -6.50    3.60
  -4   3  -9 1147.49   46.90
  -4   3  -9 1218.18   46.50
   4  -3   9 1118.79   43.50
   4  -3   9 1102.19   51.19
  -5   3  -9  173.98   17.70
  -5   3  -9  150.28   15.70
   5  -3   9  147.99   14.00
   5  -3   9  158.28   20.40
  -6   3  -9  486.25   28.10
  -6   3  -9  522.05   29.90
  -6   3  -9  502.35   29.00
   6  -3   9  516.75   26.10
   6  -3   9  546.75   34.50
  -7   3  -9  213.28   21.60
  -7   3  -9  267.47   21.50
   7  -3   9  263.07   18.80
   7  -3   9  292.27   28.50
  -8   3  -9  205.98   22.80
  -8   3  -9  176.88   19.70
   8  -3   9  156.48   23.00
   8  -3   9  148.09   15.90
  -9   3  -9  324.47   29.70
  -9   3  -9  305.97   24.00
   9  -3   9  318.97   32.40
   9  -3   9  302.27   22.60
  10  -3   9   19.30    9.10
  10  -3   9   26.10   14.20
  11   2  -9   21.90   10.00
 -11  -2   9   23.80   14.80
 -11  -2   9   26.60   12.60
  10   2  -9    5.00    6.50
 -10  -2   9    1.10   10.80
 -10  -2   9    7.40    7.90
   9   2  -9  139.59   13.10
  -9  -2   9  161.08   21.70
  -9  -2   9  125.19   16.00
  -9  -2   9  176.68   17.00
   8   2  -9    9.30    5.80
  -8  -2   9    9.70    8.30
  -8  -2   9   14.80    6.90
  -8  -2   9    6.30    7.30
   7   2  -9  375.26   18.90
  -7  -2   9  393.56   25.60
  -7  -2   9  408.86   26.60
  -7  -2   9  363.76   20.60
   6   2  -9   57.99    7.90
  -6  -2   9   54.19   11.20
  -6  -2   9   59.69   12.10
   5   2  -9  320.27   15.70
  -5  -2   9  294.57   20.90
  -5  -2   9  308.47   23.50
   4   2  -9  610.14   25.30
  -4  -2   9  630.34   34.80
  -4  -2   9  682.83   32.00
   3   2  -9  377.46   19.90
   3   2  -9  360.66   16.80
  -3  -2   9  335.97   24.30
  -3  -2   9  314.77   20.20
   2   2  -9 1872.11   62.99
   2   2  -9 1741.33   59.29
  -2  -2   9 1465.35   65.29
  -2  -2   9 1794.92   65.19
   1   2  -9    8.80    5.80
   1   2  -9   13.30    6.00
  -1  -2   9    7.90    4.50
  -1  -2   9   12.00    6.00
  -1  -2   9    4.80    7.00
   0   2  -9 1768.62   61.99
   0   2  -9 1808.32   62.09
   0  -2   9 1795.72   57.29
   0  -2   9 1676.93   65.49
   0  -2   9 1786.92   63.59
  -1   2  -9  251.87   15.00
  -1   2  -9  258.07   16.00
   1  -2   9  218.88   12.40
   1  -2   9  227.08   17.30
   1  -2   9  214.18   16.20
  -2   2  -9  395.36   20.10
  -2   2  -9  402.36   22.00
   2  -2   9  384.56   21.90
   2  -2   9  374.86   20.60
   2  -2   9  392.16   18.90
   2  -2   9  431.56   25.20
  -3   2  -9  561.74   26.20
  -3   2  -9  540.75   28.30
   3  -2   9  590.84   32.10
   3  -2   9  572.74   26.20
   3  -2   9  604.64   25.70
  -4   2  -9  548.45   26.70
  -4   2  -9  550.34   29.30
   4  -2   9  536.35   25.80
   4  -2   9  594.64   26.00
   4  -2   9  569.94   32.40
  -5   2  -9  912.91   44.40
  -5   2  -9  926.71   41.20
  -5   2  -9  907.21   41.70
   5  -2   9  908.81   44.60
   5  -2   9  922.31   37.40
   5  -2   9  880.81   37.00
  -6   2  -9   36.00   10.60
  -6   2  -9   16.90    7.90
   6  -2   9   30.40    7.70
   6  -2   9   33.90    8.10
   6  -2   9   25.00   10.80
  -7   2  -9  645.84   37.10
  -7   2  -9  647.54   34.30
   7  -2   9  682.73   31.20
   7  -2   9  697.73   39.60
   7  -2   9  658.73   31.40
  -8   2  -9   48.10   11.70
  -8   2  -9   38.70   13.60
   8  -2   9   46.30    9.40
   8  -2   9   37.60    9.00
   8  -2   9   26.50   11.90
  -9   2  -9  263.57   27.90
   9  -2   9  287.87   29.60
   9  -2   9  211.98   19.90
   9  -2   9  282.07   21.20
  10  -2   9   38.90   14.90
  10  -2   9   57.59   11.60
  11   1  -9   43.10    9.40
 -11  -1   9   63.89   12.70
 -11  -1   9   64.09   17.40
  10   1  -9    5.90    6.20
 -10  -1   9    3.70   10.80
 -10  -1   9    7.20    7.80
   9   1  -9   65.29    9.50
  -9  -1   9   71.39   10.80
  -9  -1   9   74.59   13.10
  -9  -1   9   79.39   15.60
   8   1  -9  149.79   12.90
  -8  -1   9  112.19   12.90
  -8  -1   9  144.59   18.30
  -8  -1   9  127.29   17.40
   7   1  -9  130.19   11.40
  -7  -1   9  183.08   20.00
  -7  -1   9  133.59   13.30
  -7  -1   9  204.28   22.10
   6   1  -9  355.16   17.60
  -6  -1   9  382.76   27.30
  -6  -1   9  395.76   23.50
   5   1  -9   -2.00    3.80
  -5  -1   9    5.80    8.90
  -5  -1   9    9.90    6.30
   4   1  -9 1300.47   46.20
  -4  -1   9 1349.86   51.59
  -4  -1   9 1286.27   56.89
   3   1  -9   32.20    7.10
   3   1  -9   32.30    6.40
  -3  -1   9   54.49   12.50
  -3  -1   9   38.70    8.40
   2   1  -9 1232.48   44.50
   2   1  -9 1218.88   45.60
   2   1  -9 1166.08   41.90
  -2  -1   9 1268.07   48.00
  -2  -1   9 1180.48   42.70
  -2  -1   9 1238.88   51.59
   1   1  -9  605.14   26.90
   1   1  -9  625.94   26.10
  -1  -1   9  635.94   28.20
  -1  -1   9  661.73   31.70
  -1  -1   9  581.84   26.50
  -1  -1   9  578.44   22.10
   0   1  -9  786.92   31.40
   0   1  -9  810.72   33.30
   0  -1   9  810.52   30.10
   0  -1   9  775.42   34.60
   0  -1   9  851.71   36.10
  -1   1  -9  791.82   33.00
  -1   1  -9  796.92   31.10
  -1   1  -9  806.12   33.60
   1  -1   9  754.82   30.30
   1  -1   9  797.62   36.00
   1  -1   9  813.12   34.10
   1  -1   9  802.22   32.20
  -2   1  -9  227.38   16.00
  -2   1  -9  223.38   14.10
  -2   1  -9  242.78   17.50
   2  -1   9  242.38   15.90
   2  -1   9  254.47   14.30
   2  -1   9  258.67   19.10
  -3   1  -9 1372.56   55.49
  -3   1  -9 1376.96   51.99
  -3   1  -9 1501.55   55.59
   3  -1   9 1388.06   52.99
   3  -1   9 1517.75   59.09
   3  -1   9 1521.75   51.89
  -4   1  -9   42.00    9.40
  -4   1  -9   21.20    9.10
   4  -1   9   48.20    8.60
   4  -1   9   34.40    7.10
   4  -1   9   32.90    9.30
  -5   1  -9  823.72   39.00
  -5   1  -9  850.21   40.90
   5  -1   9  917.11   43.10
   5  -1   9  909.41   35.30
   5  -1   9  844.62   36.30
  -6   1  -9  247.58   23.10
  -6   1  -9  189.98   19.30
   6  -1   9  225.48   16.80
   6  -1   9  241.08   24.10
   6  -1   9  234.38   15.90
  -7   1  -9  408.56   26.60
  -7   1  -9  375.06   28.90
   7  -1   9  458.45   23.50
   7  -1   9  452.65   30.70
   7  -1   9  420.36   24.30
  -8   1  -9  206.68   24.20
  -8   1  -9  250.37   23.60
   8  -1   9  240.78   20.50
   8  -1   9  215.98   24.10
   8  -1   9  262.87   18.90
  -9   1  -9  137.69   21.50
   9  -1   9  107.09   14.90
   9  -1   9  122.49   19.80
  11   0  -9   52.29    9.20
 -11   0   9   36.40   10.60
 -11   0   9   16.40   11.90
  10   0  -9   66.49   10.00
 -10   0   9   65.09   15.50
 -10   0   9   69.39   11.70
   9   0  -9   22.40    6.80
  -9   0   9   13.50   10.00
  -9   0   9   16.80    7.10
  -9   0   9   16.30   10.50
   8   0  -9  339.87   17.90
  -8   0   9  347.37   31.10
  -8   0   9  294.57   19.00
  -8   0   9  310.27   23.50
   7   0  -9   32.70    6.90
  -7   0   9   20.00   11.70
  -7   0   9   26.50    8.60
   6   0  -9  123.89   10.60
  -6   0   9  107.79   13.30
  -6   0   9  124.79   18.10
   5   0  -9  243.38   14.40
  -5   0   9  277.67   17.70
  -5   0   9  257.97   24.90
   4   0  -9  493.15   22.10
  -4   0   9  503.05   30.60
  -4   0   9  532.95   25.30
   3   0  -9  978.50   36.90
  -3   0   9  968.00   43.90
  -3   0   9 1003.80   39.50
   2   0  -9   20.30    5.90
   2   0  -9   10.40    4.30
   2   0  -9   10.50    5.30
  -2   0   9    7.40    3.30
  -2   0   9    8.30    7.50
  -2   0   9    5.80    5.10
  -2   0   9    8.20    4.50
   1   0  -9 1219.08   43.50
   1   0  -9 1248.48   44.00
   1   0  -9 1240.18   45.50
  -1   0   9 1202.48   42.90
  -1   0   9 1193.98   45.30
  -1   0   9 1215.78   48.50
  -1   0   9 1175.78   42.00
  -1   0   9 1191.48   45.90
   0   0  -9    8.60    4.70
   0   0  -9    7.00    5.50
   0   0  -9   14.10    4.50
   0   0   9   17.30    4.70
   0   0   9    1.50    5.00
   0   0   9   22.80    5.90
   0   0   9    0.60    5.40
  -1   0  -9  857.91   37.40
  -1   0  -9  921.91   37.20
  -1   0  -9  877.91   33.50
   1   0   9  921.91   39.60
   1   0   9  890.71   36.00
   1   0   9  945.01   37.00
   1   0   9  966.60   34.80
  -2   0  -9  207.08   15.40
  -2   0  -9  219.98   18.40
   2   0   9  162.78   16.60
   2   0   9  220.28   13.40
   2   0   9  209.88   15.10
  -3   0  -9 1558.64   58.19
  -3   0  -9 1475.65   58.79
   3   0   9 1453.65   55.89
   3   0   9 1518.65   53.99
   3   0   9 1620.84   61.49
  -4   0  -9  624.54   30.30
  -4   0  -9  532.55   30.70
   4   0   9  608.94   26.20
   4   0   9  566.34   31.70
   4   0   9  556.54   27.50
  -5   0  -9  238.08   19.20
  -5   0  -9  239.88   22.50
   5   0   9  256.97   17.60
   5   0   9  244.18   15.40
   5   0   9  195.58   20.70
  -6   0  -9  628.64   36.50
  -6   0  -9  689.83   35.10
   6   0   9  677.63   29.70
   6   0   9  715.63   38.10
   6   0   9  666.83   31.90
  -7   0  -9    7.90   10.50
  -7   0  -9   13.20    8.00
   7   0   9   25.80    8.70
   7   0   9   11.40   10.10
  -8   0  -9  293.87   26.50
  -8   0  -9  248.78   26.40
   8   0   9  244.28   21.10
   8   0   9  290.47   27.70
   9   0   9    7.20   11.00
   9   0   9    3.40    7.70
  11  -1  -9    3.40    6.20
 -11   1   9   -1.70    7.20
 -11   1   9    0.80    9.50
  10  -1  -9   90.39   10.80
 -10   1   9  105.69   17.30
 -10   1   9  104.79   13.90
 -10   1   9   61.59   14.60
   9  -1  -9   24.30    6.70
  -9   1   9   26.30   12.10
  -9   1   9   20.70    7.20
  -9   1   9   22.10    9.40
   8  -1  -9  195.18   13.50
  -8   1   9  180.48   18.60
  -8   1   9  188.48   23.50
   7  -1  -9  174.18   12.70
  -7   1   9  185.18   22.40
  -7   1   9  220.38   17.30
   6  -1  -9   84.59    8.80
  -6   1   9   95.79   15.90
  -6   1   9  104.49   12.70
   5  -1  -9  859.81   33.60
  -5   1   9  878.71   36.80
  -5   1   9  894.31   44.00
   4  -1  -9    7.10    4.70
  -4   1   9    9.30    5.40
  -4   1   9   -3.80    7.40
   3  -1  -9  808.02   32.90
  -3   1   9  844.42   29.20
  -3   1   9  779.62   38.00
  -3   1   9  812.22   33.20
   2  -1  -9  132.19   10.40
   2  -1  -9  167.28   11.50
   2  -1  -9  168.58   14.30
  -2   1   9  173.08   10.70
  -2   1   9  142.09   16.00
  -2   1   9  150.18   11.90
  -2   1   9  167.88   12.50
   1  -1  -9 1318.77   46.00
   1  -1  -9 1346.27   48.50
   1  -1  -9 1260.87   49.00
  -1   1   9 1251.07   47.60
  -1   1   9 1323.07   46.50
  -1   1   9 1348.37   50.09
  -1   1   9 1311.77   48.40
  -1   1   9 1370.56   48.00
  -1   1   9 1426.76   52.89
   0  -1  -9  833.42   34.90
   0  -1  -9  879.41   34.80
   0   1   9  829.52   34.80
   0   1   9  810.22   31.80
   0   1   9  835.12   33.90
   0   1   9  841.92   36.20
   0   1   9  813.82   36.00
  -1  -1  -9  463.65   23.80
  -1  -1  -9  437.76   23.70
   1   1   9  451.35   20.40
   1   1   9  417.76   24.30
   1   1   9  442.66   22.30
   1   1   9  395.86   21.80
   1   1   9  471.95   24.40
  -2  -1  -9 1233.08   50.69
  -2  -1  -9 1330.57   50.89
   2   1   9 1284.17   52.49
   2   1   9 1207.98   48.00
   2   1   9 1323.97   46.50
  -3  -1  -9  204.78   16.90
  -3  -1  -9  157.38   16.40
   3   1   9  155.18   15.00
   3   1   9  206.98   13.60
   3   1   9  166.68   17.90
  -4  -1  -9  866.21   41.70
  -4  -1  -9  923.91   40.70
   4   1   9  854.81   42.40
   4   1   9  892.41   35.60
   4   1   9  936.41   38.60
  -5  -1  -9   78.99   14.80
  -5  -1  -9  124.69   16.40
   5   1   9   80.89   11.80
   5   1   9   85.29   10.70
   5   1   9   88.89   15.00
  -6  -1  -9  527.55   31.20
  -6  -1  -9  521.45   33.30
   6   1   9  555.54   33.80
   6   1   9  555.54   28.90
  -7  -1  -9   93.99   18.00
  -7  -1  -9  116.29   17.30
   7   1   9  136.09   15.90
   7   1   9  101.99   16.80
  -8  -1  -9  173.58   23.00
   8   1   9  177.88   22.70
   8   1   9  183.88   19.20
  12  -2  -9   24.50    8.80
 -12   2   9   34.10   11.20
  11  -2  -9   14.90    6.90
 -11   2   9   32.10    9.80
 -11   2   9   32.00   11.50
  10  -2  -9   38.70    8.30
 -10   2   9   81.09   17.50
 -10   2   9   62.09   10.90
 -10   2   9   70.79   13.80
   9  -2  -9  170.18   13.50
  -9   2   9  159.08   18.40
  -9   2   9  175.18   23.30
   8  -2  -9    7.80    5.40
  -8   2   9   27.30   12.10
  -8   2   9   27.90    9.20
   7  -2  -9  204.48   13.10
  -7   2   9  169.38   21.90
  -7   2   9  215.88   17.00
   6  -2  -9   -1.20    4.50
  -6   2   9   -1.00    4.50
  -6   2   9    9.30    9.50
   5  -2  -9  595.74   25.80
  -5   2   9  633.44   35.00
  -5   2   9  579.24   27.20
   4  -2  -9  237.98   15.40
  -4   2   9  262.87   21.70
  -4   2   9  235.58   15.10
  -4   2   9  254.37   12.40
   3  -2  -9  301.67   17.90
  -3   2   9  325.57   17.10
  -3   2   9  327.17   22.60
  -3   2   9  321.37   15.80
   2  -2  -9  629.74   26.60
   2  -2  -9  656.83   28.90
  -2   2   9  649.64   28.80
  -2   2   9  686.43   33.40
  -2   2   9  659.93   26.70
   1  -2  -9  134.79   13.20
   1  -2  -9  147.19   13.50
  -1   2   9  168.58   15.50
  -1   2   9  158.88   12.70
  -1   2   9  159.98   12.70
  -1   2   9  159.28   13.50
  -1   2   9  161.18   16.80
   0  -2  -9  954.10   37.80
   0  -2  -9  932.51   38.10
   0   2   9  859.21   36.30
   0   2   9  849.12   34.50
   0   2   9  812.12   38.30
   0   2   9  915.81   39.10
   0   2   9  923.71   38.30
  -1  -2  -9   -6.20    5.30
  -1  -2  -9    6.80    6.80
   1   2   9   10.90    5.90
   1   2   9   -5.00    5.40
   1   2   9   11.80    5.50
   1   2   9    9.30    6.90
   1   2   9    4.50    7.00
  -2  -2  -9 1188.58   50.79
  -2  -2  -9 1352.76   52.59
   2   2   9 1281.97   48.80
   2   2   9 1311.37   52.79
   2   2   9 1242.18   46.90
   2   2   9 1242.58   53.39
  -3  -2  -9  223.78   20.30
  -3  -2  -9  182.28   18.90
   3   2   9  198.78   21.20
   3   2   9  221.58   18.70
   3   2   9  209.18   14.70
   3   2   9  174.08   15.80
  -4  -2  -9  353.86   24.30
  -4  -2  -9  339.57   24.70
   4   2   9  309.97   24.90
   4   2   9  324.77   21.00
  -5  -2  -9  382.56   26.70
  -5  -2  -9  323.67   26.10
   5   2   9  348.37   22.70
   5   2   9  375.96   27.40
  -6  -2  -9  147.49   20.70
  -6  -2  -9  178.18   21.00
   6   2   9  168.78   17.60
   6   2   9  110.89   18.10
  -7  -2  -9  306.37   30.30
   7   2   9  348.97   24.30
   7   2   9  330.27   28.10
   8   2   9   15.00   19.10
   8   2   9   19.20   12.00
  12  -3  -9    2.70    6.40
 -12   3   9   -6.80   13.20
  11  -3  -9   66.89   10.60
 -11   3   9  111.59   17.40
  10  -3  -9   -2.10    5.20
 -10   3   9    2.90    8.30
 -10   3   9   -1.30   10.10
   9  -3  -9  183.48   13.90
  -9   3   9  211.58   20.80
  -9   3   9  164.68   23.10
   8  -3  -9   81.89    9.60
  -8   3   9  105.49   18.80
  -8   3   9   83.59   12.10
   7  -3  -9  179.98   13.20
  -7   3   9  208.08   15.80
  -7   3   9  193.78   22.70
   6  -3  -9  356.46   18.80
  -6   3   9  363.86   20.60
  -6   3   9  392.56   28.70
   5  -3  -9   40.90    7.70
  -5   3   9   35.10   12.00
  -5   3   9   47.10    5.90
  -5   3   9   46.80    7.90
   4  -3  -9  449.46   22.70
  -4   3   9  462.65   20.50
  -4   3   9  435.06   28.20
  -4   3   9  452.85   21.50
   3  -3  -9    3.90    6.00
  -3   3   9   -1.50    7.20
  -3   3   9   -1.70    4.30
   2  -3  -9  678.73   28.70
   2  -3  -9  704.73   30.30
  -2   3   9  622.74   30.10
  -2   3   9  659.03   33.90
  -2   3   9  696.03   30.40
  -2   3   9  714.93   28.80
   1  -3  -9  276.07   17.50
   1  -3  -9  275.27   17.60
  -1   3   9  215.68   17.40
  -1   3   9  240.78   18.90
  -1   3   9  243.18   17.40
  -1   3   9  274.87   17.50
   0  -3  -9  620.04   29.70
   0  -3  -9  553.24   27.70
   0   3   9  566.14   29.20
   0   3   9  593.24   27.60
   0   3   9  549.85   29.30
   0   3   9  538.35   29.40
  -1  -3  -9  559.54   28.90
  -1  -3  -9  596.84   30.50
   1   3   9  533.65   30.40
   1   3   9  546.05   27.20
   1   3   9  558.04   30.10
  -2  -3  -9  245.38   22.10
  -2  -3  -9  218.68   19.80
   2   3   9  229.28   22.10
   2   3   9  244.38   17.10
   2   3   9  286.37   17.00
   2   3   9  211.18   20.30
  -3  -3  -9  599.34   33.40
  -3  -3  -9  688.23   35.60
   3   3   9  623.64   29.90
   3   3   9  587.64   34.90
  -4  -3  -9   13.70    9.80
  -4  -3  -9   10.20   10.20
   4   3   9   12.90    6.80
   4   3   9   21.10   10.20
  -5  -3  -9  868.01   43.00
  -5  -3  -9  762.62   41.80
   5   3   9  797.32   36.70
   5   3   9  736.83   42.80
  -6  -3  -9   31.70   12.10
  -6  -3  -9   17.40   12.80
   6   3   9   18.80   11.70
   6   3   9   37.30   10.70
   7   3   9  343.07   29.80
   7   3   9  369.16   25.50
  12  -4  -9   22.30    8.30
 -12   4   9   33.70   20.20
  11  -4  -9  100.99   12.20
 -11   4   9   80.09   19.00
 -11   4   9  101.69   16.60
  10  -4  -9   49.90    8.90
 -10   4   9   43.60   15.90
 -10   4   9   52.99   12.00
   9  -4  -9   73.19    9.70
  -9   4   9   60.09   11.20
  -9   4   9   69.39   17.80
   8  -4  -9  279.47   16.40
  -8   4   9  198.68   25.10
  -8   4   9  271.67   18.90
   7  -4  -9   -0.90    4.80
  -7   4   9    3.80    9.60
  -7   4   9   17.20    7.10
   6  -4  -9  318.27   18.00
  -6   4   9  328.97   18.40
  -6   4   9  302.77   14.80
  -6   4   9  290.27   28.10
   5  -4  -9   42.50    8.40
  -5   4   9   24.60   10.20
  -5   4   9   32.70    6.50
   4  -4  -9  561.94   26.70
  -4   4   9  559.34   25.10
  -4   4   9  556.94   32.30
   3  -4  -9  188.88   15.80
  -3   4   9  198.38   20.20
   2  -4  -9  377.26   20.50
   2  -4  -9  341.27   19.60
  -2   4   9  370.16   21.50
  -2   4   9  389.86   24.40
  -2   4   9  356.16   21.10
   1  -4  -9  621.64   31.70
   1  -4  -9  689.53   31.40
  -1   4   9  690.03   33.10
  -1   4   9  715.33   32.10
  -1   4   9  725.53   33.80
  -1   4   9  710.13   34.40
   0  -4  -9   89.09   13.30
   0  -4  -9  101.09   13.20
   0   4   9   94.79   13.20
   0   4   9   77.39   12.30
   0   4   9  122.59   14.10
   0   4   9   84.19   13.30
  -1  -4  -9  683.93   33.70
  -1  -4  -9  687.23   35.50
   1   4   9  689.93   36.30
   1   4   9  741.73   32.80
   1   4   9  672.73   36.00
  -2  -4  -9   12.30    8.90
  -2  -4  -9   42.40   12.00
   2   4   9   23.80   10.30
   2   4   9   43.00    9.20
  -3  -4  -9  674.03   37.30
  -3  -4  -9  640.14   35.50
   3   4   9  642.94   37.90
   3   4   9  629.44   30.60
  -4  -4  -9  175.88   20.30
  -4  -4  -9  231.18   24.70
   4   4   9  177.78   17.30
   4   4   9  191.98   24.10
  -5  -4  -9  258.67   25.90
  -5  -4  -9  266.17   27.30
   5   4   9  245.88   20.80
   5   4   9  256.57   27.20
  -6  -4  -9  138.09   21.20
   6   4   9  177.58   23.40
   6   4   9  173.58   18.50
  11  -5  -9   23.40    8.20
 -11   5   9   37.60   11.50
 -11   5   9   23.10   16.70
  10  -5  -9   53.09    9.50
 -10   5   9   81.59   13.70
 -10   5   9   77.09   19.90
   9  -5  -9   26.10    7.60
  -9   5   9   53.49   16.90
  -9   5   9   32.90    9.60
   8  -5  -9   71.79   10.30
  -8   5   9   78.59   11.70
  -8   5   9   76.09   18.10
   7  -5  -9   41.00    8.40
  -7   5   9   40.50    6.10
  -7   5   9   38.10   13.50
   6  -5  -9  141.29   13.40
  -6   5   9  151.88   20.60
  -6   5   9  125.89   11.60
   5  -5  -9  184.58   16.10
  -5   5   9  218.78   23.30
   4  -5  -9  133.69   13.20
  -4   5   9  123.69   16.90
   3  -5  -9  410.86   22.10
  -3   5   9  427.26   26.20
   2  -5  -9    4.10    6.40
   2  -5  -9   10.90    6.90
  -2   5   9   10.50    6.60
  -2   5   9    6.70    7.10
  -2   5   9    9.20    6.70
   1  -5  -9  757.12   35.70
   1  -5  -9  738.13   34.00
  -1   5   9  798.22   35.50
  -1   5   9  738.23   35.40
  -1   5   9  764.02   37.20
  -1   5   9  739.53   36.00
   0  -5  -9  131.49   15.10
   0  -5  -9  159.08   17.90
   0   5   9  124.19   16.10
   0   5   9  176.18   16.90
   0   5   9  101.09   13.30
  -1  -5  -9  190.58   21.20
  -1  -5  -9  222.08   19.90
   1   5   9  198.48   21.10
   1   5   9  225.58   19.00
  -2  -5  -9  276.67   23.40
  -2  -5  -9  328.77   25.70
   2   5   9  239.48   24.70
   2   5   9  267.37   19.70
  -3  -5  -9  116.89   18.70
  -3  -5  -9  131.19   17.40
   3   5   9  107.39   13.50
   3   5   9   96.19   17.50
  -4  -5  -9  374.16   28.90
  -4  -5  -9  484.85   33.00
   4   5   9  417.46   25.00
   4   5   9  398.06   31.90
   5   5   9    3.60   11.40
   5   5   9    9.70    7.50
 -11   6   9    0.40    8.60
 -11   6   9    4.80   13.90
 -10   6   9   57.29   18.90
 -10   6   9   30.20   10.40
  -9   6   9   93.99   19.90
  -8   6   9   40.70   13.80
  -7   6   9  208.98   25.70
  -7   6   9  173.88   13.50
  -6   6   9    4.00    8.90
  -5   6   9  387.06   27.40
  -4   6   9   19.80    9.40
  -3   6   9  367.86   24.80
   2  -6  -9  375.76   23.10
  -2   6   9  369.76   23.60
  -2   6   9  385.86   23.30
  -2   6   9  381.26   24.40
   1  -6  -9  103.59   14.90
  -1   6   9  134.09   16.40
  -1   6   9  128.19   15.60
  -1   6   9  141.99   16.00
   0  -6  -9  254.87   24.00
   0   6   9  270.57   20.80
   0   6   9  254.97   21.60
  -1  -6  -9   12.20   10.50
   1   6   9    4.90    8.70
   1   6   9   14.20    8.00
  -2  -6  -9  474.65   33.60
   2   6   9  457.05   32.50
   2   6   9  472.65   26.90
  -3  -6  -9    8.10   11.30
   3   6   9   12.10    7.80
   3   6   9   29.40   12.30
   4   6   9  179.38   17.50
   4   6   9  208.78   26.10
 -11   7   9   79.59   21.10
 -10   7   9  -17.80   14.30
  -9   7   9  124.29   22.80
  -8   7   9   -8.80    4.80
  -8   7   9   11.20   12.80
  -7   7   9  132.29   21.60
  -6   7   9   43.00   13.00
  -5   7   9  186.18   21.60
  -4   7   9  274.37   25.60
  -3   7   9   -5.50    7.80
   2  -7  -9  390.56   32.00
  -2   7   9  419.56   25.50
  -2   7   9  432.46   25.90
  -2   7   9  369.66   25.50
   1  -7  -9    9.80    8.50
  -1   7   9   -1.20    7.20
  -1   7   9   -2.30    6.90
  -1   7   9   -2.80    6.90
   0  -7  -9  221.18   23.70
   0   7   9  292.67   24.30
   0   7   9  264.07   23.80
  -1  -7  -9   26.20   12.30
   1   7   9   28.90   10.00
   1   7   9   40.30   13.30
   2   7   9  204.78   19.30
   2   7   9  175.58   23.00
   3   7   9  165.18   23.30
   3   7   9   96.29   14.40
 -11   8   9  -10.80   14.90
 -10   8   9   16.80   16.40
  -9   8   9   51.29   18.90
  -8   8   9   25.90    8.30
  -8   8   9   28.50   15.90
  -7   8   9    1.00   10.90
  -6   8   9   93.49   17.60
  -5   8   9    4.10    8.80
  -4   8   9  230.38   23.80
  -3   8   9   37.10   12.20
  -2   8   9  247.48   22.60
  -2   8   9  203.08   27.10
  -2   8   9  220.28   22.50
   1  -8  -9  121.49   19.00
  -1   8   9  131.19   18.30
  -1   8   9  138.69   17.40
   0  -8  -9   38.90   14.10
   0   8   9   36.00   11.40
   0   8   9   34.30   11.90
   1   8   9  219.18   21.60
   1   8   9  229.28   25.70
  -9   9   9   -4.40   12.70
  -8   9   9   56.29   18.30
  -7   9   9   -2.40   10.30
  -6   9   9  152.58   21.90
  -5   9   9   64.49   15.60
  -4   9   9   49.90   14.20
  -3   9   9  133.99   18.70
  -2   9   9   14.50    9.70
  -2   9   9    7.20   10.30
  -1   9   9  140.49   19.50
  -1   9   9  100.89   17.50
   0   9   9   12.70   13.00
   0   9   9   14.60   13.10
  -9  10   9    7.40   11.10
  -8  10   9   52.19   18.90
  -7  10   9   57.79   15.80
  -6  10   9   34.80   14.10
  -5  10   9   82.39   17.00
  -4  10   9    4.10   10.50
  -3  10   9   86.89   17.60
  -1  13 -10   32.90   11.90
   1 -13  10   25.80   16.40
  -2  13 -10    8.00    9.20
   2 -13  10    7.10   10.60
  -3  13 -10  102.09   17.10
   3 -13  10  121.39   18.80
  -4  13 -10    7.50   10.70
  -5  13 -10   97.49   17.40
   2  12 -10   24.30   10.00
  -2 -12  10   27.00   10.80
   1  12 -10   70.09   13.30
  -1 -12  10   46.10   13.30
   0  12 -10   12.20   14.00
   0  12 -10    2.70    4.70
   0  12 -10    3.60    7.10
   0 -12  10   17.80    9.80
  -1  12 -10   91.59   14.50
  -1  12 -10   90.29   19.60
  -1  12 -10  123.79   11.80
   1 -12  10  118.79   17.90
  -2  12 -10   21.40   13.50
  -2  12 -10   12.30    6.40
  -2  12 -10    5.50    8.80
   2 -12  10    7.80    9.10
  -3  12 -10  137.69   13.80
  -3  12 -10  153.38   19.10
  -3  12 -10  116.29   21.00
   3 -12  10  118.29   18.40
  -4  12 -10   39.90    8.70
  -4  12 -10   25.90   13.90
  -4  12 -10   42.70   12.90
   4 -12  10   35.70   12.40
  -5  12 -10   34.50   16.90
  -5  12 -10    5.70    9.90
   4  11 -10    2.10    8.00
  -4 -11  10   -7.30    8.10
   3  11 -10   81.89   13.70
   3  11 -10   96.19    9.40
  -3 -11  10  100.69   16.10
   2  11 -10    5.60    4.50
   2  11 -10   11.20   12.80
   2  11 -10   -2.50    6.90
  -2 -11  10    8.70    8.10
   1  11 -10   76.29   18.80
   1  11 -10   96.39    9.50
   1  11 -10   94.69   14.10
  -1 -11  10   83.69   15.10
   0  11 -10   57.29    8.00
   0  11 -10   29.60   14.30
   0  11 -10   69.79   12.10
   0 -11  10   60.79   12.80
  -1  11 -10   49.40   16.30
  -1  11 -10   87.29   13.90
  -1  11 -10   72.19    9.10
   1 -11  10  134.39   17.80
  -2  11 -10  106.99   11.20
  -2  11 -10   80.99   17.70
  -2  11 -10  100.99   15.60
   2 -11  10   72.59   14.10
  -3  11 -10   31.30   13.90
  -3  11 -10   44.60    8.40
  -3  11 -10   43.90   11.20
   3 -11  10   46.70   11.80
  -4  11 -10  156.38   18.10
  -4  11 -10  160.58   23.30
  -4  11 -10  124.69   13.00
   4 -11  10  105.89   16.50
  -5  11 -10    4.10    8.90
  -5  11 -10   21.90   13.40
   5 -11  10    2.60    8.20
  -6  11 -10  155.88   24.00
  -7  11 -10   10.80   14.90
   5  10 -10   69.19    7.80
   5  10 -10   63.19   12.60
  -5 -10  10   44.00   11.50
   4  10 -10   26.70    5.20
   4  10 -10   17.40    9.00
  -4 -10  10   29.50   10.60
   3  10 -10   69.59   12.10
   3  10 -10   64.69   17.60
   3  10 -10   68.09    7.50
  -3 -10  10   84.79   14.30
   2  10 -10  117.69    9.80
   2  10 -10  114.29   15.10
   2  10 -10   88.89   19.20
  -2 -10  10  122.79   16.50
   1  10 -10   47.60   10.40
   1  10 -10   61.89   16.60
   1  10 -10   29.10    5.80
  -1 -10  10   23.20    8.70
   0  10 -10  198.38   24.90
   0  10 -10  172.18   17.20
   0  10 -10  211.68   12.90
   0 -10  10  199.08   20.40
  -1  10 -10    9.50   11.80
  -1  10 -10   13.80    5.10
  -1  10 -10    8.60    7.40
   1 -10  10    6.50    7.10
  -2  10 -10  335.67   22.40
  -2  10 -10  341.17   17.90
  -2  10 -10  342.77   29.00
   2 -10  10  305.67   23.20
  -3  10 -10   38.30   10.50
  -3  10 -10   33.00   13.40
  -3  10 -10   32.90    7.30
   3 -10  10   32.90   10.20
  -4  10 -10  213.38   19.70
  -4  10 -10  217.08   15.20
  -4  10 -10  191.88   24.50
   4 -10  10  180.58   19.50
  -5  10 -10  115.69   19.90
  -5  10 -10  107.89   15.60
   5 -10  10  124.49   16.40
  -6  10 -10  100.19   20.20
  -7  10 -10  113.69   21.30
  -8  10 -10    5.80   13.20
   6   9 -10   18.50    8.90
  -6  -9  10   22.30   10.10
   5   9 -10   46.50    6.10
   5   9 -10   56.89   11.70
   5   9 -10   38.90   16.10
  -5  -9  10   15.10    9.40
   4   9 -10  107.39   13.90
   4   9 -10   93.79    8.20
   4   9 -10   75.09   18.40
  -4  -9  10   81.89   14.00
   3   9 -10    7.60    6.90
   3   9 -10   -1.90   10.80
   3   9 -10   -2.90    3.00
  -3  -9  10    3.10    7.20
   2   9 -10  148.09   10.20
   2   9 -10  192.48   17.80
   2   9 -10  172.08   22.10
  -2  -9  10  169.48   18.30
   1   9 -10   19.90   12.00
   1   9 -10   15.90    7.20
   1   9 -10   13.90    4.30
  -1  -9  10   21.00    8.30
   0   9 -10  286.47   27.70
   0   9 -10  220.48   17.70
   0   9 -10  241.18   13.50
   0  -9  10  243.98   19.70
  -1   9 -10  140.89   15.00
  -1   9 -10  120.89   18.70
  -1   9 -10  131.19   11.10
   1  -9  10  101.99   14.70
  -2   9 -10  191.68   18.20
  -2   9 -10  225.98   13.90
  -2   9 -10  205.28   23.40
   2  -9  10  219.68   20.90
  -3   9 -10  277.77   24.40
  -3   9 -10  355.46   18.30
  -3   9 -10  314.57   21.10
   3  -9  10  345.07   22.70
  -4   9 -10   27.20   12.10
  -4   9 -10   19.90    6.40
  -4   9 -10   19.90    8.30
   4  -9  10   15.00    7.70
  -5   9 -10  369.36   29.60
  -6   9 -10   -1.40    9.50
  -7   9 -10  123.19   21.00
  -8   9 -10   25.40   14.80
   7   8 -10    5.10   15.50
   7   8 -10    5.80    7.90
  -7  -8  10   42.00   19.40
  -7  -8  10   -7.60    8.00
   6   8 -10   80.19   19.60
  -6  -8  10  100.59   15.40
  -6  -8  10  134.29   26.80
   5   8 -10    1.80    3.60
   5   8 -10   -1.70   11.30
  -5  -8  10  -19.90   12.60
  -5  -8  10   -2.60    7.20
   4   8 -10  195.28   10.90
   4   8 -10  196.78   24.60
  -4  -8  10  174.08   19.40
  -4  -8  10  189.98   28.40
   3   8 -10   44.30   13.70
   3   8 -10   55.19    6.30
  -3  -8  10   70.49   13.10
   2   8 -10  159.98   20.60
   2   8 -10  174.38   10.30
  -2  -8  10  151.78   17.60
   1   8 -10  268.27   25.90
   1   8 -10  257.07   13.30
  -1  -8  10  240.18   19.50
   0   8 -10   21.80    4.80
   0   8 -10   12.40   10.00
   0  -8  10    4.80    6.40
  -1   8 -10  413.86   19.10
  -1   8 -10  438.96   29.20
   1  -8  10  396.56   24.60
  -2   8 -10    5.20    4.20
  -2   8 -10    0.00    5.80
  -2   8 -10   -2.20    9.00
   2  -8  10    1.40    5.70
  -3   8 -10  444.26   20.90
  -3   8 -10  443.86   29.70
  -3   8 -10  421.36   23.70
   3  -8  10  387.76   23.90
  -4   8 -10  140.89   19.50
  -4   8 -10  162.38   15.30
  -4   8 -10  144.89   13.00
   4  -8  10  121.39   14.60
  -5   8 -10  250.47   25.20
  -6   8 -10  197.38   23.70
  -7   8 -10   87.29   17.60
  -8   8 -10  202.58   26.00
  -9   8 -10   32.80   14.30
   8   7 -10  114.49   24.40
  -8  -7  10   78.79   26.90
   7   7 -10   10.50   13.30
  -7  -7  10   -7.30    7.10
  -7  -7  10    7.60   16.00
   6   7 -10  159.78   23.30
  -6  -7  10  155.48   18.10
  -6  -7  10  232.38   32.30
   5   7 -10  134.99    9.60
   5   7 -10  140.69   20.90
  -5  -7  10  109.39   14.80
  -5  -7  10  161.78   27.00
   4   7 -10   89.69   17.30
   4   7 -10   73.59    7.30
  -4  -7  10   77.89   18.30
  -4  -7  10   52.59   11.30
   3   7 -10  286.27   24.90
   3   7 -10  300.47   14.00
  -3  -7  10  303.87   30.90
  -3  -7  10  264.07   20.70
   2   7 -10  -13.30    6.90
   2   7 -10    0.10    3.10
  -2  -7  10   -1.10    5.20
   1   7 -10  471.45   29.00
   1   7 -10  410.36   18.50
  -1  -7  10  425.96   25.50
   0   7 -10   10.00    4.20
   0   7 -10   10.30    9.10
   0  -7  10    5.70    5.90
  -1   7 -10  588.54   32.40
  -1   7 -10  576.94   24.00
   1  -7  10  551.64   29.40
  -2   7 -10  221.98   13.30
  -2   7 -10  203.28   21.30
   2  -7  10  209.28   16.80
  -3   7 -10   80.19   14.30
  -3   7 -10   97.89   11.80
  -3   7 -10   92.59   10.20
   3  -7  10  103.09   12.80
  -4   7 -10  352.56   19.00
  -4   7 -10  342.37   25.10
  -4   7 -10  341.37   21.40
   4  -7  10  341.27   24.70
  -5   7 -10   10.80    8.90
  -6   7 -10  432.96   30.20
  -7   7 -10   10.00   11.90
   7  -7  10    0.50    5.70
  -8   7 -10  259.87   27.90
   8  -7  10  225.28   27.60
   8  -7  10  220.98   18.40
  -9   7 -10   45.50   16.10
   9  -7  10   30.50    9.50
   9  -7  10   39.30   16.70
  10  -7  10   66.49   12.50
   8   6 -10   28.50    8.70
   8   6 -10   12.60   14.10
  -8  -6  10   17.80   16.10
   7   6 -10  132.39   21.80
   7   6 -10  110.29   12.20
  -7  -6  10  115.59   15.50
  -7  -6  10  151.38   26.40
   6   6 -10  -14.00    8.50
   6   6 -10    0.60    4.90
  -6  -6  10    2.20   11.20
  -6  -6  10    5.90    7.10
   5   6 -10  205.18   23.10
   5   6 -10  220.48   13.80
  -5  -6  10  206.58   25.90
  -5  -6  10  193.68   20.20
   4   6 -10    2.90    8.60
   4   6 -10    7.10    3.90
   4   6 -10    9.90    5.00
  -4  -6  10    2.70    9.90
  -4  -6  10    8.10    7.10
   3   6 -10  467.55   19.50
   3   6 -10  449.95   21.10
   3   6 -10  460.95   28.40
  -3  -6  10  426.96   31.10
  -3  -6  10  480.25   27.30
   2   6 -10  225.98   12.20
   2   6 -10  223.28   21.30
   2   6 -10  213.08   14.00
  -2  -6  10  218.38   24.70
  -2  -6  10  229.88   21.20
   1   6 -10  310.97   22.10
   1   6 -10  285.77   16.90
   1   6 -10  289.17   14.50
  -1  -6  10  265.17   20.00
   0   6 -10  305.47   21.10
   0   6 -10  274.27   16.70
   0   6 -10  294.47   14.90
   0  -6  10  290.27   19.70
  -1   6 -10  109.59   10.20
  -1   6 -10   94.69   11.10
  -1   6 -10  113.29   15.20
   1  -6  10  113.29   14.10
  -2   6 -10  740.93   29.80
  -2   6 -10  705.33   35.40
  -2   6 -10  741.73   31.90
   2  -6  10  752.02   34.00
  -3   6 -10   -3.70    7.50
  -3   6 -10    5.20    7.10
  -3   6 -10    3.90    4.80
   3  -6  10   15.80    6.40
  -4   6 -10  654.43   34.30
  -4   6 -10  709.03   32.00
   4  -6  10  665.93   24.80
   4  -6  10  636.14   34.80
  -5   6 -10  100.49   15.40
  -5   6 -10  118.19   14.10
   5  -6  10  128.39   18.30
   5  -6  10  102.89    9.70
  -6   6 -10  213.88   21.80
  -6   6 -10  242.88   19.10
   6  -6  10  192.48   14.70
   6  -6  10  173.78   23.10
  -7   6 -10  128.49   16.90
  -7   6 -10  159.48   20.50
   7  -6  10  124.29   13.60
   7  -6  10  168.98   23.70
  -8   6 -10   76.79   14.60
  -8   6 -10   64.39   15.30
   8  -6  10   47.90   10.50
   8  -6  10   34.40   15.50
  -9   6 -10  244.88   26.00
  -9   6 -10  303.97   29.80
   9  -6  10  301.07   22.90
   9  -6  10  218.98   30.10
  10  -6  10   -4.60    8.40
  10  -6  10   -4.20   12.70
   9   5 -10   78.19   12.00
   9   5 -10  115.89   21.00
  -9  -5  10   70.09   12.00
  -9  -5  10   63.39   19.60
   8   5 -10   -2.00    5.50
   8   5 -10  -12.30    9.30
  -8  -5  10    2.70    7.30
  -8  -5  10  -14.60   10.10
   7   5 -10  166.28   13.00
   7   5 -10  171.18   22.10
  -7  -5  10  141.59   17.00
  -7  -5  10  162.78   24.70
   6   5 -10   67.09    8.80
   6   5 -10   85.59   16.00
  -6  -5  10   96.99   19.00
  -6  -5  10   83.49   13.50
   5   5 -10  178.38   20.10
   5   5 -10  186.68   12.90
  -5  -5  10  217.48   25.60
  -5  -5  10  220.48   21.50
   4   5 -10  372.86   18.80
   4   5 -10  427.86   27.60
  -4  -5  10  397.26   24.90
  -4  -5  10  459.75   31.00
   3   5 -10   78.59   13.80
   3   5 -10   77.49    8.70
  -3  -5  10   83.59   15.60
  -3  -5  10   72.59   12.10
   2   5 -10  749.82   29.20
   2   5 -10  762.32   36.70
   2   5 -10  746.43   30.60
  -2  -5  10  803.42   40.40
  -2  -5  10  774.82   37.40
   1   5 -10   45.60    6.50
   1   5 -10   38.00   10.20
   1   5 -10   53.29    8.50
  -1  -5  10   47.80   10.80
  -1  -5  10   21.80    9.80
   0   5 -10  939.61   40.60
   0   5 -10  909.71   34.90
   0   5 -10  917.11   36.50
   0  -5  10  969.80   41.90
  -1   5 -10  276.87   15.30
  -1   5 -10  264.07   16.80
  -1   5 -10  293.87   20.00
   1  -5  10  252.37   18.60
  -2   5 -10  550.94   28.10
  -2   5 -10  482.55   25.00
   2  -5  10  518.85   27.30
   2  -5  10  519.65   26.30
  -3   5 -10  396.86   22.90
  -3   5 -10  351.06   22.50
   3  -5  10  408.26   25.30
   3  -5  10  382.16   21.10
   3  -5  10  388.06   16.00
  -4   5 -10  219.88   18.80
  -4   5 -10  239.58   21.30
   4  -5  10  222.08   13.30
   4  -5  10  244.58   24.40
  -5   5 -10  427.06   27.00
  -5   5 -10  481.05   27.10
   5  -5  10  430.06   21.70
   5  -5  10  424.96   30.90
  -6   5 -10   26.50   10.00
  -6   5 -10   52.09   11.60
   6  -5  10   26.20    7.50
   6  -5  10    9.00   10.60
  -7   5 -10  416.46   27.60
  -7   5 -10  474.65   30.50
   7  -5  10  421.36   33.70
   7  -5  10  372.16   23.40
  -8   5 -10   37.50   13.00
  -8   5 -10   22.90   11.40
   8  -5  10   27.70   14.60
   8  -5  10   48.60   10.70
  -9   5 -10  297.97   35.20
  -9   5 -10  229.18   24.50
   9  -5  10  235.78   30.20
   9  -5  10  253.87   21.80
  10  -5  10   53.19   19.00
  10  -5  10   46.20   11.20
  10   4 -10    4.10   10.70
 -10  -4  10   32.20   15.20
   9   4 -10   55.29    9.70
  -9  -4  10   63.89   19.20
  -9  -4  10   66.89   11.60
   8   4 -10   26.90    7.50
  -8  -4  10   34.90   14.80
  -8  -4  10   31.60   10.00
  -8  -4  10   20.30    7.80
   7   4 -10   66.39   14.20
   7   4 -10   62.59    8.80
  -7  -4  10   57.89   12.30
  -7  -4  10   73.79   16.60
   6   4 -10  272.67   22.40
   6   4 -10  307.57   16.40
  -6  -4  10  255.37   26.30
  -6  -4  10  262.77   21.50
   5   4 -10   18.90    8.80
   5   4 -10    6.30    4.50
  -5  -4  10   22.50    9.50
  -5  -4  10   18.80    8.70
   4   4 -10  640.54   33.10
   4   4 -10  617.64   25.80
  -4  -4  10  593.74   35.30
  -4  -4  10  633.44   34.20
   3   4 -10   99.69    9.50
   3   4 -10   68.59   12.50
  -3  -4  10   99.69   15.30
  -3  -4  10   79.39   14.40
   2   4 -10  660.63   27.10
   2   4 -10  623.04   31.00
  -2  -4  10  657.43   34.40
  -2  -4  10  588.24   32.80
   1   4 -10  380.06   22.60
   1   4 -10  396.76   20.10
  -1  -4  10  392.16   25.10
  -1  -4  10  347.27   23.30
   0   4 -10  207.78   14.50
   0   4 -10  214.98   16.60
   0  -4  10  213.88   17.60
  -1   4 -10 1006.50   41.20
  -1   4 -10 1094.79   43.50
   1  -4  10 1129.99   44.10
   1  -4  10 1053.39   44.90
  -2   4 -10  166.18   14.10
  -2   4 -10  138.99   13.60
   2  -4  10  139.69   15.80
   2  -4  10  143.59    8.70
   2  -4  10  160.38   15.40
  -3   4 -10  752.02   34.60
  -3   4 -10  768.32   34.90
   3  -4  10  771.52   30.10
   3  -4  10  826.82   40.00
  -4   4 -10   -2.10    7.00
  -4   4 -10   -3.30    6.60
   4  -4  10   14.60   10.30
   4  -4  10    1.00    5.00
  -5   4 -10  509.65   28.20
  -5   4 -10  483.75   28.00
   5  -4  10  478.55   32.70
   5  -4  10  451.65   23.80
  -6   4 -10   98.19   15.20
  -6   4 -10  116.39   16.00
   6  -4  10  139.89   21.60
   6  -4  10   89.69   11.80
  -7   4 -10  250.87   24.00
  -7   4 -10  228.98   22.40
  -7   4 -10  268.07   22.50
   7  -4  10  260.87   19.30
   7  -4  10  315.77   31.30
  -8   4 -10  295.47   27.20
  -8   4 -10  322.77   25.10
   8  -4  10  302.87   22.00
   8  -4  10  347.27   34.00
  -9   4 -10   68.19   15.60
   9  -4  10   70.49   12.50
   9  -4  10   64.59   18.40
  10  -4  10  131.29   24.20
  10  -4  10  142.79   16.60
  10   3 -10   50.69    9.70
 -10  -3  10   84.79   19.50
 -10  -3  10   65.39   12.60
   9   3 -10   10.30    6.80
  -9  -3  10   -4.30    7.20
  -9  -3  10   -0.30   11.10
  -9  -3  10    8.90    7.80
   8   3 -10  180.98   14.20
  -8  -3  10  196.98   21.20
  -8  -3  10  165.68   22.60
  -8  -3  10  186.08   17.10
   7   3 -10   16.70    6.20
  -7  -3  10   13.20    8.00
  -7  -3  10   25.60   10.10
   6   3 -10  261.07   15.30
  -6  -3  10  277.67   23.00
  -6  -3  10  247.38   23.60
   5   3 -10  108.39   14.40
   5   3 -10  118.29   10.60
  -5  -3  10  119.49   16.00
  -5  -3  10  113.89   16.20
   4   3 -10  223.38   17.60
   4   3 -10  194.08   12.90
  -4  -3  10  190.78   21.00
  -4  -3  10  249.68   23.00
   3   3 -10  732.23   33.80
   3   3 -10  688.43   28.60
  -3  -3  10  714.73   36.10
  -3  -3  10  691.13   37.10
   2   3 -10   41.50    9.20
   2   3 -10   51.19    8.20
  -2  -3  10   27.80    9.60
  -2  -3  10   32.60    8.90
   1   3 -10  847.52   36.00
   1   3 -10  864.01   35.00
  -1  -3  10  873.61   39.30
  -1  -3  10  878.41   33.90
  -1  -3  10  813.42   39.90
   0   3 -10   10.00    6.20
   0   3 -10   -1.60    5.40
   0  -3  10   -1.90    4.40
   0  -3  10    4.60    6.90
  -1   3 -10 1387.26   50.19
  -1   3 -10 1339.97   50.19
   1  -3  10 1339.17   53.09
   1  -3  10 1270.97   52.59
   1  -3  10 1315.27   44.50
  -2   3 -10   87.19   11.50
  -2   3 -10   98.29   11.40
   2  -3  10  114.69   12.70
   2  -3  10   85.39    8.70
   2  -3  10   83.19   13.70
  -3   3 -10  627.04   28.70
  -3   3 -10  584.24   29.60
   3  -3  10  557.74   25.70
   3  -3  10  623.14   34.20
  -4   3 -10  575.94   30.60
  -4   3 -10  625.54   29.70
   4  -3  10  576.74   26.80
   4  -3  10  580.04   34.60
  -5   3 -10  359.86   22.30
  -5   3 -10  322.07   22.60
   5  -3  10  337.47   26.90
   5  -3  10  297.07   18.90
  -6   3 -10  650.33   36.50
  -6   3 -10  699.43   35.90
   6  -3  10  664.03   39.90
   6  -3  10  730.23   32.10
  -7   3 -10    8.70    9.50
  -7   3 -10    7.50    7.50
   7  -3  10    0.60    6.10
   7  -3  10    5.00    9.80
  -8   3 -10  364.66   26.00
  -8   3 -10  373.56   31.90
   8  -3  10  404.66   24.10
   8  -3  10  378.76   32.00
  -9   3 -10   27.70   13.40
   9  -3  10   18.90    8.40
   9  -3  10   33.20   14.40
  10  -3  10  100.69   14.20
  10   2 -10  110.49   12.70
 -10  -2  10  100.69   14.60
 -10  -2  10  117.09   19.90
   9   2 -10    9.80    6.60
  -9  -2  10   16.70    9.60
  -9  -2  10   20.30   11.80
  -9  -2  10   10.80    6.80
   8   2 -10  164.58   14.20
  -8  -2  10  148.69   19.00
  -8  -2  10  163.08   20.40
  -8  -2  10  156.98   15.40
   7   2 -10  223.58   14.40
  -7  -2  10  184.08   21.50
  -7  -2  10  211.98   22.30
   6   2 -10   84.59    9.50
  -6  -2  10   92.19   16.80
  -6  -2  10   88.19   13.70
   5   2 -10  551.24   24.80
  -5  -2  10  610.14   31.70
  -5  -2  10  577.54   34.80
   4   2 -10    0.10    6.00
   4   2 -10    1.20    4.70
  -4  -2  10    3.80    5.60
  -4  -2  10    5.10    8.70
   3   2 -10  820.52   32.90
   3   2 -10  866.11   36.70
  -3  -2  10  828.22   42.40
  -3  -2  10  853.71   38.50
   2   2 -10   50.09    8.10
   2   2 -10   53.99    9.10
  -2  -2  10   27.20    9.90
  -2  -2  10   49.99    9.60
  -2  -2  10   58.59    7.30
   1   2 -10  617.14   28.60
   1   2 -10  643.54   28.80
  -1  -2  10  673.13   28.40
  -1  -2  10  634.54   33.40
  -1  -2  10  672.03   31.40
   0   2 -10  546.75   25.00
   0   2 -10  518.35   24.20
   0  -2  10  502.05   27.90
   0  -2  10  548.55   26.90
   0  -2  10  487.65   19.80
  -1   2 -10  546.55   25.20
  -1   2 -10  588.04   27.00
   1  -2  10  562.34   28.30
   1  -2  10  554.04   29.30
   1  -2  10  543.85   23.00
  -2   2 -10  855.21   36.20
  -2   2 -10  840.02   34.10
   2  -2  10  802.02   39.40
   2  -2  10  831.22   32.50
   2  -2  10  792.72   42.70
  -3   2 -10   50.19    8.80
  -3   2 -10   52.49   10.70
   3  -2  10   27.20    6.80
   3  -2  10   43.30   11.20
  -4   2 -10 1054.39   46.40
  -4   2 -10 1134.99   48.20
   4  -2  10 1118.99   43.10
   4  -2  10 1198.08   51.79
  -5   2 -10   16.80    9.20
  -5   2 -10   39.60    9.40
   5  -2  10   41.50   12.30
   5  -2  10   38.70    8.00
  -6   2 -10  383.26   27.80
  -6   2 -10  382.26   24.60
   6  -2  10  439.66   29.80
   6  -2  10  404.76   22.30
  -7   2 -10  110.99   15.10
  -7   2 -10  129.19   19.80
   7  -2  10  133.39   13.90
   7  -2  10   72.99   15.60
  -8   2 -10  223.18   21.80
  -8   2 -10  219.28   25.20
   8  -2  10  230.28   18.80
   8  -2  10  250.87   27.10
   9  -2  10  127.39   21.00
   9  -2  10  152.58   16.30
  10  -2  10   15.10    8.40
  11   1 -10   24.40    8.10
 -11  -1  10   23.80   13.70
 -11  -1  10   51.49   11.40
  10   1 -10   25.60    8.00
 -10  -1  10   40.10   14.70
 -10  -1  10   48.60   10.30
   9   1 -10  142.89   13.50
  -9  -1  10  116.19   13.90
  -9  -1  10  114.09   18.00
  -9  -1  10  129.49   18.90
   8   1 -10    1.80    4.80
  -8  -1  10    9.90    9.40
  -8  -1  10   21.10   10.80
   7   1 -10  261.47   16.00
  -7  -1  10  326.07   26.30
  -7  -1  10  271.47   21.10
   6   1 -10   17.00    5.60
  -6  -1  10   26.10   11.30
  -6  -1  10    7.60    6.60
   5   1 -10  588.14   25.70
  -5  -1  10  624.04   31.20
  -5  -1  10  619.94   36.60
   4   1 -10  416.46   20.00
  -4  -1  10  418.56   28.20
  -4  -1  10  392.16   23.60
   3   1 -10  324.57   19.20
   3   1 -10  344.97   18.30
  -3  -1  10  352.66   21.00
  -3  -1  10  319.37   24.10
   2   1 -10  746.03   31.40
   2   1 -10  721.33   30.70
  -2  -1  10  742.53   33.30
  -2  -1  10  680.73   29.10
  -2  -1  10  773.42   37.40
   1   1 -10   58.99    9.40
   1   1 -10   54.99    7.70
   1   1 -10   61.79    8.60
  -1  -1  10   47.10    5.50
  -1  -1  10   74.59   10.50
  -1  -1  10   65.19    9.40
  -1  -1  10   43.90   10.60
   0   1 -10 1285.97   48.20
   0   1 -10 1278.27   47.20
   0   1 -10 1239.88   48.80
   0  -1  10 1325.77   45.90
   0  -1  10 1434.16   52.79
   0  -1  10 1330.27   51.59
  -1   1 -10   29.50    6.70
  -1   1 -10   13.10    6.60
  -1   1 -10   17.70    6.10
   1  -1  10   36.90   10.10
   1  -1  10   41.90    8.60
   1  -1  10   30.00    6.10
  -2   1 -10 1036.40   42.30
  -2   1 -10 1039.40   43.30
  -2   1 -10 1027.10   41.50
   2  -1  10 1051.79   39.30
   2  -1  10 1109.99   46.30
  -3   1 -10  509.85   26.50
  -3   1 -10  520.75   28.20
   3  -1  10  515.95   29.40
   3  -1  10  516.85   23.30
   3  -1  10  479.55   25.40
  -4   1 -10  466.55   28.60
  -4   1 -10  504.05   26.90
   4  -1  10  542.55   25.90
   4  -1  10  439.56   28.50
   4  -1  10  484.15   23.00
  -5   1 -10  406.56   28.90
  -5   1 -10  453.35   26.70
   5  -1  10  501.45   30.40
   5  -1  10  499.25   23.60
   5  -1  10  514.85   26.00
  -6   1 -10  107.29   14.70
  -6   1 -10  100.89   16.40
   6  -1  10   97.49   11.50
   6  -1  10   89.09   12.70
   6  -1  10  109.29   16.70
  -7   1 -10  377.56   26.10
  -7   1 -10  385.96   29.90
   7  -1  10  433.36   23.20
   7  -1  10  421.16   30.10
   7  -1  10  457.55   25.70
  -8   1 -10    3.70   12.40
   8  -1  10   25.80    9.50
   8  -1  10    2.20    6.80
   8  -1  10   14.70   11.00
   9  -1  10  199.88   24.60
   9  -1  10  193.78   18.40
  11   0 -10   66.69   11.00
 -11   0  10   91.79   19.00
 -11   0  10   76.79   13.10
  10   0 -10    6.20    6.60
 -10   0  10   13.30    8.40
 -10   0  10    1.00    9.60
 -10   0  10    5.10   10.00
   9   0 -10  103.29   11.60
  -9   0  10  101.49   18.50
  -9   0  10  120.49   18.20
   8   0 -10   77.89    9.90
  -8   0  10   60.69   15.50
  -8   0  10   77.89   14.70
   7   0 -10  220.88   14.60
  -7   0  10  255.67   20.30
  -7   0  10  223.28   26.40
   6   0 -10  649.24   27.90
  -6   0  10  674.03   32.60
  -6   0  10  628.54   38.20
   5   0 -10   77.19    9.20
  -5   0  10   87.39   12.10
  -5   0  10  104.69   17.20
   4   0 -10  673.53   29.30
  -4   0  10  737.73   37.80
  -4   0  10  723.33   32.70
   3   0 -10    4.80    5.30
   3   0 -10   -0.20    5.20
  -3   0  10   14.10    5.90
  -3   0  10    2.00    7.60
   2   0 -10  688.13   30.20
   2   0 -10  646.74   28.20
  -2   0  10  700.43   24.80
  -2   0  10  635.54   33.00
  -2   0  10  623.84   29.70
  -2   0  10  657.53   28.40
   1   0 -10  134.19   12.80
   1   0 -10  152.18   11.70
   1   0 -10  178.38   12.40
  -1   0  10  154.38   13.50
  -1   0  10  143.09   12.60
  -1   0  10  170.68   16.60
  -1   0  10  179.88   10.90
   0   0 -10 1120.99   41.90
   0   0 -10  960.90   41.70
   0   0 -10 1059.99   39.50
   0   0  10 1113.99   39.60
   0   0  10 1104.09   44.40
   0   0  10 1118.09   44.00
   0   0  10 1100.99   41.90
  -1   0 -10  898.01   37.20
  -1   0 -10  882.61   38.30
   1   0  10  906.81   36.80
   1   0  10  896.41   34.60
   1   0  10  955.80   37.80
   1   0  10  895.41   39.60
  -2   0 -10  363.46   21.00
  -2   0 -10  332.37   21.40
   2   0  10  376.06   18.60
   2   0  10  337.07   20.10
   2   0  10  340.67   22.40
  -3   0 -10  932.71   40.30
  -3   0 -10  926.21   42.20
   3   0  10  920.01   42.80
   3   0  10  935.11   39.30
   3   0  10  974.30   36.90
  -4   0 -10   19.90    7.50
  -4   0 -10   17.90    8.70
   4   0  10   26.80    6.40
   4   0  10    8.00    7.30
   4   0  10   10.00    6.20
  -5   0 -10  637.44   36.60
  -5   0 -10  667.13   34.30
   5   0  10  711.93   37.30
   5   0  10  675.83   29.50
   5   0  10  694.03   32.80
  -6   0 -10    6.70   10.40
  -6   0 -10   29.10    9.40
   6   0  10   17.40    9.60
   6   0  10   24.10    7.00
   6   0  10   31.50    9.20
  -7   0 -10  528.95   31.20
  -7   0 -10  504.85   35.10
   7   0  10  549.85   34.10
   7   0  10  515.35   25.70
   7   0  10  481.45   28.70
  -8   0 -10   91.09   21.00
   8   0  10  115.89   18.90
   8   0  10  128.89   17.10
  11  -1 -10   39.40    8.80
 -11   1  10   61.49   15.40
  10  -1 -10  102.19   12.10
 -10   1  10  100.19   19.50
 -10   1  10   65.19   15.60
   9  -1 -10   33.60    7.40
  -9   1  10   12.20   10.40
  -9   1  10   30.10   13.20
   8  -1 -10  290.57   17.40
  -8   1  10  278.57   22.20
  -8   1  10  324.57   31.70
   7  -1 -10   -1.30    4.90
  -7   1  10    5.40   10.80
  -7   1  10   -3.20    6.00
   6  -1 -10  467.45   22.80
  -6   1  10  576.14   34.30
  -6   1  10  496.15   26.90
   5  -1 -10   53.29    8.50
  -5   1  10   76.79   11.10
  -5   1  10   74.59   15.50
   4  -1 -10  299.87   18.10
  -4   1  10  365.16   19.90
  -4   1  10  333.47   24.70
   3  -1 -10  470.95   21.60
   3  -1 -10  450.05   23.30
  -3   1  10  435.06   27.10
  -3   1  10  448.46   22.80
  -3   1  10  441.76   18.20
   2  -1 -10  332.77   19.80
   2  -1 -10  315.47   17.10
  -2   1  10  307.27   18.20
  -2   1  10  374.76   16.60
  -2   1  10  335.97   18.50
  -2   1  10  319.97   22.00
   1  -1 -10  634.44   27.50
   1  -1 -10  604.74   28.50
  -1   1  10  604.34   25.10
  -1   1  10  589.04   30.10
  -1   1  10  620.94   28.70
   0  -1 -10  247.68   16.30
   0  -1 -10  201.98   15.30
   0   1  10  204.18   13.20
   0   1  10  196.58   15.30
   0   1  10  206.48   15.30
   0   1  10  221.78   16.70
   0   1  10  203.28   16.20
  -1  -1 -10 1022.30   40.70
  -1  -1 -10  953.00   40.70
   1   1  10  950.90   37.10
   1   1  10  978.20   41.00
   1   1  10  961.30   39.30
   1   1  10 1009.00   42.80
  -2  -1 -10   27.50    9.20
  -2  -1 -10   29.80    8.10
   2   1  10   37.40    8.90
   2   1  10   22.80    7.80
   2   1  10   32.00    6.80
   2   1  10   39.90   10.30
  -3  -1 -10  523.45   29.90
  -3  -1 -10  580.24   29.00
   3   1  10  508.95   26.40
   3   1  10  544.75   30.60
   3   1  10  498.45   24.00
  -4  -1 -10  312.47   21.90
  -4  -1 -10  289.27   25.20
   4   1  10  329.37   18.20
   4   1  10  296.57   23.60
   4   1  10  297.97   20.50
  -5  -1 -10  265.77   25.30
  -5  -1 -10  253.07   20.50
   5   1  10  265.67   25.40
   5   1  10  210.28   16.10
   5   1  10  265.37   19.80
  -6  -1 -10  240.98   23.20
  -6  -1 -10  234.48   24.90
   6   1  10  232.88   25.10
   6   1  10  262.37   22.70
  -7  -1 -10   38.40   14.60
   7   1  10   46.30   13.40
   7   1  10   55.99   11.60
   8   1  10  268.77   24.50
   8   1  10  311.37   32.20
  11  -2 -10    2.00    6.80
 -11   2  10    7.30    9.70
  10  -2 -10   63.79   10.20
 -10   2  10   65.19   14.20
 -10   2  10   57.79   17.40
   9  -2 -10    1.00    5.80
  -9   2  10    4.40   11.10
  -9   2  10  -11.20    6.40
   8  -2 -10  155.48   14.00
  -8   2  10  195.78   24.60
  -8   2  10  197.58   19.50
   7  -2 -10  208.58   14.70
  -7   2  10  237.98   18.40
  -7   2  10  216.58   23.80
   6  -2 -10  148.59   13.10
  -6   2  10  153.38   15.30
  -6   2  10  145.59   19.20
   5  -2 -10  366.96   19.60
  -5   2  10  330.97   20.10
  -5   2  10  366.16   26.00
   4  -2 -10   -1.20    5.30
  -4   2  10   11.80    5.60
  -4   2  10    4.80    3.30
  -4   2  10  -11.90    6.50
   3  -2 -10  898.91   37.10
  -3   2  10  899.71   41.90
  -3   2  10  833.52   32.40
   2  -2 -10    7.50    6.70
  -2   2  10   23.10    5.70
  -2   2  10    4.10    7.10
  -2   2  10    0.50    5.00
   1  -2 -10 1555.74   56.29
   1  -2 -10 1565.54   56.79
  -1   2  10 1488.35   53.59
  -1   2  10 1480.75   57.39
  -1   2  10 1537.25   59.99
   0  -2 -10  548.05   27.40
   0  -2 -10  555.34   27.60
   0   2  10  554.74   28.20
   0   2  10  541.15   27.80
   0   2  10  511.65   24.20
   0   2  10  537.65   28.30
   0   2  10  551.54   26.20
  -1  -2 -10  528.85   26.90
  -1  -2 -10  527.75   27.50
   1   2  10  480.15   23.20
   1   2  10  444.96   24.50
   1   2  10  467.65   27.60
   1   2  10  504.25   27.20
  -2  -2 -10  515.25   28.10
  -2  -2 -10  473.95   28.00
   2   2  10  471.15   29.30
   2   2  10  523.95   24.10
   2   2  10  500.95   28.10
   2   2  10  469.95   25.10
  -3  -2 -10   88.89   14.50
  -3  -2 -10  136.99   16.20
   3   2  10   82.49   12.00
   3   2  10  112.79   16.70
   3   2  10   95.19   10.80
  -4  -2 -10  626.24   36.00
  -4  -2 -10  660.33   34.90
   4   2  10  656.63   31.70
   4   2  10  672.13   29.50
   4   2  10  621.84   36.30
  -5  -2 -10   11.50    8.70
  -5  -2 -10   -1.90   10.50
   5   2  10    3.00    7.50
   5   2  10    7.60    9.00
  -6  -2 -10  381.46   26.80
  -6  -2 -10  328.67   30.20
   6   2  10  340.17   24.30
   6   2  10  344.77   28.70
   7   2  10   74.89   16.20
   7   2  10   81.49   14.00
  11  -3 -10   24.60    8.20
 -11   3  10   14.70   10.20
 -11   3  10   21.40   14.90
  10  -3 -10   47.50    9.00
 -10   3  10   76.79   15.10
 -10   3  10   64.09   17.20
   9  -3 -10   87.49   11.10
  -9   3  10   96.69   19.60
  -9   3  10   85.39   14.30
   8  -3 -10   33.00    7.50
  -8   3  10   21.90    8.40
  -8   3  10   28.50   13.50
   7  -3 -10  255.77   16.40
  -7   3  10  248.58   17.90
  -7   3  10  232.98   25.30
   6  -3 -10    1.10    5.50
  -6   3  10    0.20    5.40
  -6   3  10   16.60    9.60
   5  -3 -10  407.46   21.40
  -5   3  10  338.77   26.00
  -5   3  10  370.26   16.40
  -5   3  10  369.56   20.50
   4  -3 -10  175.98   15.60
  -4   3  10  194.58   12.40
  -4   3  10  217.08   22.60
   3  -3 -10  722.83   31.80
  -3   3  10  703.83   37.50
  -3   3  10  714.63   29.30
   2  -3 -10  384.66   21.70
  -2   3  10  383.06   25.80
  -2   3  10  379.26   22.30
  -2   3  10  412.96   20.50
   1  -3 -10  274.67   18.80
   1  -3 -10  276.67   18.20
  -1   3  10  270.17   20.90
  -1   3  10  257.87   19.30
  -1   3  10  262.37   16.50
  -1   3  10  243.58   20.30
   0  -3 -10 1044.10   42.60
   0  -3 -10  921.01   40.40
   0   3  10  945.01   42.80
   0   3  10  997.80   38.80
   0   3  10  936.51   43.20
   0   3  10  933.11   51.49
   0   3  10  972.10   40.20
  -1  -3 -10   22.10    8.50
  -1  -3 -10    9.70    8.40
   1   3  10   15.70    7.10
   1   3  10    8.10    8.40
   1   3  10    4.70    6.90
   1   3  10   14.30    6.40
  -2  -3 -10  860.81   40.10
  -2  -3 -10  790.42   39.20
   2   3  10  813.82   41.80
   2   3  10  846.42   36.50
   2   3  10  821.62   35.10
  -3  -3 -10   69.09   13.20
  -3  -3 -10   65.69   13.70
   3   3  10   81.29   15.50
   3   3  10   71.59   10.10
   3   3  10   69.69   11.20
  -4  -3 -10  545.15   34.00
  -4  -3 -10  544.55   32.80
   4   3  10  549.54   35.10
   4   3  10  594.94   29.70
  -5  -3 -10   29.30   11.00
  -5  -3 -10   14.00   13.60
   5   3  10    6.90    8.40
   5   3  10   43.60   13.70
  -6  -3 -10  222.48   25.60
   6   3  10  239.28   21.60
   6   3  10  232.28   26.20
  11  -4 -10   62.89   11.30
 -11   4  10   51.99   17.90
 -11   4  10   68.29   15.10
  10  -4 -10    3.30    6.70
 -10   4  10   -0.40    8.00
 -10   4  10    4.50   13.20
   9  -4 -10  127.09   13.30
  -9   4  10  118.29   21.40
  -9   4  10  124.69   16.10
   8  -4 -10   29.30    7.60
  -8   4  10   56.49   11.20
  -8   4  10   34.40   13.70
   7  -4 -10  187.08   14.70
  -7   4  10  141.79   15.10
  -7   4  10  184.58   24.10
   6  -4 -10  150.28   14.40
  -6   4  10  124.39   19.80
  -6   4  10  132.09    9.50
   5  -4 -10   85.99   11.80
  -5   4  10   67.59    8.40
  -5   4  10   69.69   14.20
   4  -4 -10  448.16   23.70
  -4   4  10  431.76   21.50
  -4   4  10  449.26   29.80
   3  -4 -10   22.30    7.60
  -3   4  10   27.40    7.00
  -3   4  10   47.20   11.60
   2  -4 -10  585.24   27.50
  -2   4  10  614.54   27.10
  -2   4  10  503.85   28.40
  -2   4  10  559.14   32.00
   1  -4 -10  162.78   16.30
   1  -4 -10  167.08   15.50
  -1   4  10  139.49   17.30
  -1   4  10  113.89   15.10
  -1   4  10  127.99   14.20
   0  -4 -10  547.75   30.00
   0  -4 -10  525.05   28.50
   0   4  10  521.95   30.40
   0   4  10  499.85   39.80
   0   4  10  533.55   27.70
  -1  -4 -10  214.98   21.10
  -1  -4 -10  181.48   18.50
   1   4  10  155.98   14.80
   1   4  10  182.38   20.40
   1   4  10  145.09   15.20
  -2  -4 -10  260.27   24.40
  -2  -4 -10  258.67   23.20
   2   4  10  269.87   19.20
   2   4  10  274.47   26.50
   2   4  10  249.58   18.20
  -3  -4 -10  333.87   26.30
  -3  -4 -10  348.17   26.50
   3   4  10  331.07   27.90
   3   4  10  391.56   22.90
  -4  -4 -10  130.59   19.20
  -4  -4 -10  130.89   19.10
   4   4  10  149.39   16.40
   4   4  10  163.78   22.80
  -5  -4 -10  261.87   27.00
   5   4  10  324.77   30.80
   5   4  10  268.97   21.00
 -11   5  10   53.89   18.00
 -11   5  10   45.40   12.20
  10  -5 -10   40.80    9.10
 -10   5  10   70.09   18.70
 -10   5  10   48.40   11.30
   9  -5 -10   75.69   10.90
  -9   5  10   68.79   12.10
  -9   5  10   76.69   18.90
   8  -5 -10  158.08   14.90
  -8   5  10  182.48   24.70
   7  -5 -10    2.60    7.00
  -7   5  10   35.30   14.00
   6  -5 -10  262.87   18.80
  -6   5  10  275.57   27.80
  -6   5  10  247.78   15.20
   5  -5 -10   11.40    7.30
  -5   5  10    1.50    5.20
  -5   5  10   -5.00    8.90
   4  -5 -10  403.46   22.90
  -4   5  10  412.66   22.00
  -4   5  10  441.76   29.50
   3  -5 -10   69.69   10.40
  -3   5  10   89.79   15.60
   2  -5 -10  279.27   18.50
  -2   5  10  288.07   22.70
  -2   5  10  263.57   20.30
   1  -5 -10  406.86   25.90
   1  -5 -10  395.36   24.20
  -1   5  10  416.66   27.10
  -1   5  10  444.06   27.00
  -1   5  10  441.76   25.90
   0  -5 -10   80.49   13.50
   0  -5 -10   94.09   14.60
   0   5  10   93.69   12.90
   0   5  10   61.89   13.00
  -1  -5 -10  564.04   34.30
  -1  -5 -10  571.84   31.40
   1   5  10  583.84   29.90
   1   5  10  558.84   34.70
  -2  -5 -10    6.20    9.80
  -2  -5 -10   10.20   10.30
   2   5  10   -0.40    6.30
   2   5  10   -2.40    8.80
  -3  -5 -10  495.95   33.00
  -3  -5 -10  571.74   35.50
   3   5  10  518.25   35.90
   3   5  10  526.45   28.50
   4   5  10   35.10   13.40
   4   5  10   20.60    8.50
 -12   6  10   19.70   22.50
 -11   6  10   15.30   15.90
 -11   6  10   19.50   15.00
 -10   6  10   57.69   17.90
  -9   6  10  -14.80   11.60
  -8   6  10  102.29   20.10
  -7   6  10   13.90    5.40
  -7   6  10    6.30   11.00
  -6   6  10  306.07   29.50
  -6   6  10  235.88   16.70
  -5   6  10  168.88   22.60
  -4   6  10  129.39   19.10
  -3   6  10  227.48   23.10
  -2   6  10    3.00    8.50
  -2   6  10    7.20    7.20
   1  -6 -10  451.65   28.00
  -1   6  10  340.97   26.70
  -1   6  10  431.06   26.60
  -1   6  10  413.96   27.00
   0  -6 -10   39.80   11.80
   0   6  10   30.70    9.60
   0   6  10   38.20   11.60
  -1  -6 -10  324.47   27.30
   1   6  10  286.37   28.00
   1   6  10  303.47   22.00
  -2  -6 -10  165.58   21.90
   2   6  10  145.49   16.80
   2   6  10  124.89   20.70
   3   6  10  119.49   20.40
   3   6  10  112.19   14.70
 -11   7  10   19.80   16.70
 -10   7  10   10.10   14.40
  -9   7  10   10.90   14.70
  -8   7  10   50.49   16.90
  -7   7  10  190.78   15.70
  -7   7  10  159.98   24.10
  -6   7  10   -4.00    9.50
  -5   7  10  252.57   27.20
  -4   7  10   11.00    9.90
  -3   7  10  328.97   25.60
  -2   7  10  130.79   17.60
  -2   7  10  102.69   16.80
   1  -7 -10   96.79   20.40
  -1   7  10  155.08   19.50
  -1   7  10  152.68   21.40
   0  -7 -10  256.57   25.70
   0   7  10  232.68   22.00
   0   7  10  208.08   23.60
  -1  -7 -10   39.50   17.40
   1   7  10   36.70   10.40
   1   7  10   36.60   12.90
   2   7  10  193.58   19.20
   2   7  10  170.48   23.50
 -10   8  10   25.40   16.90
  -9   8  10   74.79   19.90
  -8   8  10   -2.60    6.10
  -8   8  10   -4.50   12.20
  -7   8  10  131.19   22.40
  -7   8  10  167.48   15.80
  -6   8  10   51.09   16.10
  -5   8  10   94.29   17.90
  -4   8  10  141.59   19.30
  -3   8  10   39.10   12.30
  -2   8  10  183.38   21.30
  -1   8  10   12.90   10.30
   0   8  10  283.37   23.80
   0   8  10  226.18   25.50
  -9   9  10   32.00   16.40
  -8   9  10   48.90   10.30
  -8   9  10   69.39   19.50
  -7   9  10   19.30   13.30
  -6   9  10   59.49   17.00
  -5   9  10    4.00   10.10
  -4   9  10   76.99   16.40
  -3   9  10   14.20   10.30
  -1   9  10   99.79   23.40
  -5  10  10    9.20   14.70
  -4  10  10   26.70   13.50
  -2  13 -11   73.49   22.70
  -3  13 -11    8.20   10.50
   3 -13  11   17.40   12.40
  -4  13 -11   82.79   16.20
  -5  13 -11   44.90   14.50
   1  12 -11    7.60    8.20
  -1 -12  11    9.20    9.90
   0  12 -11   44.60   11.90
   0  12 -11  112.99   31.00
   0  12 -11   69.99   12.20
   0 -12  11   52.49   13.90
  -1  12 -11   71.09   10.10
  -1  12 -11   72.09   18.90
  -1  12 -11   72.79   14.90
   1 -12  11   59.79   14.20
  -2  12 -11   42.00    8.80
  -2  12 -11   61.39   18.30
  -2  12 -11   49.20   12.40
   2 -12  11   65.19   15.30
  -3  12 -11  134.59   13.60
  -3  12 -11   91.29   20.40
  -3  12 -11  101.49   17.30
   3 -12  11   87.49   16.90
  -4  12 -11   13.90    7.20
  -4  12 -11   -5.40    9.70
  -4  12 -11   12.80   22.10
   4 -12  11    3.50   10.10
  -5  12 -11  152.08   20.60
   3  11 -11   17.80   10.00
  -3 -11  11    7.00    9.50
   2  11 -11   56.79   12.40
   2  11 -11   52.59    7.80
   2  11 -11   59.69   17.60
  -2 -11  11   53.29   13.10
   1  11 -11   61.59   18.70
   1  11 -11   83.49   14.10
   1  11 -11  125.79   11.30
  -1 -11  11  145.59   19.60
   0  11 -11   13.70   13.90
   0  11 -11   10.70    5.60
   0  11 -11   10.30    8.70
   0 -11  11    5.70    8.30
  -1  11 -11  166.58   13.90
  -1  11 -11  165.58   18.90
  -1  11 -11  130.69   22.50
   1 -11  11  161.18   19.90
  -2  11 -11    8.50    5.90
  -2  11 -11    7.10   12.50
  -2  11 -11   19.60    9.90
   2 -11  11   23.40   10.20
  -3  11 -11  126.09   17.60
  -3  11 -11  136.49   23.20
  -3  11 -11  180.78   15.30
   3 -11  11  171.68   21.30
  -4  11 -11   72.99   19.20
  -4  11 -11   44.40    9.30
  -4  11 -11   62.79   13.80
   4 -11  11   48.40   12.90
  -5  11 -11   98.79   20.00
  -6  11 -11   76.19   20.30
   5  10 -11   64.49   12.80
  -5 -10  11   58.79   13.60
   4  10 -11    3.40   13.10
   4  10 -11    8.30    8.30
   4  10 -11   14.70    5.00
  -4 -10  11    4.00    8.80
   3  10 -11  130.09   11.00
   3  10 -11   88.39   20.10
   3  10 -11  100.99   14.20
  -3 -10  11  104.49   16.30
   2  10 -11   13.60   12.40
   2  10 -11   -2.00    3.60
   2  10 -11    7.70    7.40
  -2 -10  11    0.00    8.30
   1  10 -11  182.08   18.40
   1  10 -11  206.48   13.20
   1  10 -11  199.28   25.40
  -1 -10  11  202.48   21.90
   0  10 -11   31.40   14.20
   0  10 -11   25.60    9.70
   0  10 -11   45.00    7.70
   0 -10  11   30.70   10.80
  -1  10 -11  125.09   21.10
  -1  10 -11  176.78   18.20
  -1  10 -11  133.29   12.20
   1 -10  11  150.68   19.30
  -2  10 -11  125.69   16.50
  -2  10 -11  120.69   21.50
  -2  10 -11  111.89   11.60
   2 -10  11  120.69   17.60
  -3  10 -11   64.09    9.60
  -3  10 -11   43.20   14.50
  -3  10 -11   67.19   13.00
   3 -10  11   39.30   11.30
  -4  10 -11  224.88   16.00
  -4  10 -11  173.38   23.70
  -4  10 -11  221.38   21.40
   4 -10  11  233.48   22.80
  -5  10 -11  -12.40   10.40
  -6  10 -11  145.49   23.00
  -7  10 -11   14.40   13.10
   6   9 -11   -1.50    7.20
  -6  -9  11   -5.20    7.70
   5   9 -11   50.19   11.20
   5   9 -11   36.00   15.90
   5   9 -11   79.59    8.60
  -5  -9  11   66.89   13.60
   4   9 -11    2.80   11.90
   4   9 -11   16.70    5.30
   4   9 -11   12.90    7.80
  -4  -9  11   18.70    9.70
   3   9 -11  155.68   11.00
   3   9 -11  131.69   21.80
  -3  -9  11  164.08   20.00
   2   9 -11  132.79   11.00
   2   9 -11  143.89   21.00
  -2  -9  11  156.88   19.20
   1   9 -11   70.59   15.70
   1   9 -11   90.89    9.10
   1   9 -11   84.49   13.10
  -1  -9  11   72.29   14.10
   0   9 -11  285.37   15.20
   0   9 -11  236.78   25.70
   0   9 -11  222.58   18.50
   0  -9  11  226.88   22.50
  -1   9 -11    1.60    7.10
  -1   9 -11   -4.10    8.30
  -1   9 -11   -1.70    4.30
   1  -9  11   12.90    8.70
  -2   9 -11  409.86   29.90
  -2   9 -11  394.96   20.40
  -2   9 -11  360.06   24.00
   2  -9  11  422.46   26.50
  -3   9 -11   14.20    5.80
  -3   9 -11    3.30    9.80
  -3   9 -11    2.10    7.10
   3  -9  11    5.80    7.70
  -4   9 -11  405.06   25.00
  -4   9 -11  407.16   21.40
  -4   9 -11  323.87   28.00
   4  -9  11  366.06   24.80
  -5   9 -11   59.39   15.90
  -6   9 -11   94.79   18.80
  -7   9 -11  167.38   23.40
  -8   9 -11   13.00   13.50
  -7  -8  11   41.40   12.30
   6   8 -11   39.40   15.50
  -6  -8  11   41.80   18.70
  -6  -8  11   34.20   11.40
   5   8 -11   12.40   14.30
  -5  -8  11   54.99   13.50
  -5  -8  11   22.60   17.30
   4   8 -11  121.09   20.60
   4   8 -11  129.19   10.80
  -4  -8  11  123.29   23.40
  -4  -8  11  156.38   19.50
   3   8 -11    6.00   10.00
   3   8 -11   23.50    5.30
  -3  -8  11   10.90    8.90
   2   8 -11  264.17   14.20
   2   8 -11  284.57   27.10
  -2  -8  11  237.68   23.10
   1   8 -11    3.10    4.10
   1   8 -11    8.20    9.80
  -1  -8  11   -8.40    5.80
   0   8 -11  376.16   27.30
   0   8 -11  395.26   19.00
   0  -8  11  409.96   26.40
  -1   8 -11  162.48   20.80
  -1   8 -11  178.18   12.30
   1  -8  11  140.39   17.80
  -2   8 -11  260.07   18.90
  -2   8 -11  269.07   25.40
  -2   8 -11  231.98   15.40
   2  -8  11  284.87   21.00
  -3   8 -11  274.57   16.90
  -3   8 -11  251.27   18.70
  -3   8 -11  298.77   24.70
   3  -8  11  262.27   19.80
  -4   8 -11  102.79   17.20
  -5   8 -11  288.87   24.50
  -6   8 -11   -5.30   10.10
  -7   8 -11  291.57   29.20
  -8   8 -11   24.70   14.10
   7   7 -11    9.10   12.70
  -7  -7  11   25.00   16.80
  -7  -7  11   -4.50    8.40
   6   7 -11   82.89   18.00
  -6  -7  11  114.29   23.80
  -6  -7  11  103.19   16.10
   5   7 -11  -13.60    8.70
  -5  -7  11   -4.30   11.90
  -5  -7  11    3.50    7.50
   4   7 -11  245.38   25.20
   4   7 -11  217.88   13.10
  -4  -7  11  256.07   30.30
  -4  -7  11  193.18   20.70
   3   7 -11   38.00   12.30
   3   7 -11   52.89    7.20
  -3  -7  11   40.80   14.80
  -3  -7  11   53.79   12.40
   2   7 -11  280.57   23.20
   2   7 -11  274.07   14.90
  -2  -7  11  267.87   21.90
   1   7 -11  368.66   18.20
   1   7 -11  392.16   26.60
  -1  -7  11  380.16   25.40
   0   7 -11   61.19   12.90
   0   7 -11   55.29    7.70
   0  -7  11   68.69   13.40
  -1   7 -11  494.35   29.60
  -1   7 -11  509.35   22.90
   1  -7  11  462.55   28.00
  -2   7 -11   -3.40    7.90
  -2   7 -11   -0.80    4.20
   2  -7  11   10.70    7.20
  -3   7 -11  542.05   26.40
  -3   7 -11  508.85   24.40
  -3   7 -11  503.35   30.80
   3  -7  11  475.05   27.10
  -4   7 -11   25.70   11.10
  -5   7 -11  297.47   25.20
  -6   7 -11  180.18   22.10
  -7   7 -11  198.38   23.80
   7  -7  11  118.79   21.50
   7  -7  11  155.28   14.10
  -8   7 -11  133.29   21.60
   8  -7  11  126.89   14.20
   8  -7  11   85.79   20.40
  -9   7 -11   -6.80   11.30
   9  -7  11   16.90    8.50
   9  -7  11   -0.70   13.70
  10  -7  11  144.49   16.90
   8   6 -11   71.19   11.80
   8   6 -11   72.89   18.90
  -8  -6  11  110.59   25.30
  -8  -6  11   89.79   15.10
   7   6 -11   11.70    6.80
   7   6 -11  -12.40    9.90
  -7  -6  11    7.40    8.50
  -7  -6  11   16.00   14.10
   6   6 -11  168.08   22.50
   6   6 -11  121.29   12.80
  -6  -6  11  133.39   17.70
  -6  -6  11  178.98   25.90
   5   6 -11  119.59   11.70
   5   6 -11  140.09   19.00
  -5  -6  11  131.99   21.80
  -5  -6  11  108.99   15.80
   4   6 -11   94.69   16.20
   4   6 -11   89.79   10.10
  -4  -6  11   96.79   14.90
  -4  -6  11  120.79   20.10
   3   6 -11  311.57   23.20
   3   6 -11  304.37   17.50
  -3  -6  11  338.37   26.80
  -3  -6  11  273.27   22.10
   2   6 -11    5.70    4.50
   2   6 -11   16.40    8.90
   2   6 -11   11.70    5.80
  -2  -6  11   28.70   10.80
  -2  -6  11    3.20    7.50
   1   6 -11  576.94   27.90
   1   6 -11  658.03   33.60
   1   6 -11  652.73   26.50
  -1  -6  11  618.34   33.70
   0   6 -11   38.00    8.10
   0   6 -11   28.80    6.30
   0   6 -11   37.10    9.60
   0  -6  11   42.60   10.40
  -1   6 -11  556.64   29.80
  -1   6 -11  521.95   24.10
  -1   6 -11  552.64   25.80
   1  -6  11  537.35   29.80
  -2   6 -11  249.38   19.30
  -2   6 -11  244.28   15.50
  -2   6 -11  253.97   17.50
   2  -6  11  243.88   18.70
  -3   6 -11  273.67   19.20
  -3   6 -11  302.57   22.30
   3  -6  11  256.67   18.90
  -4   6 -11  343.77   22.40
  -4   6 -11  351.66   24.20
   4  -6  11  334.97   15.30
   4  -6  11  363.96   26.70
  -5   6 -11  159.78   17.70
  -5   6 -11  186.88   20.50
   5  -6  11  171.88   12.40
   5  -6  11  193.98   23.60
  -6   6 -11  667.73   36.30
  -6   6 -11  748.63   38.20
   6  -6  11  679.33   30.10
   6  -6  11  646.24   41.90
  -7   6 -11    7.20    9.40
  -7   6 -11    5.30   10.70
   7  -6  11   -3.60    6.10
   7  -6  11   -2.00   10.60
  -8   6 -11  236.58   25.60
  -8   6 -11  203.78   23.20
   8  -6  11  255.07   20.60
   8  -6  11  193.78   27.90
  -9   6 -11   45.50   21.70
   9  -6  11   51.49   11.60
   9  -6  11   51.09   18.00
  10  -6  11  152.48   17.50
   9   5 -11   23.30    8.60
   9   5 -11   27.50   14.40
  -9  -5  11   14.60   14.60
   8   5 -11   36.00    8.70
   8   5 -11   22.50   12.60
  -8  -5  11   23.90   10.50
  -8  -5  11   51.49   18.40
   7   5 -11  108.79   11.90
   7   5 -11   71.69   16.20
  -7  -5  11  113.09   16.80
  -7  -5  11  115.19   21.50
   6   5 -11    4.90    5.30
   6   5 -11    5.70    8.80
  -6  -5  11   -6.80    7.70
  -6  -5  11    3.40   11.40
   5   5 -11  221.08   22.90
   5   5 -11  224.18   14.60
  -5  -5  11  203.08   24.80
  -5  -5  11  228.18   23.80
   4   5 -11    5.20    7.30
   4   5 -11   12.30    5.40
  -4  -5  11    4.70    7.80
  -4  -5  11    2.20    9.00
   3   5 -11  428.76   26.50
   3   5 -11  393.66   20.30
  -3  -5  11  418.06   29.60
  -3  -5  11  409.66   27.90
   2   5 -11  164.18   13.80
   2   5 -11  129.79   15.40
  -2  -5  11  138.99   18.80
  -2  -5  11  117.09   17.10
   1   5 -11  171.98   17.30
   1   5 -11  223.78   15.40
  -1  -5  11  189.58   20.10
   0   5 -11  312.57   20.20
   0   5 -11  298.57   18.00
   0  -5  11  294.97   22.10
  -1   5 -11   99.39   13.40
  -1   5 -11  114.49   12.30
   1  -5  11  102.39   14.40
  -2   5 -11  692.23   31.80
  -2   5 -11  700.93   33.70
   2  -5  11  707.53   35.20
   2  -5  11  722.93   34.30
  -3   5 -11   18.30    8.70
  -3   5 -11    8.00    8.20
   3  -5  11   22.00    4.50
   3  -5  11   19.30    9.00
  -4   5 -11  808.72   37.40
  -4   5 -11  743.53   36.10
   4  -5  11  728.03   41.30
   4  -5  11  771.12   30.50
  -5   5 -11  152.78   17.70
  -5   5 -11  147.19   17.10
   5  -5  11  153.18   13.30
   5  -5  11  141.79   21.40
  -6   5 -11  323.37   25.10
  -6   5 -11  345.97   25.30
   6  -5  11  380.56   21.50
   6  -5  11  363.26   35.10
  -7   5 -11  194.98   21.90
  -7   5 -11  222.68   22.60
   7  -5  11  205.58   27.30
   7  -5  11  200.18   17.70
  -8   5 -11  133.59   19.80
  -8   5 -11  133.29   20.60
   8  -5  11  142.39   16.20
   8  -5  11  191.08   27.20
  -9   5 -11  250.57   26.90
   9  -5  11  263.27   21.90
   9  -5  11  239.98   30.70
  10  -5  11   29.20   10.20
   9   4 -11   74.49   17.50
   9   4 -11   63.69   10.70
  -9  -4  11   88.19   20.00
  -9  -4  11   99.99   16.30
   8   4 -11   10.70    6.40
   8   4 -11   16.70   11.40
  -8  -4  11   -6.30    8.20
  -8  -4  11  -15.10   10.80
   7   4 -11  170.78   13.70
   7   4 -11  170.88   20.90
  -7  -4  11  192.98   24.50
  -7  -4  11  151.38   19.70
   6   4 -11   31.70    7.30
   6   4 -11   34.30   10.40
  -6  -4  11   57.69   13.60
  -6  -4  11   35.30   13.30
   5   4 -11  204.78   13.90
   5   4 -11  201.58   21.00
  -5  -4  11  198.28   22.60
  -5  -4  11  242.38   26.10
   4   4 -11  163.38   12.80
   4   4 -11  208.68   20.20
  -4  -4  11  281.07   26.60
  -4  -4  11  157.18   19.90
   3   4 -11  130.69   12.00
   3   4 -11  150.48   16.70
  -3  -4  11   95.79   16.30
  -3  -4  11  111.09   17.30
   2   4 -11  738.13   34.50
   2   4 -11  706.43   30.80
  -2  -4  11  730.33   37.50
  -2  -4  11  729.53   38.90
   1   4 -11   -3.80    5.60
   1   4 -11   -4.70    6.20
  -1  -4  11    0.60    6.60
  -1  -4  11    9.50    8.40
   0   4 -11  870.21   35.30
   0   4 -11  840.12   36.70
   0  -4  11  855.61   36.20
   0  -4  11  790.22   39.90
  -1   4 -11  116.59   12.60
  -1   4 -11   94.29   12.20
   1  -4  11   83.49   12.80
   1  -4  11   92.09   13.80
  -2   4 -11  526.25   26.20
  -2   4 -11  509.35   26.50
   2  -4  11  491.25   20.00
   2  -4  11  492.85   29.60
   2  -4  11  522.35   27.50
  -3   4 -11  240.48   19.00
  -3   4 -11  244.18   17.90
   3  -4  11  238.78   23.70
   3  -4  11  254.57   14.50
  -4   4 -11  307.07   21.00
  -4   4 -11  277.17   21.40
   4  -4  11  261.47   16.40
   4  -4  11  278.97   24.30
  -5   4 -11  805.52   39.70
  -5   4 -11  839.02   38.50
   5  -4  11  833.62   45.60
   5  -4  11  786.12   34.50
  -6   4 -11   20.90   11.80
  -6   4 -11   32.00   10.80
   6  -4  11    9.50   11.80
   6  -4  11   26.60    8.10
  -7   4 -11  390.56   29.20
  -7   4 -11  410.06   28.00
   7  -4  11  441.86   24.80
   7  -4  11  404.76   33.00
  -8   4 -11   19.20    9.40
  -8   4 -11    2.30   12.10
   8  -4  11    0.00   11.50
   8  -4  11  -10.80    6.70
  -9   4 -11  204.88   27.50
   9  -4  11  213.38   28.30
   9  -4  11  230.68   20.10
  10  -4  11   26.60    9.30
  10   3 -11    5.20    7.00
 -10  -3  11   10.90   13.00
   9   3 -11   27.50    8.40
  -9  -3  11   68.39   16.70
  -9  -3  11   53.19   13.30
   8   3 -11   36.10    8.00
  -8  -3  11   44.50   13.90
  -8  -3  11   59.19   14.00
   7   3 -11  120.29   12.00
  -7  -3  11   96.89   17.30
  -7  -3  11  102.99   17.50
   6   3 -11  274.77   21.60
   6   3 -11  242.28   15.90
  -6  -3  11  272.17   27.10
  -6  -3  11  267.07   23.00
   5   3 -11   34.70    6.80
   5   3 -11   47.10   10.90
  -5  -3  11   42.40   11.70
  -5  -3  11   31.50   12.80
   4   3 -11  569.54   25.80
   4   3 -11  608.84   30.80
  -4  -3  11  576.34   33.50
  -4  -3  11  588.94   35.60
   3   3 -11   31.30    8.90
   3   3 -11   44.00    7.70
  -3  -3  11   40.50   11.90
  -3  -3  11   39.70   10.10
   2   3 -11  662.83   31.10
   2   3 -11  684.33   29.30
  -2  -3  11  548.35   34.50
  -2  -3  11  676.23   34.20
   1   3 -11  220.68   16.10
   1   3 -11  224.68   16.40
  -1  -3  11  269.77   16.30
  -1  -3  11  267.77   24.70
  -1  -3  11  213.08   18.10
   0   3 -11  553.94   25.70
   0   3 -11  515.25   25.40
   0  -3  11  499.95   26.30
   0  -3  11  468.25   28.50
  -1   3 -11  468.45   23.40
  -1   3 -11  452.15   23.10
   1  -3  11  437.26   26.80
   1  -3  11  446.76   18.30
   1  -3  11  421.76   25.60
  -2   3 -11  184.48   14.70
  -2   3 -11  162.98   15.80
   2  -3  11  172.78   19.70
   2  -3  11  156.98   11.70
   2  -3  11  168.28   18.60
  -3   3 -11  816.72   35.70
  -3   3 -11  809.32   36.80
   3  -3  11  820.82   41.80
   3  -3  11  820.82   33.10
  -4   3 -11   10.90    8.20
  -4   3 -11   15.10    7.30
   4  -3  11    3.20    8.50
   4  -3  11    4.50    5.20
  -5   3 -11  628.64   33.30
  -5   3 -11  559.84   33.10
   5  -3  11  597.14   36.60
   5  -3  11  652.63   28.80
  -6   3 -11   69.69   12.60
  -6   3 -11   70.99   15.30
   6  -3  11   88.89   11.50
   6  -3  11   83.89   16.60
  -7   3 -11  250.07   25.70
  -7   3 -11  279.77   23.10
   7  -3  11  250.27   19.00
   7  -3  11  314.57   30.20
  -8   3 -11  196.58   25.60
  -8   3 -11  153.18   21.50
   8  -3  11  187.98   24.30
   8  -3  11  181.38   17.20
   9  -3  11   78.79   18.00
   9  -3  11   85.09   13.00
  10   2 -11   23.50    8.20
 -10  -2  11   46.00   15.50
   9   2 -11    4.70    6.20
  -9  -2  11    0.90    9.30
  -9  -2  11   11.70   11.40
   8   2 -11  183.18   14.50
  -8  -2  11  177.08   22.70
  -8  -2  11  166.28   22.00
   7   2 -11    1.90    5.60
  -7  -2  11    5.10   10.00
  -7  -2  11   15.60    9.00
   6   2 -11  135.69   12.70
  -6  -2  11  155.28   19.20
  -6  -2  11  154.18   21.30
   5   2 -11   72.49   11.60
   5   2 -11   60.79    8.40
  -5  -2  11   80.49   14.10
  -5  -2  11   65.49   14.60
   4   2 -11  254.87   15.80
   4   2 -11  300.27   20.10
  -4  -2  11  274.37   27.20
  -4  -2  11  278.97   21.10
   3   2 -11  603.94   29.60
   3   2 -11  590.44   26.60
  -3  -2  11  614.24   32.00
  -3  -2  11  541.45   33.90
   2   2 -11   98.49   11.90
   2   2 -11  101.59   12.30
  -2  -2  11   85.89    9.90
  -2  -2  11   71.29   13.40
  -2  -2  11   98.79   13.80
   1   2 -11  567.04   26.90
   1   2 -11  578.74   27.00
  -1  -2  11  533.65   26.80
  -1  -2  11  613.04   32.50
  -1  -2  11  608.44   29.70
   0   2 -11   72.99   10.50
   0   2 -11   92.59   10.60
   0  -2  11   70.69   11.80
   0  -2  11   69.89    6.80
   0  -2  11   78.09   11.90
  -1   2 -11  749.82   33.50
  -1   2 -11  764.22   32.20
   1  -2  11  772.92   29.80
   1  -2  11  760.92   37.00
   1  -2  11  757.02   35.40
  -2   2 -11  106.29   11.70
  -2   2 -11  102.29   12.70
  -2   2 -11   92.59   12.50
   2  -2  11  124.39   15.90
   2  -2  11  106.39   10.40
  -3   2 -11  773.72   35.50
  -3   2 -11  807.82   36.60
   3  -2  11  772.72   32.10
   3  -2  11  756.82   39.00
  -4   2 -11  413.16   27.10
  -4   2 -11  439.26   25.70
   4  -2  11  462.35   22.60
   4  -2  11  471.05   29.60
  -5   2 -11  278.87   24.60
  -5   2 -11  241.08   19.40
   5  -2  11  240.58   16.70
   5  -2  11  223.08   22.90
  -6   2 -11  375.36   28.90
  -6   2 -11  373.26   24.50
   6  -2  11  375.66   28.20
   6  -2  11  370.76   21.20
  -7   2 -11    3.30    7.50
  -7   2 -11    5.30   11.40
   7  -2  11   18.80    7.20
   7  -2  11   -3.00    9.00
  -8   2 -11  250.87   28.20
   8  -2  11  279.47   28.90
   8  -2  11  282.97   20.20
   9  -2  11   22.80    8.40
  10   1 -11   52.79   10.00
 -10  -1  11   60.19   15.10
 -10  -1  11   64.49   16.40
   9   1 -11    9.40    6.50
  -9  -1  11   16.40   11.50
  -9  -1  11    3.60   10.50
   8   1 -11  128.09   12.40
  -8  -1  11  111.49   19.90
  -8  -1  11  147.69   19.40
   7   1 -11  139.99   13.10
  -7  -1  11  138.99   21.50
  -7  -1  11  187.48   20.70
   6   1 -11   31.50    6.70
  -6  -1  11   33.40   10.10
  -6  -1  11   16.40   11.50
   5   1 -11  425.56   21.40
  -5  -1  11  431.46   26.10
  -5  -1  11  463.75   31.80
   4   1 -11    2.20    5.10
   4   1 -11   -4.00    5.40
  -4  -1  11    2.40    8.90
  -4  -1  11    6.70    6.30
   3   1 -11  505.45   26.20
   3   1 -11  541.45   25.60
  -3  -1  11  502.25   27.90
  -3  -1  11  539.75   31.40
   2   1 -11   32.80    8.80
   2   1 -11   43.90    8.20
  -2  -1  11   30.80   10.20
  -2  -1  11   28.80    8.10
  -2  -1  11   41.60    7.80
   1   1 -11  857.91   34.60
   1   1 -11  892.71   35.80
   1   1 -11  904.81   37.40
  -1  -1  11  900.41   38.20
  -1  -1  11  888.91   31.80
  -1  -1  11  931.01   41.20
  -1  -1  11  923.81   38.30
   0   1 -11  596.34   28.70
   0   1 -11  614.94   26.50
   0   1 -11  571.24   26.60
   0  -1  11  595.64   24.60
   0  -1  11  669.83   31.10
   0  -1  11  590.94   29.90
  -1   1 -11  435.06   23.60
  -1   1 -11  377.96   21.30
  -1   1 -11  434.86   25.30
   1  -1  11  390.76   19.40
   1  -1  11  410.46   25.00
   1  -1  11  386.56   22.40
  -2   1 -11 1107.49   45.90
  -2   1 -11 1083.19   44.40
   2  -1  11 1103.29   48.00
   2  -1  11 1120.49   41.30
  -3   1 -11  253.17   17.70
  -3   1 -11  199.58   18.90
   3  -1  11  231.28   14.90
   3  -1  11  234.18   20.20
  -4   1 -11  737.33   35.00
  -4   1 -11  698.03   37.70
   4  -1  11  744.93   31.40
   4  -1  11  819.42   39.60
  -5   1 -11   -6.70   10.20
  -5   1 -11   16.50    7.50
   5  -1  11   11.70    5.80
   5  -1  11    2.30    8.00
  -6   1 -11  366.76   25.10
  -6   1 -11  360.56   29.20
   6  -1  11  413.56   22.10
   6  -1  11  425.46   29.20
  -7   1 -11   49.40   12.00
  -7   1 -11   73.89   16.70
   7  -1  11   60.89   14.60
   7  -1  11   69.59   10.70
   8  -1  11  226.98   25.50
   8  -1  11  215.68   18.10
   9  -1  11  107.09   13.50
  11   0 -11   11.50    7.90
 -11   0  11   -4.30   10.80
  10   0 -11   54.89   10.20
 -10   0  11   31.40   13.40
 -10   0  11   59.89   16.00
   9   0 -11  123.89   13.30
  -9   0  11  126.79   19.60
  -9   0  11  103.99   20.80
   8   0 -11   21.80    6.50
  -8   0  11   12.40    9.30
  -8   0  11   10.30   12.30
   7   0 -11  108.99   11.80
  -7   0  11  158.58   23.00
  -7   0  11  120.99   16.00
   6   0 -11   -2.10    5.40
  -6   0  11    2.70    6.40
  -6   0  11    2.30    9.60
   5   0 -11  385.06   20.70
  -5   0  11  382.16   24.00
  -5   0  11  433.36   29.40
   4   0 -11   94.79   11.40
   4   0 -11  115.59   12.90
  -4   0  11   87.89   12.40
  -4   0  11   98.69   15.90
   3   0 -11  268.17   17.50
   3   0 -11  291.37   17.80
  -3   0  11  284.37   21.90
  -3   0  11  240.38   18.10
   2   0 -11  594.84   28.30
   2   0 -11  549.65   25.60
  -2   0  11  582.64   22.10
  -2   0  11  545.95   27.60
  -2   0  11  607.84   31.20
  -2   0  11  563.44   28.30
   1   0 -11  135.69   12.10
   1   0 -11  175.28   12.90
   1   0 -11  139.49   14.70
  -1   0  11  194.08   18.20
  -1   0  11  156.08   15.00
  -1   0  11  174.38   11.10
   0   0 -11 1024.00   39.50
   0   0 -11  938.01   40.10
   0   0  11 1001.00   41.50
   0   0  11  983.70   41.90
   0   0  11  981.50   36.70
  -1   0 -11   29.30    8.50
  -1   0 -11   32.60    7.80
   1   0  11   25.90    5.70
   1   0  11   37.30    9.50
  -2   0 -11 1054.89   43.20
  -2   0 -11 1046.20   45.00
   2   0  11 1080.69   46.20
   2   0  11 1022.30   39.50
  -3   0 -11  151.58   17.30
  -3   0 -11  180.88   17.30
   3   0  11  131.59   12.20
   3   0  11  146.39   17.50
  -4   0 -11  304.27   23.40
  -4   0 -11  335.97   21.90
   4   0  11  309.87   21.20
   4   0  11  299.57   23.50
   4   0  11  327.37   18.30
  -5   0 -11  333.87   22.50
  -5   0 -11  267.27   25.60
   5   0  11  325.57   18.60
   5   0  11  275.37   23.60
   5   0  11  293.57   21.60
  -6   0 -11  135.49   20.30
  -6   0 -11  145.19   17.10
   6   0  11  119.49   15.80
   6   0  11  175.88   21.10
   6   0  11  162.78   14.30
  -7   0 -11  319.67   30.40
   7   0  11  244.08   24.50
   7   0  11  271.97   18.80
   7   0  11  245.08   26.50
   8   0  11    8.50    7.30
  11  -1 -11   40.80    9.40
 -11   1  11   24.90   13.30
  10  -1 -11    0.20    6.60
 -10   1  11    1.40   13.10
 -10   1  11    5.60   10.50
   9  -1 -11  152.38   14.20
  -9   1  11  131.09   22.30
  -9   1  11  131.69   19.30
   8  -1 -11   27.40    7.60
  -8   1  11   23.30   13.70
  -8   1  11   35.00   11.30
   7  -1 -11  102.69   11.20
  -7   1  11  127.49   16.30
  -7   1  11  151.18   21.70
   6  -1 -11  183.08   14.20
  -6   1  11  164.18   16.80
  -6   1  11  163.18   21.20
   5  -1 -11  115.39   12.60
  -5   1  11   93.19   15.50
  -5   1  11  123.49   13.80
   4  -1 -11  279.77   18.20
  -4   1  11  317.77   24.10
  -4   1  11  319.77   19.90
   3  -1 -11    5.90    7.20
   3  -1 -11   15.30    6.40
  -3   1  11    9.80    3.60
  -3   1  11   18.60    7.40
  -3   1  11    1.20    7.80
   2  -1 -11  888.61   36.70
  -2   1  11  843.32   39.50
  -2   1  11  818.42   31.50
  -2   1  11  849.91   39.70
   1  -1 -11  121.29   12.10
   1  -1 -11  132.89   14.10
  -1   1  11   96.29    9.80
  -1   1  11  146.89   15.70
  -1   1  11  108.09   12.50
   0  -1 -11  398.16   22.70
   0  -1 -11  381.66   21.10
   0   1  11  374.26   22.40
   0   1  11  367.56   18.90
   0   1  11  383.16   22.20
  -1  -1 -11  431.06   23.30
  -1  -1 -11  390.06   23.30
   1   1  11  389.26   24.30
   1   1  11  426.36   20.40
  -2  -1 -11  262.17   18.60
  -2  -1 -11  263.57   19.80
   2   1  11  272.97   18.10
   2   1  11  280.87   21.60
   2   1  11  261.77   16.00
  -3  -1 -11  426.26   24.70
  -3  -1 -11  428.26   27.50
   3   1  11  422.76   27.00
   3   1  11  381.46   20.70
   3   1  11  371.86   23.00
  -4  -1 -11    9.70   10.40
  -4  -1 -11   14.40    8.10
   4   1  11   23.90    9.60
   4   1  11    5.80    5.50
   4   1  11   22.50    8.00
  -5  -1 -11  738.43   36.80
  -5  -1 -11  735.33   40.90
   5   1  11  686.23   31.60
   5   1  11  691.53   35.00
   5   1  11  775.42   40.50
  -6  -1 -11   19.10    8.90
  -6  -1 -11   12.00   11.80
   6   1  11   18.70    9.40
   6   1  11   18.20    7.10
   6   1  11   31.20   12.00
   7   1  11  330.67   24.40
   7   1  11  286.17   28.60
  11  -2 -11   76.89   12.00
 -11   2  11   59.89   18.50
 -11   2  11   55.19   15.10
  10  -2 -11   89.79   12.30
 -10   2  11   86.49   20.00
 -10   2  11   63.29   14.60
   9  -2 -11   52.89    9.80
  -9   2  11   61.99   17.40
  -9   2  11   63.09   13.90
   8  -2 -11  172.18   15.30
  -8   2  11  202.58   25.60
  -8   2  11  170.58   18.40
   7  -2 -11    6.00    5.80
  -7   2  11    5.30   10.10
  -7   2  11    2.40    6.80
   6  -2 -11  282.77   18.10
  -6   2  11  263.97   19.10
  -6   2  11  270.07   26.90
   5  -2 -11    4.00    5.90
  -5   2  11    4.20    5.80
  -5   2  11    6.80    9.40
   4  -2 -11  551.74   27.50
  -4   2  11  566.34   33.20
  -4   2  11  561.34   21.70
   3  -2 -11  237.38   18.00
  -3   2  11  287.17   22.50
  -3   2  11  237.48   13.80
   2  -2 -11  337.37   21.10
  -2   2  11  374.96   24.40
  -2   2  11  334.47   17.50
  -2   2  11  388.26   27.80
   1  -2 -11  276.37   19.20
   1  -2 -11  333.77   19.20
  -1   2  11  277.07   16.20
  -1   2  11  281.67   19.50
  -1   2  11  308.67   21.50
   0  -2 -11   36.20    8.80
   0  -2 -11   53.99   10.00
   0   2  11   53.49   10.90
   0   2  11   57.29    8.30
   0   2  11   45.50   10.50
  -1  -2 -11  626.84   31.50
  -1  -2 -11  691.03   31.70
   1   2  11  583.54   30.40
   1   2  11  569.44   31.60
   1   2  11  571.14   26.60
  -2  -2 -11   -3.20    8.30
  -2  -2 -11    6.70    7.00
   2   2  11    9.10    5.50
   2   2  11   -3.00    6.40
   2   2  11   12.10    6.90
  -3  -2 -11  586.74   31.10
  -3  -2 -11  558.64   32.60
   3   2  11  530.75   28.10
   3   2  11  543.05   32.90
   3   2  11  521.45   25.80
  -4  -2 -11  215.78   21.00
  -4  -2 -11  194.88   21.60
   4   2  11  171.38   17.50
   4   2  11  139.89   14.00
   4   2  11  161.28   20.60
  -5  -2 -11  268.97   23.20
  -5  -2 -11  270.17   26.80
   5   2  11  288.97   21.70
   5   2  11  277.77   19.00
   5   2  11  255.07   26.20
  -6  -2 -11  149.19   21.90
   6   2  11  145.89   17.70
   6   2  11  137.49   20.70
  11  -3 -11    7.30    7.50
 -11   3  11   -3.10   13.80
 -11   3  11    2.50   10.20
  10  -3 -11   63.89   11.10
 -10   3  11   94.39   20.20
 -10   3  11   56.99   13.50
   9  -3 -11   10.40    6.90
  -9   3  11  -10.70   10.90
  -9   3  11    7.30    8.50
   8  -3 -11   55.09    9.70
  -8   3  11   72.89   16.80
  -8   3  11   52.49   11.40
   7  -3 -11   26.10    7.90
  -7   3  11   27.50   12.20
  -7   3  11   39.10    9.50
   6  -3 -11  205.18   16.50
  -6   3  11  219.08   16.90
  -6   3  11  227.68   24.80
   5  -3 -11  230.48   17.70
  -5   3  11  228.78   12.10
  -5   3  11  271.47   26.40
   4  -3 -11  200.48   17.60
  -4   3  11  186.78   12.20
  -4   3  11  183.28   21.60
   3  -3 -11  516.05   26.20
  -3   3  11  469.95   30.30
  -3   3  11  487.75   22.30
   2  -3 -11    3.20    6.50
  -2   3  11   -7.30    4.50
  -2   3  11   -2.30    7.30
   1  -3 -11  537.95   27.80
   1  -3 -11  577.04   30.10
  -1   3  11  544.85   25.50
  -1   3  11  558.04   31.40
  -1   3  11  536.75   29.30
   0  -3 -11  195.68   18.20
   0  -3 -11  220.58   19.60
   0   3  11  182.18   19.30
   0   3  11  203.88   15.30
  -1  -3 -11  396.16   24.90
  -1  -3 -11  432.06   26.40
   1   3  11  371.86   26.30
   1   3  11  401.26   23.20
   1   3  11  406.06   22.00
  -2  -3 -11  176.88   19.60
  -2  -3 -11  196.28   20.10
   2   3  11  210.48   18.30
   2   3  11  170.78   15.50
   2   3  11  194.88   21.90
  -3  -3 -11  153.88   18.20
  -3  -3 -11  142.79   18.90
   3   3  11  134.89   13.90
   3   3  11  169.88   21.50
   3   3  11  171.78   16.90
  -4  -3 -11  392.56   30.90
  -4  -3 -11  470.65   30.00
   4   3  11  484.85   32.50
   4   3  11  412.56   24.30
   4   3  11  450.45   26.00
  -5  -3 -11   -7.40   11.90
   5   3  11    8.50    8.80
   5   3  11   -7.40    9.80
   6   3  11  230.28   21.50
  11  -4 -11   13.40    7.80
 -11   4  11   13.40    9.80
 -11   4  11    4.50   13.60
  10  -4 -11   32.30    9.30
 -10   4  11   50.19   12.40
 -10   4  11   16.40   14.80
   9  -4 -11   48.90    9.60
  -9   4  11   65.69   12.50
  -9   4  11   50.29   16.40
   8  -4 -11   35.50    8.80
  -8   4  11   21.30   13.10
  -8   4  11   10.40    8.00
   7  -4 -11  117.69   13.60
  -7   4  11  148.19   21.20
   6  -4 -11   12.60    7.70
  -6   4  11   24.40   12.90
   5  -4 -11  498.25   27.30
  -5   4  11  531.85   34.70
  -5   4  11  512.75   22.40
   4  -4 -11   34.80    8.80
  -4   4  11   36.70   12.90
  -4   4  11   42.90    7.70
   3  -4 -11  376.46   21.80
  -3   4  11  335.67   26.60
  -3   4  11  339.37   19.40
   2  -4 -11  285.97   19.00
  -2   4  11  260.67   24.80
  -2   4  11  260.27   17.60
   1  -4 -11  172.68   16.50
  -1   4  11  181.28   15.40
  -1   4  11  173.58   18.60
  -1   4  11  167.08   19.90
   0  -4 -11  407.96   26.10
   0  -4 -11  406.76   24.80
   0   4  11  366.06   26.80
   0   4  11  399.56   22.50
  -1  -4 -11  106.99   15.90
  -1  -4 -11  101.59   15.20
   1   4  11   80.69   11.90
   1   4  11   92.29   16.00
   1   4  11   76.89   11.30
  -2  -4 -11  475.15   30.10
  -2  -4 -11  447.16   30.20
   2   4  11  466.95   25.40
   2   4  11  459.35   31.70
   2   4  11  442.06   25.70
  -3  -4 -11   20.10   10.00
  -3  -4 -11   13.20   12.40
   3   4  11   16.40    7.70
   3   4  11   10.20    7.70
   3   4  11   24.30   12.30
  -4  -4 -11  206.98   23.70
   4   4  11  224.68   25.90
   4   4  11  233.08   20.30
   5   4  11   52.79   11.20
 -12   5  11   49.40   19.60
 -11   5  11   48.90   13.00
 -11   5  11   42.40   18.60
 -10   5  11   22.80   15.00
   9  -5 -11   63.79   11.50
  -9   5  11  106.19   21.20
   8  -5 -11   -7.50    6.60
  -8   5  11   19.40   13.60
   7  -5 -11  131.09   15.20
  -7   5  11  169.48   24.10
   6  -5 -11   50.09   11.10
  -6   5  11   47.90    7.40
  -6   5  11   67.09   17.00
   5  -5 -11  142.69   15.30
  -5   5  11  162.68   13.50
  -5   5  11  204.88   24.80
   4  -5 -11  212.18   17.80
  -4   5  11  228.78   24.50
  -4   5  11  190.48   16.00
   3  -5 -11    1.60    6.70
  -3   5  11    4.90    6.20
  -3   5  11    1.00    9.60
   2  -5 -11  304.27   20.50
  -2   5  11  376.16   27.30
  -2   5  11  316.97   20.40
   1  -5 -11   -5.30    7.40
  -1   5  11   -4.50    5.60
  -1   5  11   13.40    8.80
  -1   5  11   -4.50    7.60
   0  -5 -11  334.27   24.90
   0  -5 -11  311.07   23.40
   0   5  11  312.77   20.90
   0   5  11  298.17   25.60
  -1  -5 -11   12.30   10.20
  -1  -5 -11   40.40   12.80
   1   5  11   12.20   10.00
   1   5  11   24.00    8.50
   1   5  11   18.50    8.30
  -2  -5 -11  206.68   23.70
  -2  -5 -11  209.38   23.10
   2   5  11  220.88   25.00
   2   5  11  255.57   19.30
   2   5  11  208.68   18.40
   3   5  11  151.18   22.20
   3   5  11  169.28   17.30
   4   5  11   39.60   10.70
 -11   6  11   33.80   17.30
 -10   6  11   -1.70   13.40
  -9   6  11   98.09   20.60
  -8   6  11   54.49   17.90
  -7   6  11   34.20    6.60
  -7   6  11   42.10   15.10
  -6   6  11  140.09   13.20
  -6   6  11  141.19   21.50
  -5   6  11   -3.70    5.70
  -5   6  11   -5.10   10.00
  -4   6  11  127.89   13.60
  -4   6  11  145.59   20.90
  -3   6  11   96.69   17.30
  -2   6  11  287.97   26.90
  -1   6  11  110.09   16.80
   0  -6 -11   62.39   14.20
   0   6  11   57.49   14.20
  -1  -6 -11  332.27   27.40
   1   6  11  259.27   27.10
   1   6  11  273.27   21.20
   1   6  11  273.97   23.20
   2   6  11    1.10    8.00
   2   6  11   13.10   11.80
   3   6  11  320.27   35.00
 -11   7  11   25.60   18.20
 -10   7  11   28.10   16.80
  -9   7  11   10.20   14.90
  -8   7  11   62.39   18.80
  -7   7  11    6.70   11.80
  -7   7  11   -1.50    5.80
  -6   7  11  178.08   25.40
  -6   7  11  209.78   17.20
  -5   7  11   66.29   11.20
  -5   7  11   55.49   15.20
  -4   7  11   61.49   16.20
  -3   7  11  144.19   21.40
  -2   7  11   79.49   17.30
  -1   7  11  203.28   22.80
   0   7  11   -0.20    9.40
   1   7  11  266.37   24.50
   1   7  11  195.38   24.70
  -9   8  11   -2.60   15.40
  -8   8  11   58.29   17.60
  -7   8  11   62.99   10.60
  -7   8  11   67.19   17.70
  -6   8  11   25.70   14.50
  -6   8  11   12.30    8.00
  -5   8  11  104.29   20.20
  -4   8  11    2.80   11.00
  -3   8  11  172.88   23.50
  -8   9  11    8.00    7.50
  -7   9  11   80.99   12.60
  -7   9  11  101.39   21.90
  -6   9  11   20.80   14.80
  -6   9  11    6.00    8.10
  -5   9  11   67.19   17.90
  -4   9  11   23.80   14.10
  -3   9  11   41.30   15.60
   1  12 -12   11.60   14.70
  -1 -12  12   22.50   16.70
   0  12 -12   56.49   12.90
   0 -12  12   53.89   13.80
  -1  12 -12    3.20    9.20
  -1  12 -12    8.30    9.40
   1 -12  12    0.50   10.00
  -2  12 -12  106.09   13.00
  -2  12 -12  111.39   17.50
   2 -12  12  187.08   23.40
  -3  12 -12    0.90   10.20
  -3  12 -12    1.30    6.60
   3 -12  12   -6.50   10.00
  -4  12 -12   66.59   11.60
  -4  12 -12  105.39   17.10
   4 -12  12   84.49   17.50
   3  11 -12   17.10   10.00
  -3 -11  12    8.90   11.40
   2  11 -12   68.79   10.90
   2  11 -12   51.39   12.00
  -2 -11  12   49.00   13.70
   1  11 -12    0.20    7.80
   1  11 -12    1.00   13.80
   1  11 -12   10.30    5.70
  -1 -11  12   -1.80    9.60
   0  11 -12  107.69   16.60
   0  11 -12  124.69   21.40
   0  11 -12   90.59   11.00
   0 -11  12  116.09   18.50
  -1  11 -12   40.70   12.00
  -1  11 -12   63.69   17.20
  -1  11 -12   43.30    8.60
   1 -11  12   45.50   13.30
  -2  11 -12  108.29   12.70
  -2  11 -12  128.89   18.10
  -2  11 -12  111.49   20.80
   2 -11  12  104.49   18.20
  -3  11 -12   82.09   16.00
  -3  11 -12   80.69   19.00
  -3  11 -12  100.39   11.80
   3 -11  12  100.69   18.20
  -4  11 -12   13.70   13.10
  -4  11 -12   13.30    8.10
  -4  11 -12    2.00    9.70
   4 -11  12   11.00   11.20
  -5  11 -12   96.79   21.00
   5  10 -12   17.70   10.10
  -5 -10  12   -6.20   11.10
   4  10 -12   82.29   14.40
   4  10 -12   77.09   10.60
  -4 -10  12   70.29   15.60
   3  10 -12    0.30    8.30
   3  10 -12    9.70   13.50
   3  10 -12    7.00    5.50
  -3 -10  12    7.10    9.30
   2  10 -12   67.09    8.90
   2  10 -12   75.29   13.60
   2  10 -12   85.39   19.60
  -2 -10  12   58.09   13.90
   1  10 -12  117.19   16.30
   1  10 -12  109.19   11.20
   1  10 -12  111.99   19.70
  -1 -10  12  143.49   19.70
   0  10 -12   30.30   15.20
   0  10 -12   46.60   11.50
   0  10 -12   58.29    8.40
   0 -10  12   54.99   14.00
  -1  10 -12  167.08   23.60
  -1  10 -12  133.79   17.20
  -1  10 -12  184.98   13.90
   1 -10  12  175.68   21.90
  -2  10 -12    1.70    5.40
  -2  10 -12  -13.40   10.90
  -2  10 -12   -0.10    7.90
   2 -10  12   -6.20    8.50
  -3  10 -12  178.18   19.80
  -3  10 -12  179.48   23.80
  -3  10 -12  219.58   17.60
   3 -10  12  168.78   21.30
  -4  10 -12   10.70   12.20
  -4  10 -12   25.80   11.60
   4 -10  12   24.70   11.60
  -5  10 -12   79.59   19.20
  -6  10 -12   70.69   18.20
   6   9 -12   53.99   11.80
  -6  -9  12   72.59   14.80
   5   9 -12   73.39   18.10
  -5  -9  12   44.10   13.20
   4   9 -12   36.90   16.20
   4   9 -12   38.00    7.50
  -4  -9  12   40.40   12.40
   3   9 -12   97.69   10.30
   3   9 -12  116.99   19.70
  -3  -9  12   69.79   14.40
   2   9 -12    1.20    4.50
   2   9 -12   -6.80    9.30
  -2  -9  12    0.40    8.50
   1   9 -12  217.68   14.30
   1   9 -12  179.58   22.70
  -1  -9  12  240.78   24.70
   0   9 -12    2.30    5.20
   0   9 -12    3.70    7.30
   0   9 -12   23.70   12.20
   0  -9  12    7.40    7.90
  -1   9 -12  263.87   26.20
  -1   9 -12  231.68   15.10
  -1   9 -12  156.48   17.80
   1  -9  12  175.88   21.00
  -2   9 -12   90.89   17.00
  -2   9 -12  139.39   17.10
  -2   9 -12  100.49   12.10
   2  -9  12  129.19   18.10
  -3   9 -12   76.29   10.50
  -3   9 -12   52.79   11.90
  -3   9 -12   82.69   16.30
   3  -9  12   62.79   13.90
  -4   9 -12  130.49   19.70
  -5   9 -12   34.20   14.10
  -6   9 -12  227.68   25.90
  -7   9 -12   -6.80   11.50
  -7  -8  12   73.69   15.30
   6   8 -12   -9.70   11.20
  -6  -8  12    6.00   10.20
  -6  -8  12    9.20   16.30
   5   8 -12  129.69   21.70
  -5  -8  12  127.79   27.20
  -5  -8  12  135.59   19.60
   4   8 -12   -0.50   10.00
  -4  -8  12    7.60    9.20
  -4  -8  12   11.00   13.40
   3   8 -12  191.38   13.40
   3   8 -12  169.68   21.70
  -3  -8  12  164.68   21.00
   2   8 -12   62.19    8.60
   2   8 -12   54.19   13.50
  -2  -8  12   79.09   15.00
   1   8 -12   84.79   15.60
   1   8 -12  127.39   11.70
  -1  -8  12  112.99   17.50
   0   8 -12  125.19   18.70
   0   8 -12  134.29   12.00
   0  -8  12  128.39   18.40
  -1   8 -12   66.99   15.10
  -1   8 -12   62.39    9.10
   1  -8  12   57.09   12.90
  -2   8 -12  293.37   24.80
  -2   8 -12  356.26   19.60
   2  -8  12  317.47   24.40
  -3   8 -12   -1.20    9.30
  -3   8 -12   -0.20    5.80
  -3   8 -12   -5.30    7.10
   3  -8  12   13.10    8.00
  -4   8 -12  352.56   27.20
  -5   8 -12   38.60   13.20
  -6   8 -12  164.78   22.00
  -7   8 -12  122.49   20.20
  -8   8 -12   37.10   15.60
  -8  -7  12   -2.10    9.00
   7   7 -12  113.39   21.10
  -7  -7  12  101.99   25.50
  -7  -7  12  117.79   17.60
   6   7 -12   48.70   15.50
  -6  -7  12   44.70   18.70
  -6  -7  12   26.40   11.30
   5   7 -12   96.09   17.30
  -5  -7  12  107.59   21.60
  -5  -7  12  114.59   17.70
   4   7 -12  160.28   21.30
  -4  -7  12  115.69   22.00
  -4  -7  12  119.79   17.90
   3   7 -12   42.60   12.70
  -3  -7  12   36.20   12.40
  -3  -7  12   37.00   14.20
   2   7 -12  372.16   18.50
   2   7 -12  338.17   25.20
  -2  -7  12  240.08   25.20
   1   7 -12   23.00   10.20
   1   7 -12   25.60    6.80
  -1  -7  12   27.60   11.10
   0   7 -12  604.94   26.50
   0   7 -12  586.94   32.40
   0  -7  12  543.75   33.20
  -1   7 -12   31.20   11.10
  -1   7 -12   41.10    7.80
   1  -7  12   37.60   10.90
  -2   7 -12  320.37   18.40
  -2   7 -12  286.27   23.10
   2  -7  12  281.87   22.70
  -3   7 -12  135.09   18.00
   3  -7  12  130.79   16.20
  -4   7 -12  155.78   19.10
  -5   7 -12  281.27   25.90
  -6   7 -12   30.30   12.20
  -7   7 -12  207.68   25.00
   7  -7  12  189.08   27.40
   7  -7  12  218.38   15.90
  -8   7 -12   15.10   13.00
   8  -7  12    8.30    7.40
   8  -7  12   -2.70   14.60
   9  -7  12   92.69   13.20
   8   6 -12   14.10    8.70
   8   6 -12   14.50   15.80
  -8  -6  12    2.30   21.20
  -8  -6  12   36.20   13.10
   7   6 -12   49.99    9.70
   7   6 -12   43.60   15.40
  -7  -6  12   55.39   14.20
  -7  -6  12   75.89   19.80
   6   6 -12  136.99   20.50
   6   6 -12  122.29   13.10
  -6  -6  12  115.19   22.20
  -6  -6  12  130.09   18.90
   5   6 -12    8.10    6.00
   5   6 -12    3.50    9.10
  -5  -6  12   10.50   11.60
  -5  -6  12    1.20    9.00
   4   6 -12  325.57   25.20
   4   6 -12  317.87   18.60
  -4  -6  12  313.97   30.00
  -4  -6  12  275.87   29.40
   3   6 -12   40.70    8.50
   3   6 -12   58.39   13.10
  -3  -6  12   55.19   15.20
  -3  -6  12   47.70   13.20
   2   6 -12  326.97   23.30
   2   6 -12  366.66   20.50
  -2  -6  12  321.37   26.20
  -2  -6  12  360.06   27.30
   1   6 -12  203.98   15.50
   1   6 -12  160.68   17.70
  -1  -6  12  146.09   20.10
   0   6 -12  201.48   15.60
   0   6 -12  180.98   18.60
   0  -6  12  148.89   18.50
  -1   6 -12  364.06   20.70
  -1   6 -12  343.27   23.20
   1  -6  12  347.67   24.50
  -2   6 -12   61.89   11.10
  -2   6 -12   65.79   12.50
   2  -6  12   63.89   12.50
  -3   6 -12  572.14   31.20
  -3   6 -12  596.84   30.70
  -4   6 -12   -0.50    7.90
  -4   6 -12    2.60    8.30
   4  -6  12  -13.40    7.50
  -5   6 -12  339.47   24.80
  -5   6 -12  270.77   23.90
   5  -6  12  324.97   16.90
   5  -6  12  317.57   31.50
  -6   6 -12   30.70   11.30
  -6   6 -12   26.20   12.00
   6  -6  12   33.40    8.00
   6  -6  12    7.00   12.60
  -7   6 -12  136.69   19.80
  -7   6 -12  114.59   18.30
   7  -6  12  124.59   23.50
   7  -6  12  141.99   14.20
  -8   6 -12  117.69   20.10
   8  -6  12  148.89   15.60
   8  -6  12  143.19   25.40
   9  -6  12   57.29   11.70
  -9  -5  12   13.70   13.40
   8   5 -12  114.99   21.30
   8   5 -12  116.59   13.60
  -8  -5  12  105.19   17.40
  -8  -5  12  107.99   23.30
   7   5 -12   14.10   12.00
   7   5 -12   -2.00    6.20
  -7  -5  12    6.40    9.00
  -7  -5  12   -0.30   11.20
   6   5 -12  151.48   19.80
   6   5 -12  144.69   13.50
  -6  -5  12  134.09   19.90
  -6  -5  12  155.68   24.00
   5   5 -12   79.89   15.00
   5   5 -12   90.29   10.70
  -5  -5  12   68.09   15.00
  -5  -5  12   62.99   15.60
   4   5 -12  110.09   12.20
   4   5 -12   85.79   14.40
  -4  -5  12  106.69   18.60
  -4  -5  12  150.48   21.70
   3   5 -12  360.36   24.30
   3   5 -12  314.47   19.00
  -3  -5  12  327.77   30.50
  -3  -5  12  312.47   26.10
   2   5 -12   39.50   10.00
   2   5 -12   35.90    8.50
  -2  -5  12   29.00   11.00
  -2  -5  12   38.20   11.30
   1   5 -12  465.55   24.20
   1   5 -12  524.15   27.80
  -1  -5  12  437.36   30.60
   0   5 -12    8.60    7.50
   0   5 -12   -6.30    5.60
   0  -5  12   -7.10    6.90
  -1   5 -12  725.03   32.30
  -1   5 -12  721.53   34.10
   1  -5  12  690.03   36.60
  -2   5 -12  144.29   16.10
  -2   5 -12  135.89   14.30
   2  -5  12  117.29   15.60
   2  -5  12  147.29   18.00
  -3   5 -12  494.95   27.40
  -3   5 -12  538.35   28.20
   3  -5  12  428.96   30.90
   3  -5  12  491.65   19.70
  -4   5 -12  289.27   22.00
  -4   5 -12  264.97   20.60
   4  -5  12  203.08   24.70
   4  -5  12  268.37   15.50
  -5   5 -12  269.47   21.10
  -5   5 -12  243.68   23.00
   5  -5  12  220.48   26.40
   5  -5  12  250.77   16.50
  -6   5 -12  417.06   27.60
  -6   5 -12  383.46   28.80
   6  -5  12  382.36   36.00
   6  -5  12  418.56   22.80
  -7   5 -12   13.00   11.70
   7  -5  12   15.40    7.90
   7  -5  12  -11.40   11.20
  -8   5 -12  295.87   29.40
   8  -5  12  273.17   32.50
   8  -5  12  347.47   22.60
   9  -5  12   12.70    8.10
   9   4 -12   23.80    8.80
   9   4 -12    9.60   12.00
  -9  -4  12   16.90   13.20
  -9  -4  12   34.30   12.50
   8   4 -12  105.09   18.60
   8   4 -12   88.19   11.70
  -8  -4  12  103.99   18.60
  -8  -4  12   90.19   19.20
   7   4 -12   78.79   11.10
   7   4 -12   90.39   15.80
  -7  -4  12   95.29   17.90
  -7  -4  12  102.09   19.40
   6   4 -12   37.70   12.00
   6   4 -12   21.60    7.20
  -6  -4  12   34.90   12.30
  -6  -4  12   23.30   11.60
   5   4 -12  245.48   16.10
   5   4 -12  192.98   20.90
  -5  -4  12  260.47   28.40
  -5  -4  12  286.97   29.00
   4   4 -12    4.40    7.10
   4   4 -12   -2.10    5.10
  -4  -4  12    1.60    9.30
  -4  -4  12   10.40    9.70
   3   4 -12  351.26   22.50
   3   4 -12  334.77   19.70
  -3  -4  12  280.67   28.30
  -3  -4  12  365.36   26.30
   2   4 -12   26.40    8.00
   2   4 -12   30.20    8.70
  -2  -4  12   22.60    9.30
  -2  -4  12   21.10   10.80
   1   4 -12  396.56   23.00
   1   4 -12  377.76   21.30
  -1  -4  12  326.77   26.20
   0   4 -12  256.07   17.60
   0   4 -12  251.37   18.30
   0  -4  12  262.67   18.50
   0  -4  12  218.38   22.50
  -1   4 -12  416.26   22.40
  -1   4 -12  397.56   22.50
   1  -4  12  333.17   24.10
   1  -4  12  393.46   25.20
  -2   4 -12  815.52   35.30
  -2   4 -12  834.12   35.40
   2  -4  12  757.12   39.70
   2  -4  12  632.34   40.00
   2  -4  12  760.92   28.00
  -3   4 -12   48.80   10.10
  -3   4 -12   41.80   10.70
   3  -4  12   62.99    8.30
   3  -4  12   91.39   16.50
  -4   4 -12  648.84   34.20
  -4   4 -12  666.43   32.60
   4  -4  12  623.54   38.50
   4  -4  12  647.24   28.30
  -5   4 -12    6.90    7.90
  -5   4 -12    7.50    9.80
   5  -4  12    5.10    9.90
   5  -4  12    0.80    5.60
  -6   4 -12  353.76   25.80
  -6   4 -12  351.46   27.70
   6  -4  12  338.57   32.50
   6  -4  12  332.97   20.90
  -7   4 -12   66.09   15.80
  -7   4 -12  106.89   17.00
   7  -4  12   74.99   18.50
   7  -4  12  105.99   13.30
  -8   4 -12  241.58   26.50
   8  -4  12  231.18   28.90
   8  -4  12  262.47   20.80
   9  -4  12  129.29   14.80
   9   3 -12   85.49   12.20
  -9  -3  12   79.89   17.00
  -9  -3  12   81.49   20.00
   8   3 -12    4.40   10.10
   8   3 -12    2.70    6.10
  -8  -3  12  -11.50   11.00
  -8  -3  12   11.40   11.10
   7   3 -12  145.79   18.40
   7   3 -12  183.08   15.80
  -7  -3  12  187.68   24.20
  -7  -3  12  184.98   24.70
   6   3 -12   10.40    8.10
   6   3 -12    9.00    5.80
  -6  -3  12   14.80   11.40
  -6  -3  12   21.10   11.00
   5   3 -12  275.37   17.20
   5   3 -12  292.87   21.50
  -5  -3  12  207.48   25.30
  -5  -3  12  285.87   24.60
   4   3 -12  176.38   18.10
   4   3 -12  181.38   14.30
  -4  -3  12  135.19   20.80
  -4  -3  12  136.99   18.30
   3   3 -12  197.78   15.50
   3   3 -12  176.18   17.90
  -3  -3  12  182.38   21.80
  -3  -3  12  211.88   21.30
   2   3 -12  364.96   21.80
   2   3 -12  315.67   20.40
  -2  -3  12  318.47   26.00
  -2  -3  12  329.67   22.70
   1   3 -12   97.59   12.10
   1   3 -12   82.09   11.40
  -1  -3  12   68.69   13.80
  -1  -3  12   99.59   12.20
   0   3 -12  833.52   35.40
   0   3 -12  886.51   36.20
   0  -3  12  789.52   39.90
   0  -3  12  764.82   37.20
  -1   3 -12   26.70    8.60
  -1   3 -12   23.40    7.70
   1  -3  12    7.00    4.10
   1  -3  12   15.20    8.70
   1  -3  12   17.40    8.30
  -2   3 -12  548.85   27.10
  -2   3 -12  582.14   28.40
   2  -3  12  504.85   31.80
   2  -3  12  569.24   24.00
  -3   3 -12  261.37   17.90
  -3   3 -12  268.07   20.50
   3  -3  12  256.07   24.90
   3  -3  12  262.07   16.00
  -4   3 -12  309.57   23.60
  -4   3 -12  321.47   22.50
   4  -3  12  313.47   25.70
   4  -3  12  291.17   17.90
  -5   3 -12  339.97   23.80
  -5   3 -12  333.67   27.70
   5  -3  12  337.47   20.10
   5  -3  12  376.96   28.50
  -6   3 -12   95.59   14.40
  -6   3 -12   55.89   15.10
   6  -3  12  124.69   20.00
   6  -3  12  101.39   12.30
  -7   3 -12  355.66   31.00
  -7   3 -12  302.37   23.70
   7  -3  12  314.97   30.30
   7  -3  12  302.07   21.10
  -8   3 -12    9.50   13.30
   8  -3  12   17.80   11.90
   8  -3  12    5.60    7.20
   9  -3  12  145.19   16.00
  10   2 -12   -4.00    6.90
 -10  -2  12    7.90   13.40
 -10  -2  12  -13.60    9.90
   9   2 -12   80.79   11.80
  -9  -2  12   89.19   19.50
  -9  -2  12   93.69   18.30
   8   2 -12   29.40    8.60
  -8  -2  12   15.40   11.70
  -8  -2  12   42.60   13.50
   7   2 -12  126.29   13.20
  -7  -2  12  140.69   22.30
  -7  -2  12  109.59   17.70
   6   2 -12  303.77   19.10
   6   2 -12  347.87   24.20
  -6  -2  12  351.66   26.80
  -6  -2  12  378.36   30.90
   5   2 -12   48.30   10.80
   5   2 -12   44.50    8.60
  -5  -2  12   67.89   16.60
  -5  -2  12   37.50   10.50
   4   2 -12  478.45   24.50
   4   2 -12  524.35   28.60
  -4  -2  12  532.55   31.10
  -4  -2  12  499.55   34.20
   3   2 -12   22.00    8.60
   3   2 -12   17.40    7.20
  -3  -2  12   22.80   10.50
  -3  -2  12   21.60    9.40
   2   2 -12  662.53   31.60
   2   2 -12  698.93   32.30
  -2  -2  12  761.62   38.90
  -2  -2  12  689.03   34.50
   1   2 -12   57.59    9.80
   1   2 -12   67.69   10.10
  -1  -2  12   78.99   11.50
  -1  -2  12   86.79   14.40
   0   2 -12  721.43   31.80
   0   2 -12  681.13   31.20
   0   2 -12  762.92   33.50
   0  -2  12  776.52   36.80
   0  -2  12  742.03   27.30
   0  -2  12  742.93   35.70
  -1   2 -12  571.04   28.30
  -1   2 -12  602.64   27.60
  -1   2 -12  571.64   28.80
   1  -2  12  669.63   31.80
   1  -2  12  645.94   33.40
   1  -2  12  602.34   25.10
  -2   2 -12  162.28   16.10
  -2   2 -12  145.39   15.70
   2  -2  12  159.28   11.90
   2  -2  12  117.29   16.50
  -3   2 -12  585.24   31.10
  -3   2 -12  617.74   30.60
   3  -2  12  613.84   34.20
   3  -2  12  585.34   26.40
  -4   2 -12   30.70   10.10
  -4   2 -12   49.40   10.90
   4  -2  12   28.80    7.00
   4  -2  12   61.99   13.30
  -5   2 -12  443.36   27.10
  -5   2 -12  473.65   31.30
   5  -2  12  514.25   32.30
   5  -2  12  496.75   24.40
  -6   2 -12   -5.20   10.30
  -6   2 -12   22.30    8.70
   6  -2  12    7.90   10.10
   6  -2  12   14.50    6.70
  -7   2 -12  394.76   30.30
  -7   2 -12  376.36   33.10
   7  -2  12  429.36   23.70
   7  -2  12  395.96   30.50
   8  -2  12  110.59   13.80
   8  -2  12  149.39   21.60
  10   1 -12   57.99   11.00
 -10  -1  12   19.40   13.20
 -10  -1  12   40.00   14.20
   9   1 -12    5.80    6.70
  -9  -1  12    8.30   11.30
  -9  -1  12   -3.30   11.80
   8   1 -12  165.68   15.00
  -8  -1  12  195.68   22.60
  -8  -1  12  176.28   24.50
   7   1 -12    7.00    6.20
  -7  -1  12    3.30   11.40
  -7  -1  12    6.40    9.30
   6   1 -12  247.08   16.90
  -6  -1  12  264.47   28.90
  -6  -1  12  270.87   22.30
   5   1 -12   37.90    9.30
   5   1 -12   26.70    8.00
  -5  -1  12   19.30   11.60
  -5  -1  12   33.80   10.30
   4   1 -12  374.16   21.50
   4   1 -12  412.06   23.50
  -4  -1  12  349.37   24.20
  -4  -1  12  385.16   28.30
   3   1 -12  230.58   17.40
   3   1 -12  197.88   17.30
  -3  -1  12  236.18   18.90
  -3  -1  12  276.97   25.60
   2   1 -12  196.48   14.80
   2   1 -12  172.38   16.30
  -2  -1  12  180.48   17.50
  -2  -1  12  191.88   20.10
   1   1 -12  609.94   27.20
   1   1 -12  574.04   29.10
  -1  -1  12  602.44   23.10
  -1  -1  12  631.14   32.10
  -1  -1  12  584.04   29.40
   0   1 -12  122.29   12.10
   0   1 -12  105.69   12.80
   0  -1  12  113.79   14.40
   0  -1  12  136.59   15.30
   0  -1  12   97.09    9.30
  -1   1 -12  878.61   37.20
  -1   1 -12  875.41   38.60
   1  -1  12  930.21   41.30
   1  -1  12  894.81   34.50
  -2   1 -12   16.10    6.60
  -2   1 -12    4.80    8.30
   2  -1  12    8.20    7.40
   2  -1  12    9.30    5.10
  -3   1 -12  622.14   32.90
  -3   1 -12  622.54   30.20
   3  -1  12  593.34   33.20
   3  -1  12  600.74   26.90
  -4   1 -12   92.19   12.80
  -4   1 -12  114.59   17.00
   4  -1  12   93.99   14.70
   4  -1  12   84.09   10.40
  -5   1 -12  309.47   28.00
  -5   1 -12  269.77   21.00
   5  -1  12  315.17   24.80
   5  -1  12  287.57   18.30
  -6   1 -12  275.67   22.20
  -6   1 -12  272.87   26.90
   6  -1  12  313.17   26.60
   6  -1  12  296.47   19.20
  -7   1 -12   53.69   16.70
   7  -1  12   87.19   11.60
   7  -1  12   80.69   16.60
   8  -1  12  237.78   18.40
  10   0 -12   62.29   10.80
 -10   0  12   72.39   16.90
 -10   0  12   53.59   17.60
   9   0 -12    8.30    7.30
  -9   0  12    7.70   10.00
  -9   0  12  -10.80   11.40
   8   0 -12  117.69   13.30
  -8   0  12  114.19   17.50
  -8   0  12  136.49   23.50
   7   0 -12  154.38   14.70
  -7   0  12  223.98   27.30
  -7   0  12  212.78   22.40
   6   0 -12   61.39   10.00
  -6   0  12   69.59   13.30
  -6   0  12   44.40   13.80
   5   0 -12  222.98   16.70
  -5   0  12  248.68   19.80
  -5   0  12  254.07   26.30
   4   0 -12   54.39    9.90
   4   0 -12   39.10    9.70
  -4   0  12   49.99   12.10
  -4   0  12   47.90    9.90
   3   0 -12  516.35   26.80
   3   0 -12  556.04   28.50
  -3   0  12  583.04   29.70
  -3   0  12  582.74   32.20
   2   0 -12   13.40    7.70
   2   0 -12    9.80    6.20
  -2   0  12    5.70    3.60
  -2   0  12    7.20    5.70
  -2   0  12   13.40    8.30
   1   0 -12 1080.99   44.90
  -1   0  12 1118.89   39.80
  -1   0  12 1146.49   47.20
  -1   0  12 1081.39   45.00
   0   0 -12  412.46   21.90
   0   0 -12  422.86   24.10
   0   0  12  436.56   24.70
   0   0  12  412.76   24.10
   0   0  12  443.56   19.90
  -1   0 -12  373.76   21.50
  -1   0 -12  401.26   23.90
   1   0  12  360.96   18.80
   1   0  12  426.86   24.60
  -2   0 -12  303.37   19.80
  -2   0 -12  324.77   22.70
   2   0  12  308.77   22.10
   2   0  12  288.27   16.70
  -3   0 -12  179.68   17.50
  -3   0 -12  175.88   19.20
   3   0  12  207.48   20.50
   3   0  12  185.68   13.60
  -4   0 -12  544.45   33.30
  -4   0 -12  559.04   29.70
   4   0  12  534.55   25.50
   4   0  12  574.34   33.40
  -5   0 -12    0.80    9.60
  -5   0 -12   12.10    7.40
   5   0  12    1.80    5.10
   5   0  12   -3.00    7.20
  -6   0 -12  469.25   33.60
  -6   0 -12  432.16   27.90
   6   0  12  410.66   30.20
   6   0  12  450.45   23.80
   7   0  12   18.80   11.70
   7   0  12   27.30    8.00
   8   0  12  138.59   15.00
 -11   1  12    3.70   14.10
  10  -1 -12   54.59   11.00
 -10   1  12   28.50   13.00
 -10   1  12   24.10   15.50
   9  -1 -12   57.29   10.40
  -9   1  12   76.39   18.80
  -9   1  12   46.70   13.70
   8  -1 -12   15.80    6.70
  -8   1  12   13.90    8.90
  -8   1  12    6.60   13.20
   7  -1 -12  114.59   12.50
  -7   1  12  153.48   17.90
  -7   1  12  160.48   21.60
   6  -1 -12   10.30    6.90
  -6   1  12   17.40   11.00
  -6   1  12   19.20    8.30
   5  -1 -12  393.76   22.00
  -5   1  12  361.16   23.50
  -5   1  12  388.76   28.20
   4  -1 -12   71.09   11.20
   4  -1 -12  104.39   12.30
  -4   1  12  103.59   13.20
  -4   1  12  103.59   15.70
   3  -1 -12  457.45   25.80
  -3   1  12  465.15   18.90
  -3   1  12  470.05   28.70
   2  -1 -12  418.06   24.00
  -2   1  12  422.86   25.90
  -2   1  12  379.06   18.00
   1  -1 -12  352.56   21.50
  -1   1  12  318.07   16.70
  -1   1  12  330.67   21.90
  -1   1  12  299.47   19.90
   0  -1 -12  659.03   31.50
   0  -1 -12  693.03   30.70
   0   1  12  652.63   32.20
   0   1  12  667.43   27.80
   0   1  12  638.94   31.80
  -1  -1 -12   15.90    8.50
  -1  -1 -12   13.20    6.70
   1   1  12   26.10    6.50
   1   1  12    7.80    7.10
  -2  -1 -12  588.54   29.90
  -2  -1 -12  608.14   32.30
   2   1  12  561.74   26.50
   2   1  12  607.44   32.80
  -3  -1 -12   92.99   15.60
  -3  -1 -12   96.59   13.50
   3   1  12   62.89    9.00
   3   1  12   86.29   14.90
  -4  -1 -12  428.06   29.10
  -4  -1 -12  444.26   27.10
   4   1  12  458.45   23.40
   4   1  12  409.16   28.80
  -5  -1 -12   62.89   16.60
  -5  -1 -12   92.99   14.60
   5   1  12   91.59   11.50
   5   1  12   99.09   16.40
  -6  -1 -12  248.18   26.40
   6   1  12  272.37   27.30
   6   1  12  225.28   18.20
   7   1  12  170.98   16.10
  11  -2 -12   22.30   10.20
 -11   2  12   52.69   25.60
 -11   2  12    8.70   15.30
  10  -2 -12   13.40    7.80
 -10   2  12   10.20   13.80
 -10   2  12   -0.30   10.10
   9  -2 -12   69.79   11.60
  -9   2  12   68.39   14.40
  -9   2  12   91.09   19.80
   8  -2 -12   24.80    8.30
  -8   2  12   10.10    7.80
  -8   2  12   34.30   13.60
   7  -2 -12  112.89   13.20
  -7   2  12  172.38   23.30
  -7   2  12  161.38   17.70
   6  -2 -12   83.09   11.60
  -6   2  12  101.69   17.60
  -6   2  12   90.09   12.80
   5  -2 -12   81.89   12.40
  -5   2  12  126.89   18.50
   4  -2 -12  366.26   23.30
  -4   2  12  373.46   15.90
  -4   2  12  347.07   26.20
   3  -2 -12   16.40    8.00
  -3   2  12   27.00   10.40
  -3   2  12   13.90    4.70
   2  -2 -12  514.65   27.10
  -2   2  12  524.85   22.80
  -2   2  12  471.05   28.80
   1  -2 -12   63.59   11.10
  -1   2  12   84.79   13.20
  -1   2  12   54.39   10.40
  -1   2  12   74.49    9.10
   0  -2 -12  445.26   24.10
   0  -2 -12  395.86   24.30
   0   2  12  421.56   25.50
   0   2  12  355.96   20.00
  -1  -2 -12  135.49   16.20
  -1  -2 -12  200.78   18.20
   1   2  12  138.19   13.00
   1   2  12  165.28   18.60
  -2  -2 -12  302.77   23.80
  -2  -2 -12  327.17   22.30
   2   2  12  267.17   22.90
   2   2  12  316.07   18.70
  -3  -2 -12  376.16   27.70
  -3  -2 -12  407.76   25.40
   3   2  12  389.56   27.80
   3   2  12  378.06   21.70
  -4  -2 -12  158.58   21.20
  -4  -2 -12  153.78   18.30
   4   2  12  151.38   19.60
   4   2  12  133.09   14.00
  -5  -2 -12  357.06   31.50
   5   2  12  356.96   28.70
   5   2  12  357.46   21.70
   6   2  12   -2.10    6.10
  11  -3 -12   13.50    9.60
 -11   3  12   47.50   19.60
 -11   3  12   10.90   16.90
  10  -3 -12   14.10    8.30
 -10   3  12   31.90   11.30
 -10   3  12    8.60   13.80
   9  -3 -12   50.09   10.20
  -9   3  12   76.99   18.90
  -9   3  12   51.39   13.40
   8  -3 -12  137.69   14.60
  -8   3  12  174.28   19.40
  -8   3  12  182.58   25.40
   7  -3 -12   16.80    8.20
  -7   3  12   44.50   13.90
   6  -3 -12  266.57   19.80
  -6   3  12  249.18   26.80
   5  -3 -12    5.60    8.80
  -5   3  12   19.20    9.70
  -5   3  12   12.80    4.30
   4  -3 -12  357.46   23.00
  -4   3  12  368.86   17.70
  -4   3  12  370.26   27.50
   3  -3 -12   91.29   13.00
  -3   3  12   75.99    9.00
  -3   3  12  125.59   17.80
   2  -3 -12  223.48   18.90
  -2   3  12  235.48   22.60
  -2   3  12  212.58   14.40
   1  -3 -12  343.97   22.40
  -1   3  12  374.96   25.50
  -1   3  12  340.47   19.20
  -1   3  12  326.47   22.70
   0  -3 -12  137.09   15.50
   0  -3 -12  141.79   15.90
   0   3  12  102.29   15.10
   0   3  12  130.69   12.80
  -1  -3 -12  540.85   30.70
  -1  -3 -12  537.65   30.40
   1   3  12  538.95   26.60
   1   3  12  602.44   33.40
  -2  -3 -12    4.50   10.00
  -2  -3 -12    4.00    8.00
   2   3  12   -0.30    5.90
   2   3  12   -5.60    7.90
  -3  -3 -12  517.65   33.90
  -3  -3 -12  554.94   31.90
   3   3  12  556.84   35.70
   3   3  12  526.55   27.30
  -4  -3 -12   -6.60   10.50
   4   3  12   12.00   11.50
   4   3  12   -3.10    8.60
   4   3  12    6.70    6.80
   5   3  12  283.87   27.30
   5   3  12  331.27   33.30
   5   3  12  292.77   30.70
 -12   4  12  -10.90   14.40
  11  -4 -12    7.10   12.00
 -11   4  12    4.10   15.00
  10  -4 -12   34.40   10.20
 -10   4  12   34.90   11.50
 -10   4  12   21.10   15.20
   9  -4 -12    0.30    6.90
  -9   4  12    0.40   10.90
   8  -4 -12  113.39   14.10
  -8   4  12  116.69   20.30
   7  -4 -12    6.30    7.60
  -7   4  12   -0.80    9.90
   6  -4 -12  201.88   19.60
  -6   4  12  204.68   24.90
   5  -4 -12  158.18   16.50
  -5   4  12  135.89   11.00
  -5   4  12  151.48   21.30
   4  -4 -12   84.39   12.60
  -4   4  12   87.09    9.70
  -4   4  12   93.99   16.70
   3  -4 -12  221.78   17.60
  -3   4  12  172.98   21.30
  -3   4  12  203.18   14.70
   2  -4 -12   15.20    8.50
  -2   4  12   18.20    6.60
  -2   4  12   12.00   10.70
   1  -4 -12  585.14   29.90
  -1   4  12  530.45   27.10
  -1   4  12  622.94   34.60
  -1   4  12  548.55   31.50
   0  -4 -12   20.80   10.10
   0   4  12   24.70    8.00
   0   4  12   36.00   11.10
  -1  -4 -12  306.97   23.40
  -1  -4 -12  260.27   23.20
   1   4  12  255.37   25.10
   1   4  12  242.18   19.40
  -2  -4 -12  155.88   18.60
  -2  -4 -12  119.89   18.60
   2   4  12  122.79   14.20
   2   4  12  145.79   20.70
  -3  -4 -12  198.88   26.60
  -3  -4 -12  182.58   22.20
   3   4  12  154.38   15.60
   3   4  12  115.29   18.90
  -4  -4 -12  192.08   32.90
   4   4  12  198.28   24.90
   4   4  12  190.18   20.80
 -11   5  12  -18.20   13.30
 -10   5  12   34.80   15.40
  -9   5  12   54.29   16.60
   8  -5 -12   58.69   14.40
  -8   5  12   76.19   18.40
   7  -5 -12  105.89   15.20
  -7   5  12   99.09   19.50
   6  -5 -12   -0.40    7.50
  -6   5  12   -5.50   10.30
  -6   5  12    1.00    4.10
   5  -5 -12  178.18   17.50
  -5   5  12  210.38   14.40
  -5   5  12  190.58   24.00
   4  -5 -12    4.80    7.30
  -4   5  12    2.70   10.00
  -4   5  12   -6.30    5.00
   3  -5 -12  264.67   19.40
  -3   5  12  285.87   28.00
  -3   5  12  279.97   18.70
   2  -5 -12  109.79   13.80
  -2   5  12  113.09   13.30
  -2   5  12  157.78   20.90
   1  -5 -12  155.58   17.00
  -1   5  12  159.28   19.70
  -1   5  12  186.28   16.90
   0  -5 -12  192.48   20.90
   0   5  12  196.18   17.80
   0   5  12  196.48   22.30
  -1  -5 -12   10.20   16.50
  -1  -5 -12   12.10   10.10
   1   5  12   12.80    7.80
   1   5  12   16.60   11.20
   2   5  12  354.66   28.90
   2   5  12  274.37   21.10
   3   5  12   11.40   12.80
   3   5  12   -1.90    7.60
 -11   6  12    2.90   18.10
 -10   6  12    1.60   14.90
  -9   6  12   81.49   20.70
  -8   6  12   -2.10   12.30
  -7   6  12  144.09   23.70
  -6   6  12   79.19    9.90
  -6   6  12   45.00   16.20
  -5   6  12  106.49   12.20
  -5   6  12  144.69   22.50
  -4   6  12  115.39   20.30
  -4   6  12  125.79   14.00
  -3   6  12   69.89   11.20
  -3   6  12   57.09   15.10
  -2   6  12  198.48   23.50
  -2   6  12  222.88   18.90
  -1   6  12    3.30    7.50
   0   6  12  215.78   19.40
   0   6  12  231.48   25.20
   1   6  12   24.30    9.50
   1   6  12   14.80   12.80
   2   6  12  212.48   19.80
 -10   7  12    4.90   21.20
  -9   7  12   35.00   17.80
  -8   7  12   51.89   18.90
  -7   7  12   -2.90    5.30
  -7   7  12   10.60   14.40
  -6   7  12   40.60    8.90
  -6   7  12   60.69   17.00
  -5   7  12   24.40   12.80
  -5   7  12   10.30    7.40
  -4   7  12  184.88   17.40
  -4   7  12  124.39   21.10
  -3   7  12    1.20    7.50
  -3   7  12    4.60   10.60
  -2   7  12  137.09   15.70
  -1   7  12   73.09   13.00
   0   7  12   76.99   13.40
   0   7  12   72.69   15.80
   1   7  12  131.19   16.60
  -8   8  12   30.60   17.20
  -7   8  12    1.30   13.20
  -7   8  12   -2.10    6.40
  -6   8  12   63.39   11.20
  -6   8  12  100.19   20.40
  -5   8  12   58.39   16.30
  -5   8  12   15.70    8.30
  -4   8  12   41.50   15.00
  -4   8  12   34.90   10.50
  -3   8  12   77.09   13.00
  -3   8  12   69.29   17.00
  -2   8  12   14.60    8.90
  -1   8  12  203.28   19.90
  -6   9  12    7.40    8.10
  -5   9  12   56.39   12.30
   0  12 -13   30.30   18.70
  -1  12 -13   58.39   14.50
   1 -12  13   59.89   15.30
  -2  12 -13    6.90   11.60
   2 -12  13   36.60   15.70
  -3  12 -13   13.80   11.40
   3 -12  13   19.80   13.60
  -4  12 -13   86.29   19.50
   4 -12  13   72.89   19.00
   2  11 -13   46.00   12.10
  -2 -11  13   34.50   12.80
   1  11 -13   16.50    9.60
   1  11 -13   28.40    8.60
  -1 -11  13   13.70   11.30
   0  11 -13  104.79   12.10
   0  11 -13   97.39   15.80
   0  11 -13   38.90   18.00
   0 -11  13  111.39   20.20
  -1  11 -13   26.90   15.10
  -1  11 -13   16.30   10.40
  -1  11 -13   11.30    7.00
   1 -11  13    7.70   11.20
  -2  11 -13  109.39   13.60
  -2  11 -13  119.19   21.50
  -2  11 -13   89.39   16.20
   2 -11  13  103.59   18.60
  -3  11 -13  -16.10   11.10
  -3  11 -13  -10.20   10.00
  -3  11 -13   11.30    7.30
   3 -11  13    3.30   10.40
   4  10 -13   26.40   10.30
  -4 -10  13   48.30   15.00
   3  10 -13   14.40    6.50
   3  10 -13   12.60   21.00
   3  10 -13    4.80    8.00
  -3 -10  13    3.60   10.20
   2  10 -13  123.39   12.80
   2  10 -13  100.89   20.30
   2  10 -13   92.59   15.70
  -2 -10  13  117.89   19.90
   1  10 -13  -10.50    7.50
   1  10 -13    1.40    5.50
   1  10 -13    7.00   11.80
  -1 -10  13    4.10   10.00
   0  10 -13  186.68   24.70
   0  10 -13  143.79   18.70
   0  10 -13  209.08   15.80
   0 -10  13  186.38   23.60
  -1  10 -13    9.30   12.40
  -1  10 -13   49.10   13.40
  -1  10 -13   15.60    7.50
   1 -10  13    7.20   10.10
  -2  10 -13  101.49   12.50
  -2  10 -13  118.59   20.70
  -2  10 -13  107.89   16.80
   2 -10  13  123.79   20.10
  -3  10 -13   93.49   19.30
  -3  10 -13   83.99   11.80
  -3  10 -13   96.29   16.60
   3 -10  13  101.49   18.10
  -4  10 -13   75.49   17.50
  -5  10 -13  150.18   23.00
  -5  -9  13   -3.90    9.80
   4   9 -13   76.39   18.50
  -4  -9  13  100.69   18.10
   3   9 -13   37.90   14.10
  -3  -9  13    9.50   10.80
   2   9 -13  129.29   20.50
   2   9 -13  123.49   12.70
  -2  -9  13  110.19   19.10
   1   9 -13  163.38   21.80
   1   9 -13  100.79   11.80
  -1  -9  13   97.59   18.00
   0   9 -13   15.80    6.50
   0   9 -13   36.70   12.80
   0  -9  13   24.00   11.80
  -1   9 -13  152.28   18.20
  -1   9 -13  152.58   14.80
  -1   9 -13  167.58   21.10
   1  -9  13  152.48   21.00
  -2   9 -13  -12.20    9.60
  -2   9 -13    5.00    6.10
  -2   9 -13  -18.00    7.60
   2  -9  13    4.70    9.30
  -3   9 -13  377.36   28.60
  -3   9 -13  322.37   21.00
  -3   9 -13  284.37   25.40
   3  -9  13  283.87   27.80
  -4   9 -13    6.30   10.00
  -5   9 -13  199.38   24.40
  -6   9 -13   76.89   18.50
  -7  -8  13   -3.00   10.30
  -6  -8  13   67.89   16.60
   5   8 -13   41.20   15.80
  -5  -8  13   29.40   12.70
  -5  -8  13   35.00   17.60
   4   8 -13   29.60   13.00
  -4  -8  13   41.00   12.70
   3   8 -13  123.39   18.70
  -3  -8  13  110.09   18.30
   2   8 -13    8.90    8.80
  -2  -8  13   21.30   11.70
   1   8 -13  205.68   15.20
   1   8 -13  186.98   21.50
  -1  -8  13  180.18   22.60
   0   8 -13   19.10   10.90
   0   8 -13   23.30    7.20
   0  -8  13   10.40    9.60
  -1   8 -13  216.28   16.40
  -1   8 -13  233.98   23.40
   1  -8  13  175.08   22.20
  -2   8 -13   96.49   15.90
  -2   8 -13  113.69   12.70
   2  -8  13   77.99   15.60
  -3   8 -13  214.18   22.30
  -3   8 -13  169.38   20.50
   3  -8  13  159.38   22.00
  -4   8 -13  185.58   21.70
  -5   8 -13   85.99   16.90
  -6   8 -13  319.97   29.60
  -7   8 -13  -10.20   10.80
  -8  -7  13   16.50   10.70
  -7  -7  13   22.90   12.70
   6   7 -13    6.30   11.00
  -6  -7  13   32.60   14.90
  -6  -7  13   38.60   13.50
   5   7 -13   85.99   16.80
  -5  -7  13  105.39   18.80
  -5  -7  13   96.79   20.60
   4   7 -13   17.40   10.70
  -4  -7  13    9.90   10.00
  -4  -7  13  -12.80   11.20
   3   7 -13  247.38   24.30
  -3  -7  13  229.18   26.80
   2   7 -13   47.80   12.30
  -2  -7  13   27.80   11.50
   1   7 -13   81.49   14.00
  -1  -7  13   63.39   15.10
   0   7 -13  117.19   17.20
   0  -7  13  118.19   18.50
  -1   7 -13  139.19   18.30
   1  -7  13  132.89   19.40
  -2   7 -13  327.47   24.00
   2  -7  13  276.47   23.20
  -3   7 -13   19.50    9.60
  -4   7 -13  384.56   27.20
  -5   7 -13   55.39   13.50
  -6   7 -13  137.59   19.90
  -7   7 -13  108.89   19.10
   7  -7  13   74.39   20.60
   7  -7  13   86.59   10.70
  -8   7 -13   96.59   19.00
   8  -7  13   61.19   10.20
   8  -7  13   50.09   20.60
   9  -7  13  132.79   14.10
   8   6 -13   11.80    9.00
  -8  -6  13    4.30   10.70
   7   6 -13   88.09   12.30
   7   6 -13   96.19   18.80
  -7  -6  13  102.89   22.50
  -7  -6  13   60.99   16.00
   6   6 -13   15.50    7.40
   6   6 -13    7.90   11.60
  -6  -6  13   12.20   11.40
  -6  -6  13   26.60   14.80
   5   6 -13   96.19   12.40
   5   6 -13   83.19   16.40
  -5  -6  13  133.49   23.20
  -5  -6  13   81.29   17.50
   4   6 -13   91.59   11.80
   4   6 -13   70.99   15.00
  -4  -6  13   71.59   16.50
  -4  -6  13   97.39   19.10
   3   6 -13  107.29   15.90
   3   6 -13   97.09   12.50
  -3  -6  13   55.09   14.90
  -3  -6  13  103.49   18.80
   2   6 -13  224.08   17.40
   2   6 -13  233.18   22.20
  -2  -6  13  171.18   23.00
   1   6 -13    5.50    7.70
   1   6 -13   -2.90    6.10
  -1  -6  13   24.40   11.40
   0   6 -13  487.55   28.20
   0   6 -13  458.05   24.40
   0  -6  13  430.86   30.60
  -1   6 -13    3.10    6.80
  -1   6 -13   11.80    7.80
   1  -6  13   27.70   10.70
  -2   6 -13  284.17   20.60
  -2   6 -13  294.97   22.00
   2  -6  13  299.47   23.10
  -3   6 -13  162.68   17.40
  -3   6 -13  131.29   16.30
  -4   6 -13  150.68   18.00
  -4   6 -13  186.78   19.50
   4  -6  13  192.48   24.60
  -5   6 -13  406.96   27.60
  -5   6 -13  412.66   27.80
   5  -6  13  392.26   19.20
   5  -6  13  372.16   32.70
  -6   6 -13   29.20   13.10
  -6   6 -13   24.10   11.00
   6  -6  13    1.30   12.50
   6  -6  13    6.50    6.00
  -7   6 -13  218.08   24.30
   7  -6  13  251.17   17.70
   7  -6  13  158.48   26.60
  -8   6 -13  -12.20   15.70
   8  -6  13    5.90   13.60
   8  -6  13   -0.30    6.40
   9  -6  13  180.28   16.90
  -9  -5  13   44.20   13.80
   8   5 -13   16.70   13.60
   8   5 -13   25.80    8.20
  -8  -5  13   13.40   13.20
  -8  -5  13    4.50   13.50
   7   5 -13   47.70   14.90
   7   5 -13   41.20   10.10
  -7  -5  13   24.60   14.20
  -7  -5  13   81.19   19.90
   6   5 -13  114.49   13.00
   6   5 -13  122.19   18.50
  -6  -5  13  110.49   21.10
  -6  -5  13  113.99   21.20
   5   5 -13   13.40    8.50
   5   5 -13   11.20    6.80
  -5  -5  13   38.00   13.70
  -5  -5  13   14.40   11.80
   4   5 -13  310.97   19.50
   4   5 -13  309.27   24.20
  -4  -5  13  287.17   30.40
  -4  -5  13  341.17   32.40
   3   5 -13    7.70    6.70
   3   5 -13    0.20    7.50
  -3  -5  13    3.00   10.50
  -3  -5  13   13.60    9.60
   2   5 -13  311.87   22.20
   2   5 -13  295.37   20.60
  -2  -5  13  320.67   25.40
  -2  -5  13  267.77   29.00
   1   5 -13  114.99   13.20
   1   5 -13  134.09   15.70
  -1  -5  13   61.39   15.20
   0   5 -13  283.87   20.80
   0   5 -13  293.07   19.20
   0  -5  13  297.17   24.70
  -1   5 -13  268.27   20.10
  -1   5 -13  296.07   19.30
   1  -5  13  261.67   24.80
  -2   5 -13   97.89   13.20
  -2   5 -13   88.59   13.00
   2  -5  13   87.59   15.70
  -3   5 -13  486.75   27.70
  -3   5 -13  498.35   27.60
   3  -5  13  455.85   32.70
  -4   5 -13    0.90    8.20
  -4   5 -13   -8.20    6.60
   4  -5  13    8.30   10.40
   4  -5  13    2.30    4.60
  -5   5 -13  264.17   21.70
  -5   5 -13  287.37   26.00
   5  -5  13  279.37   17.10
   5  -5  13  272.97   29.60
  -6   5 -13   29.90   12.60
   6  -5  13   33.70    8.00
   6  -5  13   45.90   15.90
  -7   5 -13  204.98   23.40
   7  -5  13  213.78   28.20
   7  -5  13  224.58   18.10
   8  -5  13   92.09   12.80
   8  -5  13  104.39   21.40
   9  -5  13   97.89   13.30
   9   4 -13  -16.80    7.10
  -9  -4  13   12.20   11.70
   8   4 -13   62.39   11.10
   8   4 -13   86.39   17.00
  -8  -4  13   94.29   19.60
  -8  -4  13   86.29   20.00
   7   4 -13    2.40    6.80
   7   4 -13    0.60    9.90
  -7  -4  13    5.60   11.10
  -7  -4  13  -14.50   10.20
   6   4 -13   94.59   12.20
   6   4 -13  127.59   19.00
  -6  -4  13   94.49   19.80
  -6  -4  13  137.09   21.70
   5   4 -13   16.70    9.50
   5   4 -13   23.10    7.60
  -5  -4  13   18.80   11.90
  -5  -4  13   26.80   12.40
   4   4 -13  178.08   19.50
   4   4 -13  148.69   15.00
  -4  -4  13  143.89   22.20
  -4  -4  13  186.78   22.80
   3   4 -13  215.78   17.10
   3   4 -13  198.38   19.40
  -3  -4  13  258.57   25.30
  -3  -4  13  196.08   25.80
   2   4 -13   38.20    9.80
   2   4 -13   46.20   10.20
  -2  -4  13   48.50   14.40
  -2  -4  13   41.60   11.50
   1   4 -13  384.66   23.80
   1   4 -13  412.06   22.50
  -1  -4  13  381.16   28.80
   0   4 -13   28.00    9.00
   0   4 -13   32.20    8.90
   0  -4  13   33.90   11.30
   0  -4  13   22.90    9.20
  -1   4 -13  542.45   28.30
  -1   4 -13  571.64   28.30
   1  -4  13  536.55   31.80
   1  -4  13  561.54   32.50
  -2   4 -13   45.00   10.10
  -2   4 -13   56.89   11.00
   2  -4  13   56.09   13.50
   2  -4  13   40.40    5.70
  -3   4 -13  421.36   25.50
  -3   4 -13  357.76   22.70
   3  -4  13  379.26   18.80
   3  -4  13  413.86   30.00
  -4   4 -13  183.78   20.30
  -4   4 -13  199.28   20.90
   4  -4  13  195.18   14.40
   4  -4  13  186.28   24.10
  -5   4 -13  195.18   21.30
  -5   4 -13  180.28   20.50
   5  -4  13  213.18   26.20
   5  -4  13  208.08   15.60
  -6   4 -13  288.97   24.70
  -6   4 -13  345.07   29.50
   6  -4  13  389.26   31.90
   6  -4  13  288.17   19.80
  -7   4 -13   45.60   14.70
   7  -4  13    5.20   12.30
   7  -4  13   22.60    7.90
   8  -4  13  171.18   30.40
   8  -4  13  190.28   17.50
 -10  -3  13   37.20   15.00
   9   3 -13    2.40    8.00
   9   3 -13    5.00   11.10
  -9  -3  13   -3.70   10.80
  -9  -3  13   -4.50   11.30
   8   3 -13   81.39   11.50
   8   3 -13  100.59   17.90
  -8  -3  13   94.89   19.40
  -8  -3  13   89.19   20.60
   7   3 -13   82.99   15.70
   7   3 -13   66.69   10.60
  -7  -3  13   60.99   17.50
  -7  -3  13   84.39   18.10
   6   3 -13   47.80   12.30
   6   3 -13   23.90    7.80
  -6  -3  13   29.70   11.90
  -6  -3  13   46.40   15.10
   5   3 -13  139.29   17.80
   5   3 -13  129.69   13.50
  -5  -3  13  137.99   19.50
  -5  -3  13  132.79   21.50
   4   3 -13   12.70    7.50
   4   3 -13   31.10   10.30
  -4  -3  13   28.20   12.30
  -4  -3  13   41.70   11.80
   3   3 -13  338.37   20.40
   3   3 -13  319.57   22.10
  -3  -3  13  292.37   29.70
  -3  -3  13  294.97   23.80
   2   3 -13    7.20    7.60
   2   3 -13    2.20    7.10
  -2  -3  13   15.90    8.80
  -2  -3  13   31.70   12.30
   1   3 -13  532.15   26.70
   1   3 -13  475.95   25.80
  -1  -3  13  433.56   25.70
  -1  -3  13  542.25   31.80
   0   3 -13  171.78   16.20
   0   3 -13  182.18   15.40
   0  -3  13  167.88   18.40
   0  -3  13  207.78   21.70
  -1   3 -13  292.17   18.60
  -1   3 -13  283.67   19.70
   1  -3  13  256.37   20.70
   1  -3  13  283.97   13.70
   1  -3  13  299.57   23.80
  -2   3 -13  458.25   25.80
  -2   3 -13  398.26   23.40
   2  -3  13  420.16   19.90
   2  -3  13  447.36   29.40
  -3   3 -13   83.29   13.30
  -3   3 -13   96.89   14.80
   3  -3  13   97.09   10.30
   3  -3  13  122.29   18.00
  -4   3 -13  575.84   32.80
  -4   3 -13  554.74   31.20
   4  -3  13  566.54   35.00
   4  -3  13  567.64   26.30
  -5   3 -13    6.60   10.10
  -5   3 -13   -6.30    6.20
   5  -3  13   11.40    9.20
   5  -3  13    2.40    5.60
  -6   3 -13  317.87   29.00
  -6   3 -13  291.77   22.90
   6  -3  13  278.37   27.90
   6  -3  13  283.87   19.50
  -7   3 -13   35.60   14.50
   7  -3  13   45.50   14.60
   7  -3  13   49.00    9.70
   8  -3  13  140.79   15.30
 -10  -2  13   28.70   15.30
   9   2 -13   54.19   11.20
  -9  -2  13   50.29   17.80
  -9  -2  13   59.09   17.10
   8   2 -13   21.80    7.90
  -8  -2  13    7.10   12.50
  -8  -2  13    3.10   11.50
   7   2 -13   72.69   11.00
   7   2 -13  123.49   17.50
  -7  -2  13  106.09   18.70
  -7  -2  13  120.49   23.60
   6   2 -13    8.80    6.80
   6   2 -13   28.60   10.40
  -6  -2  13   14.90   13.00
  -6  -2  13    5.40    8.90
   5   2 -13  272.87   18.70
   5   2 -13  287.77   22.40
  -5  -2  13  295.57   24.80
  -5  -2  13  296.47   31.30
   4   2 -13   37.60   10.40
   4   2 -13   29.10    8.10
  -4  -2  13   93.09   18.00
  -4  -2  13   47.70   12.60
   3   2 -13  269.47   19.30
   3   2 -13  257.17   19.40
  -3  -2  13  265.87   26.60
  -3  -2  13  265.07   24.70
   2   2 -13  353.36   22.30
   2   2 -13  363.26   21.70
  -2  -2  13  359.96   23.90
  -2  -2  13  342.37   26.00
   1   2 -13  119.09   14.40
   1   2 -13  112.09   13.00
  -1  -2  13  154.08   16.10
  -1  -2  13  128.19   16.80
   0   2 -13  531.85   26.90
   0   2 -13  511.65   25.40
   0  -2  13  526.65   20.90
   0  -2  13  553.14   30.30
   0  -2  13  512.45   29.30
  -1   2 -13   -5.20    7.20
  -1   2 -13    2.00    4.90
   1  -2  13    1.90    4.00
   1  -2  13    0.80    6.90
  -2   2 -13  470.15   26.40
  -2   2 -13  542.95   28.90
   2  -2  13  522.05   23.40
   2  -2  13  544.15   31.20
  -3   2 -13   86.69   12.90
  -3   2 -13   77.79   13.70
   3  -2  13   91.59   15.50
   3  -2  13  108.89   11.00
  -4   2 -13  342.67   23.40
  -4   2 -13  340.97   25.10
   4  -2  13  364.96   19.90
   4  -2  13  379.26   27.30
  -5   2 -13  175.18   20.90
  -5   2 -13  162.88   18.30
   5  -2  13  180.08   15.10
   5  -2  13  204.18   23.50
  -6   2 -13   92.79   14.60
  -6   2 -13   87.29   17.40
   6  -2  13   92.09   16.90
   6  -2  13   87.59   11.50
   7  -2  13  179.08   22.90
   7  -2  13  166.98   15.80
   8  -2  13   20.10    8.00
  10   1 -13   -1.40    7.60
 -10  -1  13  -10.40   11.40
 -10  -1  13   11.20   13.00
   9   1 -13   77.99   11.50
  -9  -1  13   90.19   21.10
  -9  -1  13   87.19   19.20
   8   1 -13   11.10    7.60
  -8  -1  13   14.00   13.50
  -8  -1  13   -8.90    9.30
   7   1 -13  128.09   14.10
  -7  -1  13  124.69   19.70
  -7  -1  13  153.18   24.50
   6   1 -13   66.19   12.70
   6   1 -13   67.29   10.40
  -6  -1  13   84.09   15.70
  -6  -1  13   68.79   16.60
   5   1 -13  102.99   14.20
   5   1 -13  112.99   12.60
  -5  -1  13   99.09   17.70
  -5  -1  13  108.19   15.60
   4   1 -13  293.77   20.40
   4   1 -13  295.57   21.30
  -4  -1  13  310.47   23.10
  -4  -1  13  336.37   26.70
   3   1 -13   17.30    8.80
   3   1 -13   21.50    8.20
  -3  -1  13   19.70    8.20
  -3  -1  13   26.90   10.60
   2   1 -13  529.05   26.80
   2   1 -13  591.04   29.10
  -2  -1  13  535.25   31.40
  -2  -1  13  563.84   29.70
   1   1 -13   89.39   13.10
  -1  -1  13   90.19    7.80
  -1  -1  13  106.69   15.30
  -1  -1  13   88.69   12.90
   0   1 -13  319.87   21.50
   0  -1  13  370.36   17.10
   0  -1  13  326.67   22.60
   0  -1  13  352.36   22.90
  -1   1 -13  287.37   20.80
  -1   1 -13  258.07   17.60
   1  -1  13  278.37   15.60
   1  -1  13  309.67   21.90
  -2   1 -13  240.98   17.70
  -2   1 -13  283.17   21.60
   2  -1  13  277.47   16.20
   2  -1  13  297.17   22.00
  -3   1 -13  424.76   27.60
  -3   1 -13  407.56   24.30
   3  -1  13  397.86   21.00
   3  -1  13  438.86   28.00
  -4   1 -13   65.79   14.70
  -4   1 -13   56.39   11.30
   4  -1  13   50.69    8.60
   4  -1  13   57.89   13.40
  -5   1 -13  360.06   25.40
  -5   1 -13  436.46   31.30
   5  -1  13  387.16   28.50
   5  -1  13  443.36   22.90
  -6   1 -13   18.40   13.90
   6  -1  13    6.10    6.60
   6  -1  13   21.70   10.70
   7  -1  13  309.17   41.50
   7  -1  13  315.77   20.80
 -11   0  13   39.80   16.50
  10   0 -13   43.50   10.60
 -10   0  13   57.89   16.40
 -10   0  13   63.39   18.90
   9   0 -13   33.60    9.80
  -9   0  13   24.40   15.90
  -9   0  13   61.29   15.10
   8   0 -13   99.59   13.30
  -8   0  13  115.69   18.30
  -8   0  13  146.19   23.80
   7   0 -13   33.80    8.80
  -7   0  13   28.60   11.10
  -7   0  13   25.90   13.50
   6   0 -13  158.08   15.50
  -6   0  13  184.78   20.80
  -6   0  13  248.98   27.80
   5   0 -13   -4.90    6.60
   5   0 -13   -6.30    6.40
  -5   0  13   -1.00    6.70
  -5   0  13   -0.60    9.90
   4   0 -13  430.66   24.70
   4   0 -13  400.26   24.80
  -4   0  13  414.76   26.10
  -4   0  13  444.46   29.90
   3   0 -13  161.28   16.90
   3   0 -13  190.38   15.20
  -3   0  13  192.88   18.70
  -3   0  13  200.98   21.50
   2   0 -13  148.09   15.40
  -2   0  13  143.89   17.40
  -2   0  13  165.68    9.70
   1   0 -13  167.78   16.30
  -1   0  13  197.18   16.30
  -1   0  13  182.78   11.70
  -1   0  13  162.18   17.70
   0   0 -13  133.29   15.30
   0   0  13  132.69   15.50
   0   0  13  139.99   11.40
   0   0  13  130.79   15.30
  -1   0 -13  463.75   24.10
  -1   0 -13  431.16   26.20
   1   0  13  454.75   27.10
   1   0  13  475.55   21.70
  -2   0 -13   -1.10    8.70
  -2   0 -13    6.90    6.20
   2   0  13    5.70    4.60
   2   0  13   -7.60    6.40
  -3   0 -13  460.05   28.90
  -3   0 -13  373.56   23.70
   3   0  13  453.55   28.50
   3   0  13  427.26   21.60
  -4   0 -13  115.89   14.40
  -4   0 -13   88.89   16.90
   4   0  13  101.29   11.30
   4   0  13  111.79   17.10
  -5   0 -13  284.47   27.40
  -5   0 -13  193.28   20.00
   5   0  13  230.98   17.00
   5   0  13  197.18   23.00
   6   0  13  112.59   13.10
   6   0  13  164.28   21.10
   7   0  13  112.19   13.60
 -11   1  13   -6.40   12.20
  10  -1 -13   48.00   11.00
 -10   1  13   50.79   15.10
 -10   1  13   54.09   18.30
   9  -1 -13    0.80    6.40
  -9   1  13    7.20   13.70
  -9   1  13    4.00    9.30
   8  -1 -13   73.59   12.40
  -8   1  13   97.69   19.90
  -8   1  13   77.59   15.20
   7  -1 -13   30.00    8.80
  -7   1  13   34.10   12.60
  -7   1  13   47.10   12.00
   6  -1 -13  139.59   15.00
  -6   1  13  169.08   22.20
  -6   1  13  156.08   18.20
   5  -1 -13  207.68   17.30
   5  -1 -13  174.88   17.10
  -5   1  13  215.08   18.10
  -5   1  13  203.68   23.60
   4  -1 -13  114.79   15.00
  -4   1  13  132.29   18.40
   3  -1 -13  349.37   22.80
  -3   1  13  369.56   15.80
  -3   1  13  365.06   25.50
   2  -1 -13   -5.90    6.80
  -2   1  13    9.10    7.90
  -2   1  13   21.00    5.00
   1  -1 -13  369.96   23.20
  -1   1  13  377.56   18.40
  -1   1  13  412.06   25.20
  -1   1  13  377.06   24.00
   0  -1 -13   62.39   11.90
   0   1  13   62.59   11.30
   0   1  13   53.09    7.70
  -1  -1 -13  295.17   19.80
  -1  -1 -13  291.77   22.20
   1   1  13  284.97   17.00
   1   1  13  332.77   23.20
  -2  -1 -13  150.98   16.00
  -2  -1 -13  162.68   18.80
   2   1  13  179.78   19.30
   2   1  13  161.98   13.70
  -3  -1 -13  136.59   18.70
  -3  -1 -13  112.49   14.60
   3   1  13  133.19   18.00
   3   1  13  138.09   13.10
  -4  -1 -13  344.87   27.40
  -4  -1 -13  362.16   24.70
   4   1  13  394.76   28.20
   4   1  13  381.96   21.40
  -5  -1 -13   -8.20   10.50
   5   1  13   -7.90    8.20
   5   1  13    2.60    6.00
   6   1  13  195.68   16.40
 -11   2  13    3.40   14.60
  10  -2 -13   13.10    8.70
 -10   2  13   36.30   17.30
 -10   2  13   25.70   11.40
   9  -2 -13   15.30    8.90
  -9   2  13   35.30   15.20
  -9   2  13   24.00   11.60
   8  -2 -13   33.70    9.40
  -8   2  13   41.30   15.00
  -8   2  13   41.90   11.30
   7  -2 -13  104.69   14.20
  -7   2  13  132.59   20.50
  -7   2  13  142.39   17.50
   6  -2 -13   23.90    9.40
  -6   2  13   -4.10    8.30
   5  -2 -13  462.05   27.20
  -5   2  13  467.15   31.30
   4  -2 -13   36.50   10.30
  -4   2  13   40.20    6.90
  -4   2  13   43.20   12.50
   3  -2 -13  337.27   22.50
  -3   2  13  287.37   24.40
  -3   2  13  334.67   16.10
   2  -2 -13   87.69   13.00
  -2   2  13  106.49   15.70
  -2   2  13   83.19    9.10
   1  -2 -13  268.27   20.10
  -1   2  13  271.47   21.60
  -1   2  13  254.77   15.90
   0  -2 -13  447.16   26.10
   0   2  13  394.86   21.20
   0   2  13  412.46   25.60
  -1  -2 -13   51.19   12.60
  -1  -2 -13   89.19   13.00
   1   2  13   75.79   13.40
   1   2  13   71.49    9.90
  -2  -2 -13  461.75   27.50
  -2  -2 -13  500.25   30.40
   2   2  13  462.55   30.30
   2   2  13  454.35   24.30
  -3  -2 -13   15.50   11.70
  -3  -2 -13   16.10    9.00
   3   2  13    6.50    9.90
   3   2  13    2.60    5.80
  -4  -2 -13  264.97   26.40
  -4  -2 -13  223.48   27.30
   4   2  13  265.67   18.80
   4   2  13  246.88   25.90
   5   2  13   35.00   13.40
   5   2  13   19.80    8.00
   6   2  13  118.29   13.80
 -11   3  13   27.10   17.90
  10  -3 -13    8.40    8.40
 -10   3  13   14.70   11.30
 -10   3  13   12.30   13.50
   9  -3 -13   47.50   11.20
  -9   3  13   48.10   16.20
  -9   3  13   51.19   12.80
   8  -3 -13   -5.30    7.50
  -8   3  13    2.90   11.10
   7  -3 -13  150.08   17.00
  -7   3  13  153.28   22.40
   6  -3 -13   40.30   10.90
  -6   3  13   64.99   16.50
   5  -3 -13  151.08   16.80
  -5   3  13  148.39   20.70
   4  -3 -13  126.99   15.50
  -4   3  13  170.48   11.30
  -4   3  13  167.08   21.20
   3  -3 -13   25.90    9.50
  -3   3  13   35.80    6.90
  -3   3  13   29.20   11.60
   2  -3 -13  240.48   19.30
  -2   3  13  245.48   15.70
  -2   3  13  257.57   24.40
   1  -3 -13   -7.00    7.60
  -1   3  13   -3.80    5.10
  -1   3  13   -5.00    9.40
   0  -3 -13  381.16   25.50
   0   3  13  450.35   22.70
   0   3  13  374.36   26.00
  -1  -3 -13   17.60    8.90
  -1  -3 -13   19.10   10.50
   1   3  13    9.40    9.50
   1   3  13   20.70    7.50
  -2  -3 -13  327.17   24.10
  -2  -3 -13  323.47   27.30
   2   3  13  275.37   26.80
   2   3  13  341.47   20.80
  -3  -3 -13   77.49   16.30
  -3  -3 -13   87.19   14.70
   3   3  13   96.69   12.50
   3   3  13   81.89   16.10
   4   3  13   94.99   17.30
   4   3  13   63.29   11.30
   5   3  13  188.18   17.40
 -11   4  13   42.90   16.90
  10  -4 -13   11.00    8.20
 -10   4  13  -12.30   11.50
   9  -4 -13   95.79   14.30
  -9   4  13  139.59   23.30
   8  -4 -13   80.99   13.30
  -8   4  13   48.20   16.80
   7  -4 -13   12.80    9.50
  -7   4  13   46.20   14.80
   6  -4 -13  105.59   15.30
  -6   4  13  156.28   22.10
   5  -4 -13    0.40    8.70
  -5   4  13    4.90    4.20
  -5   4  13    4.00   10.20
   4  -4 -13  175.48   17.60
  -4   4  13  165.58   12.80
  -4   4  13  216.38   24.90
   3  -4 -13   40.50   10.60
  -3   4  13   38.50   13.30
  -3   4  13   53.09    8.70
   2  -4 -13  198.08   19.20
  -2   4  13  230.28   16.00
  -2   4  13  229.68   23.90
   1  -4 -13  152.28   17.00
  -1   4  13  142.79   14.10
   0  -4 -13  107.99   15.60
   0   4  13  130.59   13.90
   0   4  13  135.99   17.90
  -1  -4 -13  177.58   20.50
   1   4  13  173.18   16.30
   1   4  13  228.98   24.30
  -2  -4 -13   -2.90   10.60
  -2  -4 -13   19.50    9.60
   2   4  13   15.40   11.60
   2   4  13    8.60    7.40
   3   4  13  284.37   20.80
   3   4  13  283.97   28.50
   4   4  13    5.80    7.60
 -10   5  13   61.39   18.30
  -9   5  13    3.20   12.40
  -8   5  13   67.79   18.50
  -7   5  13    3.90   12.10
  -6   5  13  164.58   23.10
   5  -5 -13   25.00   14.60
  -5   5  13   50.59   15.80
  -5   5  13   29.50    6.90
   4  -5 -13   44.70   12.00
  -4   5  13   82.89   17.60
  -4   5  13   59.59    9.30
   3  -5 -13  103.69   17.70
  -3   5  13   85.59   11.20
  -3   5  13  100.19   18.20
   2  -5 -13   52.89   18.30
  -2   5  13   64.29   15.40
  -2   5  13   51.89   10.10
  -1   5  13  209.28   18.00
   0   5  13    2.90    9.90
   0   5  13  -10.60    6.10
   1   5  13  250.37   26.60
   1   5  13  220.18   19.00
   2   5  13   56.99   15.70
   2   5  13   65.69   11.80
   3   5  13  111.29   14.40
 -10   6  13   24.80   19.00
  -9   6  13   36.30   15.10
  -8   6  13   29.90   16.10
  -7   6  13   66.79   18.10
  -6   6  13   19.40   14.50
  -6   6  13   27.30    7.10
  -5   6  13  117.59   12.50
  -5   6  13   92.19   18.80
  -4   6  13    8.50    6.70
  -4   6  13   15.30   12.90
  -3   6  13  193.48   17.10
  -3   6  13  180.58   24.40
  -2   6  13   10.10    7.50
  -1   6  13   64.69   11.70
   0   6  13   86.29   18.20
   0   6  13   66.89   12.50
   1   6  13   56.79   11.60
  -8   7  13    9.80   13.30
  -7   7  13  156.28   25.10
  -6   7  13   -4.80    5.90
  -6   7  13   10.90   13.40
  -5   7  13  106.39   13.00
  -5   7  13   74.19   19.60
  -4   7  13   73.99   11.90
  -4   7  13   69.49   18.80
  -3   7  13   86.69   13.20
  -3   7  13   62.59   17.60
  -2   7  13   93.59   13.80
  -1   7  13   22.00    9.50
  -6   8  13   29.80    8.70
  -5   8  13   -5.70   13.30
  -5   8  13   26.40    9.00
  -4   8  13   69.89   18.80
  -4   8  13   89.59   13.20
  -3   8  13    4.70    8.70
  -2  12 -14   -7.70   15.00
  -3  12 -14   61.49   16.10
   3 -12  14   63.59   18.80
   1  11 -14   53.79   13.80
  -1 -11  14   78.09   18.30
   0  11 -14   26.70   11.10
   0 -11  14    4.30   11.30
  -1  11 -14  106.49   13.50
  -1  11 -14   56.39   15.30
   1 -11  14   72.89   19.00
  -2  11 -14    4.20    8.10
  -2  11 -14   15.80   11.60
   2 -11  14   33.70   13.90
  -3  11 -14   43.10   10.40
  -3  11 -14   66.49   16.60
   3 -11  14   73.49   17.70
   3  10 -14   39.90   12.10
  -3 -10  14   63.89   17.10
   2  10 -14   33.00   11.10
  -2 -10  14   30.50   14.40
   1  10 -14   56.19   14.00
   1  10 -14   77.59   11.40
   1  10 -14   72.49   17.70
  -1 -10  14   48.20   16.70
   0  10 -14   71.69   10.80
   0  10 -14   26.10   12.20
   0  10 -14   38.10   14.80
   0 -10  14   37.20   14.80
  -1  10 -14   23.10   11.90
  -1  10 -14   36.50    9.50
  -1  10 -14   53.79   15.20
   1 -10  14   49.80   15.40
  -2  10 -14  127.69   21.30
  -2  10 -14  105.39   18.10
  -2  10 -14  123.09   14.90
   2 -10  14  130.49   21.50
  -3  10 -14    0.40   10.40
  -3  10 -14    4.60   11.40
   3 -10  14    5.10   10.10
  -4  10 -14   99.59   20.60
  -5  -9  14   50.19   15.70
  -4  -9  14   46.20   15.10
   3   9 -14   21.40   12.60
  -3  -9  14   -6.40   10.90
   2   9 -14   97.29   18.30
  -2  -9  14  116.99   21.50
   1   9 -14   -0.50   11.20
  -1  -9  14   15.90   12.50
   0   9 -14  185.58   22.80
   0  -9  14  178.68   24.30
  -1   9 -14   20.80   10.50
  -1   9 -14   19.80   12.30
   1  -9  14   20.20   11.50
  -2   9 -14  161.48   19.90
  -2   9 -14  144.69   20.50
   2  -9  14  180.78   22.90
  -3   9 -14   69.89   15.50
  -4   9 -14   70.79   15.90
  -5   9 -14  169.78   22.90
  -6  -8  14   59.69   16.90
   5   8 -14   -0.60   13.60
  -5  -8  14   15.50   12.60
  -5  -8  14   18.50   23.60
   4   8 -14   72.59   15.70
  -4  -8  14  102.39   20.00
   3   8 -14   23.20   12.00
  -3  -8  14   19.00   12.70
   2   8 -14  178.18   21.60
  -2  -8  14  174.68   24.30
   1   8 -14   41.00   12.70
  -1  -8  14   30.60   13.50
   0   8 -14  105.29   16.80
   0  -8  14   53.19   15.10
  -1   8 -14  194.88   22.20
   1  -8  14  205.58   25.50
  -2   8 -14   53.99   12.70
   2  -8  14   35.70   12.90
  -3   8 -14  269.67   25.00
  -4   8 -14   -2.80    9.60
  -5   8 -14  160.78   21.20
  -6   8 -14   10.80   10.70
  -7  -7  14   11.20   11.50
   6   7 -14  101.89   20.40
  -6  -7  14   48.40   16.80
  -6  -7  14   99.99   23.90
   5   7 -14   52.69   15.30
  -5  -7  14   44.40   16.80
  -5  -7  14    3.90   10.60
   4   7 -14   42.70   13.80
  -4  -7  14   26.20   14.30
  -4  -7  14   33.80   14.70
   3   7 -14  115.79   17.20
  -3  -7  14   97.49   20.00
   2   7 -14   58.99   13.80
  -2  -7  14   35.40   14.40
   1   7 -14  303.27   23.80
  -1  -7  14  215.38   27.00
   0   7 -14   -1.30    8.10
   0  -7  14   -2.50    9.50
  -1   7 -14  388.76   26.20
   1  -7  14  353.16   32.10
  -2   7 -14   -4.30    7.60
   2  -7  14   33.00   11.70
  -3   7 -14  179.08   19.90
  -4   7 -14  101.79   16.20
  -5   7 -14  142.39   18.90
  -6   7 -14  198.98   21.80
  -7   7 -14    3.60   11.50
   7  -7  14    5.10   13.20
  -8  -6  14   26.00   14.50
   7   6 -14   50.89   24.90
   7   6 -14   36.70   10.30
  -7  -6  14   38.30   15.30
   6   6 -14   15.70   11.20
   6   6 -14   19.60    8.20
  -6  -6  14    6.80   13.90
  -6  -6  14   17.80   15.50
   5   6 -14   69.29   15.80
   5   6 -14   62.59   11.30
  -5  -6  14   46.10   16.30
  -5  -6  14  103.09   20.50
   4   6 -14   -3.60    6.80
   4   6 -14   -4.50    9.20
  -4  -6  14   -0.20   10.60
  -4  -6  14    4.70   11.70
   3   6 -14  208.38   18.40
   3   6 -14  150.98   19.30
  -3  -6  14  207.88   25.70
  -3  -6  14  151.48   23.50
   2   6 -14   13.70    8.10
   2   6 -14   14.20    8.70
  -2  -6  14    6.20   10.40
   1   6 -14  220.58   17.90
   1   6 -14  259.77   21.10
  -1  -6  14  218.58   26.70
   0   6 -14   89.09   14.00
   0   6 -14  104.39   13.00
   0  -6  14  101.69   18.30
  -1   6 -14  183.98   17.00
  -1   6 -14  141.39   16.40
   1  -6  14  173.58   21.60
  -2   6 -14  377.46   23.40
  -2   6 -14  362.16   24.50
  -3   6 -14   19.60   10.00
  -3   6 -14   26.20   10.00
  -4   6 -14  431.66   28.40
  -4   6 -14  392.16   27.00
   4  -6  14  384.96   32.80
  -5   6 -14    2.80   10.50
  -5   6 -14   -7.50    8.30
   5  -6  14    1.40   11.40
  -6   6 -14  241.18   24.80
   6  -6  14  265.57   16.20
   6  -6  14  221.28   29.00
  -7   6 -14   36.30   15.10
   7  -6  14   31.80   16.20
   7  -6  14   34.30    8.30
   8  -6  14  152.08   14.60
  -9  -5  14   39.70   14.80
   8   5 -14   -1.70    7.00
  -8  -5  14   13.50   13.70
   7   5 -14   84.89   12.80
   7   5 -14   81.09   17.50
  -7  -5  14   72.59   18.40
  -7  -5  14   66.79   18.40
   6   5 -14    5.40    7.20
   6   5 -14    6.10   10.00
  -6  -5  14    7.00   13.80
  -6  -5  14  -15.10   10.80
   5   5 -14   59.39   11.10
   5   5 -14  111.09   17.30
  -5  -5  14  106.19   19.80
  -5  -5  14  100.49   20.10
   4   5 -14   43.10   11.30
   4   5 -14   48.10   10.50
  -4  -5  14   71.99   17.00
  -4  -5  14   55.29   16.60
   3   5 -14  128.69   14.90
   3   5 -14  106.59   15.40
  -3  -5  14  142.39   20.70
  -3  -5  14  124.09   21.20
   2   5 -14  208.38   18.60
   2   5 -14  236.08   21.90
  -2  -5  14  165.38   23.80
   1   5 -14   72.79   12.00
   1   5 -14   63.99   12.20
  -1  -5  14   41.90   14.40
   0   5 -14  408.36   25.20
   0   5 -14  425.16   24.20
   0  -5  14  410.46   30.20
  -1   5 -14   16.70    8.20
  -1   5 -14   34.20    9.60
   1  -5  14   15.40   10.00
  -2   5 -14  347.27   23.50
  -2   5 -14  370.46   23.50
   2  -5  14  358.56   28.60
  -3   5 -14   92.19   13.40
  -3   5 -14  114.29   15.10
   3  -5  14   82.79   17.60
  -4   5 -14  327.57   22.90
  -4   5 -14  258.67   23.40
   4  -5  14  282.27   29.80
   4  -5  14  285.17   15.50
  -5   5 -14  215.08   22.90
   5  -5  14  239.18   15.40
   5  -5  14  188.78   25.80
  -6   5 -14   71.99   15.40
  -6   5 -14   66.59   15.60
   6  -5  14   63.59    9.70
   6  -5  14   57.79   17.30
  -7   5 -14  218.58   25.10
   7  -5  14  224.98   28.50
   7  -5  14  215.78   17.60
   8  -5  14   22.90    8.60
  -9  -4  14   39.60   16.10
   8   4 -14   20.00    8.40
   8   4 -14   -9.10   11.20
  -8  -4  14   17.60   15.10
  -8  -4  14   13.70   13.40
   7   4 -14   96.29   18.30
   7   4 -14   72.99   12.00
  -7  -4  14   44.70   17.60
  -7  -4  14   54.89   16.70
   6   4 -14  141.89   15.00
   6   4 -14  126.19   19.30
  -6  -4  14  122.99   23.60
  -6  -4  14   95.09   19.30
   5   4 -14   27.40    8.60
   5   4 -14   32.90   11.80
  -5  -4  14   30.30   15.20
  -5  -4  14   32.10   13.90
   4   4 -14  216.18   19.00
   4   4 -14  221.48   22.00
  -4  -4  14  209.18   25.10
  -4  -4  14  198.98   27.40
   3   4 -14   16.40    8.20
   3   4 -14    5.70    8.10
  -3  -4  14   18.50   10.80
  -3  -4  14   18.70   12.00
   2   4 -14  454.05   26.50
   2   4 -14  488.75   27.90
  -2  -4  14  539.25   35.70
   1   4 -14   58.49   10.60
   1   4 -14   40.30   10.60
  -1  -4  14   44.00   13.70
   0   4 -14  249.08   19.40
   0   4 -14  314.17   20.90
   0  -4  14  259.87   25.40
   0  -4  14  320.67   23.40
  -1   4 -14  357.06   22.00
  -1   4 -14  340.47   22.30
   1  -4  14  351.76   26.30
   1  -4  14  376.06   26.40
  -2   4 -14   96.19   13.50
  -2   4 -14  113.39   14.30
   2  -4  14  139.39   19.70
  -3   4 -14  278.37   22.40
   3  -4  14  363.96   28.40
   3  -4  14  290.47   15.80
  -4   4 -14   49.60   12.90
  -4   4 -14   48.90   12.20
   4  -4  14   32.30    7.20
   4  -4  14   21.40   12.50
  -5   4 -14  302.37   27.10
  -5   4 -14  297.87   24.10
   5  -4  14  332.07   19.40
   5  -4  14  354.76   29.60
  -6   4 -14   18.50   10.30
  -6   4 -14   23.60   13.20
   6  -4  14   23.10   12.50
   6  -4  14   19.90    7.20
   7  -4  14  270.07   29.80
   7  -4  14  273.77   19.70
   8  -4  14   81.89   11.70
 -10  -3  14   20.90   14.60
  -9  -3  14   -3.30   12.30
   8   3 -14   68.79   16.00
   8   3 -14   53.89   10.70
  -8  -3  14   63.89   16.50
  -8  -3  14   55.79   19.00
   7   3 -14    2.10    7.30
   7   3 -14   -4.40    9.40
  -7  -3  14   -6.80   12.40
  -7  -3  14    9.60   12.30
   6   3 -14  126.19   18.60
   6   3 -14  144.29   15.00
  -6  -3  14  188.78   24.80
  -6  -3  14  113.29   22.80
   5   3 -14   10.10    7.40
   5   3 -14    6.50    9.20
  -5  -3  14   -0.20   10.50
  -5  -3  14   10.30    9.10
   4   3 -14  254.77   21.30
   4   3 -14  252.47   19.60
  -4  -3  14  255.97   25.80
  -4  -3  14  292.67   30.80
   3   3 -14  154.28   16.90
   3   3 -14  182.28   18.40
  -3  -3  14  176.48   20.60
  -3  -3  14  168.08   22.00
   2   3 -14  158.18   16.40
   2   3 -14  141.69   15.80
  -2  -3  14  175.78   21.20
  -2  -3  14  144.79   18.40
   1   3 -14  240.28   18.70
   1   3 -14  284.47   20.30
  -1  -3  14  276.57   26.00
   0   3 -14   46.30   10.10
   0   3 -14   48.00   10.40
   0  -3  14   58.39   12.40
   0  -3  14   56.39   12.10
  -1   3 -14  514.45   26.10
  -1   3 -14  456.25   31.70
  -1   3 -14  447.56   26.80
   1  -3  14  554.14   32.50
  -2   3 -14   -5.90    5.40
  -2   3 -14    4.60    8.10
   2  -3  14   -5.60    4.00
   2  -3  14   -3.90    8.20
  -3   3 -14  366.06   23.50
  -3   3 -14  364.46   24.90
   3  -3  14  318.77   26.40
   3  -3  14  318.27   18.00
  -4   3 -14   52.09   13.00
  -4   3 -14   67.09   12.30
   4  -3  14   98.19   16.90
   4  -3  14   77.29   10.00
  -5   3 -14  182.28   19.70
  -5   3 -14  221.78   23.50
   5  -3  14  225.08   16.60
   5  -3  14  230.38   24.90
  -6   3 -14  247.18   25.80
   6  -3  14  223.88   25.80
   6  -3  14  235.38   17.90
   7  -3  14   54.69   10.20
 -10  -2  14   31.70   16.70
   9   2 -14    1.80   11.10
   9   2 -14   -3.40    7.60
  -9  -2  14   -8.60   13.30
  -9  -2  14   11.10   13.40
   8   2 -14   54.69   10.70
   8   2 -14   68.19   15.90
  -8  -2  14   60.59   16.80
  -8  -2  14   56.29   17.80
   7   2 -14   93.99   16.10
   7   2 -14   79.29   12.40
  -7  -2  14   96.99   18.70
  -7  -2  14   55.29   17.70
   6   2 -14   45.20   10.40
   6   2 -14   26.20   10.70
  -6  -2  14   23.90   12.50
  -6  -2  14   71.99   18.70
   5   2 -14   90.79   13.10
   5   2 -14  101.09   15.30
  -5  -2  14  107.39   17.70
  -5  -2  14  125.79   20.40
   4   2 -14   44.50   10.50
   4   2 -14   35.80   10.70
  -4  -2  14   50.79   13.00
  -4  -2  14   31.50   13.30
   3   2 -14  469.65   26.20
   3   2 -14  366.66   24.80
  -3  -2  14  424.96   27.30
  -3  -2  14  409.56   30.00
   2   2 -14   -4.40    6.50
   2   2 -14    0.60    6.00
  -2  -2  14   10.10    8.90
  -2  -2  14    7.20    6.60
   1   2 -14  501.95   26.60
   1   2 -14  471.95   24.90
  -1  -2  14  437.56   28.90
   0   2 -14  193.38   17.90
   0  -2  14  201.88   20.40
   0  -2  14  153.28   11.10
   0  -2  14  181.28   19.50
  -1   2 -14  363.66   22.50
   1  -2  14  311.87   24.00
   1  -2  14  365.26   17.30
  -2   2 -14  208.48   17.00
  -2   2 -14  193.28   19.40
   2  -2  14  180.28   13.00
   2  -2  14  205.48   21.40
  -3   2 -14  176.28   17.60
  -3   2 -14  215.48   21.30
   3  -2  14  200.28   21.30
   3  -2  14  182.98   13.80
  -4   2 -14  442.76   29.60
  -4   2 -14  378.96   25.30
   4  -2  14  437.86   30.50
   4  -2  14  424.56   22.10
  -5   2 -14   11.10   12.00
  -5   2 -14   10.20    8.20
   5  -2  14  -10.90    7.60
   5  -2  14    5.10    6.10
  -6   2 -14  251.97   30.80
   6  -2  14  318.87   27.20
   6  -2  14  342.17   20.80
   7  -2  14   10.20    7.20
 -11  -1  14  -16.10   17.00
 -10  -1  14   12.40   14.80
   9   1 -14   14.20    8.50
  -9  -1  14   27.70   16.90
  -9  -1  14   18.90   14.60
   8   1 -14    5.10    7.80
   8   1 -14   -0.60    9.10
  -8  -1  14   28.50   13.20
  -8  -1  14    5.70   12.90
   7   1 -14   93.99   13.30
   7   1 -14   60.79   14.00
  -7  -1  14  107.59   21.80
  -7  -1  14  101.39   17.80
   6   1 -14   19.30    9.20
   6   1 -14    7.50    8.10
  -6  -1  14    7.80    8.90
  -6  -1  14   28.00   13.00
   5   1 -14  240.68   18.60
   5   1 -14  235.88   22.00
  -5  -1  14  273.47   26.50
  -5  -1  14  236.18   27.50
   4   1 -14   75.49   12.90
   4   1 -14   73.89   12.60
  -4  -1  14   85.39   14.70
  -4  -1  14   65.59   14.80
   3   1 -14  261.57   19.40
   3   1 -14  236.78   21.10
  -3  -1  14  291.27   21.70
  -3  -1  14  268.97   26.40
   2   1 -14  213.58   19.00
  -2  -1  14  233.08   22.80
   1   1 -14  146.89   16.10
  -1  -1  14  181.38   19.20
  -1  -1  14  166.38   10.30
   0   1 -14  597.84   31.10
   0  -1  14  611.34   32.40
   0  -1  14  672.03   33.20
   0  -1  14  598.44   24.90
  -1   1 -14   31.20   10.10
   1  -1  14   28.60    5.80
   1  -1  14   26.60    9.60
  -2   1 -14  519.65   29.60
  -2   1 -14  489.55   26.50
   2  -1  14  469.75   22.80
   2  -1  14  476.25   30.00
  -3   1 -14   15.30   10.80
  -3   1 -14   18.80    8.30
   3  -1  14    6.50    5.40
   3  -1  14   28.80   10.40
  -4   1 -14  283.37   22.20
  -4   1 -14  312.47   26.90
   4  -1  14  352.26   20.00
   4  -1  14  370.26   27.00
  -5   1 -14   53.79   12.30
  -5   1 -14   45.10   15.40
   5  -1  14   66.19   14.80
   5  -1  14   66.79   10.10
   6  -1  14  225.88   25.60
   6  -1  14  206.68   17.00
   7  -1  14  145.79   14.60
 -11   0  14    4.10   15.10
 -10   0  14   -4.00   13.80
   9   0 -14   44.10   11.20
  -9   0  14   45.50   17.60
  -9   0  14   31.40   14.10
   8   0 -14   -3.60    7.80
  -8   0  14   -7.70    9.20
  -8   0  14    6.90   13.50
   7   0 -14  113.69   15.90
   7   0 -14   82.89   12.40
  -7   0  14   99.09   17.00
  -7   0  14  105.39   19.50
   6   0 -14   52.09   11.10
   6   0 -14   55.29   11.20
  -6   0  14   80.39   17.50
  -6   0  14   74.99   14.90
   5   0 -14   81.59   13.70
   5   0 -14   79.99   13.20
  -5   0  14   75.49   14.50
  -5   0  14  116.59   19.30
   4   0 -14  215.08   20.00
   4   0 -14  226.18   26.60
  -4   0  14  190.38   21.90
  -4   0  14  197.78   31.10
   3   0 -14   -1.00    8.00
  -3   0  14   34.90   12.10
   2   0 -14  347.17   23.50
  -2   0  14  375.46   25.20
   1   0 -14   26.50    9.30
  -1   0  14   23.00    5.30
  -1   0  14   29.80    9.60
   0   0 -14  368.86   23.90
   0   0  14  346.77   17.70
   0   0  14  343.07   22.70
  -1   0 -14  113.59   14.60
   1   0  14  129.79   16.40
   1   0  14   97.49   10.30
  -2   0 -14  197.38   16.90
  -2   0 -14  217.08   20.70
   2   0  14  209.38   14.90
   2   0  14  248.28   20.90
  -3   0 -14  306.47   26.30
  -3   0 -14  218.08   18.70
   3   0  14  256.67   17.00
   3   0  14  289.67   23.50
  -4   0 -14   72.69   12.90
  -4   0 -14  113.59   18.00
   4   0  14   94.09   11.70
   4   0  14   99.49   16.50
  -5   0 -14  368.66   44.50
   5   0  14  361.76   22.30
   5   0  14  448.26   31.50
   6   0  14   13.90    7.30
 -11   1  14   48.50   18.30
 -10   1  14   -0.30   13.70
   9  -1 -14   42.00   11.10
  -9   1  14   59.09   15.10
  -9   1  14   54.69   18.40
   8  -1 -14  115.69   15.10
  -8   1  14  115.09   21.50
  -8   1  14  129.59   19.50
   7  -1 -14   11.00    8.50
  -7   1  14   13.10   12.10
  -7   1  14   20.20   11.10
   6  -1 -14  170.18   17.40
   6  -1 -14  177.68   17.80
  -6   1  14  150.38   21.40
  -6   1  14  156.38   18.70
   5  -1 -14    7.20    8.60
  -5   1  14   -1.10    8.80
   4  -1 -14  194.68   19.20
  -4   1  14  185.08   21.10
   3  -1 -14   43.10   10.90
  -3   1  14   58.99   12.70
   2  -1 -14  188.98   18.60
  -2   1  14  200.78   20.70
  -2   1  14  176.88   11.70
   1  -1 -14  184.88   18.00
  -1   1  14  193.78   19.60
  -1   1  14  195.78   12.80
   0  -1 -14  115.79   15.20
   0   1  14  118.79   10.90
   0   1  14  109.89   14.90
  -1  -1 -14  288.77   23.10
   1   1  14  314.67   17.90
   1   1  14  336.77   24.00
  -2  -1 -14   -0.20    9.50
  -2  -1 -14   -4.20    5.80
   2   1  14    3.40    5.50
   2   1  14   -3.70    7.40
  -3  -1 -14  399.46   25.20
  -3  -1 -14  401.56   29.30
   3   1  14  398.06   22.20
   3   1  14  421.56   28.80
  -4  -1 -14   10.80   12.70
   4   1  14   12.80    6.60
   4   1  14   18.90   11.30
   5   1  14  360.86   22.10
 -11   2  14   11.00   15.90
 -10   2  14   38.00   14.80
 -10   2  14   39.30   16.60
   9  -2 -14   -3.40    7.70
  -9   2  14   -6.80    8.90
  -9   2  14    0.40   13.20
   8  -2 -14   86.79   13.50
  -8   2  14  112.69   20.00
  -8   2  14  106.19   18.90
   7  -2 -14   27.20   10.40
  -7   2  14   19.00   12.20
   6  -2 -14   92.09   14.70
  -6   2  14  131.39   19.50
   5  -2 -14   67.39   12.80
  -5   2  14   54.99   14.50
   4  -2 -14   90.29   13.80
  -4   2  14   59.59   14.50
   3  -2 -14  170.78   17.50
  -3   2  14  188.18   20.90
  -3   2  14  172.08   11.30
   2  -2 -14   31.30   10.30
  -2   2  14   28.50    6.10
  -2   2  14   18.30   10.10
   1  -2 -14  411.46   26.00
  -1   2  14  410.86   20.50
   0  -2 -14   17.10    9.80
   0   2  14   26.10    9.80
   0   2  14   36.40    7.60
  -1  -2 -14  246.28   22.60
   1   2  14  219.48   16.50
   1   2  14  242.88   23.30
  -2  -2 -14   66.29   14.70
  -2  -2 -14   84.39   13.20
   2   2  14   52.19    9.40
   2   2  14   57.99   13.50
  -3  -2 -14  258.97   21.00
  -3  -2 -14  219.08   23.80
   3   2  14  289.67   24.80
   3   2  14  205.68   17.30
   4   2  14  223.68   25.00
   4   2  14  242.18   18.30
   5   2  14   15.80    7.70
 -10   3  14   21.70   15.40
   9  -3 -14   19.80    9.70
  -9   3  14   33.40   16.00
   8  -3 -14   56.49   12.90
  -8   3  14   29.10   13.80
   7  -3 -14   51.29   12.60
  -7   3  14   54.99   15.80
   6  -3 -14    8.30   10.20
  -6   3  14    9.80   12.10
   5  -3 -14  149.99   17.10
  -5   3  14  119.49   18.80
   4  -3 -14   -3.30    7.80
  -4   3  14   -0.80    3.70
  -4   3  14    4.90    9.90
   3  -3 -14  369.96   23.80
  -3   3  14  329.77   17.80
  -3   3  14  368.06   27.70
   2  -3 -14  101.79   14.10
  -2   3  14   87.69   10.30
  -2   3  14   97.29   16.10
   1  -3 -14  190.58   19.00
  -1   3  14  161.18   14.20
   0  -3 -14  177.88   18.80
   0   3  14  155.68   14.70
   0   3  14  169.48   19.20
  -1  -3 -14   48.00   13.00
   1   3  14   43.30   12.00
   1   3  14   34.90    8.90
  -2  -3 -14  269.47   25.50
   2   3  14  231.38   19.20
   2   3  14  298.57   27.60
   3   3  14    4.00   10.00
   3   3  14    4.60    6.80
   4   3  14  256.07   19.70
 -10   4  14   23.30   14.10
   9  -4 -14   56.89   12.90
  -9   4  14   49.30   17.00
   8  -4 -14   11.70   10.00
  -8   4  14    6.30   12.10
   7  -4 -14   58.89   13.90
  -7   4  14   95.19   19.20
   6  -4 -14   14.80   10.30
  -6   4  14   38.50   13.60
   5  -4 -14   90.79   14.90
  -5   4  14  122.19   20.10
   4  -4 -14  128.19   16.50
  -4   4  14  153.58   12.40
  -4   4  14  166.98   22.00
   3  -4 -14   53.59   11.90
  -3   4  14   56.69    8.90
  -3   4  14   63.79   15.30
   2  -4 -14  207.58   19.60
  -2   4  14  171.18   21.10
  -2   4  14  198.28   15.90
   1  -4 -14   -1.80    9.00
  -1   4  14   -2.40    6.10
   0  -4 -14  186.08   20.40
   0   4  14  227.18   18.20
  -1  -4 -14    5.20   10.80
   1   4  14    4.00    8.90
   1   4  14    6.40    6.80
   2   4  14  248.68   19.30
   2   4  14  161.88   21.60
   3   4  14   51.39   10.80
  -9   5  14   50.79   17.10
  -8   5  14   37.40   15.90
  -7   5  14    3.30   12.20
  -6   5  14   49.40   16.00
  -5   5  14   19.10   12.30
  -5   5  14   -2.60    5.20
  -4   5  14  138.79   13.10
  -4   5  14  145.19   21.80
  -3   5  14   14.70    7.10
  -3   5  14    9.60   10.60
  -2   5  14  138.59   14.00
  -1   5  14   46.70    9.80
   0   5  14   70.19   11.60
   1   5  14  147.99   15.60
   1   5  14  122.39   19.60
  -8   6  14   56.19   18.00
  -7   6  14   13.00   13.40
  -6   6  14  125.39   21.80
  -5   6  14   44.50   15.70
  -5   6  14    9.20    6.20
  -4   6  14   39.20    8.90
  -4   6  14   53.99   15.20
  -3   6  14   55.49   10.40
  -3   6  14   64.59   16.40
  -2   6  14   33.70    9.10
  -1   6  14  199.78   18.10
   0   6  14   -8.90    6.70
  -6   7  14   26.80    7.10
  -6   7  14   -3.60   12.30
  -5   7  14   59.39   17.80
  -5   7  14   49.60    9.70
  -4   7  14   12.40    7.80
  -4   7  14   10.90   12.60
  -3   7  14  117.89   14.10
  -2   7  14   24.70    9.40
   0  11 -15   15.00   12.50
   0 -11  15   15.40   15.10
  -1  11 -15   34.80   13.70
   1 -11  15   45.00   17.70
  -2  11 -15   10.50   12.10
   2 -11  15   -9.70   11.70
   2  10 -15    7.90    9.70
  -2 -10  15    0.90   11.90
   1  10 -15   77.89   16.20
  -1 -10  15   62.09   17.10
   0  10 -15   -4.00    9.90
   0 -10  15   -9.90   11.60
  -1  10 -15   38.50   14.20
   1 -10  15   50.89   17.50
  -2  10 -15   38.00   14.20
   2 -10  15   59.39   17.40
  -4  -9  15   -5.90   11.30
  -3  -9  15   67.59   18.40
   2   9 -15   12.00   11.10
  -2  -9  15   -6.40   12.60
   1   9 -15   48.20   14.10
  -1  -9  15   32.40   15.60
   0   9 -15   -0.30   10.50
   0  -9  15    1.60   12.20
  -1   9 -15   29.10   13.30
   1  -9  15   51.89   16.10
  -2   9 -15  165.58   20.60
  -2   9 -15  193.88   22.50
   2  -9  15  103.49   19.30
  -3   9 -15   19.90   12.00
  -4   9 -15  187.98   23.20
  -5  -8  15   75.49   20.20
   4   8 -15   14.10   13.20
  -4  -8  15   14.00   14.90
   3   8 -15   79.79   16.10
  -3  -8  15   46.30   17.20
   2   8 -15   59.79   14.00
  -2  -8  15   59.09   17.60
   1   8 -15   16.60   11.30
  -1  -8  15    2.90   11.50
   0   8 -15  172.98   20.70
   0  -8  15  133.79   22.40
  -1   8 -15  -10.70    8.20
   1  -8  15   12.20   10.80
  -2   8 -15  200.18   22.50
   2  -8  15  158.28   24.40
  -3   8 -15   25.10   11.80
  -4   8 -15   73.69   15.10
  -5   8 -15  146.09   20.40
  -6  -7  15   17.10   14.40
   5   7 -15    0.00   10.30
  -5  -7  15    2.00   12.90
  -5  -7  15   26.40   15.10
   4   7 -15  100.99   17.40
  -4  -7  15   79.09   19.70
   3   7 -15   -0.70    9.20
  -3  -7  15   -0.10   11.40
   2   7 -15  130.39   17.50
  -2  -7  15   62.39   17.50
   1   7 -15   21.60   10.70
  -1  -7  15   18.20   13.00
   0   7 -15  146.49   18.20
   0  -7  15  132.69   21.40
  -1   7 -15  123.39   16.70
   1  -7  15  103.99   18.70
  -2   7 -15   64.29   14.10
  -3   7 -15  162.28   19.50
  -4   7 -15   -6.70    9.30
  -5   7 -15   81.69   15.50
  -6   7 -15    5.20   10.10
   7   6 -15    3.60   12.70
  -7  -6  15   -3.30   13.50
   6   6 -15   67.59   15.60
   6   6 -15   55.99   11.90
  -6  -6  15   51.59   18.20
  -6  -6  15   42.00   16.00
   5   6 -15   10.40   10.80
   5   6 -15    7.70    8.60
  -5  -6  15   10.50   14.30
  -5  -6  15   29.40   14.00
   4   6 -15  123.89   18.20
   4   6 -15  107.49   15.30
  -4  -6  15   75.69   19.10
  -4  -6  15  105.39   21.70
   3   6 -15   70.79   13.40
   3   6 -15   69.99   14.70
  -3  -6  15   55.39   18.00
   2   6 -15   41.20   11.20
   2   6 -15   36.10   10.10
  -2  -6  15   12.20   12.50
   1   6 -15  269.37   20.70
   1   6 -15  248.18   21.50
  -1  -6  15  234.58   28.30
   0   6 -15   27.10    9.20
   0   6 -15   46.40   11.50
   0  -6  15   28.30   13.10
  -1   6 -15  222.88   20.00
  -1   6 -15  240.98   20.40
   1  -6  15  217.78   24.90
  -2   6 -15   14.60    8.80
  -2   6 -15    1.50    8.30
  -3   6 -15  221.88   21.10
  -3   6 -15  227.78   21.60
  -4   6 -15   80.09   14.80
  -4   6 -15   98.19   15.70
   4  -6  15   67.39   17.80
  -5   6 -15  124.19   18.40
   5  -6  15  142.99   24.40
  -6   6 -15  127.69   19.90
   6  -6  15  140.89   23.80
   7  -6  15   16.40    6.50
  -8  -5  15   25.60   16.30
   7   5 -15   13.50   12.50
   7   5 -15   13.90    8.90
  -7  -5  15   27.90   22.20
  -7  -5  15   14.00   14.70
   6   5 -15   30.90   12.20
   6   5 -15   10.60    8.50
  -6  -5  15   32.90   17.00
  -6  -5  15   43.10   16.40
   5   5 -15   79.39   15.20
   5   5 -15   94.39   13.60
  -5  -5  15   90.89   19.70
  -5  -5  15   78.59   20.50
   4   5 -15   21.70    9.90
   4   5 -15   21.90   10.60
  -4  -5  15   22.00   11.50
  -4  -5  15   25.80   14.60
   3   5 -15  166.08   18.80
   3   5 -15  143.09   16.90
  -3  -5  15  138.99   23.70
  -3  -5  15  169.28   21.90
   2   5 -15    4.50    8.10
   2   5 -15    1.80    8.60
  -2  -5  15    8.70   11.30
   1   5 -15  264.47   20.20
   1   5 -15  257.47   20.70
  -1  -5  15  280.37   29.40
   0   5 -15   40.20   10.10
   0   5 -15   44.20    9.90
   0  -5  15   51.29   14.20
  -1   5 -15  167.28   17.20
  -1   5 -15  167.08   17.20
   1  -5  15  159.38   21.10
  -2   5 -15  295.47   22.10
  -2   5 -15  254.87   21.20
   2  -5  15  268.77   27.90
  -3   5 -15   69.49   13.70
  -3   5 -15   84.69   13.70
   3  -5  15  105.59   19.30
  -4   5 -15  292.57   25.70
   4  -5  15  283.27   30.60
  -5   5 -15    6.10    8.90
  -5   5 -15   -5.60   10.60
   5  -5  15   -2.40   10.30
   5  -5  15   -0.20    5.20
  -6   5 -15  237.48   25.50
   6  -5  15  231.18   16.20
   6  -5  15  188.68   26.00
   7  -5  15   15.30    7.00
  -9  -4  15   17.30   15.90
  -8  -4  15   17.60   16.10
   7   4 -15   53.89   10.90
   7   4 -15   35.10   14.90
  -7  -4  15   56.09   17.60
  -7  -4  15   45.00   18.00
   6   4 -15   11.30    9.90
   6   4 -15   -0.70    8.10
  -6  -4  15    2.10   14.20
  -6  -4  15    7.30   12.50
   5   4 -15  158.58   17.00
   5   4 -15  182.58   21.10
  -5  -4  15  162.48   26.40
  -5  -4  15  207.38   25.50
   4   4 -15    5.00    8.50
   4   4 -15    7.90    8.60
  -4  -4  15   27.10   11.60
  -4  -4  15    3.30   10.80
   3   4 -15   77.29   13.50
   3   4 -15   82.49   13.60
  -3  -4  15   57.69   16.20
  -3  -4  15   53.79   13.60
   2   4 -15  154.08   16.50
   2   4 -15  174.58   17.90
  -2  -4  15  153.38   22.60
   1   4 -15   72.29   12.60
   1   4 -15   85.69   12.90
  -1  -4  15   88.19   16.50
   0   4 -15  232.38   18.90
   0   4 -15  267.27   20.10
   0  -4  15  298.17   23.50
   0  -4  15  285.57   26.60
  -1   4 -15   14.30    8.50
  -1   4 -15    4.30    7.00
   1  -4  15   -3.20    8.00
  -2   4 -15  378.36   24.80
  -2   4 -15  346.47   24.70
   2  -4  15  386.96   28.90
  -3   4 -15   22.60    9.20
  -3   4 -15   20.50   10.40
   3  -4  15   18.80    5.20
   3  -4  15   18.70   12.00
  -4   4 -15  196.08   20.70
  -4   4 -15  162.18   20.00
   4  -4  15  181.18   23.40
   4  -4  15  218.28   14.30
  -5   4 -15  139.79   18.50
  -5   4 -15  147.79   20.10
   5  -4  15  129.49   12.60
   5  -4  15  149.09   21.80
   6  -4  15   88.59   11.10
   6  -4  15   81.29   18.00
   7  -4  15  108.39   12.60
  -9  -3  15   49.50   20.20
   8   3 -15  -10.40   10.70
   8   3 -15    2.20    7.80
  -8  -3  15   15.70   16.00
  -8  -3  15  -16.50   12.40
   7   3 -15   91.19   13.80
   7   3 -15  129.79   20.10
  -7  -3  15   55.49   18.90
  -7  -3  15  115.39   21.60
   6   3 -15   64.69   15.80
   6   3 -15   42.00   10.70
  -6  -3  15   62.49   16.50
  -6  -3  15   45.10   17.50
   5   3 -15   88.59   13.60
   5   3 -15   93.79   15.30
  -5  -3  15  111.19   19.10
  -5  -3  15  128.89   22.60
   4   3 -15  110.59   15.50
   4   3 -15  124.59   15.60
  -4  -3  15  157.58   21.10
  -4  -3  15  191.98   25.60
   3   3 -15   -2.00    8.10
   3   3 -15   12.80    8.90
  -3  -3  15    9.60    9.40
  -3  -3  15    3.70   10.30
   2   3 -15  344.87   22.60
   2   3 -15  354.56   23.50
  -2  -3  15  310.47   29.00
   1   3 -15   27.70    9.80
   1   3 -15   11.40    8.00
  -1  -3  15   10.70    9.70
   0   3 -15  216.78   19.80
   0   3 -15  245.58   18.80
   0  -3  15  244.78   23.20
   0  -3  15  255.47   24.30
  -1   3 -15  135.19   15.80
   1  -3  15  127.29   17.60
  -2   3 -15  148.29   17.10
  -2   3 -15  134.99   17.20
   2  -3  15  154.08   19.90
   2  -3  15  160.38   11.30
  -3   3 -15  214.98   21.30
  -3   3 -15  220.58   20.40
   3  -3  15  210.18   14.20
   3  -3  15  203.98   23.50
  -4   3 -15   22.40    9.20
  -4   3 -15   42.60   13.00
   4  -3  15   20.00   11.90
   4  -3  15   22.60    7.10
  -5   3 -15  275.07   25.90
   5  -3  15  286.97   18.70
   5  -3  15  286.17   28.10
   6  -3  15    2.40    6.20
   6  -3  15   -7.40   10.30
   7  -3  15  194.08   16.60
 -10  -2  15   22.20   20.60
  -9  -2  15   20.80   16.70
   8   2 -15   35.10   10.80
   8   2 -15   60.49   15.80
  -8  -2  15   44.70   16.20
  -8  -2  15   80.29   20.70
   7   2 -15   35.10   10.60
   7   2 -15   33.50   12.60
  -7  -2  15   24.10   13.70
  -7  -2  15   15.50   14.90
   6   2 -15  155.68   17.00
   6   2 -15  196.18   21.70
  -6  -2  15  152.18   22.00
  -6  -2  15  160.18   24.40
   5   2 -15   -7.30    8.00
   5   2 -15   -1.00    8.00
  -5  -2  15   -3.30   10.20
  -5  -2  15    4.10    9.50
   4   2 -15  208.48   20.10
   4   2 -15  207.78   20.20
  -4  -2  15  246.28   25.30
  -4  -2  15  222.78   26.00
   3   2 -15  104.79   14.60
   3   2 -15   94.99   13.70
  -3  -2  15   83.19   15.40
  -3  -2  15  112.79   18.50
   2   2 -15  145.09   16.50
   2   2 -15  123.59   14.40
  -2  -2  15  164.88   20.00
   1   2 -15   77.89   12.90
  -1  -2  15   75.79   14.40
   0   2 -15  131.09   15.10
   0  -2  15  127.19   16.80
  -1   2 -15  331.37   23.80
   1  -2  15  378.06   26.40
   1  -2  15  367.76   17.30
  -2   2 -15   -1.00    8.90
   2  -2  15   -5.10    6.80
   2  -2  15    2.30    4.60
  -3   2 -15  248.18   23.00
  -3   2 -15  290.57   21.00
   3  -2  15  265.67   16.90
   3  -2  15  334.27   26.00
  -4   2 -15   25.30    9.30
  -4   2 -15   27.60   12.20
   4  -2  15   34.60   12.10
   4  -2  15   29.00    7.50
  -5   2 -15  245.78   28.80
   5  -2  15  277.57   18.40
   5  -2  15  210.28   24.70
   6  -2  15   56.79   10.20
 -10  -1  15   24.80   17.60
   9   1 -15   -4.70   12.40
  -9  -1  15   -0.30   15.50
  -9  -1  15   -0.40   21.10
   8   1 -15   92.99   14.60
   8   1 -15  113.59   18.70
  -8  -1  15  144.29   21.70
  -8  -1  15   82.19   20.60
   7   1 -15   13.70    9.00
   7   1 -15    9.00    9.00
  -7  -1  15   36.40   15.10
  -7  -1  15   15.80   12.70
   6   1 -15   70.09   14.50
   6   1 -15   51.39   11.60
  -6  -1  15   49.30   15.10
  -6  -1  15   76.39   18.70
   5   1 -15  102.39   15.00
   5   1 -15   76.19   13.70
  -5  -1  15  135.89   20.90
  -5  -1  15  117.19   18.20
   4   1 -15   59.69   12.90
   4   1 -15   47.20   11.40
  -4  -1  15   60.19   14.50
  -4  -1  15   80.69   14.70
   3   1 -15  183.58   18.30
  -3  -1  15  223.18   23.30
   2   1 -15   12.10    8.90
  -2  -1  15   29.30   10.70
   1   1 -15  294.87   20.90
  -1  -1  15  298.57   22.50
   0   1 -15   24.50   10.20
   0  -1  15   22.10    5.00
   0  -1  15   30.80    9.80
  -1   1 -15  210.88   20.10
   1  -1  15  270.27   21.80
   1  -1  15  262.17   15.10
  -2   1 -15  122.59   16.60
   2  -1  15  112.49   11.10
   2  -1  15  119.19   16.70
  -3   1 -15  192.18   20.90
  -3   1 -15  195.28   18.90
   3  -1  15  175.48   14.60
   3  -1  15  209.78   22.50
  -4   1 -15  204.68   23.00
  -4   1 -15  213.08   18.60
   4  -1  15  257.57   17.30
   4  -1  15  262.87   25.40
   5  -1  15    8.10   10.10
   5  -1  15   12.50    6.70
   6  -1  15  144.89   14.60
 -10   0  15   42.50   18.00
   9   0 -15    3.50   10.90
   9   0 -15   15.00   15.60
  -9   0  15   11.40   12.40
  -9   0  15   24.70   15.60
   8   0 -15   37.20   13.40
   8   0 -15   52.49   12.60
  -8   0  15   66.89   16.10
  -8   0  15   45.10   15.80
   7   0 -15   79.29   14.80
   7   0 -15   86.39   14.00
  -7   0  15  108.19   20.90
  -7   0  15   89.59   17.20
   6   0 -15    8.70    8.80
   6   0 -15   12.90    9.30
  -6   0  15    1.00   10.80
  -6   0  15    8.60   10.20
   5   0 -15  254.97   22.80
  -5   0  15  224.58   24.90
   4   0 -15   21.40    9.70
  -4   0  15   18.40   10.60
   3   0 -15  231.18   20.90
  -3   0  15  220.88   22.50
   2   0 -15   53.49   12.00
  -2   0  15   43.00   11.70
   1   0 -15  268.47   21.00
  -1   0  15  248.98   13.50
  -1   0  15  253.17   20.70
   0   0 -15  333.77   22.70
   0   0  15  315.17   17.00
  -1   0 -15   47.10   12.10
   1   0  15   20.10    6.30
   1   0  15   25.40    9.40
  -2   0 -15  296.47   25.80
   2   0  15  357.36   25.40
   2   0  15  362.26   19.70
  -3   0 -15   -0.60    6.60
  -3   0 -15    6.80   10.70
   3   0  15   -1.40    8.30
   3   0  15   -1.10    5.80
   4   0  15  231.68   24.10
   4   0  15  224.48   17.30
   5   0  15   17.00    7.80
 -10   1  15   11.00   15.00
   9  -1 -15   10.40   12.10
  -9   1  15   54.19   18.50
  -9   1  15   74.39   18.00
   8  -1 -15    0.70    9.10
   8  -1 -15    9.10    9.40
  -8   1  15   -0.90   11.50
  -8   1  15  -12.60    9.50
   7  -1 -15   81.19   14.50
  -7   1  15   70.09   17.60
   6  -1 -15   37.50   12.00
  -6   1  15   38.50   14.20
   5  -1 -15  104.89   15.60
  -5   1  15  161.28   20.80
   4  -1 -15  100.69   15.20
  -4   1  15  118.29   17.80
   3  -1 -15   39.90   11.60
  -3   1  15   57.99   12.90
   2  -1 -15  209.88   19.60
  -2   1  15  241.28   13.00
  -2   1  15  226.58   22.60
   1  -1 -15    4.10    8.30
  -1   1  15   10.40    5.00
   0  -1 -15  316.17   23.10
   0   1  15  259.67   16.30
  -1  -1 -15   14.90   10.30
   1   1  15   21.70    6.30
   1   1  15   15.60    9.30
  -2  -1 -15  307.77   26.60
   2   1  15  288.87   24.20
   2   1  15  309.47   18.70
  -3  -1 -15  115.79   18.60
  -3  -1 -15   96.09   17.50
   3   1  15   90.99   16.70
   3   1  15   83.99   11.20
   4   1  15   75.09   19.10
   4   1  15   88.69   11.90
 -10   2  15   11.60   14.90
  -9   2  15   55.89   18.30
   8  -2 -15   44.50   12.10
  -8   2  15   69.19   18.50
   7  -2 -15   14.80   10.60
  -7   2  15   10.80   10.90
   6  -2 -15  124.89   17.10
  -6   2  15   88.89   17.70
   5  -2 -15   -5.50    8.10
  -5   2  15    7.40   10.50
   4  -2 -15  147.99   18.00
  -4   2  15  152.88   20.20
   3  -2 -15   43.50   11.00
  -3   2  15   18.20   10.00
  -3   2  15   24.90    5.40
   2  -2 -15  201.68   19.50
  -2   2  15  185.88   12.80
  -2   2  15  181.18   20.30
   1  -2 -15   73.99   13.20
  -1   2  15   63.09    8.80
   0  -2 -15  147.89   17.90
   0   2  15  130.19   12.30
  -1  -2 -15  233.38   22.80
   1   2  15  248.68   23.50
   1   2  15  235.78   16.90
  -2  -2 -15   46.20   13.40
   2   2  15   44.70   12.80
   2   2  15   50.39    9.50
   3   2  15  229.78   24.40
   3   2  15  271.67   18.90
   4   2  15    7.70    6.60
  -9   3  15    0.60   10.60
   8  -3 -15   51.79   13.10
  -8   3  15   53.69   15.40
   7  -3 -15   -4.10    9.20
  -7   3  15   -3.00   10.90
   6  -3 -15  177.98   19.60
  -6   3  15  110.69   20.40
   5  -3 -15   34.60   12.20
  -5   3  15   29.00   13.70
   4  -3 -15   69.69   13.70
  -4   3  15   83.29   16.60
   3  -3 -15   69.29   13.30
  -3   3  15   87.69   16.50
  -3   3  15   81.09    8.90
   2  -3 -15   80.19   13.80
  -2   3  15   49.90   19.80
  -2   3  15   45.00    7.90
   1  -3 -15  251.07   22.60
  -1   3  15  240.18   16.80
   0  -3 -15    3.80   10.00
   0   3  15    6.10    6.40
  -1  -3 -15  271.67   24.90
   1   3  15  337.07   25.70
   1   3  15  307.07   20.10
   2   3  15   45.90    9.60
   2   3  15   32.20   12.90
   3   3  15  100.69   12.40
  -9   4  15   -5.70   12.00
   8  -4 -15   32.20   12.50
  -8   4  15   20.50   14.70
   7  -4 -15   42.30   12.70
  -7   4  15   29.30   14.50
   6  -4 -15   43.00   12.50
  -6   4  15   26.00   13.00
   5  -4 -15  122.69   16.80
  -5   4  15  123.09   20.20
   4  -4 -15   12.40   10.30
  -4   4  15    1.50    4.90
  -4   4  15    1.20   11.10
   3  -4 -15  164.88   18.70
  -3   4  15  164.68   13.50
  -3   4  15  147.59   20.30
   2  -4 -15    7.30    9.30
  -2   4  15   18.90    7.10
   1  -4 -15  160.78   18.70
  -1   4  15  133.09   14.00
   0  -4 -15  100.89   15.90
   0   4  15   74.89   11.90
   1   4  15   48.30   10.30
   1   4  15   62.59   17.70
  -8   5  15  -14.90   10.80
  -7   5  15  129.99   22.40
  -6   5  15   12.10   12.70
  -5   5  15  110.99   20.40
  -4   5  15   59.69   15.80
  -4   5  15   37.90    7.70
  -3   5  15   62.09    9.90
  -3   5  15   49.40   15.50
  -2   5  15   91.09   12.00
  -1   5  15   18.90    8.10
   0   5  15  202.78   17.90
  -6   6  15   20.90   14.50
  -5   6  15   12.00    6.20
  -5   6  15    2.30   11.60
  -4   6  15  134.19   21.70
  -4   6  15   84.09   11.50
  -3   6  15    4.00    6.70
  -2   6  15  155.58   15.50
   1  10 -16   18.20   11.70
  -1 -10  16   18.90   15.10
   0  10 -16   33.20   14.20
   0 -10  16   38.40   16.90
  -1  10 -16   72.79   17.40
   1 -10  16   52.19   18.50
  -2  10 -16   28.10   16.20
   2 -10  16    0.80   13.80
  -3  -9  16   22.20   16.80
  -2  -9  16   18.20   15.20
  -1  -9  16  120.89   24.50
   0  -9  16   -7.70   11.70
  -1   9 -16  114.39   22.40
   1  -9  16  163.88   25.50
  -4  -8  16  -23.90   11.30
  -3  -8  16   27.30   17.10
   2   8 -16    2.80   10.00
  -2  -8  16   -5.90   12.70
   1   8 -16   78.79   16.00
  -1  -8  16   78.39   19.70
   0   8 -16   34.10   12.80
   0  -8  16   48.70   16.50
  -1   8 -16  122.99   18.10
   1  -8  16  102.29   20.50
  -2   8 -16  104.19   17.20
  -3   8 -16   -1.90    9.20
  -4   8 -16  182.88   24.90
  -6  -7  16    7.40   15.60
  -5  -7  16   53.19   20.10
   4   7 -16   21.80   11.70
  -4  -7  16   12.50   14.90
   3   7 -16  105.99   16.60
  -3  -7  16   39.40   16.30
   2   7 -16   85.89   15.50
  -2  -7  16   50.59   18.50
   1   7 -16   -2.00    9.00
  -1  -7  16   35.70   14.50
   0   7 -16  199.68   21.10
   0  -7  16  199.48   26.30
  -1   7 -16    4.00    9.40
   1  -7  16    1.70   10.20
  -2   7 -16  131.59   18.00
  -3   7 -16   39.30   12.30
  -4   7 -16  173.28   20.80
  -5   7 -16  131.69   23.20
  -7  -6  16   23.10   20.50
   6   6 -16   28.50   10.80
  -6  -6  16   38.50   17.10
   5   6 -16   15.70   10.10
   5   6 -16   16.50   11.60
  -5  -6  16   19.20   15.00
  -5  -6  16   -5.10   13.10
   4   6 -16  101.19   15.80
   4   6 -16  138.59   18.90
  -4  -6  16  104.99   20.00
  -4  -6  16  123.89   24.50
   3   6 -16    2.10    9.40
   3   6 -16   17.20   10.20
  -3  -6  16   -8.20   11.60
   2   6 -16  203.78   19.60
   2   6 -16  210.18   21.70
  -2  -6  16  162.58   25.60
   1   6 -16   54.89   12.00
   1   6 -16    5.50    8.50
  -1  -6  16   16.40   13.20
   0   6 -16  141.09   16.20
   0   6 -16  166.38   18.90
   0  -6  16  149.59   22.00
  -1   6 -16   85.89   13.90
  -1   6 -16   66.69   12.80
  -2   6 -16   20.70   10.60
  -2   6 -16   23.30   10.90
  -3   6 -16  239.98   22.70
  -3   6 -16  245.08   22.70
  -4   6 -16   41.20   13.00
   4  -6  16   12.50   12.50
  -5   6 -16  203.98   22.90
   5  -6  16  171.78   25.10
  -7  -5  16   -0.10   14.50
   6   5 -16   64.09   12.70
   6   5 -16   56.19   14.70
  -6  -5  16   47.60   19.20
  -6  -5  16   64.49   18.20
   5   5 -16   -8.70    7.40
   5   5 -16   -1.30    9.10
  -5  -5  16   14.50   14.20
  -5  -5  16    2.80   11.60
   4   5 -16  123.39   18.10
   4   5 -16  109.79   15.60
  -4  -5  16  120.79   23.40
  -4  -5  16  124.89   21.00
   3   5 -16   97.79   16.00
   3   5 -16   68.29   13.50
  -3  -5  16   76.99   18.80
   2   5 -16   54.79   12.00
   2   5 -16   53.39   12.30
  -2  -5  16   64.69   17.10
   1   5 -16  152.98   17.20
   1   5 -16  159.88   18.20
  -1  -5  16  108.69   19.90
   0   5 -16   35.30   10.30
   0   5 -16   32.40   10.10
   0  -5  16   27.70   11.90
  -1   5 -16  187.28   18.90
  -1   5 -16  251.07   21.20
  -2   5 -16   -7.10    7.60
  -2   5 -16   -2.10    8.10
   2  -5  16    4.30   10.70
  -3   5 -16  272.77   32.80
  -3   5 -16  231.08   22.30
   3  -5  16  256.87   27.70
  -4   5 -16   31.40   12.60
  -4   5 -16   20.60    9.60
   4  -5  16   27.00   14.20
  -5   5 -16  126.79   19.80
   5  -5  16  109.19   20.90
   6  -5  16  131.19   11.80
  -8  -4  16   65.49   21.50
   7   4 -16   24.30   10.00
   7   4 -16   32.60   23.10
  -7  -4  16   14.70   15.60
   6   4 -16   19.80   11.80
   6   4 -16    5.00    9.40
  -6  -4  16   47.20   18.20
  -6  -4  16    0.90   12.90
   5   4 -16   26.60   11.80
   5   4 -16   19.80   10.50
  -5  -4  16   46.00   15.10
  -5  -4  16   32.40   17.00
   4   4 -16   24.10   11.10
   4   4 -16    6.70   10.10
  -4  -4  16   11.10   11.90
  -4  -4  16   17.40   14.20
   3   4 -16  165.68   18.50
   3   4 -16  197.58   20.30
  -3  -4  16  218.08   27.70
   2   4 -16   -1.80    7.10
   2   4 -16  -13.90    7.20
  -2  -4  16    0.50   10.80
   1   4 -16  226.88   20.90
   1   4 -16  176.68   18.50
  -1  -4  16  227.78   25.00
   0   4 -16   40.70   10.70
   0   4 -16   43.50   10.20
   0  -4  16   59.99   13.80
  -1   4 -16  191.98   19.00
   1  -4  16  203.48   23.00
  -2   4 -16   94.49   15.20
   2  -4  16  169.08   21.90
  -3   4 -16  129.89   17.90
  -3   4 -16  138.89   23.90
   3  -4  16  137.79   20.80
  -4   4 -16  141.79   19.70
  -4   4 -16  179.78   19.90
   4  -4  16  190.88   24.60
   4  -4  16  222.28   13.60
   5  -4  16   -1.90    5.30
   5  -4  16    6.40   11.00
   6  -4  16  227.78   16.60
  -8  -3  16   44.30   18.80
   7   3 -16   38.90   11.30
   7   3 -16   58.89   15.70
  -7  -3  16   42.40   18.70
  -7  -3  16   41.10   15.60
   6   3 -16   25.30   10.80
   6   3 -16    9.60   10.90
  -6  -3  16   -4.70   10.30
  -6  -3  16   -6.70   12.80
   5   3 -16   85.99   15.50
   5   3 -16   91.19   15.20
  -5  -3  16   98.09   20.90
  -5  -3  16  118.49   20.10
   4   3 -16    3.70    9.40
   4   3 -16   25.50   10.60
  -4  -3  16   36.20   14.70
  -4  -3  16   20.40   11.70
   3   3 -16  130.29   16.40
   3   3 -16  120.09   16.00
  -3  -3  16  123.89   19.90
   2   3 -16   70.69   12.30
   2   3 -16   71.29   12.90
  -2  -3  16   85.79   16.70
   1   3 -16   89.59   14.00
  -1  -3  16  112.89   17.90
   0   3 -16  308.17   22.50
  -1   3 -16   12.40    9.60
   1  -3  16   32.60   11.60
  -2   3 -16  237.78   22.00
   2  -3  16  240.48   25.60
  -3   3 -16    6.80   10.10
   3  -3  16   15.70   10.20
   3  -3  16   10.90    5.30
  -4   3 -16  213.38   22.90
  -4   3 -16  207.78   22.70
   4  -3  16  217.58   24.80
   4  -3  16  231.68   15.50
   5  -3  16   61.99   15.90
   5  -3  16   70.09    9.60
   6  -3  16  124.39   12.70
  -9  -2  16   42.40   19.40
   8   2 -16    1.30   13.30
  -8  -2  16  -14.70   12.40
   7   2 -16   74.89   16.20
   7   2 -16   49.90   12.30
  -7  -2  16   78.29   20.50
  -7  -2  16   87.59   18.50
   6   2 -16   21.80   10.80
   6   2 -16    7.20   10.60
  -6  -2  16   32.70   14.70
  -6  -2  16   -1.00   10.90
   5   2 -16   37.30   11.70
   5   2 -16   23.00   10.00
  -5  -2  16   38.60   13.20
  -5  -2  16   30.20   14.60
   4   2 -16   94.89   14.70
   4   2 -16   95.99   14.90
  -4  -2  16  140.79   19.40
  -4  -2  16  152.08   21.90
   3   2 -16   50.09   12.00
   3   2 -16   45.80   10.80
  -3  -2  16   27.80   12.50
   2   2 -16  178.08   19.20
  -2  -2  16  236.78   24.10
   1   2 -16   23.80   10.20
  -1  -2  16   28.90   10.60
   0   2 -16  248.88   22.20
  -1   2 -16   49.60   12.30
   1  -2  16   63.69   13.80
  -2   2 -16  141.09   18.10
   2  -2  16  139.19   11.50
   2  -2  16  122.89   18.10
  -3   2 -16  170.18   20.60
   3  -2  16  160.08   20.80
   3  -2  16  195.68   14.40
   4  -2  16   69.49   15.20
   4  -2  16  103.49   11.30
   5  -2  16  238.78   17.50
  -9  -1  16   44.50   17.90
   8   1 -16   37.70   14.20
  -8  -1  16   60.69   19.50
  -8  -1  16   35.80   15.60
   7   1 -16   22.80   12.00
   7   1 -16    8.80   10.40
  -7  -1  16   33.00   13.80
  -7  -1  16   32.10   14.80
   6   1 -16   62.69   14.50
   6   1 -16   79.89   14.60
  -6  -1  16   66.99   15.70
  -6  -1  16   55.29   15.70
   5   1 -16  -13.10    7.50
   5   1 -16    6.40    8.60
  -5  -1  16   -7.40    9.60
  -5  -1  16   -3.10    8.20
   4   1 -16  170.68   19.20
  -4  -1  16  167.58   22.30
   3   1 -16    7.40    9.50
  -3  -1  16   18.70   10.70
   2   1 -16   84.89   14.50
  -2  -1  16   75.19   14.90
   1   1 -16  142.69   16.60
  -1  -1  16  119.79   16.30
   0   1 -16   80.79   14.00
   0  -1  16  105.69   12.70
  -1   1 -16  202.38   20.80
   1  -1  16  210.28   21.20
   1  -1  16  209.18   13.40
  -2   1 -16   -8.20    9.30
   2  -1  16   20.00    6.20
   2  -1  16    7.70    8.90
  -3   1 -16  337.97   28.30
   3  -1  16  320.27   26.20
   3  -1  16  348.47   19.70
   4  -1  16   11.30    6.50
   4  -1  16    3.30    9.90
   5  -1  16  221.88   17.50
  -9   0  16    2.80   13.00
   8   0 -16   54.59   14.30
   8   0 -16   11.30   16.40
  -8   0  16   48.30   15.60
  -8   0  16   78.09   19.50
   7   0 -16   13.90   10.00
   7   0 -16   -1.50    9.80
  -7   0  16    4.30   10.90
  -7   0  16    0.10   11.90
   6   0 -16   67.99   14.30
  -6   0  16   45.30   14.50
   5   0 -16   22.90   10.20
  -5   0  16   15.50   11.60
   4   0 -16   92.89   15.30
  -4   0  16   92.99   16.90
   3   0 -16   81.79   14.40
  -3   0  16   89.49   16.10
   2   0 -16   16.40    8.90
  -2   0  16    9.90    9.20
   1   0 -16  235.58   21.60
  -1   0  16  211.38   18.30
   0   0 -16   18.00   10.20
   0   0  16    9.20    4.90
  -1   0 -16  128.89   17.70
   1   0  16  168.08   19.40
   1   0  16  184.18   13.70
  -2   0 -16   37.60   13.50
   2   0  16   26.70   11.10
   2   0  16   47.80    8.60
   3   0  16  199.08   15.90
   3   0  16  176.78   21.80
   4   0  16  197.28   16.40
  -9   1  16   19.30   14.50
  -8   1  16   -9.50   11.30
   7  -1 -16   30.60   12.60
  -7   1  16   42.70   15.30
   6  -1 -16   19.50   11.00
  -6   1  16   17.70   11.80
   5  -1 -16  125.89   17.40
  -5   1  16  115.89   20.00
   4  -1 -16    5.70   10.20
  -4   1  16    2.70   10.10
   3  -1 -16  176.08   19.30
  -3   1  16  157.28   19.70
   2  -1 -16   60.39   13.00
  -2   1  16   51.09   13.10
   1  -1 -16  192.48   20.10
  -1   1  16  193.88   13.10
   0  -1 -16  122.59   16.80
   0   1  16  122.89   11.50
  -1  -1 -16   32.60   12.30
   1   1  16   44.60   13.80
   1   1  16   42.00    8.20
   2   1  16  209.48   22.70
   2   1  16  224.28   16.60
   3   1  16    2.30   13.50
   3   1  16   13.00    7.20
  -9   2  16   13.60   13.10
  -8   2  16   -4.90   11.80
   7  -2 -16   55.19   14.20
  -7   2  16   50.49   16.10
   6  -2 -16   24.90   11.00
  -6   2  16   21.90   12.10
   5  -2 -16   94.89   15.90
  -5   2  16  117.59   18.40
   4  -2 -16  102.99   15.80
  -4   2  16   70.49   15.00
   3  -2 -16   60.39   13.50
  -3   2  16   29.60   12.00
   2  -2 -16  154.88   18.60
  -2   2  16  161.68   12.40
   1  -2 -16   39.60   11.90
  -1   2  16   28.40    7.00
   0  -2 -16  165.68   19.10
   0   2  16  166.48   13.70
   1   2  16    3.20    5.80
   2   2  16  191.38   22.50
   2   2  16  212.48   16.90
  -8   3  16   53.09   15.90
   7  -3 -16   14.20   11.40
  -7   3  16   -3.90   11.00
   6  -3 -16   29.40   12.50
  -6   3  16   25.10   12.60
   5  -3 -16   14.00   11.30
  -5   3  16   18.10   12.00
   4  -3 -16  123.19   17.10
  -4   3  16   88.89   16.80
   3  -3 -16    1.70    9.70
  -3   3  16    7.20    5.00
  -3   3  16   -4.50    9.30
   2  -3 -16  143.69   17.60
  -2   3  16  143.69   12.30
   1  -3 -16   28.70   12.40
  -1   3  16   27.10    7.20
   0   3  16   91.39   11.40
   1   3  16  122.79   13.20
  -7   4  16   -0.50   11.20
   6  -4 -16   35.90   14.20
  -6   4  16   34.20   14.40
   5  -4 -16   22.20   10.80
  -5   4  16   15.00   12.90
   4  -4 -16   93.49   14.50
  -4   4  16   50.09   15.40
   3  -4 -16   24.40   11.00
  -3   4  16   20.40    6.70
  -2   4  16   42.90    8.60
  -1   4  16  173.88   15.00
   0   4  16   -4.20    6.30
  -6   5  16   10.20   14.30
  -5   5  16   18.60   13.60
  -4   5  16   15.90    6.10
  -4   5  16   -2.60   11.90
  -3   5  16  106.79   11.80
  -2   5  16   15.90    7.50
  -1  10 -17   -0.30   12.60
   1 -10  17   -1.90   16.60
  -2  -9  17   24.50   19.60
  -1  -9  17  -14.70   13.90
   0  -9  17   16.90   14.60
   1  -9  17   52.09   17.30
  -3  -8  17    4.70   15.50
  -2  -8  17   29.20   17.20
  -1  -8  17   82.89   21.20
   0   8 -17   20.30   15.90
   0  -8  17    2.50   13.20
  -1   8 -17   54.59   21.90
  -5  -7  17   23.50   19.10
  -4  -7  17    1.40   13.80
  -3  -7  17   45.30   18.60
   2   7 -17  -17.00    7.40
  -2  -7  17   -7.90   12.30
   1   7 -17  127.49   17.90
  -1  -7  17  106.79   21.70
   0   7 -17   28.20   12.20
   0  -7  17   18.50   12.80
  -1   7 -17   93.29   15.10
  -2   7 -17   58.89   13.70
  -3   7 -17   31.60   11.70
  -6  -6  17    7.00   20.20
   5   6 -17   81.79   16.80
  -5  -6  17   62.99   20.90
   4   6 -17   23.70   11.10
   4   6 -17   18.80   11.40
  -4  -6  17   11.50   14.50
   3   6 -17   44.10   13.00
   3   6 -17   58.89   12.40
  -3  -6  17   54.99   18.60
   2   6 -17   35.50   11.90
   2   6 -17   38.80   12.00
  -2  -6  17   41.60   15.80
   1   6 -17   76.49   15.20
   1   6 -17   76.09   13.30
  -1  -6  17   77.49   18.30
   0   6 -17  110.79   16.00
   0   6 -17  152.58   17.10
   0  -6  17  153.98   21.20
  -1   6 -17   11.20    9.30
  -1   6 -17   18.20   10.00
  -2   6 -17  183.08   19.90
  -2   6 -17  199.58   20.40
  -3   6 -17   -5.10    9.30
  -6  -5  17   39.10   19.10
   5   5 -17   51.09   14.60
   5   5 -17   51.89   13.50
  -5  -5  17   46.70   18.70
  -5  -5  17   27.50   16.00
   4   5 -17   48.90   13.00
   4   5 -17   55.49   13.50
  -4  -5  17   36.30   16.30
   3   5 -17   -6.20    8.70
   3   5 -17    4.20    9.40
  -3  -5  17   33.80   15.40
   2   5 -17  142.59   17.90
   2   5 -17  167.08   18.70
  -2  -5  17  181.68   25.40
   1   5 -17  -13.00    8.20
   1   5 -17   -7.30    8.20
  -1  -5  17    3.00   10.30
   0   5 -17  114.79   15.80
   0   5 -17  124.49   16.40
   0  -5  17  136.99   21.70
  -1   5 -17   72.69   13.20
  -2   5 -17   83.09   14.70
   2  -5  17  128.79   20.70
  -3   5 -17  104.19   15.90
   3  -5  17   94.99   18.90
   4  -5  17   12.90   12.00
  -7  -4  17  -10.10   14.10
   6   4 -17   85.99   18.80
   6   4 -17  119.19   19.10
  -6  -4  17  109.19   23.00
  -6  -4  17   69.79   28.40
   5   4 -17    9.10    9.70
   5   4 -17  -14.70    8.60
  -5  -4  17    5.00   11.70
  -5  -4  17    2.20   13.30
   4   4 -17   82.09   14.40
   4   4 -17   57.49   13.80
  -4  -4  17   87.09   18.10
  -4  -4  17   77.49   18.40
   3   4 -17   25.00   11.20
   3   4 -17   50.89   12.30
  -3  -4  17   41.10   15.40
   2   4 -17  117.49   16.30
   2   4 -17   93.49   14.60
  -2  -4  17   97.29   18.40
   1   4 -17   13.10    9.50
   1   4 -17   44.50   11.50
  -1  -4  17   46.70   13.80
   0   4 -17   61.29   13.10
  -1   4 -17  181.18   19.50
  -2   4 -17  -10.60    8.50
   2  -4  17   -1.20    9.10
  -3   4 -17  114.49   17.30
   3  -4  17  119.09   19.30
   4  -4  17    6.80   11.60
  -7  -3  17   18.20   16.40
   6   3 -17   49.00   13.50
   6   3 -17   35.50   12.30
  -6  -3  17   63.99   19.30
  -6  -3  17   63.29   16.60
   5   3 -17   42.80   12.90
   5   3 -17   19.70   11.70
  -5  -3  17   30.40   15.80
  -5  -3  17   33.00   12.70
   4   3 -17   22.70   10.60
   4   3 -17   23.50   10.40
  -4  -3  17   28.90   12.70
  -4  -3  17   40.60   15.20
   3   3 -17  135.49   16.90
   3   3 -17  143.69   18.00
  -3  -3  17  167.78   23.20
   2   3 -17   19.90   10.30
  -2  -3  17   18.10   11.50
   1   3 -17  183.18   19.30
  -1  -3  17  133.49   18.90
   0   3 -17    8.10    9.70
  -1   3 -17  208.28   20.20
  -2   3 -17   29.90   11.90
   2  -3  17   18.20   11.50
   3  -3  17  100.49   18.10
   4  -3  17  196.78   29.90
   4  -3  17  219.38   14.80
   5  -3  17   30.30    7.30
  -8  -2  17    1.60   14.40
   7   2 -17   60.29   15.60
  -7  -2  17   35.90   15.90
  -7  -2  17   51.79   17.40
   6   2 -17   -2.60    8.70
   6   2 -17   -1.30   10.50
  -6  -2  17  -12.40   10.20
  -6  -2  17    7.60   11.60
   5   2 -17   59.39   14.60
   5   2 -17   88.59   15.60
  -5  -2  17  114.49   20.80
  -5  -2  17  152.68   21.20
   4   2 -17   12.30   10.30
  -4  -2  17   -1.80   10.20
   3   2 -17  162.68   19.10
  -3  -2  17  106.99   18.60
   2   2 -17   32.60   11.40
  -2  -2  17   35.60   12.60
   1   2 -17  170.18   18.70
   0   2 -17  139.29   17.30
  -1   2 -17   20.40   10.90
  -2   2 -17  179.38   20.30
   2  -2  17  159.58   12.60
   2  -2  17  195.58   22.50
   3  -2  17   -0.40    9.80
   3  -2  17    8.80    6.00
   4  -2  17  222.88   16.10
  -8  -1  17   -8.70   13.40
   7   1 -17   72.59   16.10
  -7  -1  17   57.59   16.60
  -7  -1  17   77.89   19.60
   6   1 -17    7.80   10.70
  -6  -1  17   15.30   12.10
   5   1 -17   77.49   14.80
  -5  -1  17   64.89   16.20
   4   1 -17   82.19   14.10
  -4  -1  17   73.59   15.90
   3   1 -17   48.70   13.30
  -3  -1  17   75.59   15.30
   2   1 -17  150.68   18.20
  -2  -1  17  190.08   21.60
   1   1 -17    8.40    9.80
   0   1 -17  242.58   22.70
  -1   1 -17   -3.00   10.10
   1  -1  17   16.30    5.40
   2  -1  17  252.07   24.90
   2  -1  17  220.28   15.30
   3  -1  17   90.09   16.10
   3  -1  17  104.99   11.40
   4  -1  17   63.99    9.90
  -8   0  17   37.10   15.30
  -7   0  17   18.30   13.10
   6   0 -17   92.29   17.10
  -6   0  17   80.49   17.80
   5   0 -17   -2.50    8.80
  -5   0  17   -1.20   10.30
   4   0 -17   95.99   16.00
  -4   0  17  126.39   19.60
   3   0 -17  -12.90    8.70
  -3   0  17   15.10   10.60
   2   0 -17  152.68   18.20
  -2   0  17  157.18   19.70
   1   0 -17   24.70   11.50
   0   0 -17  113.39   16.50
   0   0  17  114.49    9.80
   1   0  17  200.48   14.60
   2   0  17   16.90    6.60
   2   0  17   29.00   11.60
   3   0  17  170.98   14.70
  -8   1  17   38.20   16.20
  -7   1  17   11.60   12.60
   6  -1 -17   89.69   16.60
  -6   1  17   61.29   16.50
   5  -1 -17    5.70   11.10
  -5   1  17   15.50   11.90
   4  -1 -17   41.80   12.90
  -4   1  17   54.79   14.50
   3  -1 -17   57.59   13.30
  -3   1  17   53.89   13.70
   2  -1 -17   35.50   12.60
   1  -1 -17  166.08   19.20
  -1   1  17  159.18   11.90
   0   1  17   -2.20    5.10
   1   1  17  238.08   16.60
   2   1  17   19.60    7.70
  -7   2  17   27.40   14.20
  -6   2  17   48.70   16.10
   5  -2 -17   60.79   15.00
  -5   2  17   32.20   14.10
   4  -2 -17    2.70   10.60
  -4   2  17    4.60   10.90
   3  -2 -17  178.68   20.00
  -3   2  17  166.48   21.70
   2  -2 -17   16.90   12.50
  -1   2  17  129.39   11.80
   0   2  17  116.19   12.20
   1   2  17   40.40    8.70
  -7   3  17   89.09   22.80
  -6   3  17   21.20   12.30
  -5   3  17   59.59   15.10
  -4   3  17   18.20   11.50
  -2   3  17   72.39    9.20
  -1   3  17   13.60    6.50
   0   3  17  157.38   14.00
  -5   4  17   16.20   11.70
  -4   4  17   70.79   16.30
  -3   4  17    4.10    8.00
  -2   4  17  116.69   11.60
  -2  -8  18   25.90   18.90
  -1  -8  18   -3.40   12.20
   0  -8  18   88.49   20.80
  -3  -7  18   20.00   15.90
  -2  -7  18   20.70   15.40
  -1  -7  18   41.70   16.10
   0  -7  18   12.90   12.50
  -4  -6  18   13.70   15.50
   3   6 -18   57.49   13.50
  -3  -6  18   73.39   20.00
   2   6 -18    5.20    9.90
   2   6 -18    0.20    9.20
  -2  -6  18  -17.00   10.60
   1   6 -18   80.29   14.40
   1   6 -18  120.69   16.20
  -1  -6  18  116.09   21.30
   0   6 -18   -4.80    8.50
   0   6 -18    4.40    8.60
  -1   6 -18   75.69   14.30
  -1   6 -18  115.99   16.00
  -5  -5  18   63.19   20.20
   4   5 -18   14.80   16.10
  -4  -5  18   -9.30   11.60
   3   5 -18   36.60   12.70
   3   5 -18   41.80   13.10
  -3  -5  18   40.10   16.60
   2   5 -18   29.70   12.00
   2   5 -18    4.20   10.00
  -2  -5  18   21.30   13.90
   1   5 -18   74.89   13.70
   1   5 -18   51.39   12.70
  -1  -5  18   64.59   15.00
   0   5 -18   74.69   14.40
  -1   5 -18   16.10   10.00
   3  -5  18    5.20   11.10
  -6  -4  18   18.40   15.60
  -5  -4  18   27.50   16.30
   4   4 -18   62.89   13.70
   4   4 -18   48.70   13.50
  -4  -4  18   44.60   16.80
   3   4 -18   14.10   10.80
   3   4 -18   19.30    9.90
  -3  -4  18   26.00   14.10
   2   4 -18  114.69   16.70
  -2  -4  18  128.99   20.80
   1   4 -18   10.70   10.20
  -1  -4  18   11.40   10.20
   0   4 -18   75.69   14.40
  -1   4 -18   23.10   10.90
   2  -4  18  111.39   18.70
   3  -4  18   78.79   20.10
  -6  -3  18   37.80   16.90
   5   3 -18    1.90   10.00
  -5  -3  18   18.20   13.20
  -5  -3  18  -14.20   10.00
   4   3 -18  111.59   17.00
   4   3 -18  106.39   17.20
  -4  -3  18  139.19   22.40
   3   3 -18   -1.70    9.30
  -3  -3  18   12.60   12.00
   2   3 -18   70.49   13.90
  -2  -3  18   77.79   16.00
   1   3 -18   36.80   11.30
   0   3 -18   58.29   13.30
   2  -3  18    3.70   12.30
  -7  -2  18  -16.70   13.20
   6   2 -18   12.70   11.80
  -6  -2  18   48.10   15.50
  -6  -2  18   45.20   18.20
  -5  -2  18    1.20   11.30
   4   2 -18   72.29   15.20
  -4  -2  18   73.39   16.40
   3   2 -18   38.70   12.40
  -3  -2  18   62.69   14.60
   2   2 -18   -4.30    9.60
  -2  -2  18   14.30   11.00
   1   2 -18   98.89   15.50
   0   2 -18   -2.60    9.90
  -7  -1  18   13.60   15.50
  -6  -1  18   16.10   12.20
  -5  -1  18   80.99   17.50
   4   1 -18   -4.00   10.90
  -4  -1  18    0.60   10.40
   3   1 -18   81.79   15.60
  -3  -1  18   96.39   17.50
   2   1 -18   33.00   11.40
  -2  -1  18   13.00   12.10
   1   1 -18  131.69   22.40
   2  -1  18  160.08   12.90
  -7   0  18   19.40   16.80
  -6   0  18   17.20   12.90
  -5   0  18   61.69   16.00
  -4   0  18   22.60   13.20
  -3   0  18   53.99   14.40
   1   0  18    7.50    5.50
  -6   1  18   24.40   13.20
  -5   1  18    6.20   11.30
  -4   1  18   74.19   16.70
  -3   1  18   -0.40    9.80
   0   1  18   49.60    8.20
  -5   2  18   18.80   12.40
  -4   2  18   54.99   14.80
  -1  -7  19   -1.40   12.50
  -3  -6  19   16.40   20.00
  -2  -6  19   55.59   17.50
  -1  -6  19   11.70   11.80
  -4  -5  19   -5.40   13.60
  -3  -5  19   46.10   16.00
  -2  -5  19    1.40   10.80
  -4  -4  19  -13.40   10.30
  -3  -4  19   58.79   16.80
  -2  -4  19    9.30   10.70
  -5  -3  19   35.50   17.00
  -4  -3  19   36.50   13.80
  -3  -3  19   30.10   12.60
  -2  -3  19   77.69   16.30
  -5  -2  19   -5.50   11.10
  -4  -2  19   49.50   14.90
  -3  -2  19   -9.80    9.30
  -5  -1  19   17.60   13.00
  -4  -1  19   58.99   16.00
  -3  -1  19   36.20   13.50
  -5   0  19   64.59   23.90
  -4   0  19   11.00   11.40
  -3   0  19  107.89   27.30
  -4   1  19   21.20   19.30

_computing_structure_solution     'SHELXT 2014/4 (Sheldrick, 2014)'
;
_shelx_hkl_checksum              95983
loop_
_space_group_symop_operation_xyz
'x, y, z'
'-x, -y, -z'
loop_
_atom_site_label
_atom_site_type_symbol
_atom_site_fract_x
_atom_site_fract_y
_atom_site_fract_z
_atom_site_U_iso_or_equiv
_atom_site_adp_type
_atom_site_occupancy
_atom_site_site_symmetry_order
_atom_site_calc_flag
_atom_site_refinement_flags_posn
_atom_site_refinement_flags_adp
_atom_site_refinement_flags_occupancy
_atom_site_disorder_assembly
_atom_site_disorder_group
W001 W 0.21870(2) 0.38556(2) 0.63933(2) 0.02285(5) Uani 1 1 d . . . . .
O4 O 1.2288(3) 0.7824(3) 1.0412(2) 0.0273(5) Uani 1 1 d . . . . .
N003 N 0.7169(3) 0.7651(3) 1.0173(2) 0.0212(5) Uani 1 1 d . . . . .
O2 O 0.0704(4) 0.2289(4) 0.3616(2) 0.0433(7) Uani 1 1 d . . . . .
C1 C 0.4872(4) 0.5599(4) 0.7792(3) 0.0194(6) Uani 1 1 d . . . . .
O1 O 0.2967(5) 0.0410(4) 0.6079(4) 0.0672(11) Uani 1 1 d . . . . .
C14 C 0.1254(4) 0.2879(5) 0.4635(3) 0.0274(7) Uani 1 1 d . . . . .
C6 C 0.6021(4) 0.4936(4) 0.8505(3) 0.0231(6) Uani 1 1 d . . . . .
H6A H 0.6474 0.4196 0.7955 0.028 Uiso 1 1 calc R U . . .
H6B H 0.5306 0.4183 0.8920 0.028 Uiso 1 1 calc R U . . .
C10 C 1.0276(4) 0.9117(4) 1.1170(3) 0.0199(6) Uani 1 1 d . . . . .
H10 H 1.1180 1.0064 1.1789 0.024 Uiso 1 1 calc R U . . .
C7 C 0.7569(4) 0.6437(4) 0.9425(3) 0.0193(6) Uani 1 1 d . . . . .
C11 C 0.8523(4) 0.8943(4) 1.1011(3) 0.0214(6) Uani 1 1 d . . . . .
H11 H 0.8261 0.9816 1.1542 0.026 Uiso 1 1 calc R U . . .
C9 C 1.0659(4) 0.7855(4) 1.0390(3) 0.0192(6) Uani 1 1 d . . . . .
C8 C 0.9278(4) 0.6495(4) 0.9499(3) 0.0203(6) Uani 1 1 d . . . . .
H8 H 0.9508 0.5618 0.8948 0.024 Uiso 1 1 calc R U . . .
C5 C 0.3563(5) 0.6191(5) 0.8167(3) 0.0324(8) Uani 1 1 d . . . . .
H5 H 0.3183 0.6132 0.8879 0.039 Uiso 1 1 calc R U . . .
C12 C 1.3765(4) 0.9261(4) 1.1266(3) 0.0303(7) Uani 1 1 d . . . . .
H12A H 1.3784 1.0382 1.1141 0.045 Uiso 1 1 calc R U . . .
H12C H 1.4866 0.9104 1.1159 0.045 Uiso 1 1 calc R U . . .
H12B H 1.3653 0.9278 1.2081 0.045 Uiso 1 1 calc R U . . .
C13 C 0.2643(5) 0.1648(5) 0.6165(4) 0.0412(10) Uani 1 1 d . . . . .
C2 C 0.5014(5) 0.5934(5) 0.6678(3) 0.0356(9) Uani 1 1 d . . . . .
H2 H 0.5792 0.5673 0.6213 0.043 Uiso 1 1 calc R U . . .
C3 C 0.3799(7) 0.6720(5) 0.6389(4) 0.0557(15) Uani 1 1 d . . . . .
H3 H 0.3610 0.7077 0.5692 0.067 Uiso 1 1 calc R U . . .
O3 O -0.1808(4) 0.2906(5) 0.6348(3) 0.0565(9) Uani 1 1 d . . . . .
C4 C 0.2920(7) 0.6883(5) 0.7301(5) 0.0593(16) Uani 1 1 d . . . . .
H4 H 0.2035 0.7379 0.7333 0.071 Uiso 1 1 calc R U . . .
C15 C -0.0355(5) 0.3210(5) 0.6326(3) 0.0353(8) Uani 1 1 d . . . . .
H H 0.133(7) 0.274(7) 0.720(5) 0.058(15) Uiso 1 1 d . . . . .
loop_
_atom_site_aniso_label
_atom_site_aniso_U_11
_atom_site_aniso_U_22
_atom_site_aniso_U_33
_atom_site_aniso_U_23
_atom_site_aniso_U_13
_atom_site_aniso_U_12
W001 0.02237(7) 0.01825(7) 0.01818(7) 0.00163(5) -0.00561(5) 0.00260(5)
O4 0.0133(10) 0.0214(10) 0.0351(13) -0.0068(9) -0.0012(9) 0.0053(9)
N003 0.0179(12) 0.0223(12) 0.0212(12) 0.0039(10) 0.0022(10) 0.0079(10)
O2 0.0311(14) 0.0619(19) 0.0213(12) -0.0071(12) -0.0023(11) 0.0153(13)
C1 0.0159(13) 0.0176(13) 0.0161(13) -0.0004(10) -0.0024(10) 0.0016(11)
O1 0.064(2) 0.0295(15) 0.091(3) 0.0039(16) -0.016(2) 0.0216(16)
C14 0.0180(15) 0.0317(16) 0.0245(16) -0.0001(13) 0.0005(12) 0.0074(13)
C6 0.0182(14) 0.0188(13) 0.0258(15) 0.0015(12) -0.0015(12) 0.0057(11)
C10 0.0217(14) 0.0194(13) 0.0156(13) 0.0025(11) 0.0028(11) 0.0064(11)
C7 0.0179(14) 0.0178(13) 0.0195(14) 0.0047(11) 0.0000(11) 0.0060(11)
C11 0.0231(15) 0.0237(14) 0.0167(13) 0.0027(11) 0.0038(11) 0.0106(12)
C9 0.0163(13) 0.0194(13) 0.0200(14) 0.0064(11) 0.0022(11) 0.0050(11)
C8 0.0200(14) 0.0176(13) 0.0213(14) 0.0013(11) 0.0023(11) 0.0088(11)
C5 0.0234(16) 0.0309(17) 0.0288(17) -0.0103(14) -0.0066(13) 0.0117(14)
C12 0.0155(15) 0.0230(15) 0.0386(19) 0.0010(14) -0.0056(13) 0.0008(12)
C13 0.034(2) 0.0244(17) 0.044(2) 0.0003(15) -0.0146(17) 0.0024(15)
C2 0.040(2) 0.0278(17) 0.0204(16) 0.0053(13) 0.0008(14) -0.0068(15)
C3 0.070(3) 0.0196(16) 0.045(2) 0.0139(17) -0.031(2) -0.0077(18)
O3 0.0347(17) 0.077(2) 0.0422(18) 0.0047(16) 0.0109(14) 0.0094(16)
C4 0.049(3) 0.0215(17) 0.076(4) -0.012(2) -0.038(3) 0.0169(18)
C15 0.033(2) 0.041(2) 0.0199(16) 0.0003(14) 0.0029(14) 0.0056(16)
loop_
_atom_type_symbol
_atom_type_description
_atom_type_scat_dispersion_real
_atom_type_scat_dispersion_imag
_atom_type_scat_source
C C 0.0033 0.0016 'International Tables Vol C Tables 4.2.6.8 and 6.1.1.4'
H H 0.0000 0.0000 'International Tables Vol C Tables 4.2.6.8 and 6.1.1.4'
N N 0.0061 0.0033 'International Tables Vol C Tables 4.2.6.8 and 6.1.1.4'
O O 0.0106 0.0060 'International Tables Vol C Tables 4.2.6.8 and 6.1.1.4'
W W -0.8490 6.8722 'International Tables Vol C Tables 4.2.6.8 and 6.1.1.4'
loop_
_geom_angle_atom_site_label_1
_geom_angle_atom_site_label_2
_geom_angle_atom_site_label_3
_geom_angle
_geom_angle_site_symmetry_1
_geom_angle_site_symmetry_3
C13 W001 C14 81.75(16) . .
C13 W001 C15 106.43(18) . .
C14 W001 C15 81.36(14) . .
C13 W001 C1 94.59(13) . .
C14 W001 C1 138.93(13) . .
C15 W001 C1 137.62(13) . .
C13 W001 C2 101.61(17) . .
C14 W001 C2 104.85(13) . .
C15 W001 C2 151.90(17) . .
C1 W001 C2 35.56(11) . .
C13 W001 C5 120.88(15) . .
C14 W001 C5 152.75(15) . .
C15 W001 C5 103.86(14) . .
C1 W001 C5 35.22(12) . .
C2 W001 C5 58.57(14) . .
C13 W001 C3 134.5(2) . .
C14 W001 C3 95.44(16) . .
C15 W001 C3 118.07(19) . .
C1 W001 C3 58.69(12) . .
C2 W001 C3 35.05(17) . .
C5 W001 C3 58.24(16) . .
C13 W001 C4 152.99(15) . .
C14 W001 C4 118.73(18) . .
C15 W001 C4 94.65(18) . .
C1 W001 C4 58.44(13) . .
C2 W001 C4 58.07(18) . .
C5 W001 C4 35.05(15) . .
C3 W001 C4 34.6(2) . .
C13 W001 H 68.0(19) . .
C14 W001 H 118.4(19) . .
C15 W001 H 59.8(19) . .
C1 W001 H 97.2(19) . .
C2 W001 H 132.3(19) . .
C5 W001 H 86.2(19) . .
C3 W001 H 143.7(19) . .
C4 W001 H 110.8(19) . .
C9 O4 C12 118.0(3) . .
C11 N003 C7 116.4(3) . .
C5 C1 C2 107.2(3) . .
C5 C1 C6 125.8(3) . .
C2 C1 C6 126.8(3) . .
C5 C1 W001 72.36(17) . .
C2 C1 W001 72.28(19) . .
C6 C1 W001 125.8(2) . .
O2 C14 W001 179.1(4) . .
C1 C6 C7 111.9(2) . .
C1 C6 H6A 109.2 . .
C7 C6 H6A 109.2 . .
C1 C6 H6B 109.2 . .
C7 C6 H6B 109.2 . .
H6A C6 H6B 107.9 . .
C9 C10 C11 117.3(3) . .
C9 C10 H10 121.4 . .
C11 C10 H10 121.4 . .
N003 C7 C8 122.9(3) . .
N003 C7 C6 116.2(3) . .
C8 C7 C6 120.9(3) . .
N003 C11 C10 125.4(3) . .
N003 C11 H11 117.3 . .
C10 C11 H11 117.3 . .
O4 C9 C10 125.2(3) . .
O4 C9 C8 116.0(3) . .
C10 C9 C8 118.8(3) . .
C7 C8 C9 119.2(3) . .
C7 C8 H8 120.4 . .
C9 C8 H8 120.4 . .
C4 C5 C1 108.1(4) . .
C4 C5 W001 72.9(2) . .
C1 C5 W001 72.42(18) . .
C4 C5 H5 125.9 . .
C1 C5 H5 125.9 . .
W001 C5 H5 120.5 . .
O4 C12 H12A 109.5 . .
O4 C12 H12C 109.5 . .
H12A C12 H12C 109.5 . .
O4 C12 H12B 109.5 . .
H12A C12 H12B 109.5 . .
H12C C12 H12B 109.5 . .
O1 C13 W001 176.8(4) . .
C3 C2 C1 107.9(4) . .
C3 C2 W001 72.7(2) . .
C1 C2 W001 72.15(19) . .
C3 C2 H2 126.1 . .
C1 C2 H2 126.1 . .
W001 C2 H2 120.9 . .
C4 C3 C2 108.3(4) . .
C4 C3 W001 72.8(2) . .
C2 C3 W001 72.2(2) . .
C4 C3 H3 125.9 . .
C2 C3 H3 125.9 . .
W001 C3 H3 120.9 . .
C3 C4 C5 108.6(4) . .
C3 C4 W001 72.6(2) . .
C5 C4 W001 72.1(2) . .
C3 C4 H4 125.7 . .
C5 C4 H4 125.7 . .
W001 C4 H4 121.3 . .
O3 C15 W001 176.1(3) . .
loop_
_geom_bond_atom_site_label_1
_geom_bond_atom_site_label_2
_geom_bond_distance
_geom_bond_site_symmetry_2
W001 C13 1.969(4) .
W001 C14 1.975(3) .
W001 C15 1.972(4) .
W001 C1 2.333(3) .
W001 C2 2.335(4) .
W001 C5 2.332(3) .
W001 C3 2.341(4) .
W001 C4 2.343(4) .
W001 H 1.57(5) .
O4 C9 1.348(4) .
O4 C12 1.437(4) .
N003 C11 1.335(4) .
N003 C7 1.345(4) .
O2 C14 1.147(4) .
C1 C5 1.411(5) .
C1 C2 1.426(5) .
C1 C6 1.496(4) .
O1 C13 1.138(5) .
C6 C7 1.515(4) .
C6 H6A 0.9900 .
C6 H6B 0.9900 .
C10 C9 1.383(4) .
C10 C11 1.384(4) .
C10 H10 0.9500 .
C7 C8 1.383(4) .
C11 H11 0.9500 .
C9 C8 1.394(4) .
C8 H8 0.9500 .
C5 C4 1.408(6) .
C5 H5 0.9500 .
C12 H12A 0.9800 .
C12 H12C 0.9800 .
C12 H12B 0.9800 .
C2 C3 1.408(7) .
C2 H2 0.9500 .
C3 C4 1.393(8) .
C3 H3 0.9500 .
O3 C15 1.147(5) .
C4 H4 0.9500 .
